# generated using pymatgen
data_ZnH22C20(NO2)2
_symmetry_space_group_name_H-M   'P 1'
_cell_length_a   7.88913000
_cell_length_b   8.01076000
_cell_length_c   14.81970000
_cell_angle_alpha   90.00110000
_cell_angle_beta   90.00110000
_cell_angle_gamma   87.13890000
_symmetry_Int_Tables_number   1
_chemical_formula_structural   ZnH22C20(NO2)2
_chemical_formula_sum   'Zn2 H44 C40 N4 O8'
_cell_volume   935.40685685
_cell_formula_units_Z   2
loop_
 _symmetry_equiv_pos_site_id
 _symmetry_equiv_pos_as_xyz
  1  'x, y, z'
loop_
 _atom_site_type_symbol
 _atom_site_label
 _atom_site_symmetry_multiplicity
 _atom_site_fract_x
 _atom_site_fract_y
 _atom_site_fract_z
 _atom_site_occupancy
  Zn  Zn0  1  0.02743000  0.77656000  0.00007000  1.0
  Zn  Zn1  1  0.97255000  0.22344000  0.50007000  1.0
  H  H2  1  0.39960000  0.63648000  0.24014000  1.0
  H  H3  1  0.60042000  0.36350000  0.74014000  1.0
  H  H4  1  0.31668000  0.44227000  0.21203000  1.0
  H  H5  1  0.68335000  0.55771000  0.71202000  1.0
  H  H6  1  0.24210000  0.55142000  0.31054000  1.0
  H  H7  1  0.75790000  0.44858000  0.81053000  1.0
  H  H8  1  0.99642000  0.71718000  0.29685000  1.0
  H  H9  1  0.00359000  0.28282000  0.79686000  1.0
  H  H10  1  0.61674000  0.88042000  0.20469000  1.0
  H  H11  1  0.38327000  0.11959000  0.70467000  1.0
  H  H12  1  0.73616000  0.04275000  0.24892000  1.0
  H  H13  1  0.26383000  0.95724000  0.74890000  1.0
  H  H14  1  0.73340000  0.84845000  0.30758000  1.0
  H  H15  1  0.26661000  0.15156000  0.80758000  1.0
  H  H16  1  0.31760000  0.46810000  0.78179000  1.0
  H  H17  1  0.68242000  0.53190000  0.28178000  1.0
  H  H18  1  0.36306000  0.66716000  0.73805000  1.0
  H  H19  1  0.63697000  0.33282000  0.23805000  1.0
  H  H20  1  0.20465000  0.55097000  0.68536000  1.0
  H  H21  1  0.79537000  0.44904000  0.18535000  1.0
  H  H22  1  0.98092000  0.74750000  0.70237000  1.0
  H  H23  1  0.01907000  0.25251000  0.20236000  1.0
  H  H24  1  0.68949000  0.06325000  0.78986000  1.0
  H  H25  1  0.31049000  0.93677000  0.28987000  1.0
  H  H26  1  0.61425000  0.86036000  0.77393000  1.0
  H  H27  1  0.38575000  0.13965000  0.27393000  1.0
  H  H28  1  0.75333000  0.94339000  0.69294000  1.0
  H  H29  1  0.24663000  0.05662000  0.19294000  1.0
  H  H30  1  0.04759000  0.14905000  0.05254000  1.0
  H  H31  1  0.95241000  0.85096000  0.55253000  1.0
  H  H32  1  0.25445000  0.37444000  0.05349000  1.0
  H  H33  1  0.74556000  0.62556000  0.55348000  1.0
  H  H34  1  0.62733000  0.00614000  0.94924000  1.0
  H  H35  1  0.37266000  0.99387000  0.44923000  1.0
  H  H36  1  0.39645000  0.80746000  0.94275000  1.0
  H  H37  1  0.60356000  0.19253000  0.44275000  1.0
  H  H38  1  0.42183000  0.54954000  0.04462000  1.0
  H  H39  1  0.57818000  0.45044000  0.54461000  1.0
  H  H40  1  0.64983000  0.75071000  0.04424000  1.0
  H  H41  1  0.35016000  0.24929000  0.54423000  1.0
  H  H42  1  0.00915000  0.39663000  0.95703000  1.0
  H  H43  1  0.99084000  0.60336000  0.45702000  1.0
  H  H44  1  0.80259000  0.17118000  0.95848000  1.0
  H  H45  1  0.19740000  0.82881000  0.45847000  1.0
  C  C46  1  0.28331000  0.56596000  0.24064000  1.0
  C  C47  1  0.71670000  0.43403000  0.74064000  1.0
  C  C48  1  0.15129000  0.65735000  0.18261000  1.0
  C  C49  1  0.84872000  0.34264000  0.68262000  1.0
  C  C50  1  0.01011000  0.73878000  0.22476000  1.0
  C  C51  1  0.98989000  0.26123000  0.72476000  1.0
  C  C52  1  0.88467000  0.84589000  0.18413000  1.0
  C  C53  1  0.11533000  0.15412000  0.68413000  1.0
  C  C54  1  0.73441000  0.90659000  0.24067000  1.0
  C  C55  1  0.26560000  0.09341000  0.74066000  1.0
  C  C56  1  0.26046000  0.58152000  0.75057000  1.0
  C  C57  1  0.73956000  0.41849000  0.25056000  1.0
  C  C58  1  0.13231000  0.66515000  0.81397000  1.0
  C  C59  1  0.86769000  0.33485000  0.31396000  1.0
  C  C60  1  0.99303000  0.75665000  0.77533000  1.0
  C  C61  1  0.00698000  0.24338000  0.27533000  1.0
  C  C62  1  0.87137000  0.86204000  0.81962000  1.0
  C  C63  1  0.12862000  0.13798000  0.31963000  1.0
  C  C64  1  0.72487000  0.93746000  0.76506000  1.0
  C  C65  1  0.27511000  0.06255000  0.26506000  1.0
  C  C66  1  0.17678000  0.12591000  0.02777000  1.0
  C  C67  1  0.82322000  0.87410000  0.52776000  1.0
  C  C68  1  0.29429000  0.24974000  0.02963000  1.0
  C  C69  1  0.70570000  0.75026000  0.52964000  1.0
  C  C70  1  0.46179000  0.21154000  0.00125000  1.0
  C  C71  1  0.53820000  0.78845000  0.50125000  1.0
  C  C72  1  0.50010000  0.04755000  0.97123000  1.0
  C  C73  1  0.49988000  0.95245000  0.47123000  1.0
  C  C74  1  0.37271000  0.93393000  0.96856000  1.0
  C  C75  1  0.62728000  0.06607000  0.46855000  1.0
  C  C76  1  0.59143000  0.33885000  0.00198000  1.0
  C  C77  1  0.40857000  0.66114000  0.50197000  1.0
  C  C78  1  0.55017000  0.50601000  0.02542000  1.0
  C  C79  1  0.44984000  0.49398000  0.52540000  1.0
  C  C80  1  0.67653000  0.62083000  0.02498000  1.0
  C  C81  1  0.32347000  0.37917000  0.52496000  1.0
  C  C82  1  0.87783000  0.42249000  0.97774000  1.0
  C  C83  1  0.12216000  0.57751000  0.47773000  1.0
  C  C84  1  0.76086000  0.29807000  0.97792000  1.0
  C  C85  1  0.23915000  0.70192000  0.47790000  1.0
  N  N86  1  0.21339000  0.97081000  0.99678000  1.0
  N  N87  1  0.78660000  0.02919000  0.49678000  1.0
  N  N88  1  0.83819000  0.58132000  0.00166000  1.0
  N  N89  1  0.16180000  0.41869000  0.50165000  1.0
  O  O90  1  0.18086000  0.65409000  0.09748000  1.0
  O  O91  1  0.81915000  0.34588000  0.59748000  1.0
  O  O92  1  0.88532000  0.89819000  0.10246000  1.0
  O  O93  1  0.11469000  0.10184000  0.60245000  1.0
  O  O94  1  0.16451000  0.64928000  0.89832000  1.0
  O  O95  1  0.83547000  0.35068000  0.39830000  1.0
  O  O96  1  0.87083000  0.89885000  0.90380000  1.0
  O  O97  1  0.12915000  0.10115000  0.40380000  1.0
