# generated using pymatgen
data_Zn4H30C36O13F2
_symmetry_space_group_name_H-M   'P 1'
_cell_length_a   17.78280000
_cell_length_b   18.64510000
_cell_length_c   23.45973122
_cell_angle_alpha   66.60182362
_cell_angle_beta   69.51153203
_cell_angle_gamma   89.92980000
_symmetry_Int_Tables_number   1
_chemical_formula_structural   Zn4H30C36O13F2
_chemical_formula_sum   'Zn8 H60 C72 O26 F4'
_cell_volume   6600.71731577
_cell_formula_units_Z   2
loop_
 _symmetry_equiv_pos_site_id
 _symmetry_equiv_pos_as_xyz
  1  'x, y, z'
loop_
 _atom_site_type_symbol
 _atom_site_label
 _atom_site_symmetry_multiplicity
 _atom_site_fract_x
 _atom_site_fract_y
 _atom_site_fract_z
 _atom_site_occupancy
  Zn  Zn0  1  0.88137000  0.47337000  0.05737000  1.0
  Zn  Zn1  1  0.02892000  0.61018000  0.94798000  1.0
  Zn  Zn2  1  0.02327000  0.43778000  0.95114000  1.0
  Zn  Zn3  1  0.06028000  0.46494000  0.06640000  1.0
  Zn  Zn4  1  0.61482000  0.02686000  0.95152000  1.0
  Zn  Zn5  1  0.47075000  0.05363000  0.06228000  1.0
  Zn  Zn6  1  0.47500000  0.88275000  0.06417000  1.0
  Zn  Zn7  1  0.43354000  0.02287000  0.94870000  1.0
  H  H8  1  0.50571000  0.13064000  0.73989000  1.0
  H  H9  1  0.56455000  0.19335000  0.61462000  1.0
  H  H10  1  0.80568000  0.18802000  0.61973000  1.0
  H  H11  1  0.67946000  0.30561000  0.38997000  1.0
  H  H12  1  0.98002000  0.36177000  0.27423000  1.0
  H  H13  1  0.91846000  0.29931000  0.39944000  1.0
  H  H14  1  0.37333000  0.75433000  0.26957000  1.0
  H  H15  1  0.30379000  0.68908000  0.39446000  1.0
  H  H16  1  0.29829000  0.92094000  0.39533000  1.0
  H  H17  1  0.19034000  0.57590000  0.61402000  1.0
  H  H18  1  0.13030000  0.73780000  0.74435000  1.0
  H  H19  1  0.18756000  0.80561000  0.61909000  1.0
  H  H20  1  0.80063000  0.21309000  0.08935000  1.0
  H  H21  1  0.87284000  0.21732000  0.01312000  1.0
  H  H22  1  0.78336000  0.12293000  0.01594000  1.0
  H  H23  1  0.71148000  0.11983000  0.09182000  1.0
  H  H24  1  0.78401000  0.21964000  0.90493000  1.0
  H  H25  1  0.71199000  0.28481000  0.90094000  1.0
  H  H26  1  0.87247000  0.31530000  0.90208000  1.0
  H  H27  1  0.79904000  0.37901000  0.89959000  1.0
  H  H28  1  0.69601000  0.30566000  0.08640000  1.0
  H  H29  1  0.69548000  0.37429000  0.00927000  1.0
  H  H30  1  0.60714000  0.28100000  0.00991000  1.0
  H  H31  1  0.60650000  0.21302000  0.08766000  1.0
  H  H32  1  0.10951000  0.70542000  0.09474000  1.0
  H  H33  1  0.11253000  0.77227000  0.01501000  1.0
  H  H34  1  0.20189000  0.86578000  0.01333000  1.0
  H  H35  1  0.19850000  0.79820000  0.09297000  1.0
  H  H36  1  0.30556000  0.86726000  0.90811000  1.0
  H  H37  1  0.37767000  0.80214000  0.91152000  1.0
  H  H38  1  0.21768000  0.77264000  0.90936000  1.0
  H  H39  1  0.28959000  0.70743000  0.91449000  1.0
  H  H40  1  0.21078000  0.60994000  0.10256000  1.0
  H  H41  1  0.28394000  0.60964000  0.02937000  1.0
  H  H42  1  0.37389000  0.70359000  0.02635000  1.0
  H  H43  1  0.30115000  0.70300000  0.09999000  1.0
  H  H44  1  0.83841000  0.73051000  0.06214000  1.0
  H  H45  1  0.75448000  0.65325000  0.10268000  1.0
  H  H46  1  0.66617000  0.74576000  0.10634000  1.0
  H  H47  1  0.75059000  0.82267000  0.06493000  1.0
  H  H48  1  0.60593000  0.70422000  0.03960000  1.0
  H  H49  1  0.64663000  0.75224000  0.95096000  1.0
  H  H50  1  0.69536000  0.61232000  0.03510000  1.0
  H  H51  1  0.73609000  0.66167000  0.94650000  1.0
  H  H52  1  0.89849000  0.80113000  0.93435000  1.0
  H  H53  1  0.85717000  0.77262000  0.88717000  1.0
  H  H54  1  0.76737000  0.86386000  0.89073000  1.0
  H  H55  1  0.80934000  0.89298000  0.93719000  1.0
  H  H56  1  0.10108000  0.19758000  0.07116000  1.0
  H  H57  1  0.14625000  0.22746000  0.11622000  1.0
  H  H58  1  0.23197000  0.13269000  0.11359000  1.0
  H  H59  1  0.18781000  0.10479000  0.06706000  1.0
  H  H60  1  0.35220000  0.24220000  0.05409000  1.0
  H  H61  1  0.39492000  0.29031000  0.96550000  1.0
  H  H62  1  0.26555000  0.33695000  0.05529000  1.0
  H  H63  1  0.30795000  0.38354000  0.96671000  1.0
  H  H64  1  0.16085000  0.26363000  0.94356000  1.0
  H  H65  1  0.24405000  0.34069000  0.90027000  1.0
  H  H66  1  0.33367000  0.24923000  0.89802000  1.0
  H  H67  1  0.25026000  0.17247000  0.93907000  1.0
  C  C68  1  0.85933000  0.63908000  0.99535000  1.0
  C  C69  1  0.09234000  0.58417000  0.82481000  1.0
  C  C70  1  0.85432000  0.36510000  0.99941000  1.0
  C  C71  1  0.13953000  0.35601000  0.01129000  1.0
  C  C72  1  0.90706000  0.40602000  0.18648000  1.0
  C  C73  1  0.13878000  0.63205000  0.01115000  1.0
  C  C74  1  0.63837000  0.13942000  0.00353000  1.0
  C  C75  1  0.41721000  0.90744000  0.18756000  1.0
  C  C76  1  0.64315000  0.86080000  0.00294000  1.0
  C  C77  1  0.35653000  0.85688000  0.00743000  1.0
  C  C78  1  0.58206000  0.08862000  0.82560000  1.0
  C  C79  1  0.35323000  0.13127000  0.00711000  1.0
  C  C80  1  0.62053000  0.12487000  0.75054000  1.0
  C  C81  1  0.57137000  0.14406000  0.71244000  1.0
  C  C82  1  0.60411000  0.17884000  0.64277000  1.0
  C  C83  1  0.68945000  0.19575000  0.60766000  1.0
  C  C84  1  0.73972000  0.17639000  0.64479000  1.0
  C  C85  1  0.70522000  0.14191000  0.71442000  1.0
  C  C86  1  0.72504000  0.23127000  0.53655000  1.0
  C  C87  1  0.75764000  0.26195000  0.47531000  1.0
  C  C88  1  0.79439000  0.29761000  0.40426000  1.0
  C  C89  1  0.74554000  0.31723000  0.36592000  1.0
  C  C90  1  0.78156000  0.35199000  0.29632000  1.0
  C  C91  1  0.86651000  0.36889000  0.26141000  1.0
  C  C92  1  0.91420000  0.34888000  0.30075000  1.0
  C  C93  1  0.87994000  0.31415000  0.37038000  1.0
  C  C94  1  0.37592000  0.87242000  0.26220000  1.0
  C  C95  1  0.35650000  0.78952000  0.29835000  1.0
  C  C96  1  0.31779000  0.75336000  0.36763000  1.0
  C  C97  1  0.29626000  0.80003000  0.40414000  1.0
  C  C98  1  0.31436000  0.88307000  0.36897000  1.0
  C  C99  1  0.35352000  0.91757000  0.29961000  1.0
  C  C100  1  0.25819000  0.76420000  0.47499000  1.0
  C  C101  1  0.22706000  0.73288000  0.53625000  1.0
  C  C102  1  0.19318000  0.69594000  0.60726000  1.0
  C  C103  1  0.17750000  0.61278000  0.64140000  1.0
  C  C104  1  0.14568000  0.57682000  0.71106000  1.0
  C  C105  1  0.12782000  0.62055000  0.74982000  1.0
  C  C106  1  0.14395000  0.70363000  0.71461000  1.0
  C  C107  1  0.17569000  0.74123000  0.64508000  1.0
  C  C108  1  0.80924000  0.22211000  0.03804000  1.0
  C  C109  1  0.74996000  0.15978000  0.03969000  1.0
  C  C110  1  0.69500000  0.20169000  0.00216000  1.0
  C  C111  1  0.75025000  0.25613000  0.92886000  1.0
  C  C112  1  0.80871000  0.31889000  0.92751000  1.0
  C  C113  1  0.79429000  0.30663000  0.99982000  1.0
  C  C114  1  0.70579000  0.31380000  0.03521000  1.0
  C  C115  1  0.64695000  0.25210000  0.03604000  1.0
  C  C116  1  0.15066000  0.74325000  0.04284000  1.0
  C  C117  1  0.21003000  0.80524000  0.04165000  1.0
  C  C118  1  0.29896000  0.79508000  0.00875000  1.0
  C  C119  1  0.31398000  0.80691000  0.93646000  1.0
  C  C120  1  0.25530000  0.74438000  0.93783000  1.0
  C  C121  1  0.19891000  0.69045000  0.01096000  1.0
  C  C122  1  0.25088000  0.64867000  0.05071000  1.0
  C  C123  1  0.31044000  0.71063000  0.04900000  1.0
  C  C124  1  0.78166000  0.71099000  0.05974000  1.0
  C  C125  1  0.72300000  0.77217000  0.06193000  1.0
  C  C126  1  0.70265000  0.80264000  0.99817000  1.0
  C  C127  1  0.66290000  0.73104000  0.99543000  1.0
  C  C128  1  0.72220000  0.67041000  0.99262000  1.0
  C  C129  1  0.80221000  0.70010000  0.99410000  1.0
  C  C130  1  0.84107000  0.78046000  0.93381000  1.0
  C  C131  1  0.78187000  0.84116000  0.93599000  1.0
  C  C132  1  0.15949000  0.21786000  0.07060000  1.0
  C  C133  1  0.21707000  0.15562000  0.06856000  1.0
  C  C134  1  0.29698000  0.19305000  0.00580000  1.0
  C  C135  1  0.33712000  0.26406000  0.00917000  1.0
  C  C136  1  0.27933000  0.32633000  0.01016000  1.0
  C  C137  1  0.19934000  0.29762000  0.00834000  1.0
  C  C138  1  0.21808000  0.28379000  0.94460000  1.0
  C  C139  1  0.27689000  0.22292000  0.94258000  1.0
  O  O140  1  0.99949000  0.49663000  0.00685000  1.0
  O  O141  1  0.82928000  0.56825000  0.03957000  1.0
  O  O142  1  0.08380000  0.63221000  0.85238000  1.0
  O  O143  1  0.92888000  0.37212000  0.96261000  1.0
  O  O144  1  0.93284000  0.66319000  0.95363000  1.0
  O  O145  1  0.82652000  0.40131000  0.03657000  1.0
  O  O146  1  0.07310000  0.50917000  0.85511000  1.0
  O  O147  1  0.09882000  0.36638000  0.97430000  1.0
  O  O148  1  0.98488000  0.41852000  0.16193000  1.0
  O  O149  1  0.13305000  0.38861000  0.05118000  1.0
  O  O150  1  0.86102000  0.42193000  0.15350000  1.0
  O  O151  1  0.10069000  0.66190000  0.97219000  1.0
  O  O152  1  0.13038000  0.55901000  0.04982000  1.0
  O  O153  1  0.49771000  0.99611000  0.00553000  1.0
  O  O154  1  0.67112000  0.09691000  0.97310000  1.0
  O  O155  1  0.44290000  0.98163000  0.15704000  1.0
  O  O156  1  0.57251000  0.83238000  0.04952000  1.0
  O  O157  1  0.56239000  0.13387000  0.03516000  1.0
  O  O158  1  0.66809000  0.93302000  0.96091000  1.0
  O  O159  1  0.42348000  0.85927000  0.16027000  1.0
  O  O160  1  0.39700000  0.83133000  0.04477000  1.0
  O  O161  1  0.50506000  0.06599000  0.85200000  1.0
  O  O162  1  0.35957000  0.92938000  0.96931000  1.0
  O  O163  1  0.62893000  0.08392000  0.85687000  1.0
  O  O164  1  0.37863000  0.10861000  0.05517000  1.0
  O  O165  1  0.37031000  0.10633000  0.96137000  1.0
  F  F166  1  0.75791000  0.12432000  0.74621000  1.0
  F  F167  1  0.73005000  0.36900000  0.26342000  1.0
  F  F168  1  0.36856000  0.99775000  0.26925000  1.0
  F  F169  1  0.13304000  0.49663000  0.74023000  1.0
