# generated using pymatgen
data_CoH16C24(NO2)2
_symmetry_space_group_name_H-M   'P 1'
_cell_length_a   12.66640000
_cell_length_b   22.69360000
_cell_length_c   22.69360000
_cell_angle_alpha   89.99980000
_cell_angle_beta   90.00000000
_cell_angle_gamma   90.00000000
_symmetry_Int_Tables_number   1
_chemical_formula_structural   CoH16C24(NO2)2
_chemical_formula_sum   'Co8 H128 C192 N16 O32'
_cell_volume   6523.18942559
_cell_formula_units_Z   8
loop_
 _symmetry_equiv_pos_site_id
 _symmetry_equiv_pos_as_xyz
  1  'x, y, z'
loop_
 _atom_site_type_symbol
 _atom_site_label
 _atom_site_symmetry_multiplicity
 _atom_site_fract_x
 _atom_site_fract_y
 _atom_site_fract_z
 _atom_site_occupancy
  Co  Co0  1  0.74582000  0.25810000  0.74119000  1.0
  Co  Co1  1  0.74582000  0.74189000  0.25881000  1.0
  Co  Co2  1  0.74582000  0.75881000  0.75810000  1.0
  Co  Co3  1  0.74582000  0.24119000  0.24189000  1.0
  Co  Co4  1  0.25418000  0.24189000  0.24119000  1.0
  Co  Co5  1  0.25418000  0.75811000  0.75881000  1.0
  Co  Co6  1  0.25418000  0.74119000  0.25811000  1.0
  Co  Co7  1  0.25418000  0.25881000  0.74189000  1.0
  H  H8  1  0.22691000  0.65110000  0.68349000  1.0
  H  H9  1  0.22691000  0.34890000  0.31651000  1.0
  H  H10  1  0.22691000  0.81651000  0.15110000  1.0
  H  H11  1  0.22691000  0.18349000  0.84890000  1.0
  H  H12  1  0.77309000  0.84890000  0.18349000  1.0
  H  H13  1  0.77309000  0.15110000  0.81651000  1.0
  H  H14  1  0.77309000  0.68349000  0.65110000  1.0
  H  H15  1  0.77309000  0.31651000  0.34890000  1.0
  H  H16  1  0.32712000  0.55930000  0.66240000  1.0
  H  H17  1  0.32712000  0.44071000  0.33760000  1.0
  H  H18  1  0.32712000  0.83760000  0.05929000  1.0
  H  H19  1  0.32712000  0.16240000  0.94071000  1.0
  H  H20  1  0.67288000  0.94071000  0.16240000  1.0
  H  H21  1  0.67288000  0.05929000  0.83760000  1.0
  H  H22  1  0.67288000  0.66240000  0.55929000  1.0
  H  H23  1  0.67288000  0.33760000  0.44071000  1.0
  H  H24  1  0.57204000  0.62499000  0.77849000  1.0
  H  H25  1  0.57204000  0.37501000  0.22151000  1.0
  H  H26  1  0.57204000  0.72151000  0.12499000  1.0
  H  H27  1  0.57204000  0.27849000  0.87501000  1.0
  H  H28  1  0.42796000  0.87501000  0.27849000  1.0
  H  H29  1  0.42796000  0.12499000  0.72151000  1.0
  H  H30  1  0.42796000  0.77849000  0.62499000  1.0
  H  H31  1  0.42796000  0.22151000  0.37501000  1.0
  H  H32  1  0.46440000  0.71419000  0.79264000  1.0
  H  H33  1  0.46440000  0.28581000  0.20736000  1.0
  H  H34  1  0.46440000  0.70736000  0.21419000  1.0
  H  H35  1  0.46440000  0.29264000  0.78581000  1.0
  H  H36  1  0.53560000  0.78581000  0.29264000  1.0
  H  H37  1  0.53560000  0.21419000  0.70736000  1.0
  H  H38  1  0.53560000  0.79264000  0.71419000  1.0
  H  H39  1  0.53560000  0.20736000  0.28581000  1.0
  H  H40  1  0.37861000  0.47334000  0.69646000  1.0
  H  H41  1  0.37861000  0.52666000  0.30354000  1.0
  H  H42  1  0.37861000  0.80354000  0.97334000  1.0
  H  H43  1  0.37861000  0.19646000  0.02666000  1.0
  H  H44  1  0.62139000  0.02666000  0.19646000  1.0
  H  H45  1  0.62139000  0.97334000  0.80354000  1.0
  H  H46  1  0.62139000  0.69646000  0.47334000  1.0
  H  H47  1  0.62139000  0.30354000  0.52666000  1.0
  H  H48  1  0.47628000  0.37848000  0.69671000  1.0
  H  H49  1  0.47628000  0.62152000  0.30329000  1.0
  H  H50  1  0.47628000  0.80329000  0.87848000  1.0
  H  H51  1  0.47628000  0.19671000  0.12152000  1.0
  H  H52  1  0.52372000  0.12152000  0.19671000  1.0
  H  H53  1  0.52372000  0.87848000  0.80329000  1.0
  H  H54  1  0.52372000  0.69671000  0.37848000  1.0
  H  H55  1  0.52372000  0.30329000  0.62152000  1.0
  H  H56  1  0.76684000  0.47133000  0.72700000  1.0
  H  H57  1  0.76684000  0.52867000  0.27300000  1.0
  H  H58  1  0.76684000  0.77300000  0.97133000  1.0
  H  H59  1  0.76684000  0.22700000  0.02867000  1.0
  H  H60  1  0.23316000  0.02867000  0.22700000  1.0
  H  H61  1  0.23316000  0.97133000  0.77300000  1.0
  H  H62  1  0.23316000  0.72700000  0.47133000  1.0
  H  H63  1  0.23316000  0.27300000  0.52867000  1.0
  H  H64  1  0.67015000  0.56659000  0.72921000  1.0
  H  H65  1  0.67015000  0.43341000  0.27079000  1.0
  H  H66  1  0.67015000  0.77079000  0.06659000  1.0
  H  H67  1  0.67015000  0.22921000  0.93341000  1.0
  H  H68  1  0.32985000  0.93341000  0.22921000  1.0
  H  H69  1  0.32985000  0.06659000  0.77079000  1.0
  H  H70  1  0.32985000  0.72921000  0.56659000  1.0
  H  H71  1  0.32985000  0.27079000  0.43341000  1.0
  H  H72  1  0.32270000  0.25829000  0.11565000  1.0
  H  H73  1  0.32271000  0.74171000  0.88435000  1.0
  H  H74  1  0.32270000  0.38435000  0.75829000  1.0
  H  H75  1  0.32271000  0.61565000  0.24171000  1.0
  H  H76  1  0.67730000  0.24171000  0.61565000  1.0
  H  H77  1  0.67730000  0.75829000  0.38435000  1.0
  H  H78  1  0.67729000  0.11565000  0.25829000  1.0
  H  H79  1  0.67729000  0.88435000  0.74171000  1.0
  H  H80  1  0.23424000  0.26909000  0.01850000  1.0
  H  H81  1  0.23424000  0.73091000  0.98150000  1.0
  H  H82  1  0.23424000  0.48150000  0.76909000  1.0
  H  H83  1  0.23424000  0.51850000  0.23091000  1.0
  H  H84  1  0.76576000  0.23091000  0.51850000  1.0
  H  H85  1  0.76576000  0.76909000  0.48150000  1.0
  H  H86  1  0.76576000  0.01850000  0.26909000  1.0
  H  H87  1  0.76576000  0.98150000  0.73091000  1.0
  H  H88  1  0.93592000  0.27356000  0.11210000  1.0
  H  H89  1  0.93593000  0.72644000  0.88790000  1.0
  H  H90  1  0.93593000  0.38790000  0.77356000  1.0
  H  H91  1  0.93592000  0.61210000  0.22644000  1.0
  H  H92  1  0.06408000  0.22644000  0.61210000  1.0
  H  H93  1  0.06408000  0.77356000  0.38790000  1.0
  H  H94  1  0.06407000  0.11210000  0.27356000  1.0
  H  H95  1  0.06407000  0.88790000  0.72644000  1.0
  H  H96  1  0.03679000  0.26756000  0.20477000  1.0
  H  H97  1  0.03680000  0.73244000  0.79523000  1.0
  H  H98  1  0.03680000  0.29523000  0.76756000  1.0
  H  H99  1  0.03680000  0.70477000  0.23244000  1.0
  H  H100  1  0.96320000  0.23244000  0.70477000  1.0
  H  H101  1  0.96320000  0.76756000  0.29523000  1.0
  H  H102  1  0.96320000  0.20477000  0.26756000  1.0
  H  H103  1  0.96320000  0.79523000  0.73244000  1.0
  H  H104  1  0.12917000  0.22081000  0.95219000  1.0
  H  H105  1  0.12917000  0.77919000  0.04781000  1.0
  H  H106  1  0.12917000  0.54781000  0.72081000  1.0
  H  H107  1  0.12917000  0.45219000  0.27919000  1.0
  H  H108  1  0.87083000  0.27919000  0.45219000  1.0
  H  H109  1  0.87083000  0.72081000  0.54781000  1.0
  H  H110  1  0.87083000  0.95219000  0.22081000  1.0
  H  H111  1  0.87083000  0.04781000  0.77919000  1.0
  H  H112  1  0.02490000  0.22169000  0.85914000  1.0
  H  H113  1  0.02490000  0.77831000  0.14086000  1.0
  H  H114  1  0.02490000  0.64086000  0.72169000  1.0
  H  H115  1  0.02490000  0.35914000  0.27831000  1.0
  H  H116  1  0.97510000  0.27831000  0.35914000  1.0
  H  H117  1  0.97510000  0.72169000  0.64086000  1.0
  H  H118  1  0.97510000  0.85914000  0.22169000  1.0
  H  H119  1  0.97510000  0.14086000  0.77831000  1.0
  H  H120  1  0.78903000  0.32954000  0.94205000  1.0
  H  H121  1  0.78903000  0.67046000  0.05795000  1.0
  H  H122  1  0.78903000  0.55795000  0.82954000  1.0
  H  H123  1  0.78903000  0.44205000  0.17046000  1.0
  H  H124  1  0.21097000  0.17046000  0.44205000  1.0
  H  H125  1  0.21097000  0.82954000  0.55795000  1.0
  H  H126  1  0.21097000  0.94205000  0.32954000  1.0
  H  H127  1  0.21096000  0.05795000  0.67046000  1.0
  H  H128  1  0.89448000  0.33110000  0.03473000  1.0
  H  H129  1  0.89448000  0.66890000  0.96527000  1.0
  H  H130  1  0.89448000  0.46527000  0.83110000  1.0
  H  H131  1  0.89448000  0.53473000  0.16890000  1.0
  H  H132  1  0.10552000  0.16890000  0.53473000  1.0
  H  H133  1  0.10552000  0.83110000  0.46527000  1.0
  H  H134  1  0.10552000  0.03473000  0.33110000  1.0
  H  H135  1  0.10552000  0.96527000  0.66891000  1.0
  C  C136  1  0.30336000  0.64291000  0.70403000  1.0
  C  C137  1  0.30336000  0.35709000  0.29597000  1.0
  C  C138  1  0.30336000  0.79597000  0.14291000  1.0
  C  C139  1  0.30336000  0.20403000  0.85709000  1.0
  C  C140  1  0.69664000  0.85709000  0.20403000  1.0
  C  C141  1  0.69664000  0.14291000  0.79597000  1.0
  C  C142  1  0.69664000  0.70403000  0.64291000  1.0
  C  C143  1  0.69664000  0.29597000  0.35709000  1.0
  C  C144  1  0.35945000  0.59162000  0.69301000  1.0
  C  C145  1  0.35945000  0.40838000  0.30699000  1.0
  C  C146  1  0.35945000  0.80699000  0.09162000  1.0
  C  C147  1  0.35945000  0.19301000  0.90838000  1.0
  C  C148  1  0.64055000  0.90838000  0.19301000  1.0
  C  C149  1  0.64055000  0.09162000  0.80699000  1.0
  C  C150  1  0.64055000  0.69301000  0.59162000  1.0
  C  C151  1  0.64055000  0.30699000  0.40838000  1.0
  C  C152  1  0.45762000  0.58228000  0.72050000  1.0
  C  C153  1  0.45762000  0.41772000  0.27950000  1.0
  C  C154  1  0.45762000  0.77950000  0.08228000  1.0
  C  C155  1  0.45762000  0.22050000  0.91772000  1.0
  C  C156  1  0.54238000  0.91772000  0.22050000  1.0
  C  C157  1  0.54238000  0.08228000  0.77950000  1.0
  C  C158  1  0.54238000  0.72050000  0.58228000  1.0
  C  C159  1  0.54238000  0.27950000  0.41772000  1.0
  C  C160  1  0.49557000  0.62792000  0.75670000  1.0
  C  C161  1  0.49557000  0.37208000  0.24330000  1.0
  C  C162  1  0.49557000  0.74330000  0.12792000  1.0
  C  C163  1  0.49557000  0.25670000  0.87208000  1.0
  C  C164  1  0.50443000  0.87208000  0.25670000  1.0
  C  C165  1  0.50443000  0.12792000  0.74330000  1.0
  C  C166  1  0.50443000  0.75670000  0.62792000  1.0
  C  C167  1  0.50443000  0.24330000  0.37208000  1.0
  C  C168  1  0.43511000  0.67811000  0.76534000  1.0
  C  C169  1  0.43511000  0.32189000  0.23466000  1.0
  C  C170  1  0.43511000  0.73466000  0.17811000  1.0
  C  C171  1  0.43511000  0.26535000  0.82189000  1.0
  C  C172  1  0.56489000  0.82189000  0.26534000  1.0
  C  C173  1  0.56489000  0.17811000  0.73466000  1.0
  C  C174  1  0.56489000  0.76534000  0.67811000  1.0
  C  C175  1  0.56489000  0.23465000  0.32189000  1.0
  C  C176  1  0.51692000  0.52682000  0.71388000  1.0
  C  C177  1  0.51692000  0.47318000  0.28612000  1.0
  C  C178  1  0.51692000  0.78612000  0.02682000  1.0
  C  C179  1  0.51692000  0.21388000  0.97318000  1.0
  C  C180  1  0.48308000  0.97318000  0.21388000  1.0
  C  C181  1  0.48308000  0.02682000  0.78612000  1.0
  C  C182  1  0.48308000  0.71388000  0.52682000  1.0
  C  C183  1  0.48308000  0.28612000  0.47318000  1.0
  C  C184  1  0.46393000  0.47336000  0.70297000  1.0
  C  C185  1  0.46393000  0.52664000  0.29703000  1.0
  C  C186  1  0.46393000  0.79703000  0.97336000  1.0
  C  C187  1  0.46393000  0.20298000  0.02664000  1.0
  C  C188  1  0.53607000  0.02664000  0.20297000  1.0
  C  C189  1  0.53607000  0.97336000  0.79703000  1.0
  C  C190  1  0.53607000  0.70298000  0.47336000  1.0
  C  C191  1  0.53607000  0.29703000  0.52664000  1.0
  C  C192  1  0.51808000  0.42004000  0.70312000  1.0
  C  C193  1  0.51808000  0.57996000  0.29688000  1.0
  C  C194  1  0.51808000  0.79688000  0.92004000  1.0
  C  C195  1  0.51808000  0.20312000  0.07996000  1.0
  C  C196  1  0.48192000  0.07996000  0.20312000  1.0
  C  C197  1  0.48192000  0.92004000  0.79688000  1.0
  C  C198  1  0.48192000  0.70312000  0.42004000  1.0
  C  C199  1  0.48192000  0.29688000  0.57996000  1.0
  C  C200  1  0.62748000  0.41911000  0.71291000  1.0
  C  C201  1  0.62748000  0.58089000  0.28709000  1.0
  C  C202  1  0.62748000  0.78709000  0.91911000  1.0
  C  C203  1  0.62748000  0.21291000  0.08089000  1.0
  C  C204  1  0.37252000  0.08089000  0.21291000  1.0
  C  C205  1  0.37252000  0.91911000  0.78709000  1.0
  C  C206  1  0.37252000  0.71291000  0.41911000  1.0
  C  C207  1  0.37252000  0.28709000  0.58089000  1.0
  C  C208  1  0.68167000  0.47243000  0.72051000  1.0
  C  C209  1  0.68167000  0.52757000  0.27949000  1.0
  C  C210  1  0.68167000  0.77949000  0.97243000  1.0
  C  C211  1  0.68167000  0.22051000  0.02757000  1.0
  C  C212  1  0.31833000  0.02757000  0.22051000  1.0
  C  C213  1  0.31833000  0.97243000  0.77949000  1.0
  C  C214  1  0.31833000  0.72051000  0.47243000  1.0
  C  C215  1  0.31833000  0.27949000  0.52757000  1.0
  C  C216  1  0.62723000  0.52559000  0.72161000  1.0
  C  C217  1  0.62723000  0.47441000  0.27839000  1.0
  C  C218  1  0.62723000  0.77839000  0.02559000  1.0
  C  C219  1  0.62723000  0.22161000  0.97441000  1.0
  C  C220  1  0.37277000  0.97441000  0.22161000  1.0
  C  C221  1  0.37277000  0.02559000  0.77839000  1.0
  C  C222  1  0.37277000  0.72161000  0.52559000  1.0
  C  C223  1  0.37277000  0.27839000  0.47441000  1.0
  C  C224  1  0.68530000  0.36220000  0.71885000  1.0
  C  C225  1  0.68530000  0.63780000  0.28115000  1.0
  C  C226  1  0.68530000  0.78115000  0.86220000  1.0
  C  C227  1  0.68530000  0.21885000  0.13780000  1.0
  C  C228  1  0.31470000  0.13780000  0.21885000  1.0
  C  C229  1  0.31470000  0.86220000  0.78115000  1.0
  C  C230  1  0.31470000  0.71885000  0.36220000  1.0
  C  C231  1  0.31470000  0.28115000  0.63780000  1.0
  C  C232  1  0.23709000  0.26244000  0.11271000  1.0
  C  C233  1  0.23709000  0.73756000  0.88729000  1.0
  C  C234  1  0.23708000  0.38729000  0.76244000  1.0
  C  C235  1  0.23709000  0.61271000  0.23756000  1.0
  C  C236  1  0.76292000  0.23756000  0.61271000  1.0
  C  C237  1  0.76292000  0.76244000  0.38729000  1.0
  C  C238  1  0.76291000  0.11271000  0.26244000  1.0
  C  C239  1  0.76291000  0.88729000  0.73756000  1.0
  C  C240  1  0.18700000  0.26780000  0.05864000  1.0
  C  C241  1  0.18700000  0.73220000  0.94136000  1.0
  C  C242  1  0.18700000  0.44136000  0.76780000  1.0
  C  C243  1  0.18700000  0.55864000  0.23220000  1.0
  C  C244  1  0.81300000  0.23220000  0.55864000  1.0
  C  C245  1  0.81300000  0.76780000  0.44136000  1.0
  C  C246  1  0.81300000  0.05864000  0.26780000  1.0
  C  C247  1  0.81300000  0.94136000  0.73220000  1.0
  C  C248  1  0.07637000  0.27236000  0.05633000  1.0
  C  C249  1  0.07637000  0.72764000  0.94367000  1.0
  C  C250  1  0.07636000  0.44367000  0.77236000  1.0
  C  C251  1  0.07637000  0.55633000  0.22764000  1.0
  C  C252  1  0.92364000  0.22764000  0.55633000  1.0
  C  C253  1  0.92364000  0.77236000  0.44367000  1.0
  C  C254  1  0.92363000  0.05633000  0.27236000  1.0
  C  C255  1  0.92363000  0.94367000  0.72764000  1.0
  C  C256  1  0.02195000  0.27257000  0.11027000  1.0
  C  C257  1  0.02195000  0.72743000  0.88973000  1.0
  C  C258  1  0.02195000  0.38973000  0.77257000  1.0
  C  C259  1  0.02195000  0.61027000  0.22743000  1.0
  C  C260  1  0.97805000  0.22743000  0.61027000  1.0
  C  C261  1  0.97805000  0.77257000  0.38973000  1.0
  C  C262  1  0.97805000  0.11027000  0.27257000  1.0
  C  C263  1  0.97805000  0.88973000  0.72743000  1.0
  C  C264  1  0.07775000  0.26751000  0.16259000  1.0
  C  C265  1  0.07775000  0.73249000  0.83741000  1.0
  C  C266  1  0.07775000  0.33741000  0.76751000  1.0
  C  C267  1  0.07775000  0.66259000  0.23249000  1.0
  C  C268  1  0.92225000  0.23249000  0.66259000  1.0
  C  C269  1  0.92225000  0.76751000  0.33741000  1.0
  C  C270  1  0.92225000  0.16259000  0.26751000  1.0
  C  C271  1  0.92225000  0.83741000  0.73249000  1.0
  C  C272  1  0.01852000  0.27536000  0.00017000  1.0
  C  C273  1  0.01852000  0.72464000  0.99983000  1.0
  C  C274  1  0.01851000  0.49983000  0.77536000  1.0
  C  C275  1  0.01851000  0.50017000  0.22464000  1.0
  C  C276  1  0.98149000  0.22464000  0.50017000  1.0
  C  C277  1  0.98149000  0.77536000  0.49983000  1.0
  C  C278  1  0.98149000  0.00017000  0.27536000  1.0
  C  C279  1  0.98148000  0.99983000  0.72464000  1.0
  C  C280  1  0.05541000  0.24552000  0.94986000  1.0
  C  C281  1  0.05541000  0.75448000  0.05014000  1.0
  C  C282  1  0.05541000  0.55015000  0.74552000  1.0
  C  C283  1  0.05541000  0.44985000  0.25448000  1.0
  C  C284  1  0.94459000  0.25448000  0.44985000  1.0
  C  C285  1  0.94459000  0.74552000  0.55015000  1.0
  C  C286  1  0.94459000  0.94985000  0.24552000  1.0
  C  C287  1  0.94459000  0.05014000  0.75448000  1.0
  C  C288  1  0.99692000  0.24529000  0.89800000  1.0
  C  C289  1  0.99692000  0.75471000  0.10200000  1.0
  C  C290  1  0.99692000  0.60200000  0.74529000  1.0
  C  C291  1  0.99692000  0.39800000  0.25471000  1.0
  C  C292  1  0.00308000  0.25471000  0.39800000  1.0
  C  C293  1  0.00308000  0.74529000  0.60200000  1.0
  C  C294  1  0.00308000  0.89800000  0.24529000  1.0
  C  C295  1  0.00308000  0.10200000  0.75471000  1.0
  C  C296  1  0.89962000  0.27476000  0.89553000  1.0
  C  C297  1  0.89962000  0.72524000  0.10447000  1.0
  C  C298  1  0.89962000  0.60447000  0.77476000  1.0
  C  C299  1  0.89962000  0.39553000  0.22524000  1.0
  C  C300  1  0.10038000  0.22524000  0.39553000  1.0
  C  C301  1  0.10038000  0.77476000  0.60447000  1.0
  C  C302  1  0.10038000  0.89553000  0.27476000  1.0
  C  C303  1  0.10038000  0.10447000  0.72524000  1.0
  C  C304  1  0.86404000  0.30617000  0.94487000  1.0
  C  C305  1  0.86403000  0.69383000  0.05513000  1.0
  C  C306  1  0.86403000  0.55513000  0.80617000  1.0
  C  C307  1  0.86404000  0.44487000  0.19383000  1.0
  C  C308  1  0.13597000  0.19383000  0.44487000  1.0
  C  C309  1  0.13597000  0.80617000  0.55513000  1.0
  C  C310  1  0.13596000  0.94487000  0.30617000  1.0
  C  C311  1  0.13596000  0.05513000  0.69383000  1.0
  C  C312  1  0.92279000  0.30659000  0.99652000  1.0
  C  C313  1  0.92279000  0.69341000  0.00348000  1.0
  C  C314  1  0.92279000  0.50348000  0.80659000  1.0
  C  C315  1  0.92279000  0.49652000  0.19341000  1.0
  C  C316  1  0.07721000  0.19341000  0.49652000  1.0
  C  C317  1  0.07721000  0.80659000  0.50348000  1.0
  C  C318  1  0.07721000  0.99652000  0.30659000  1.0
  C  C319  1  0.07721000  0.00348000  0.69341000  1.0
  C  C320  1  0.83199000  0.27150000  0.84203000  1.0
  C  C321  1  0.83198000  0.72850000  0.15797000  1.0
  C  C322  1  0.83199000  0.65797000  0.77150000  1.0
  C  C323  1  0.83199000  0.34203000  0.22850000  1.0
  C  C324  1  0.16801000  0.22850000  0.34203000  1.0
  C  C325  1  0.16801000  0.77150000  0.65797000  1.0
  C  C326  1  0.16801000  0.84203000  0.27150000  1.0
  C  C327  1  0.16801000  0.15797000  0.72850000  1.0
  N  N328  1  0.33915000  0.68556000  0.74035000  1.0
  N  N329  1  0.33915000  0.31444000  0.25965000  1.0
  N  N330  1  0.33915000  0.75965000  0.18556000  1.0
  N  N331  1  0.33915000  0.24035000  0.81444000  1.0
  N  N332  1  0.66085000  0.81444000  0.24035000  1.0
  N  N333  1  0.66085000  0.18556000  0.75965000  1.0
  N  N334  1  0.66085000  0.74035000  0.68556000  1.0
  N  N335  1  0.66085000  0.25965000  0.31444000  1.0
  N  N336  1  0.18380000  0.26167000  0.16421000  1.0
  N  N337  1  0.18380000  0.73833000  0.83579000  1.0
  N  N338  1  0.18380000  0.33579000  0.76167000  1.0
  N  N339  1  0.18380000  0.66421000  0.23833000  1.0
  N  N340  1  0.81620000  0.23833000  0.66421000  1.0
  N  N341  1  0.81621000  0.76167000  0.33579000  1.0
  N  N342  1  0.81620000  0.16421000  0.26167000  1.0
  N  N343  1  0.81620000  0.83579000  0.73833000  1.0
  O  O344  1  0.62978000  0.31406000  0.72008000  1.0
  O  O345  1  0.62978000  0.68594000  0.27992000  1.0
  O  O346  1  0.62978000  0.77992000  0.81406000  1.0
  O  O347  1  0.62978000  0.22008000  0.18594000  1.0
  O  O348  1  0.37022000  0.18594000  0.22008000  1.0
  O  O349  1  0.37022000  0.81406000  0.77992000  1.0
  O  O350  1  0.37022000  0.72008000  0.31406000  1.0
  O  O351  1  0.37022000  0.27992000  0.68594000  1.0
  O  O352  1  0.78424000  0.36043000  0.72491000  1.0
  O  O353  1  0.78424000  0.63957000  0.27509000  1.0
  O  O354  1  0.78424000  0.77509000  0.86043000  1.0
  O  O355  1  0.78424000  0.22491000  0.13957000  1.0
  O  O356  1  0.21576000  0.13957000  0.22491000  1.0
  O  O357  1  0.21576000  0.86043000  0.77509000  1.0
  O  O358  1  0.21576000  0.72491000  0.36043000  1.0
  O  O359  1  0.21576000  0.27509000  0.63957000  1.0
  O  O360  1  0.73721000  0.28878000  0.84296000  1.0
  O  O361  1  0.73721000  0.71123000  0.15704000  1.0
  O  O362  1  0.73721000  0.65704000  0.78877000  1.0
  O  O363  1  0.73721000  0.34296000  0.21122000  1.0
  O  O364  1  0.26279000  0.21122000  0.34296000  1.0
  O  O365  1  0.26279000  0.78878000  0.65704000  1.0
  O  O366  1  0.26279000  0.84296000  0.28878000  1.0
  O  O367  1  0.26279000  0.15704000  0.71122000  1.0
  O  O368  1  0.87240000  0.24945000  0.79445000  1.0
  O  O369  1  0.87240000  0.75055000  0.20555000  1.0
  O  O370  1  0.87240000  0.70555000  0.74945000  1.0
  O  O371  1  0.87240000  0.29445000  0.25055000  1.0
  O  O372  1  0.12760000  0.25055000  0.29445000  1.0
  O  O373  1  0.12760000  0.74945000  0.70555000  1.0
  O  O374  1  0.12760000  0.79445000  0.24945000  1.0
  O  O375  1  0.12760000  0.20555000  0.75055000  1.0
