# generated using pymatgen
data_AgH6C7S4N2O3
_symmetry_space_group_name_H-M   'P 1'
_cell_length_a   5.41479000
_cell_length_b   14.00920000
_cell_length_c   15.73370000
_cell_angle_alpha   90.00040000
_cell_angle_beta   89.99940000
_cell_angle_gamma   89.99970000
_symmetry_Int_Tables_number   1
_chemical_formula_structural   AgH6C7S4N2O3
_chemical_formula_sum   'Ag4 H24 C28 S16 N8 O12'
_cell_volume   1193.50933088
_cell_formula_units_Z   4
loop_
 _symmetry_equiv_pos_site_id
 _symmetry_equiv_pos_as_xyz
  1  'x, y, z'
loop_
 _atom_site_type_symbol
 _atom_site_label
 _atom_site_symmetry_multiplicity
 _atom_site_fract_x
 _atom_site_fract_y
 _atom_site_fract_z
 _atom_site_occupancy
  Ag  Ag0  1  0.97082000  0.39350000  0.20899000  1.0
  Ag  Ag1  1  0.97082000  0.60650000  0.79101000  1.0
  Ag  Ag2  1  0.02918000  0.89350000  0.29101000  1.0
  Ag  Ag3  1  0.02917000  0.10650000  0.70899000  1.0
  H  H4  1  0.52496000  0.67704000  0.14679000  1.0
  H  H5  1  0.52495000  0.32296000  0.85321000  1.0
  H  H6  1  0.47505000  0.17704000  0.35321000  1.0
  H  H7  1  0.47505000  0.82296000  0.64679000  1.0
  H  H8  1  0.69231000  0.77612000  0.10504000  1.0
  H  H9  1  0.69231000  0.22388000  0.89496000  1.0
  H  H10  1  0.30768000  0.27612000  0.39496000  1.0
  H  H11  1  0.30769000  0.72388000  0.60504000  1.0
  H  H12  1  0.49243000  0.79557000  0.19425000  1.0
  H  H13  1  0.49243000  0.20443000  0.80575000  1.0
  H  H14  1  0.50757000  0.29557000  0.30575000  1.0
  H  H15  1  0.50757000  0.70443000  0.69425000  1.0
  H  H16  1  0.87994000  0.80710000  0.56477000  1.0
  H  H17  1  0.87995000  0.19290000  0.43523000  1.0
  H  H18  1  0.12006000  0.30710000  0.93523000  1.0
  H  H19  1  0.12005000  0.69290000  0.06477000  1.0
  H  H20  1  0.78502000  0.89155000  0.48478000  1.0
  H  H21  1  0.78502000  0.10845000  0.51522000  1.0
  H  H22  1  0.21498000  0.39155000  0.01522000  1.0
  H  H23  1  0.21498000  0.60845000  0.98478000  1.0
  H  H24  1  0.08742000  0.89778000  0.52998000  1.0
  H  H25  1  0.08742000  0.10222000  0.47002000  1.0
  H  H26  1  0.91257000  0.39778000  0.97002000  1.0
  H  H27  1  0.91257000  0.60222000  0.02998000  1.0
  C  C28  1  0.47224000  0.57635000  0.42188000  1.0
  C  C29  1  0.47225000  0.42365000  0.57812000  1.0
  C  C30  1  0.52776000  0.07635000  0.07812000  1.0
  C  C31  1  0.52777000  0.92365000  0.92188000  1.0
  C  C32  1  0.74545000  0.67920000  0.32254000  1.0
  C  C33  1  0.74544000  0.32080000  0.67746000  1.0
  C  C34  1  0.25456000  0.17920000  0.17746000  1.0
  C  C35  1  0.25455000  0.82080000  0.82254000  1.0
  C  C36  1  0.82800000  0.69832000  0.40299000  1.0
  C  C37  1  0.82799000  0.30169000  0.59701000  1.0
  C  C38  1  0.17200000  0.19831000  0.09701000  1.0
  C  C39  1  0.17200000  0.80169000  0.90299000  1.0
  C  C40  1  0.29561000  0.51374000  0.45442000  1.0
  C  C41  1  0.29562000  0.48625000  0.54558000  1.0
  C  C42  1  0.70439000  0.01374000  0.04558000  1.0
  C  C43  1  0.70440000  0.98625000  0.95442000  1.0
  C  C44  1  0.12379000  0.47673000  0.39647000  1.0
  C  C45  1  0.12378000  0.52328000  0.60353000  1.0
  C  C46  1  0.87622000  0.97672000  0.10353000  1.0
  C  C47  1  0.87621000  0.02327000  0.89647000  1.0
  C  C48  1  0.61623000  0.74452000  0.16321000  1.0
  C  C49  1  0.61621000  0.25548000  0.83679000  1.0
  C  C50  1  0.38378000  0.24452000  0.33679000  1.0
  C  C51  1  0.38378000  0.75548000  0.66320000  1.0
  C  C52  1  0.93853000  0.84964000  0.50999000  1.0
  C  C53  1  0.93853000  0.15036000  0.49001000  1.0
  C  C54  1  0.06147000  0.34964000  0.99001000  1.0
  C  C55  1  0.06146000  0.65036000  0.01000000  1.0
  S  S56  1  0.49974000  0.59918000  0.31439000  1.0
  S  S57  1  0.49974000  0.40083000  0.68561000  1.0
  S  S58  1  0.50026000  0.09917000  0.18561000  1.0
  S  S59  1  0.50027000  0.90082000  0.81439000  1.0
  S  S60  1  0.68529000  0.63400000  0.48495000  1.0
  S  S61  1  0.68529000  0.36599000  0.51505000  1.0
  S  S62  1  0.31471000  0.13400000  0.01505000  1.0
  S  S63  1  0.31471000  0.86600000  0.98495000  1.0
  S  S64  1  0.88179000  0.72150000  0.23017000  1.0
  S  S65  1  0.88179000  0.27851000  0.76983000  1.0
  S  S66  1  0.11821000  0.22150000  0.26983000  1.0
  S  S67  1  0.11821000  0.77850000  0.73017000  1.0
  S  S68  1  0.07159000  0.77502000  0.42755000  1.0
  S  S69  1  0.07159000  0.22498000  0.57245000  1.0
  S  S70  1  0.92842000  0.27502000  0.07244000  1.0
  S  S71  1  0.92841000  0.72498000  0.92755000  1.0
  N  N72  1  0.98460000  0.44972000  0.34428000  1.0
  N  N73  1  0.98460000  0.55028000  0.65572000  1.0
  N  N74  1  0.01541000  0.94972000  0.15572000  1.0
  N  N75  1  0.01541000  0.05028000  0.84428000  1.0
  N  N76  1  0.47594000  0.47090000  0.15004000  1.0
  N  N77  1  0.47595000  0.52911000  0.84996000  1.0
  N  N78  1  0.52405000  0.97089000  0.34996000  1.0
  N  N79  1  0.52405000  0.02910000  0.65004000  1.0
  O  O80  1  0.48843000  0.39066000  0.18784000  1.0
  O  O81  1  0.48843000  0.60934000  0.81216000  1.0
  O  O82  1  0.51157000  0.89066000  0.31216000  1.0
  O  O83  1  0.51157000  0.10934000  0.68784000  1.0
  O  O84  1  0.26661000  0.50838000  0.13580000  1.0
  O  O85  1  0.26661000  0.49162000  0.86420000  1.0
  O  O86  1  0.73339000  0.00838000  0.36420000  1.0
  O  O87  1  0.73339000  0.99162000  0.63580000  1.0
  O  O88  1  0.67259000  0.51345000  0.12833000  1.0
  O  O89  1  0.67259000  0.48655000  0.87167000  1.0
  O  O90  1  0.32741000  0.01345000  0.37167000  1.0
  O  O91  1  0.32741000  0.98654000  0.62833000  1.0
