# generated using pymatgen
data_AgH6C9(NO2)2
_symmetry_space_group_name_H-M   'P 1'
_cell_length_a   7.76808000
_cell_length_b   8.81296000
_cell_length_c   13.40380000
_cell_angle_alpha   90.00020000
_cell_angle_beta   90.00010000
_cell_angle_gamma   85.83060000
_symmetry_Int_Tables_number   1
_chemical_formula_structural   AgH6C9(NO2)2
_chemical_formula_sum   'Ag4 H24 C36 N8 O16'
_cell_volume   915.19264569
_cell_formula_units_Z   4
loop_
 _symmetry_equiv_pos_site_id
 _symmetry_equiv_pos_as_xyz
  1  'x, y, z'
loop_
 _atom_site_type_symbol
 _atom_site_label
 _atom_site_symmetry_multiplicity
 _atom_site_fract_x
 _atom_site_fract_y
 _atom_site_fract_z
 _atom_site_occupancy
  Ag  Ag0  1  0.62932000  0.37953000  0.46911000  1.0
  Ag  Ag1  1  0.87067000  0.12047000  0.96910000  1.0
  Ag  Ag2  1  0.37068000  0.62047000  0.53089000  1.0
  Ag  Ag3  1  0.12932000  0.87953000  0.03090000  1.0
  H  H4  1  0.03500000  0.95781000  0.76059000  1.0
  H  H5  1  0.46501000  0.54219000  0.26060000  1.0
  H  H6  1  0.96501000  0.04220000  0.23940000  1.0
  H  H7  1  0.53499000  0.45781000  0.73941000  1.0
  H  H8  1  0.11350000  0.88784000  0.47365000  1.0
  H  H9  1  0.38650000  0.61215000  0.97365000  1.0
  H  H10  1  0.88649000  0.11216000  0.52635000  1.0
  H  H11  1  0.61351000  0.38784000  0.02635000  1.0
  H  H12  1  0.01349000  0.78381000  0.31297000  1.0
  H  H13  1  0.48651000  0.71617000  0.81298000  1.0
  H  H14  1  0.98652000  0.21618000  0.68703000  1.0
  H  H15  1  0.51350000  0.28382000  0.18702000  1.0
  H  H16  1  0.80107000  0.58101000  0.31741000  1.0
  H  H17  1  0.69892000  0.91898000  0.81741000  1.0
  H  H18  1  0.19893000  0.41899000  0.68259000  1.0
  H  H19  1  0.30109000  0.08101000  0.18259000  1.0
  H  H20  1  0.54588000  0.16122000  0.64377000  1.0
  H  H21  1  0.95411000  0.33877000  0.14376000  1.0
  H  H22  1  0.45412000  0.83877000  0.35623000  1.0
  H  H23  1  0.04589000  0.66122000  0.85623000  1.0
  H  H24  1  0.55888000  0.09844000  0.33497000  1.0
  H  H25  1  0.94114000  0.40156000  0.83497000  1.0
  H  H26  1  0.44113000  0.90156000  0.66503000  1.0
  H  H27  1  0.05886000  0.59843000  0.16503000  1.0
  C  C28  1  0.83317000  0.63913000  0.55957000  1.0
  C  C29  1  0.66684000  0.86087000  0.05957000  1.0
  C  C30  1  0.16683000  0.36088000  0.44043000  1.0
  C  C31  1  0.33317000  0.13913000  0.94043000  1.0
  C  C32  1  0.95717000  0.74687000  0.56364000  1.0
  C  C33  1  0.54283000  0.75313000  0.06364000  1.0
  C  C34  1  0.04282000  0.25314000  0.43636000  1.0
  C  C35  1  0.45718000  0.24687000  0.93636000  1.0
  C  C36  1  0.02118000  0.80066000  0.47344000  1.0
  C  C37  1  0.47882000  0.69933000  0.97345000  1.0
  C  C38  1  0.97882000  0.19934000  0.52656000  1.0
  C  C39  1  0.52118000  0.30067000  0.02655000  1.0
  C  C40  1  0.96473000  0.74347000  0.38346000  1.0
  C  C41  1  0.53527000  0.75652000  0.88346000  1.0
  C  C42  1  0.03527000  0.25653000  0.61654000  1.0
  C  C43  1  0.46473000  0.24347000  0.11654000  1.0
  C  C44  1  0.84656000  0.63215000  0.38559000  1.0
  C  C45  1  0.65344000  0.86784000  0.88559000  1.0
  C  C46  1  0.15344000  0.36785000  0.61441000  1.0
  C  C47  1  0.34656000  0.13215000  0.11441000  1.0
  C  C48  1  0.75358000  0.58573000  0.65563000  1.0
  C  C49  1  0.74642000  0.91427000  0.15564000  1.0
  C  C50  1  0.24641000  0.41428000  0.34437000  1.0
  C  C51  1  0.25358000  0.08573000  0.84436000  1.0
  C  C52  1  0.03765000  0.79691000  0.65951000  1.0
  C  C53  1  0.46235000  0.70308000  0.15951000  1.0
  C  C54  1  0.96234000  0.20310000  0.34049000  1.0
  C  C55  1  0.53765000  0.29691000  0.84049000  1.0
  C  C56  1  0.52545000  0.08985000  0.57920000  1.0
  C  C57  1  0.97455000  0.41015000  0.07920000  1.0
  C  C58  1  0.47456000  0.91015000  0.42080000  1.0
  C  C59  1  0.02545000  0.58984000  0.92080000  1.0
  C  C60  1  0.53004000  0.05571000  0.40876000  1.0
  C  C61  1  0.96997000  0.44428000  0.90875000  1.0
  C  C62  1  0.46997000  0.94429000  0.59124000  1.0
  C  C63  1  0.03003000  0.55571000  0.09124000  1.0
  N  N64  1  0.78197000  0.58233000  0.47163000  1.0
  N  N65  1  0.71803000  0.91767000  0.97163000  1.0
  N  N66  1  0.21803000  0.41767000  0.52837000  1.0
  N  N67  1  0.28197000  0.08233000  0.02837000  1.0
  N  N68  1  0.55511000  0.14580000  0.48779000  1.0
  N  N69  1  0.94489000  0.35420000  0.98778000  1.0
  N  N70  1  0.44489000  0.85420000  0.51221000  1.0
  N  N71  1  0.05511000  0.64580000  0.01221000  1.0
  O  O72  1  0.61556000  0.51312000  0.64805000  1.0
  O  O73  1  0.88444000  0.98688000  0.14805000  1.0
  O  O74  1  0.38444000  0.48688000  0.35195000  1.0
  O  O75  1  0.11556000  0.01312000  0.85195000  1.0
  O  O76  1  0.82530000  0.61864000  0.73515000  1.0
  O  O77  1  0.67470000  0.88137000  0.23515000  1.0
  O  O78  1  0.17468000  0.38138000  0.26485000  1.0
  O  O79  1  0.32530000  0.11864000  0.76485000  1.0
  O  O80  1  0.17518000  0.73230000  0.68915000  1.0
  O  O81  1  0.32482000  0.76770000  0.18915000  1.0
  O  O82  1  0.82481000  0.26770000  0.31085000  1.0
  O  O83  1  0.67518000  0.23230000  0.81085000  1.0
  O  O84  1  0.96215000  0.92174000  0.69907000  1.0
  O  O85  1  0.53786000  0.57826000  0.19908000  1.0
  O  O86  1  0.03785000  0.07828000  0.30092000  1.0
  O  O87  1  0.46215000  0.42174000  0.80093000  1.0
