# generated using pymatgen
data_CoH14C20N2(ClO2)2
_symmetry_space_group_name_H-M   'P 1'
_cell_length_a   7.55829000
_cell_length_b   9.77915000
_cell_length_c   13.07590000
_cell_angle_alpha   79.78860000
_cell_angle_beta   74.60820000
_cell_angle_gamma   76.39930000
_symmetry_Int_Tables_number   1
_chemical_formula_structural   CoH14C20N2(ClO2)2
_chemical_formula_sum   'Co2 H28 C40 N4 Cl4 O8'
_cell_volume   898.86303143
_cell_formula_units_Z   2
loop_
 _symmetry_equiv_pos_site_id
 _symmetry_equiv_pos_as_xyz
  1  'x, y, z'
loop_
 _atom_site_type_symbol
 _atom_site_label
 _atom_site_symmetry_multiplicity
 _atom_site_fract_x
 _atom_site_fract_y
 _atom_site_fract_z
 _atom_site_occupancy
  Co  Co0  1  0.28840000  0.66887000  0.55354000  1.0
  Co  Co1  1  0.72409000  0.30686000  0.45174000  1.0
  H  H2  1  0.03477000  0.44303000  0.86208000  1.0
  H  H3  1  0.94799000  0.54726000  0.15975000  1.0
  H  H4  1  0.01734000  0.75234000  0.76573000  1.0
  H  H5  1  0.97201000  0.25037000  0.23640000  1.0
  H  H6  1  0.42176000  0.42039000  0.80236000  1.0
  H  H7  1  0.57403000  0.59476000  0.18435000  1.0
  H  H8  1  0.09711000  0.20512000  0.54494000  1.0
  H  H9  1  0.90624000  0.79079000  0.45179000  1.0
  H  H10  1  0.53629000  0.14405000  0.23523000  1.0
  H  H11  1  0.46055000  0.86370000  0.76791000  1.0
  H  H12  1  0.65390000  0.84462000  0.11316000  1.0
  H  H13  1  0.34130000  0.16478000  0.87974000  1.0
  H  H14  1  0.83693000  0.80289000  0.18107000  1.0
  H  H15  1  0.16279000  0.21171000  0.80853000  1.0
  H  H16  1  0.76538000  0.98018000  0.12403000  1.0
  H  H17  1  0.22322000  0.03371000  0.86818000  1.0
  H  H18  1  0.88300000  0.20920000  0.72396000  1.0
  H  H19  1  0.11910000  0.79310000  0.27023000  1.0
  H  H20  1  0.30302000  0.18635000  0.40441000  1.0
  H  H21  1  0.70186000  0.81175000  0.60116000  1.0
  H  H22  1  0.58300000  0.69453000  0.33710000  1.0
  H  H23  1  0.41511000  0.30961000  0.65161000  1.0
  H  H24  1  0.79993000  0.87348000  0.91110000  1.0
  H  H25  1  0.17733000  0.13615000  0.08664000  1.0
  H  H26  1  0.67146000  0.04311000  0.87131000  1.0
  H  H27  1  0.32353000  0.97387000  0.12442000  1.0
  H  H28  1  0.86805000  0.02983000  0.92396000  1.0
  H  H29  1  0.12764000  0.97181000  0.07540000  1.0
  C  C30  1  0.69063000  0.47776000  0.73072000  1.0
  C  C31  1  0.31929000  0.52239000  0.26824000  1.0
  C  C32  1  0.01059000  0.54817000  0.66358000  1.0
  C  C33  1  0.02154000  0.43229000  0.35286000  1.0
  C  C34  1  0.90159000  0.43503000  0.84876000  1.0
  C  C35  1  0.08324000  0.56146000  0.16599000  1.0
  C  C36  1  0.17656000  0.97570000  0.56145000  1.0
  C  C37  1  0.82546000  0.01877000  0.43883000  1.0
  C  C38  1  0.03346000  0.85539000  0.72026000  1.0
  C  C39  1  0.96073000  0.14615000  0.28041000  1.0
  C  C40  1  0.55796000  0.42291000  0.81488000  1.0
  C  C41  1  0.43447000  0.58749000  0.18034000  1.0
  C  C42  1  0.08066000  0.10624000  0.59646000  1.0
  C  C43  1  0.92214000  0.89042000  0.40119000  1.0
  C  C44  1  0.31202000  0.96240000  0.45827000  1.0
  C  C45  1  0.69132000  0.03287000  0.54047000  1.0
  C  C46  1  0.49470000  0.05406000  0.29128000  1.0
  C  C47  1  0.50424000  0.95036000  0.70864000  1.0
  C  C48  1  0.93637000  0.98082000  0.76252000  1.0
  C  C49  1  0.05831000  0.02216000  0.23650000  1.0
  C  C50  1  0.63590000  0.51609000  0.62437000  1.0
  C  C51  1  0.39742000  0.46960000  0.36649000  1.0
  C  C52  1  0.77130000  0.37792000  0.93170000  1.0
  C  C53  1  0.19781000  0.62736000  0.07889000  1.0
  C  C54  1  0.71561000  0.88420000  0.16664000  1.0
  C  C55  1  0.27925000  0.12717000  0.82538000  1.0
  C  C56  1  0.95988000  0.10805000  0.69676000  1.0
  C  C57  1  0.04055000  0.89231000  0.30007000  1.0
  C  C58  1  0.36367000  0.07831000  0.38660000  1.0
  C  C59  1  0.63858000  0.92077000  0.61550000  1.0
  C  C60  1  0.51996000  0.80532000  0.34684000  1.0
  C  C61  1  0.47936000  0.19846000  0.64517000  1.0
  C  C62  1  0.57576000  0.91517000  0.26910000  1.0
  C  C63  1  0.42205000  0.09124000  0.72498000  1.0
  C  C64  1  0.81229000  0.98094000  0.87282000  1.0
  C  C65  1  0.17811000  0.02710000  0.12499000  1.0
  C  C66  1  0.59829000  0.37095000  0.91432000  1.0
  C  C67  1  0.37423000  0.64176000  0.08657000  1.0
  C  C68  1  0.86462000  0.48417000  0.74765000  1.0
  C  C69  1  0.14112000  0.51004000  0.26124000  1.0
  N  N70  1  0.38992000  0.82760000  0.43767000  1.0
  N  N71  1  0.61360000  0.17080000  0.55612000  1.0
  N  N72  1  0.14946000  0.85182000  0.62256000  1.0
  N  N73  1  0.84872000  0.14619000  0.37984000  1.0
  Cl  Cl74  1  0.43567000  0.29842000  0.01525000  1.0
  Cl  Cl75  1  0.51911000  0.72312000  0.98021000  1.0
  Cl  Cl76  1  0.82173000  0.31876000  0.05515000  1.0
  Cl  Cl77  1  0.12598000  0.68513000  0.96114000  1.0
  O  O78  1  0.17721000  0.52258000  0.67913000  1.0
  O  O79  1  0.85361000  0.43422000  0.34397000  1.0
  O  O80  1  0.51979000  0.63098000  0.61237000  1.0
  O  O81  1  0.52301000  0.35771000  0.36053000  1.0
  O  O82  1  0.96596000  0.63096000  0.58477000  1.0
  O  O83  1  0.09153000  0.36616000  0.42795000  1.0
  O  O84  1  0.69996000  0.42050000  0.56289000  1.0
  O  O85  1  0.34660000  0.54707000  0.44090000  1.0
