# generated using pymatgen
data_ZnH20C22(NO)4
_symmetry_space_group_name_H-M   'P 1'
_cell_length_a   10.29140000
_cell_length_b   16.29680000
_cell_length_c   20.06770000
_cell_angle_alpha   89.99950000
_cell_angle_beta   89.99950000
_cell_angle_gamma   92.41900000
_symmetry_Int_Tables_number   1
_chemical_formula_structural   ZnH20C22(NO)4
_chemical_formula_sum   'Zn4 H80 C88 N16 O16'
_cell_volume   3362.69297698
_cell_formula_units_Z   4
loop_
 _symmetry_equiv_pos_site_id
 _symmetry_equiv_pos_as_xyz
  1  'x, y, z'
loop_
 _atom_site_type_symbol
 _atom_site_label
 _atom_site_symmetry_multiplicity
 _atom_site_fract_x
 _atom_site_fract_y
 _atom_site_fract_z
 _atom_site_occupancy
  Zn  Zn0  1  0.35836000  0.95898000  0.77246000  1.0
  Zn  Zn1  1  0.14165000  0.54102000  0.27246000  1.0
  Zn  Zn2  1  0.64164000  0.04102000  0.22754000  1.0
  Zn  Zn3  1  0.85836000  0.45898000  0.72754000  1.0
  H  H4  1  0.26399000  0.89115000  0.90188000  1.0
  H  H5  1  0.23601000  0.60885000  0.40187000  1.0
  H  H6  1  0.73600000  0.10884000  0.09812000  1.0
  H  H7  1  0.76398000  0.39116000  0.59812000  1.0
  H  H8  1  0.35829000  0.84436000  0.00616000  1.0
  H  H9  1  0.14172000  0.65564000  0.50616000  1.0
  H  H10  1  0.64170000  0.15563000  0.99384000  1.0
  H  H11  1  0.85828000  0.34436000  0.49384000  1.0
  H  H12  1  0.72365000  0.96463000  0.94311000  1.0
  H  H13  1  0.77635000  0.53537000  0.44311000  1.0
  H  H14  1  0.27634000  0.03537000  0.05689000  1.0
  H  H15  1  0.22364000  0.46463000  0.55689000  1.0
  H  H16  1  0.60896000  0.00812000  0.84184000  1.0
  H  H17  1  0.89105000  0.49188000  0.34184000  1.0
  H  H18  1  0.39104000  0.99188000  0.15817000  1.0
  H  H19  1  0.10895000  0.50812000  0.65816000  1.0
  H  H20  1  0.77107000  0.95745000  0.04975000  1.0
  H  H21  1  0.72894000  0.54255000  0.54975000  1.0
  H  H22  1  0.22893000  0.04254000  0.95025000  1.0
  H  H23  1  0.27106000  0.45745000  0.45025000  1.0
  H  H24  1  0.81244000  0.86353000  0.01075000  1.0
  H  H25  1  0.68757000  0.63648000  0.51075000  1.0
  H  H26  1  0.18755000  0.13647000  0.98925000  1.0
  H  H27  1  0.31244000  0.36352000  0.48926000  1.0
  H  H28  1  0.46286000  0.78721000  0.06800000  1.0
  H  H29  1  0.03716000  0.71279000  0.56800000  1.0
  H  H30  1  0.53714000  0.21279000  0.93201000  1.0
  H  H31  1  0.96284000  0.28721000  0.43200000  1.0
  H  H32  1  0.52921000  0.84734000  0.13393000  1.0
  H  H33  1  0.97079000  0.65265000  0.63393000  1.0
  H  H34  1  0.47079000  0.15265000  0.86607000  1.0
  H  H35  1  0.02921000  0.34735000  0.36608000  1.0
  H  H36  1  0.59252000  0.70587000  0.14457000  1.0
  H  H37  1  0.90748000  0.79413000  0.64457000  1.0
  H  H38  1  0.40748000  0.29413000  0.85543000  1.0
  H  H39  1  0.09251000  0.20587000  0.35543000  1.0
  H  H40  1  0.64794000  0.70259000  0.06026000  1.0
  H  H41  1  0.85206000  0.79741000  0.56027000  1.0
  H  H42  1  0.35205000  0.29741000  0.93974000  1.0
  H  H43  1  0.14794000  0.20259000  0.43974000  1.0
  H  H44  1  0.90292000  0.87358000  0.12134000  1.0
  H  H45  1  0.59709000  0.62642000  0.62134000  1.0
  H  H46  1  0.09708000  0.12642000  0.87866000  1.0
  H  H47  1  0.40291000  0.37358000  0.37866000  1.0
  H  H48  1  0.75490000  0.89570000  0.15885000  1.0
  H  H49  1  0.74510000  0.60429000  0.65885000  1.0
  H  H50  1  0.24511000  0.10430000  0.84115000  1.0
  H  H51  1  0.25489000  0.39571000  0.34115000  1.0
  H  H52  1  0.73360000  0.60770000  0.13897000  1.0
  H  H53  1  0.76641000  0.89230000  0.63898000  1.0
  H  H54  1  0.26641000  0.39230000  0.86103000  1.0
  H  H55  1  0.23359000  0.10770000  0.36102000  1.0
  H  H56  1  0.88655000  0.51859000  0.19566000  1.0
  H  H57  1  0.61345000  0.98141000  0.69566000  1.0
  H  H58  1  0.11345000  0.48142000  0.80434000  1.0
  H  H59  1  0.38655000  0.01859000  0.30434000  1.0
  H  H60  1  0.14211000  0.71458000  0.23813000  1.0
  H  H61  1  0.35790000  0.78541000  0.73814000  1.0
  H  H62  1  0.85790000  0.28542000  0.76186000  1.0
  H  H63  1  0.64210000  0.21459000  0.26186000  1.0
  H  H64  1  0.00003000  0.81413000  0.18696000  1.0
  H  H65  1  0.49999000  0.68587000  0.68696000  1.0
  H  H66  1  0.99998000  0.18587000  0.81304000  1.0
  H  H67  1  0.50001000  0.31413000  0.31304000  1.0
  H  H68  1  0.85277000  0.92729000  0.84159000  1.0
  H  H69  1  0.64725000  0.57272000  0.34160000  1.0
  H  H70  1  0.14724000  0.07271000  0.15841000  1.0
  H  H71  1  0.35276000  0.42729000  0.65841000  1.0
  H  H72  1  0.66537000  0.82359000  0.84040000  1.0
  H  H73  1  0.83464000  0.67642000  0.34040000  1.0
  H  H74  1  0.33463000  0.17642000  0.15960000  1.0
  H  H75  1  0.16537000  0.32358000  0.65960000  1.0
  H  H76  1  0.70268000  0.67932000  0.80492000  1.0
  H  H77  1  0.79733000  0.82069000  0.30492000  1.0
  H  H78  1  0.29732000  0.32069000  0.19508000  1.0
  H  H79  1  0.20268000  0.17931000  0.69508000  1.0
  H  H80  1  0.10359000  0.74499000  0.76574000  1.0
  H  H81  1  0.39641000  0.75501000  0.26575000  1.0
  H  H82  1  0.89640000  0.25501000  0.23425000  1.0
  H  H83  1  0.60359000  0.24499000  0.73426000  1.0
  C  C84  1  0.36624000  0.90520000  0.91286000  1.0
  C  C85  1  0.13377000  0.59481000  0.41285000  1.0
  C  C86  1  0.63376000  0.09480000  0.08714000  1.0
  C  C87  1  0.86623000  0.40520000  0.58714000  1.0
  C  C88  1  0.42077000  0.87845000  0.97130000  1.0
  C  C89  1  0.07924000  0.62155000  0.47130000  1.0
  C  C90  1  0.57922000  0.12154000  0.02870000  1.0
  C  C91  1  0.92076000  0.37846000  0.52870000  1.0
  C  C92  1  0.55444000  0.89644000  0.98473000  1.0
  C  C93  1  0.94557000  0.60356000  0.48473000  1.0
  C  C94  1  0.44555000  0.10356000  0.01527000  1.0
  C  C95  1  0.05443000  0.39644000  0.51527000  1.0
  C  C96  1  0.62173000  0.94619000  0.93661000  1.0
  C  C97  1  0.87828000  0.55382000  0.43661000  1.0
  C  C98  1  0.37827000  0.05382000  0.06339000  1.0
  C  C99  1  0.12171000  0.44618000  0.56339000  1.0
  C  C100  1  0.55875000  0.97062000  0.87971000  1.0
  C  C101  1  0.94125000  0.52938000  0.37971000  1.0
  C  C102  1  0.44124000  0.02938000  0.12029000  1.0
  C  C103  1  0.05874000  0.47062000  0.62029000  1.0
  C  C104  1  0.75386000  0.89036000  0.05073000  1.0
  C  C105  1  0.74615000  0.60965000  0.55073000  1.0
  C  C106  1  0.24614000  0.10964000  0.94927000  1.0
  C  C107  1  0.25385000  0.39035000  0.44927000  1.0
  C  C108  1  0.55388000  0.81370000  0.08835000  1.0
  C  C109  1  0.94613000  0.68630000  0.58835000  1.0
  C  C110  1  0.44612000  0.18630000  0.91165000  1.0
  C  C111  1  0.05387000  0.31370000  0.41165000  1.0
  C  C112  1  0.64001000  0.74245000  0.10453000  1.0
  C  C113  1  0.86000000  0.75755000  0.60453000  1.0
  C  C114  1  0.35998000  0.25755000  0.89547000  1.0
  C  C115  1  0.14000000  0.24245000  0.39547000  1.0
  C  C116  1  0.79810000  0.86040000  0.11844000  1.0
  C  C117  1  0.70191000  0.63960000  0.61844000  1.0
  C  C118  1  0.20190000  0.13960000  0.88156000  1.0
  C  C119  1  0.29809000  0.36040000  0.38156000  1.0
  C  C120  1  0.85163000  0.72104000  0.15583000  1.0
  C  C121  1  0.64838000  0.77896000  0.65584000  1.0
  C  C122  1  0.14837000  0.27896000  0.84417000  1.0
  C  C123  1  0.35162000  0.22105000  0.34417000  1.0
  C  C124  1  0.82275000  0.63515000  0.15980000  1.0
  C  C125  1  0.67725000  0.86484000  0.65980000  1.0
  C  C126  1  0.17725000  0.36484000  0.84020000  1.0
  C  C127  1  0.32274000  0.13516000  0.34020000  1.0
  C  C128  1  0.90793000  0.58454000  0.19123000  1.0
  C  C129  1  0.59207000  0.91545000  0.69123000  1.0
  C  C130  1  0.09207000  0.41545000  0.80877000  1.0
  C  C131  1  0.40793000  0.08455000  0.30877000  1.0
  C  C132  1  0.05019000  0.69399000  0.21529000  1.0
  C  C133  1  0.44982000  0.80600000  0.71530000  1.0
  C  C134  1  0.94982000  0.30601000  0.78470000  1.0
  C  C135  1  0.55018000  0.19400000  0.28470000  1.0
  C  C136  1  0.97071000  0.74926000  0.18541000  1.0
  C  C137  1  0.52929000  0.75073000  0.68542000  1.0
  C  C138  1  0.02929000  0.25074000  0.81458000  1.0
  C  C139  1  0.47070000  0.24927000  0.31458000  1.0
  C  C140  1  0.10122000  0.90500000  0.80593000  1.0
  C  C141  1  0.39879000  0.59499000  0.30593000  1.0
  C  C142  1  0.89878000  0.09500000  0.19406000  1.0
  C  C143  1  0.60122000  0.40501000  0.69407000  1.0
  C  C144  1  0.98911000  0.84277000  0.80395000  1.0
  C  C145  1  0.51090000  0.65723000  0.30395000  1.0
  C  C146  1  0.01089000  0.15723000  0.19605000  1.0
  C  C147  1  0.48911000  0.34277000  0.69605000  1.0
  C  C148  1  0.86547000  0.86427000  0.82538000  1.0
  C  C149  1  0.63454000  0.63574000  0.32539000  1.0
  C  C150  1  0.13453000  0.13573000  0.17461000  1.0
  C  C151  1  0.36547000  0.36427000  0.67462000  1.0
  C  C152  1  0.76200000  0.80613000  0.82511000  1.0
  C  C153  1  0.73800000  0.69387000  0.32511000  1.0
  C  C154  1  0.23800000  0.19387000  0.17489000  1.0
  C  C155  1  0.26200000  0.30613000  0.67489000  1.0
  C  C156  1  0.78199000  0.72568000  0.80512000  1.0
  C  C157  1  0.71801000  0.77433000  0.30512000  1.0
  C  C158  1  0.21800000  0.27432000  0.19488000  1.0
  C  C159  1  0.28199000  0.22568000  0.69488000  1.0
  C  C160  1  0.90556000  0.70323000  0.78415000  1.0
  C  C161  1  0.59444000  0.79677000  0.28416000  1.0
  C  C162  1  0.09444000  0.29677000  0.21585000  1.0
  C  C163  1  0.40557000  0.20323000  0.71585000  1.0
  C  C164  1  0.00807000  0.76234000  0.78277000  1.0
  C  C165  1  0.49193000  0.73766000  0.28277000  1.0
  C  C166  1  0.99192000  0.23766000  0.21723000  1.0
  C  C167  1  0.50808000  0.26234000  0.71723000  1.0
  C  C168  1  0.92838000  0.61695000  0.76225000  1.0
  C  C169  1  0.57162000  0.88305000  0.26225000  1.0
  C  C170  1  0.07161000  0.38305000  0.23775000  1.0
  C  C171  1  0.42840000  0.11695000  0.73775000  1.0
  N  N172  1  0.43264000  0.95009000  0.86639000  1.0
  N  N173  1  0.06737000  0.54991000  0.36639000  1.0
  N  N174  1  0.56736000  0.04990000  0.13362000  1.0
  N  N175  1  0.93263000  0.45009000  0.63361000  1.0
  N  N176  1  0.61590000  0.86889000  0.03958000  1.0
  N  N177  1  0.88411000  0.63111000  0.53958000  1.0
  N  N178  1  0.38410000  0.13111000  0.96042000  1.0
  N  N179  1  0.11589000  0.36888000  0.46042000  1.0
  N  N180  1  0.76890000  0.77251000  0.12619000  1.0
  N  N181  1  0.73111000  0.72749000  0.62619000  1.0
  N  N182  1  0.23110000  0.22749000  0.87381000  1.0
  N  N183  1  0.26889000  0.27251000  0.37381000  1.0
  N  N184  1  0.02120000  0.61229000  0.21893000  1.0
  N  N185  1  0.47880000  0.88770000  0.71893000  1.0
  N  N186  1  0.97880000  0.38771000  0.78106000  1.0
  N  N187  1  0.52120000  0.11229000  0.28106000  1.0
  O  O188  1  0.20180000  0.88508000  0.77111000  1.0
  O  O189  1  0.29822000  0.61491000  0.27111000  1.0
  O  O190  1  0.79820000  0.11492000  0.22888000  1.0
  O  O191  1  0.70180000  0.38508000  0.72888000  1.0
  O  O192  1  0.09467000  0.96846000  0.84060000  1.0
  O  O193  1  0.40534000  0.53154000  0.34062000  1.0
  O  O194  1  0.90534000  0.03153000  0.15939000  1.0
  O  O195  1  0.59466000  0.46847000  0.65939000  1.0
  O  O196  1  0.82682000  0.56679000  0.76515000  1.0
  O  O197  1  0.67318000  0.93322000  0.26515000  1.0
  O  O198  1  0.17317000  0.43322000  0.23485000  1.0
  O  O199  1  0.32683000  0.06678000  0.73486000  1.0
  O  O200  1  0.03790000  0.59741000  0.74144000  1.0
  O  O201  1  0.46210000  0.90259000  0.24144000  1.0
  O  O202  1  0.96208000  0.40259000  0.25856000  1.0
  O  O203  1  0.53792000  0.09741000  0.75856000  1.0
