# generated using pymatgen
data_CoH4C8N4(OF)2
_symmetry_space_group_name_H-M   'P 1'
_cell_length_a   10.22460000
_cell_length_b   14.02648965
_cell_length_c   14.03050000
_cell_angle_alpha   114.28900561
_cell_angle_beta   104.06100000
_cell_angle_gamma   104.05760778
_symmetry_Int_Tables_number   1
_chemical_formula_structural   CoH4C8N4(OF)2
_chemical_formula_sum   'Co6 H24 C48 N24 O12 F12'
_cell_volume   1639.93275714
_cell_formula_units_Z   6
loop_
 _symmetry_equiv_pos_site_id
 _symmetry_equiv_pos_as_xyz
  1  'x, y, z'
loop_
 _atom_site_type_symbol
 _atom_site_label
 _atom_site_symmetry_multiplicity
 _atom_site_fract_x
 _atom_site_fract_y
 _atom_site_fract_z
 _atom_site_occupancy
  Co  Co0  1  0.22694000  0.45895000  0.23435000  1.0
  Co  Co1  1  0.76778000  0.54099000  0.77552000  1.0
  Co  Co2  1  0.99225000  0.76548000  0.22448000  1.0
  Co  Co3  1  0.76800000  0.77551000  0.54129000  1.0
  Co  Co4  1  0.99260000  0.22460000  0.76565000  1.0
  Co  Co5  1  0.22671000  0.23421000  0.45870000  1.0
  H  H6  1  0.42283000  0.31735000  0.16105000  1.0
  H  H7  1  0.10514000  0.68285000  0.84375000  1.0
  H  H8  1  0.26137000  0.83909000  0.15625000  1.0
  H  H9  1  0.10523000  0.84374000  0.68266000  1.0
  H  H10  1  0.26180000  0.15630000  0.83896000  1.0
  H  H11  1  0.42258000  0.16110000  0.31736000  1.0
  H  H12  1  0.17004000  0.62862000  0.44436000  1.0
  H  H13  1  0.54139000  0.37113000  0.81591000  1.0
  H  H14  1  0.72549000  0.55523000  0.18408000  1.0
  H  H15  1  0.54183000  0.81598000  0.37142000  1.0
  H  H16  1  0.72570000  0.18427000  0.55565000  1.0
  H  H17  1  0.17039000  0.44453000  0.62856000  1.0
  H  H18  1  0.91824000  0.30749000  0.18298000  1.0
  H  H19  1  0.61036000  0.69251000  0.87565000  1.0
  H  H20  1  0.73470000  0.81687000  0.12434000  1.0
  H  H21  1  0.61051000  0.87573000  0.69284000  1.0
  H  H22  1  0.73528000  0.12453000  0.81705000  1.0
  H  H23  1  0.91765000  0.18289000  0.30715000  1.0
  H  H24  1  0.42957000  0.58237000  0.15044000  1.0
  H  H25  1  0.84731000  0.41778000  0.56821000  1.0
  H  H26  1  0.27911000  0.84957000  0.43180000  1.0
  H  H27  1  0.84727000  0.56834000  0.41805000  1.0
  H  H28  1  0.27913000  0.43192000  0.84954000  1.0
  H  H29  1  0.42923000  0.15027000  0.58193000  1.0
  C  C30  1  0.51710000  0.57914000  0.37366000  1.0
  C  C31  1  0.93809000  0.42093000  0.79452000  1.0
  C  C32  1  0.14357000  0.62640000  0.20548000  1.0
  C  C33  1  0.93801000  0.79435000  0.42079000  1.0
  C  C34  1  0.14345000  0.20547000  0.62634000  1.0
  C  C35  1  0.51723000  0.37357000  0.57923000  1.0
  C  C36  1  0.49399000  0.39985000  0.23569000  1.0
  C  C37  1  0.09398000  0.60032000  0.83583000  1.0
  C  C38  1  0.25814000  0.76448000  0.16417000  1.0
  C  C39  1  0.09399000  0.83578000  0.60013000  1.0
  C  C40  1  0.25830000  0.16415000  0.76430000  1.0
  C  C41  1  0.49387000  0.23566000  0.39988000  1.0
  C  C42  1  0.18875000  0.37662000  0.37653000  1.0
  C  C43  1  0.81182000  0.62322000  0.99999000  1.0
  C  C44  1  0.81221000  0.00008000  0.62346000  1.0
  C  C45  1  0.17264000  0.55552000  0.45346000  1.0
  C  C46  1  0.61697000  0.44427000  0.89807000  1.0
  C  C47  1  0.71890000  0.54620000  0.10192000  1.0
  C  C48  1  0.61738000  0.89816000  0.44455000  1.0
  C  C49  1  0.71919000  0.10206000  0.54654000  1.0
  C  C50  1  0.17281000  0.45359000  0.55543000  1.0
  C  C51  1  0.07843000  0.29958000  0.00002000  1.0
  C  C52  1  0.77837000  0.70043000  0.70055000  1.0
  C  C53  1  0.07782000  0.99989000  0.29943000  1.0
  C  C54  1  0.92842000  0.28140000  0.10131000  1.0
  C  C55  1  0.64664000  0.71861000  0.82006000  1.0
  C  C56  1  0.82658000  0.89856000  0.17993000  1.0
  C  C57  1  0.64672000  0.82005000  0.71885000  1.0
  C  C58  1  0.82713000  0.18011000  0.89872000  1.0
  C  C59  1  0.92787000  0.10121000  0.28114000  1.0
  C  C60  1  0.35137000  0.62263000  0.16197000  1.0
  C  C61  1  0.72886000  0.37749000  0.53950000  1.0
  C  C62  1  0.18938000  0.83800000  0.46052000  1.0
  C  C63  1  0.72884000  0.53958000  0.37773000  1.0
  C  C64  1  0.18939000  0.46065000  0.83801000  1.0
  C  C65  1  0.35112000  0.16184000  0.62227000  1.0
  C  C66  1  0.64447000  0.43245000  0.28392000  1.0
  C  C67  1  0.21197000  0.56781000  0.85138000  1.0
  C  C68  1  0.36058000  0.71642000  0.14861000  1.0
  C  C69  1  0.21198000  0.85140000  0.56766000  1.0
  C  C70  1  0.36056000  0.14852000  0.71608000  1.0
  C  C71  1  0.64433000  0.28375000  0.43235000  1.0
  C  C72  1  0.16893000  0.54924000  0.54912000  1.0
  C  C73  1  0.61948000  0.45053000  0.00000000  1.0
  C  C74  1  0.61981000  0.00012000  0.45087000  1.0
  C  C75  1  0.80958000  0.20407000  0.00002000  1.0
  C  C76  1  0.60518000  0.79602000  0.79614000  1.0
  C  C77  1  0.80903000  0.99989000  0.20386000  1.0
  N  N78  1  0.43251000  0.47185000  0.28006000  1.0
  N  N79  1  0.96057000  0.52823000  0.80824000  1.0
  N  N80  1  0.15233000  0.71998000  0.19176000  1.0
  N  N81  1  0.96053000  0.80808000  0.52805000  1.0
  N  N82  1  0.15246000  0.19178000  0.71993000  1.0
  N  N83  1  0.43249000  0.28004000  0.47196000  1.0
  N  N84  1  0.18107000  0.47020000  0.36853000  1.0
  N  N85  1  0.71066000  0.52961000  0.89844000  1.0
  N  N86  1  0.81222000  0.63117000  0.10155000  1.0
  N  N87  1  0.71106000  0.89850000  0.52986000  1.0
  N  N88  1  0.81254000  0.10166000  0.63147000  1.0
  N  N89  1  0.18121000  0.36864000  0.47013000  1.0
  N  N90  1  0.05864000  0.32848000  0.10091000  1.0
  N  N91  1  0.72971000  0.67148000  0.77253000  1.0
  N  N92  1  0.95717000  0.89896000  0.22745000  1.0
  N  N93  1  0.72980000  0.77255000  0.67171000  1.0
  N  N94  1  0.95774000  0.22758000  0.89912000  1.0
  N  N95  1  0.05809000  0.10085000  0.32828000  1.0
  N  N96  1  0.24598000  0.57961000  0.19091000  1.0
  N  N97  1  0.66644000  0.42041000  0.61144000  1.0
  N  N98  1  0.05501000  0.80897000  0.38857000  1.0
  N  N99  1  0.66629000  0.61144000  0.42064000  1.0
  N  N100  1  0.05507000  0.38871000  0.80909000  1.0
  N  N101  1  0.24565000  0.19078000  0.57934000  1.0
  O  O102  1  0.45790000  0.64630000  0.41359000  1.0
  O  O103  1  0.81183000  0.35367000  0.76739000  1.0
  O  O104  1  0.04445000  0.58625000  0.23260000  1.0
  O  O105  1  0.81178000  0.76715000  0.35348000  1.0
  O  O106  1  0.04432000  0.23270000  0.58640000  1.0
  O  O107  1  0.45832000  0.41368000  0.64654000  1.0
  O  O108  1  0.20465000  0.29940000  0.29932000  1.0
  O  O109  1  0.90487000  0.70048000  0.99998000  1.0
  O  O110  1  0.90530000  0.00005000  0.70067000  1.0
  O  O111  1  0.20216000  0.33966000  0.00002000  1.0
  O  O112  1  0.86197000  0.66031000  0.66039000  1.0
  O  O113  1  0.20159000  0.99994000  0.33959000  1.0
  F  F114  1  0.70911000  0.36093000  0.23819000  1.0
  F  F115  1  0.34804000  0.63945000  0.87722000  1.0
  F  F116  1  0.47080000  0.76223000  0.12276000  1.0
  F  F117  1  0.34808000  0.87738000  0.63935000  1.0
  F  F118  1  0.47093000  0.12273000  0.76181000  1.0
  F  F119  1  0.70875000  0.23804000  0.36067000  1.0
  F  F120  1  0.16287000  0.63684000  0.63673000  1.0
  F  F121  1  0.52588000  0.36288000  0.00001000  1.0
  F  F122  1  0.52615000  0.00013000  0.36326000  1.0
  F  F123  1  0.67741000  0.15543000  0.00001000  1.0
  F  F124  1  0.52158000  0.84460000  0.84471000  1.0
  F  F125  1  0.67686000  0.99990000  0.15530000  1.0
