# generated using pymatgen
data_Zn4H21C36N3O16
_symmetry_space_group_name_H-M   'P 1'
_cell_length_a   21.03390000
_cell_length_b   21.24700000
_cell_length_c   21.50033988
_cell_angle_alpha   62.09167767
_cell_angle_beta   61.59423063
_cell_angle_gamma   61.35690000
_symmetry_Int_Tables_number   1
_chemical_formula_structural   Zn4H21C36N3O16
_chemical_formula_sum   'Zn8 H42 C72 N6 O32'
_cell_volume   7049.81370898
_cell_formula_units_Z   2
loop_
 _symmetry_equiv_pos_site_id
 _symmetry_equiv_pos_as_xyz
  1  'x, y, z'
loop_
 _atom_site_type_symbol
 _atom_site_label
 _atom_site_symmetry_multiplicity
 _atom_site_fract_x
 _atom_site_fract_y
 _atom_site_fract_z
 _atom_site_occupancy
  Zn  Zn0  1  0.04822000  0.02828000  0.04080000  1.0
  Zn  Zn1  1  0.89611000  0.03724000  0.04519000  1.0
  Zn  Zn2  1  0.03663000  0.88251000  0.04904000  1.0
  Zn  Zn3  1  0.04295000  0.02843000  0.89448000  1.0
  Zn  Zn4  1  0.46718000  0.45423000  0.47157000  1.0
  Zn  Zn5  1  0.61699000  0.45690000  0.47177000  1.0
  Zn  Zn6  1  0.46950000  0.45973000  0.61836000  1.0
  Zn  Zn7  1  0.46882000  0.60478000  0.46779000  1.0
  H  H8  1  0.95910000  0.20149000  0.12768000  1.0
  H  H9  1  0.89062000  0.28653000  0.20839000  1.0
  H  H10  1  0.75857000  0.14113000  0.21467000  1.0
  H  H11  1  0.66379000  0.12304000  0.33212000  1.0
  H  H12  1  0.57603000  0.19707000  0.35394000  1.0
  H  H13  1  0.62769000  0.19808000  0.25943000  1.0
  H  H14  1  0.57863000  0.27990000  0.38192000  1.0
  H  H15  1  0.11283000  0.93249000  0.22380000  1.0
  H  H16  1  0.18796000  0.86496000  0.31340000  1.0
  H  H17  1  0.20781000  0.73263000  0.16217000  1.0
  H  H18  1  0.32861000  0.64007000  0.14540000  1.0
  H  H19  1  0.35135000  0.55409000  0.21740000  1.0
  H  H20  1  0.25449000  0.60308000  0.21814000  1.0
  H  H21  1  0.37734000  0.55917000  0.29928000  1.0
  H  H22  1  0.22926000  0.09778000  0.94394000  1.0
  H  H23  1  0.31620000  0.17637000  0.87894000  1.0
  H  H24  1  0.15812000  0.19681000  0.75225000  1.0
  H  H25  1  0.13599000  0.31909000  0.66548000  1.0
  H  H26  1  0.20848000  0.34410000  0.57988000  1.0
  H  H27  1  0.21153000  0.24808000  0.62416000  1.0
  H  H28  1  0.29239000  0.36915000  0.58380000  1.0
  H  H29  1  0.72889000  0.94390000  0.12566000  1.0
  H  H30  1  0.63290000  0.87418000  0.19810000  1.0
  H  H31  1  0.89888000  0.74427000  0.20818000  1.0
  H  H32  1  0.89533000  0.64590000  0.32155000  1.0
  H  H33  1  0.88467000  0.56082000  0.33676000  1.0
  H  H34  1  0.92530000  0.61500000  0.24446000  1.0
  H  H35  1  0.77075000  0.56554000  0.36653000  1.0
  H  H36  1  0.74463000  0.21189000  0.94825000  1.0
  H  H37  1  0.64668000  0.30221000  0.88202000  1.0
  H  H38  1  0.90305000  0.15082000  0.75062000  1.0
  H  H39  1  0.89035000  0.13647000  0.65653000  1.0
  H  H40  1  0.87952000  0.21102000  0.57264000  1.0
  H  H41  1  0.92703000  0.21111000  0.62272000  1.0
  H  H42  1  0.76800000  0.29253000  0.57846000  1.0
  H  H43  1  0.12202000  0.72567000  0.94866000  1.0
  H  H44  1  0.19582000  0.63006000  0.87878000  1.0
  H  H45  1  0.20401000  0.89239000  0.75084000  1.0
  H  H46  1  0.32008000  0.88851000  0.65212000  1.0
  H  H47  1  0.33650000  0.87585000  0.56857000  1.0
  H  H48  1  0.24117000  0.91605000  0.62311000  1.0
  H  H49  1  0.36971000  0.76197000  0.57373000  1.0
  C  C50  1  0.90158000  0.11776000  0.11918000  1.0
  C  C51  1  0.86167000  0.16716000  0.16733000  1.0
  C  C52  1  0.90040000  0.20742000  0.16480000  1.0
  C  C53  1  0.86311000  0.25382000  0.20894000  1.0
  C  C54  1  0.78743000  0.26118000  0.25660000  1.0
  C  C55  1  0.74903000  0.21999000  0.25941000  1.0
  C  C56  1  0.78651000  0.17315000  0.21437000  1.0
  C  C57  1  0.63326000  0.18384000  0.31318000  1.0
  C  C58  1  0.63793000  0.27548000  0.34743000  1.0
  C  C59  1  0.67084000  0.31754000  0.34804000  1.0
  C  C60  1  0.62180000  0.36721000  0.39626000  1.0
  C  C61  1  0.75047000  0.31261000  0.30220000  1.0
  C  C62  1  0.11116000  0.87648000  0.13652000  1.0
  C  C63  1  0.15619000  0.83540000  0.18889000  1.0
  C  C64  1  0.15033000  0.87410000  0.23060000  1.0
  C  C65  1  0.19167000  0.83749000  0.27925000  1.0
  C  C66  1  0.24089000  0.76270000  0.28667000  1.0
  C  C67  1  0.24796000  0.72451000  0.24342000  1.0
  C  C68  1  0.20444000  0.76086000  0.19532000  1.0
  C  C69  1  0.30854000  0.60992000  0.20504000  1.0
  C  C70  1  0.33920000  0.61682000  0.29718000  1.0
  C  C71  1  0.33574000  0.64973000  0.34109000  1.0
  C  C72  1  0.38611000  0.60368000  0.38849000  1.0
  C  C73  1  0.28334000  0.72643000  0.34058000  1.0
  C  C74  1  0.13880000  0.09587000  0.89063000  1.0
  C  C75  1  0.18975000  0.14292000  0.85076000  1.0
  C  C76  1  0.23346000  0.13685000  0.88781000  1.0
  C  C77  1  0.28076000  0.18001000  0.85256000  1.0
  C  C78  1  0.28521000  0.23096000  0.78062000  1.0
  C  C79  1  0.24005000  0.23801000  0.74409000  1.0
  C  C80  1  0.19291000  0.19319000  0.77918000  1.0
  C  C81  1  0.19718000  0.30055000  0.63368000  1.0
  C  C82  1  0.29160000  0.33070000  0.63969000  1.0
  C  C83  1  0.33752000  0.32708000  0.67090000  1.0
  C  C84  1  0.38573000  0.37685000  0.62423000  1.0
  C  C85  1  0.33843000  0.27495000  0.74540000  1.0
  C  C86  1  0.87542000  0.88845000  0.12093000  1.0
  C  C87  1  0.81895000  0.84717000  0.16374000  1.0
  C  C88  1  0.74399000  0.88517000  0.16012000  1.0
  C  C89  1  0.69135000  0.84729000  0.19982000  1.0
  C  C90  1  0.71088000  0.77189000  0.24477000  1.0
  C  C91  1  0.78629000  0.73400000  0.24831000  1.0
  C  C92  1  0.84033000  0.77186000  0.20711000  1.0
  C  C93  1  0.88221000  0.61812000  0.29906000  1.0
  C  C94  1  0.75181000  0.62414000  0.33293000  1.0
  C  C95  1  0.67702000  0.65712000  0.33392000  1.0
  C  C96  1  0.62670000  0.60973000  0.38413000  1.0
  C  C97  1  0.65076000  0.73497000  0.28744000  1.0
  C  C98  1  0.88618000  0.12394000  0.89281000  1.0
  C  C99  1  0.82930000  0.17698000  0.85236000  1.0
  C  C100  1  0.75686000  0.21896000  0.89061000  1.0
  C  C101  1  0.70310000  0.26815000  0.85464000  1.0
  C  C102  1  0.71891000  0.27635000  0.78064000  1.0
  C  C103  1  0.79136000  0.23329000  0.74265000  1.0
  C  C104  1  0.84670000  0.18415000  0.77863000  1.0
  C  C105  1  0.88010000  0.19729000  0.62822000  1.0
  C  C106  1  0.75201000  0.28921000  0.63585000  1.0
  C  C107  1  0.68026000  0.33263000  0.66881000  1.0
  C  C108  1  0.62874000  0.38101000  0.62255000  1.0
  C  C109  1  0.65851000  0.33089000  0.74498000  1.0
  C  C110  1  0.11465000  0.87007000  0.89496000  1.0
  C  C111  1  0.15926000  0.81422000  0.85285000  1.0
  C  C112  1  0.15661000  0.74016000  0.89026000  1.0
  C  C113  1  0.19718000  0.68769000  0.85235000  1.0
  C  C114  1  0.24253000  0.70642000  0.77741000  1.0
  C  C115  1  0.24608000  0.78058000  0.74017000  1.0
  C  C116  1  0.20334000  0.83465000  0.77806000  1.0
  C  C117  1  0.29766000  0.87406000  0.62539000  1.0
  C  C118  1  0.33439000  0.74428000  0.63148000  1.0
  C  C119  1  0.33517000  0.67080000  0.66395000  1.0
  C  C120  1  0.38735000  0.61917000  0.61789000  1.0
  C  C121  1  0.28502000  0.64693000  0.74005000  1.0
  N  N122  1  0.67364000  0.22749000  0.30692000  1.0
  N  N123  1  0.29846000  0.65058000  0.24985000  1.0
  N  N124  1  0.24402000  0.28977000  0.67284000  1.0
  N  N125  1  0.80538000  0.65891000  0.29320000  1.0
  N  N126  1  0.80642000  0.24105000  0.66919000  1.0
  N  N127  1  0.29247000  0.79828000  0.66584000  1.0
  O  O128  1  0.00698000  0.99243000  0.00389000  1.0
  O  O129  1  0.86342000  0.08511000  0.11993000  1.0
  O  O130  1  0.97160000  0.11187000  0.08034000  1.0
  O  O131  1  0.65538000  0.39076000  0.41248000  1.0
  O  O132  1  0.54918000  0.38163000  0.41783000  1.0
  O  O133  1  0.78626000  0.34750000  0.29810000  1.0
  O  O134  1  0.10614000  0.83900000  0.10762000  1.0
  O  O135  1  0.08037000  0.94771000  0.12481000  1.0
  O  O136  1  0.40074000  0.63855000  0.41176000  1.0
  O  O137  1  0.41137000  0.53188000  0.40107000  1.0
  O  O138  1  0.27141000  0.76006000  0.38105000  1.0
  O  O139  1  0.10565000  0.09419000  0.85492000  1.0
  O  O140  1  0.13262000  0.06022000  0.95929000  1.0
  O  O141  1  0.41127000  0.39198000  0.65655000  1.0
  O  O142  1  0.39657000  0.40086000  0.55397000  1.0
  O  O143  1  0.37966000  0.26414000  0.77794000  1.0
  O  O144  1  0.94569000  0.85007000  0.11576000  1.0
  O  O145  1  0.84798000  0.95981000  0.09289000  1.0
  O  O146  1  0.55487000  0.64294000  0.39967000  1.0
  O  O147  1  0.66085000  0.53866000  0.40876000  1.0
  O  O148  1  0.58613000  0.76968000  0.28100000  1.0
  O  O149  1  0.95437000  0.09126000  0.85633000  1.0
  O  O150  1  0.86084000  0.11591000  0.96219000  1.0
  O  O151  1  0.55718000  0.40304000  0.65570000  1.0
  O  O152  1  0.66228000  0.39539000  0.55187000  1.0
  O  O153  1  0.59786000  0.37095000  0.77858000  1.0
  O  O154  1  0.10679000  0.93975000  0.85797000  1.0
  O  O155  1  0.08787000  0.84242000  0.96541000  1.0
  O  O156  1  0.40320000  0.54877000  0.65171000  1.0
  O  O157  1  0.41301000  0.65080000  0.54755000  1.0
  O  O158  1  0.27505000  0.58493000  0.77269000  1.0
  O  O159  1  0.50501000  0.49382000  0.50800000  1.0
