# generated using pymatgen
data_CoH13C20N5O4
_symmetry_space_group_name_H-M   'P 1'
_cell_length_a   10.18750000
_cell_length_b   16.59090000
_cell_length_c   23.93730000
_cell_angle_alpha   90.48600000
_cell_angle_beta   90.00050000
_cell_angle_gamma   89.99970000
_symmetry_Int_Tables_number   1
_chemical_formula_structural   CoH13C20N5O4
_chemical_formula_sum   'Co8 H104 C160 N40 O32'
_cell_volume   4045.73196033
_cell_formula_units_Z   8
loop_
 _symmetry_equiv_pos_site_id
 _symmetry_equiv_pos_as_xyz
  1  'x, y, z'
loop_
 _atom_site_type_symbol
 _atom_site_label
 _atom_site_symmetry_multiplicity
 _atom_site_fract_x
 _atom_site_fract_y
 _atom_site_fract_z
 _atom_site_occupancy
  Co  Co0  1  0.22842000  0.48115000  0.86482000  1.0
  Co  Co1  1  0.72842000  0.01884000  0.63518000  1.0
  Co  Co2  1  0.77158000  0.51885000  0.13518000  1.0
  Co  Co3  1  0.27158000  0.98115000  0.36482000  1.0
  Co  Co4  1  0.26167000  0.61740000  0.73170000  1.0
  Co  Co5  1  0.76168000  0.88260000  0.76831000  1.0
  Co  Co6  1  0.73833000  0.38260000  0.26830000  1.0
  Co  Co7  1  0.23832000  0.11740000  0.23170000  1.0
  H  H8  1  0.88386000  0.49559000  0.87069000  1.0
  H  H9  1  0.38386000  0.00441000  0.62931000  1.0
  H  H10  1  0.11614000  0.50441000  0.12931000  1.0
  H  H11  1  0.61615000  0.99558000  0.37068000  1.0
  H  H12  1  0.64160000  0.46959000  0.86978000  1.0
  H  H13  1  0.14160000  0.03041000  0.63022000  1.0
  H  H14  1  0.35840000  0.53041000  0.13021000  1.0
  H  H15  1  0.85840000  0.96958000  0.36978000  1.0
  H  H16  1  0.60747000  0.59466000  0.71335000  1.0
  H  H17  1  0.10748000  0.90534000  0.78665000  1.0
  H  H18  1  0.39253000  0.40535000  0.28665000  1.0
  H  H19  1  0.89252000  0.09466000  0.21335000  1.0
  H  H20  1  0.84805000  0.62439000  0.71612000  1.0
  H  H21  1  0.34806000  0.87560000  0.78388000  1.0
  H  H22  1  0.15194000  0.37562000  0.28389000  1.0
  H  H23  1  0.65194000  0.12439000  0.21612000  1.0
  H  H24  1  0.26609000  0.82230000  0.62889000  1.0
  H  H25  1  0.76610000  0.67770000  0.87112000  1.0
  H  H26  1  0.73391000  0.17770000  0.37112000  1.0
  H  H27  1  0.23390000  0.32230000  0.12889000  1.0
  H  H28  1  0.23608000  0.90757000  0.54430000  1.0
  H  H29  1  0.73611000  0.59243000  0.95570000  1.0
  H  H30  1  0.76391000  0.09243000  0.45570000  1.0
  H  H31  1  0.26392000  0.40757000  0.04430000  1.0
  H  H32  1  0.47763000  0.74327000  0.44910000  1.0
  H  H33  1  0.97766000  0.75673000  0.05090000  1.0
  H  H34  1  0.52235000  0.25672000  0.55090000  1.0
  H  H35  1  0.02236000  0.24328000  0.94910000  1.0
  H  H36  1  0.50477000  0.65741000  0.53439000  1.0
  H  H37  1  0.00478000  0.84259000  0.96561000  1.0
  H  H38  1  0.49523000  0.34259000  0.46560000  1.0
  H  H39  1  0.99522000  0.15741000  0.03439000  1.0
  H  H40  1  0.99545000  0.40344000  0.81418000  1.0
  H  H41  1  0.49547000  0.09656000  0.68581000  1.0
  H  H42  1  0.00455000  0.59657000  0.18581000  1.0
  H  H43  1  0.50454000  0.90344000  0.31419000  1.0
  H  H44  1  0.93598000  0.32417000  0.72870000  1.0
  H  H45  1  0.43600000  0.17584000  0.77130000  1.0
  H  H46  1  0.06402000  0.67585000  0.27130000  1.0
  H  H47  1  0.56402000  0.82417000  0.22870000  1.0
  H  H48  1  0.35022000  0.29564000  0.69649000  1.0
  H  H49  1  0.85024000  0.20436000  0.80350000  1.0
  H  H50  1  0.64977000  0.70435000  0.30350000  1.0
  H  H51  1  0.14978000  0.79564000  0.19649000  1.0
  H  H52  1  0.39250000  0.37613000  0.78332000  1.0
  H  H53  1  0.89252000  0.12386000  0.71668000  1.0
  H  H54  1  0.60750000  0.62386000  0.21667000  1.0
  H  H55  1  0.10750000  0.87613000  0.28332000  1.0
  H  H56  1  0.96451000  0.13810000  0.49570000  1.0
  H  H57  1  0.46451000  0.36190000  0.00429000  1.0
  H  H58  1  0.03549000  0.86189000  0.50429000  1.0
  H  H59  1  0.53549000  0.63810000  0.99571000  1.0
  H  H60  1  0.03536000  0.06243000  0.41160000  1.0
  H  H61  1  0.53534000  0.43757000  0.08840000  1.0
  H  H62  1  0.96466000  0.93756000  0.58840000  1.0
  H  H63  1  0.46464000  0.56243000  0.91160000  1.0
  H  H64  1  0.42541000  0.06955000  0.45947000  1.0
  H  H65  1  0.92540000  0.43045000  0.04053000  1.0
  H  H66  1  0.57460000  0.93045000  0.54053000  1.0
  H  H67  1  0.07459000  0.56955000  0.95948000  1.0
  H  H68  1  0.37103000  0.13959000  0.54905000  1.0
  H  H69  1  0.87104000  0.36041000  0.95096000  1.0
  H  H70  1  0.62896000  0.86041000  0.45095000  1.0
  H  H71  1  0.12897000  0.63960000  0.04905000  1.0
  H  H72  1  0.12060000  0.71277000  0.82647000  1.0
  H  H73  1  0.62061000  0.78723000  0.67354000  1.0
  H  H74  1  0.87940000  0.28723000  0.17353000  1.0
  H  H75  1  0.37939000  0.21277000  0.32647000  1.0
  H  H76  1  0.18126000  0.78991000  0.91191000  1.0
  H  H77  1  0.68127000  0.71009000  0.58810000  1.0
  H  H78  1  0.81873000  0.21009000  0.08809000  1.0
  H  H79  1  0.31873000  0.28991000  0.41191000  1.0
  H  H80  1  0.58724000  0.76797000  0.86109000  1.0
  H  H81  1  0.08725000  0.73204000  0.63891000  1.0
  H  H82  1  0.41276000  0.23204000  0.13891000  1.0
  H  H83  1  0.91276000  0.26796000  0.36109000  1.0
  H  H84  1  0.50902000  0.69407000  0.77679000  1.0
  H  H85  1  0.00903000  0.80593000  0.72321000  1.0
  H  H86  1  0.49097000  0.30593000  0.22321000  1.0
  H  H87  1  0.99097000  0.19407000  0.27679000  1.0
  H  H88  1  0.17379000  0.90341000  0.06700000  1.0
  H  H89  1  0.67379000  0.59660000  0.43300000  1.0
  H  H90  1  0.82619000  0.09661000  0.93300000  1.0
  H  H91  1  0.32620000  0.40340000  0.56701000  1.0
  H  H92  1  0.11022000  0.99101000  0.14911000  1.0
  H  H93  1  0.61023000  0.50899000  0.35089000  1.0
  H  H94  1  0.88977000  0.00900000  0.85089000  1.0
  H  H95  1  0.38977000  0.49101000  0.64911000  1.0
  H  H96  1  0.49099000  0.07098000  0.16930000  1.0
  H  H97  1  0.99100000  0.42901000  0.33071000  1.0
  H  H98  1  0.50900000  0.92901000  0.83071000  1.0
  H  H99  1  0.00900000  0.57099000  0.66930000  1.0
  H  H100  1  0.57073000  0.99126000  0.08847000  1.0
  H  H101  1  0.07073000  0.50874000  0.41154000  1.0
  H  H102  1  0.42926000  0.00874000  0.91154000  1.0
  H  H103  1  0.92927000  0.49126000  0.58846000  1.0
  H  H104  1  0.91153000  0.16520000  0.58020000  1.0
  H  H105  1  0.41154000  0.33480000  0.91979000  1.0
  H  H106  1  0.08847000  0.83480000  0.41980000  1.0
  H  H107  1  0.58847000  0.66520000  0.08020000  1.0
  H  H108  1  0.62697000  0.87530000  0.03657000  1.0
  H  H109  1  0.12697000  0.62470000  0.46344000  1.0
  H  H110  1  0.37302000  0.12470000  0.96344000  1.0
  H  H111  1  0.87303000  0.37530000  0.53657000  1.0
  C  C112  1  0.02449000  0.57678000  0.79383000  1.0
  C  C113  1  0.52450000  0.92322000  0.70617000  1.0
  C  C114  1  0.97550000  0.42323000  0.20617000  1.0
  C  C115  1  0.47551000  0.07677000  0.29383000  1.0
  C  C116  1  0.88047000  0.56157000  0.79335000  1.0
  C  C117  1  0.38048000  0.93843000  0.70665000  1.0
  C  C118  1  0.11952000  0.43844000  0.20665000  1.0
  C  C119  1  0.61953000  0.06156000  0.29335000  1.0
  C  C120  1  0.82255000  0.51727000  0.83664000  1.0
  C  C121  1  0.32255000  0.98273000  0.66336000  1.0
  C  C122  1  0.17745000  0.48273000  0.16336000  1.0
  C  C123  1  0.67745000  0.01726000  0.33664000  1.0
  C  C124  1  0.68824000  0.50276000  0.83608000  1.0
  C  C125  1  0.18825000  0.99724000  0.66392000  1.0
  C  C126  1  0.31175000  0.49724000  0.16392000  1.0
  C  C127  1  0.81176000  0.00275000  0.33608000  1.0
  C  C128  1  0.61030000  0.53149000  0.79210000  1.0
  C  C129  1  0.11031000  0.96851000  0.70790000  1.0
  C  C130  1  0.38970000  0.46852000  0.20790000  1.0
  C  C131  1  0.88969000  0.03148000  0.29210000  1.0
  C  C132  1  0.66850000  0.57374000  0.74791000  1.0
  C  C133  1  0.16851000  0.92626000  0.75209000  1.0
  C  C134  1  0.33150000  0.42627000  0.25209000  1.0
  C  C135  1  0.83150000  0.07373000  0.24791000  1.0
  C  C136  1  0.80253000  0.58932000  0.74912000  1.0
  C  C137  1  0.30254000  0.91068000  0.75088000  1.0
  C  C138  1  0.19746000  0.41069000  0.25088000  1.0
  C  C139  1  0.69746000  0.08931000  0.24912000  1.0
  C  C140  1  0.46496000  0.52253000  0.79438000  1.0
  C  C141  1  0.96497000  0.97747000  0.70562000  1.0
  C  C142  1  0.53504000  0.47747000  0.20561000  1.0
  C  C143  1  0.03503000  0.02253000  0.29438000  1.0
  C  C144  1  0.39890000  0.68072000  0.63603000  1.0
  C  C145  1  0.89890000  0.81928000  0.86398000  1.0
  C  C146  1  0.60111000  0.31927000  0.36397000  1.0
  C  C147  1  0.10110000  0.18073000  0.13602000  1.0
  C  C148  1  0.38531000  0.73436000  0.58617000  1.0
  C  C149  1  0.88532000  0.76564000  0.91383000  1.0
  C  C150  1  0.61469000  0.26564000  0.41383000  1.0
  C  C151  1  0.11468000  0.23436000  0.08617000  1.0
  C  C152  1  0.31068000  0.80509000  0.58924000  1.0
  C  C153  1  0.81070000  0.69491000  0.91077000  1.0
  C  C154  1  0.68932000  0.19491000  0.41077000  1.0
  C  C155  1  0.18931000  0.30509000  0.08924000  1.0
  C  C156  1  0.29374000  0.85221000  0.54213000  1.0
  C  C157  1  0.79376000  0.64779000  0.95788000  1.0
  C  C158  1  0.70625000  0.14779000  0.45788000  1.0
  C  C159  1  0.20625000  0.35221000  0.04213000  1.0
  C  C160  1  0.35262000  0.82942000  0.49143000  1.0
  C  C161  1  0.85264000  0.67058000  0.00857000  1.0
  C  C162  1  0.64737000  0.17058000  0.50857000  1.0
  C  C163  1  0.14738000  0.32943000  0.99143000  1.0
  C  C164  1  0.43030000  0.75978000  0.48847000  1.0
  C  C165  1  0.93032000  0.74022000  0.01154000  1.0
  C  C166  1  0.56969000  0.24022000  0.51153000  1.0
  C  C167  1  0.06969000  0.25979000  0.98847000  1.0
  C  C168  1  0.44585000  0.71231000  0.53571000  1.0
  C  C169  1  0.94587000  0.78770000  0.96429000  1.0
  C  C170  1  0.55414000  0.28769000  0.46429000  1.0
  C  C171  1  0.05413000  0.21231000  0.03571000  1.0
  C  C172  1  0.33020000  0.88085000  0.44186000  1.0
  C  C173  1  0.83022000  0.61915000  0.05814000  1.0
  C  C174  1  0.66979000  0.11915000  0.55814000  1.0
  C  C175  1  0.16980000  0.38085000  0.94186000  1.0
  C  C176  1  0.07094000  0.37954000  0.78650000  1.0
  C  C177  1  0.57095000  0.12046000  0.71350000  1.0
  C  C178  1  0.92906000  0.62046000  0.21350000  1.0
  C  C179  1  0.42906000  0.87954000  0.28650000  1.0
  C  C180  1  0.03842000  0.33520000  0.73924000  1.0
  C  C181  1  0.53844000  0.16480000  0.76076000  1.0
  C  C182  1  0.96158000  0.66480000  0.26076000  1.0
  C  C183  1  0.46158000  0.83521000  0.23924000  1.0
  C  C184  1  0.13923000  0.30474000  0.70503000  1.0
  C  C185  1  0.63926000  0.19526000  0.79497000  1.0
  C  C186  1  0.86076000  0.69526000  0.29496000  1.0
  C  C187  1  0.36077000  0.80474000  0.20503000  1.0
  C  C188  1  0.26908000  0.31932000  0.72131000  1.0
  C  C189  1  0.76909000  0.18067000  0.77868000  1.0
  C  C190  1  0.73092000  0.68068000  0.27868000  1.0
  C  C191  1  0.23092000  0.81932000  0.22131000  1.0
  C  C192  1  0.29275000  0.36451000  0.76931000  1.0
  C  C193  1  0.79277000  0.13548000  0.73069000  1.0
  C  C194  1  0.70724000  0.63548000  0.23068000  1.0
  C  C195  1  0.20725000  0.86451000  0.26931000  1.0
  C  C196  1  0.10791000  0.25807000  0.65504000  1.0
  C  C197  1  0.60793000  0.24193000  0.84496000  1.0
  C  C198  1  0.89209000  0.74193000  0.34496000  1.0
  C  C199  1  0.39209000  0.75808000  0.15504000  1.0
  C  C200  1  0.12239000  0.18913000  0.58038000  1.0
  C  C201  1  0.62240000  0.31086000  0.91961000  1.0
  C  C202  1  0.87761000  0.81087000  0.41961000  1.0
  C  C203  1  0.37761000  0.68914000  0.08039000  1.0
  C  C204  1  0.16253000  0.14590000  0.53003000  1.0
  C  C205  1  0.66253000  0.35410000  0.96997000  1.0
  C  C206  1  0.83746000  0.85410000  0.46997000  1.0
  C  C207  1  0.33746000  0.64590000  0.03003000  1.0
  C  C208  1  0.06784000  0.12335000  0.49028000  1.0
  C  C209  1  0.56784000  0.37665000  0.00972000  1.0
  C  C210  1  0.93217000  0.87665000  0.50971000  1.0
  C  C211  1  0.43216000  0.62335000  0.99028000  1.0
  C  C212  1  0.10661000  0.08194000  0.44272000  1.0
  C  C213  1  0.60660000  0.41806000  0.05728000  1.0
  C  C214  1  0.89340000  0.91805000  0.55728000  1.0
  C  C215  1  0.39339000  0.58194000  0.94272000  1.0
  C  C216  1  0.32417000  0.08534000  0.46952000  1.0
  C  C217  1  0.82416000  0.41466000  0.03048000  1.0
  C  C218  1  0.67584000  0.91466000  0.53048000  1.0
  C  C219  1  0.17583000  0.58534000  0.96952000  1.0
  C  C220  1  0.29367000  0.12557000  0.51915000  1.0
  C  C221  1  0.79367000  0.37443000  0.98085000  1.0
  C  C222  1  0.70633000  0.87443000  0.48085000  1.0
  C  C223  1  0.20633000  0.62557000  0.01915000  1.0
  C  C224  1  0.22308000  0.72532000  0.83578000  1.0
  C  C225  1  0.72309000  0.77468000  0.66422000  1.0
  C  C226  1  0.77691000  0.27468000  0.16422000  1.0
  C  C227  1  0.27691000  0.22532000  0.33578000  1.0
  C  C228  1  0.25730000  0.76806000  0.88374000  1.0
  C  C229  1  0.75731000  0.73194000  0.61626000  1.0
  C  C230  1  0.74269000  0.23194000  0.11626000  1.0
  C  C231  1  0.24269000  0.26806000  0.38374000  1.0
  C  C232  1  0.39019000  0.78207000  0.89526000  1.0
  C  C233  1  0.89020000  0.71793000  0.60475000  1.0
  C  C234  1  0.60980000  0.21793000  0.10474000  1.0
  C  C235  1  0.10981000  0.28207000  0.39526000  1.0
  C  C236  1  0.48288000  0.75575000  0.85567000  1.0
  C  C237  1  0.98289000  0.74425000  0.64433000  1.0
  C  C238  1  0.51711000  0.24425000  0.14433000  1.0
  C  C239  1  0.01712000  0.25575000  0.35567000  1.0
  C  C240  1  0.43947000  0.71440000  0.80847000  1.0
  C  C241  1  0.93948000  0.78561000  0.69154000  1.0
  C  C242  1  0.56052000  0.28560000  0.19154000  1.0
  C  C243  1  0.06052000  0.21440000  0.30846000  1.0
  C  C244  1  0.42938000  0.82288000  0.94702000  1.0
  C  C245  1  0.92938000  0.67712000  0.55299000  1.0
  C  C246  1  0.57062000  0.17712000  0.05298000  1.0
  C  C247  1  0.07062000  0.32288000  0.44702000  1.0
  C  C248  1  0.41907000  0.89032000  0.02301000  1.0
  C  C249  1  0.91907000  0.60968000  0.47699000  1.0
  C  C250  1  0.58092000  0.10969000  0.97699000  1.0
  C  C251  1  0.08093000  0.39032000  0.52301000  1.0
  C  C252  1  0.37800000  0.93898000  0.07099000  1.0
  C  C253  1  0.87800000  0.56102000  0.42901000  1.0
  C  C254  1  0.62199000  0.06103000  0.92901000  1.0
  C  C255  1  0.12200000  0.43898000  0.57099000  1.0
  C  C256  1  0.24663000  0.94015000  0.08867000  1.0
  C  C257  1  0.74663000  0.55985000  0.41133000  1.0
  C  C258  1  0.75336000  0.05986000  0.91133000  1.0
  C  C259  1  0.25336000  0.44015000  0.58868000  1.0
  C  C260  1  0.21135000  0.98776000  0.13448000  1.0
  C  C261  1  0.71135000  0.51225000  0.36552000  1.0
  C  C262  1  0.78864000  0.01225000  0.86552000  1.0
  C  C263  1  0.28865000  0.48775000  0.63449000  1.0
  C  C264  1  0.42388000  0.03272000  0.14575000  1.0
  C  C265  1  0.92388000  0.46728000  0.35425000  1.0
  C  C266  1  0.57611000  0.96728000  0.85425000  1.0
  C  C267  1  0.07612000  0.53272000  0.64575000  1.0
  C  C268  1  0.46786000  0.98689000  0.10070000  1.0
  C  C269  1  0.96786000  0.51311000  0.39930000  1.0
  C  C270  1  0.53213000  0.01311000  0.89930000  1.0
  C  C271  1  0.03213000  0.48689000  0.60070000  1.0
  N  N272  1  0.19618000  0.39601000  0.80119000  1.0
  N  N273  1  0.69619000  0.10399000  0.69881000  1.0
  N  N274  1  0.80383000  0.60399000  0.19881000  1.0
  N  N275  1  0.30382000  0.89601000  0.30119000  1.0
  N  N276  1  0.98251000  0.23950000  0.64264000  1.0
  N  N277  1  0.48253000  0.26050000  0.85736000  1.0
  N  N278  1  0.01748000  0.76050000  0.35736000  1.0
  N  N279  1  0.51749000  0.73950000  0.14264000  1.0
  N  N280  1  0.99395000  0.19639000  0.59537000  1.0
  N  N281  1  0.49396000  0.30360000  0.90462000  1.0
  N  N282  1  0.00605000  0.80360000  0.40462000  1.0
  N  N283  1  0.50605000  0.69639000  0.09538000  1.0
  N  N284  1  0.19750000  0.22818000  0.61774000  1.0
  N  N285  1  0.69751000  0.27182000  0.88226000  1.0
  N  N286  1  0.80250000  0.77182000  0.38226000  1.0
  N  N287  1  0.30250000  0.72818000  0.11774000  1.0
  N  N288  1  0.23277000  0.06296000  0.43169000  1.0
  N  N289  1  0.73276000  0.43704000  0.06831000  1.0
  N  N290  1  0.76724000  0.93703000  0.56831000  1.0
  N  N291  1  0.26722000  0.56296000  0.93169000  1.0
  N  N292  1  0.31186000  0.69681000  0.79879000  1.0
  N  N293  1  0.81187000  0.80319000  0.70122000  1.0
  N  N294  1  0.68813000  0.30319000  0.20121000  1.0
  N  N295  1  0.18813000  0.19681000  0.29879000  1.0
  N  N296  1  0.34325000  0.86216000  0.98180000  1.0
  N  N297  1  0.84325000  0.63784000  0.51820000  1.0
  N  N298  1  0.65674000  0.13785000  0.01820000  1.0
  N  N299  1  0.15675000  0.36215000  0.48180000  1.0
  N  N300  1  0.54572000  0.86765000  0.01253000  1.0
  N  N301  1  0.04573000  0.63235000  0.48747000  1.0
  N  N302  1  0.45426000  0.13235000  0.98747000  1.0
  N  N303  1  0.95428000  0.36764000  0.51253000  1.0
  N  N304  1  0.55455000  0.82449000  0.96482000  1.0
  N  N305  1  0.05455000  0.67551000  0.53518000  1.0
  N  N306  1  0.44545000  0.17551000  0.03518000  1.0
  N  N307  1  0.94545000  0.32449000  0.46482000  1.0
  N  N308  1  0.29813000  0.03367000  0.16308000  1.0
  N  N309  1  0.79814000  0.46633000  0.33693000  1.0
  N  N310  1  0.70186000  0.96634000  0.83693000  1.0
  N  N311  1  0.20186000  0.53366000  0.66308000  1.0
  O  O312  1  0.09213000  0.55242000  0.83506000  1.0
  O  O313  1  0.59214000  0.94758000  0.66495000  1.0
  O  O314  1  0.90787000  0.44758000  0.16494000  1.0
  O  O315  1  0.40787000  0.05241000  0.33506000  1.0
  O  O316  1  0.07339000  0.61433000  0.75218000  1.0
  O  O317  1  0.57340000  0.88567000  0.74782000  1.0
  O  O318  1  0.92660000  0.38568000  0.24782000  1.0
  O  O319  1  0.42660000  0.11433000  0.25218000  1.0
  O  O320  1  0.41530000  0.49549000  0.83945000  1.0
  O  O321  1  0.91530000  0.00450000  0.66055000  1.0
  O  O322  1  0.58470000  0.50451000  0.16055000  1.0
  O  O323  1  0.08470000  0.99549000  0.33945000  1.0
  O  O324  1  0.39824000  0.54321000  0.75172000  1.0
  O  O325  1  0.89824000  0.95679000  0.74828000  1.0
  O  O326  1  0.60177000  0.45679000  0.24828000  1.0
  O  O327  1  0.10176000  0.04321000  0.25172000  1.0
  O  O328  1  0.31287000  0.69462000  0.67535000  1.0
  O  O329  1  0.81288000  0.80538000  0.82465000  1.0
  O  O330  1  0.68713000  0.30538000  0.32465000  1.0
  O  O331  1  0.18711000  0.19462000  0.17535000  1.0
  O  O332  1  0.48655000  0.62831000  0.63721000  1.0
  O  O333  1  0.98655000  0.87169000  0.86279000  1.0
  O  O334  1  0.51345000  0.37169000  0.36278000  1.0
  O  O335  1  0.01343000  0.12830000  0.13721000  1.0
  O  O336  1  0.21067000  0.89634000  0.42811000  1.0
  O  O337  1  0.71069000  0.60366000  0.07189000  1.0
  O  O338  1  0.78932000  0.10366000  0.57189000  1.0
  O  O339  1  0.28933000  0.39634000  0.92811000  1.0
  O  O340  1  0.42379000  0.91205000  0.41482000  1.0
  O  O341  1  0.92381000  0.58794000  0.08518000  1.0
  O  O342  1  0.57620000  0.08794000  0.58518000  1.0
  O  O343  1  0.07621000  0.41206000  0.91482000  1.0
