# generated using pymatgen
data_MnH7C9N7O
_symmetry_space_group_name_H-M   'P 1'
_cell_length_a   16.95170793
_cell_length_b   16.95180000
_cell_length_c   16.95190000
_cell_angle_alpha   70.14000000
_cell_angle_beta   70.14021845
_cell_angle_gamma   108.69629192
_symmetry_Int_Tables_number   1
_chemical_formula_structural   MnH7C9N7O
_chemical_formula_sum   'Mn8 H56 C72 N56 O8'
_cell_volume   3749.45552614
_cell_formula_units_Z   8
loop_
 _symmetry_equiv_pos_site_id
 _symmetry_equiv_pos_as_xyz
  1  'x, y, z'
loop_
 _atom_site_type_symbol
 _atom_site_label
 _atom_site_symmetry_multiplicity
 _atom_site_fract_x
 _atom_site_fract_y
 _atom_site_fract_z
 _atom_site_occupancy
  Mn  Mn0  1  0.91973000  0.00864000  0.12241000  1.0
  Mn  Mn1  1  0.54214000  0.91973000  0.08892000  1.0
  Mn  Mn2  1  0.13107000  0.54215000  0.37757000  1.0
  Mn  Mn3  1  0.00865000  0.13106000  0.41108000  1.0
  Mn  Mn4  1  0.08028000  0.99136000  0.87758000  1.0
  Mn  Mn5  1  0.45785000  0.08027000  0.91108000  1.0
  Mn  Mn6  1  0.86894000  0.45786000  0.62241000  1.0
  Mn  Mn7  1  0.99135000  0.86893000  0.58892000  1.0
  H  H8  1  0.92046000  0.77485000  0.46090000  1.0
  H  H9  1  0.88136000  0.92046000  0.85439000  1.0
  H  H10  1  0.23575000  0.88136000  0.03910000  1.0
  H  H11  1  0.77484000  0.23575000  0.64561000  1.0
  H  H12  1  0.07954000  0.22515000  0.53910000  1.0
  H  H13  1  0.11864000  0.07954000  0.14561000  1.0
  H  H14  1  0.76425000  0.11864000  0.96090000  1.0
  H  H15  1  0.22516000  0.76425000  0.35439000  1.0
  H  H16  1  0.98157000  0.35113000  0.07136000  1.0
  H  H17  1  0.55293000  0.98157000  0.36956000  1.0
  H  H18  1  0.42249000  0.55293000  0.42864000  1.0
  H  H19  1  0.35113000  0.42249000  0.13044000  1.0
  H  H20  1  0.01843000  0.64887000  0.92864000  1.0
  H  H21  1  0.44708000  0.01844000  0.63043000  1.0
  H  H22  1  0.57751000  0.44708000  0.57136000  1.0
  H  H23  1  0.64887000  0.57751000  0.86956000  1.0
  H  H24  1  0.99472000  0.42391000  0.90738000  1.0
  H  H25  1  0.40210000  0.99472000  0.42919000  1.0
  H  H26  1  0.33129000  0.40210000  0.59262000  1.0
  H  H27  1  0.42391000  0.33129000  0.07081000  1.0
  H  H28  1  0.00528000  0.57609000  0.09262000  1.0
  H  H29  1  0.59790000  0.00528000  0.57082000  1.0
  H  H30  1  0.66871000  0.59790000  0.40738000  1.0
  H  H31  1  0.57609000  0.66871000  0.92919000  1.0
  H  H32  1  0.98162000  0.32548000  0.82554000  1.0
  H  H33  1  0.30716000  0.98162000  0.34386000  1.0
  H  H34  1  0.15102000  0.30717000  0.67445000  1.0
  H  H35  1  0.32548000  0.15102000  0.15613000  1.0
  H  H36  1  0.01838000  0.67452000  0.17446000  1.0
  H  H37  1  0.69284000  0.01838000  0.65615000  1.0
  H  H38  1  0.84899000  0.69284000  0.32554000  1.0
  H  H39  1  0.67452000  0.84898000  0.84386000  1.0
  H  H40  1  0.95663000  0.15812000  0.91102000  1.0
  H  H41  1  0.36765000  0.95663000  0.20149000  1.0
  H  H42  1  0.06914000  0.36765000  0.58897000  1.0
  H  H43  1  0.15812000  0.06914000  0.29850000  1.0
  H  H44  1  0.04337000  0.84188000  0.08898000  1.0
  H  H45  1  0.63235000  0.04338000  0.79851000  1.0
  H  H46  1  0.93086000  0.63235000  0.41103000  1.0
  H  H47  1  0.84188000  0.93086000  0.70150000  1.0
  H  H48  1  0.88190000  0.86559000  0.29161000  1.0
  H  H49  1  0.67351000  0.88190000  0.98369000  1.0
  H  H50  1  0.15720000  0.67351000  0.20839000  1.0
  H  H51  1  0.86559000  0.15720000  0.51631000  1.0
  H  H52  1  0.11809000  0.13440000  0.70840000  1.0
  H  H53  1  0.32649000  0.11810000  0.01631000  1.0
  H  H54  1  0.84280000  0.32649000  0.79161000  1.0
  H  H55  1  0.13441000  0.84280000  0.48369000  1.0
  H  H56  1  0.79392000  0.83698000  0.27232000  1.0
  H  H57  1  0.56623000  0.79391000  0.04306000  1.0
  H  H58  1  0.10929000  0.56624000  0.22769000  1.0
  H  H59  1  0.83698000  0.10930000  0.45694000  1.0
  H  H60  1  0.20608000  0.16302000  0.72768000  1.0
  H  H61  1  0.43376000  0.20608000  0.95694000  1.0
  H  H62  1  0.89071000  0.43376000  0.77231000  1.0
  H  H63  1  0.16302000  0.89070000  0.54306000  1.0
  C  C64  1  0.93267000  0.84809000  0.43361000  1.0
  C  C65  1  0.86628000  0.93267000  0.91542000  1.0
  C  C66  1  0.28170000  0.86628000  0.06639000  1.0
  C  C67  1  0.84809000  0.28170000  0.58457000  1.0
  C  C68  1  0.06733000  0.15191000  0.56639000  1.0
  C  C69  1  0.13372000  0.06733000  0.08458000  1.0
  C  C70  1  0.71829000  0.13372000  0.93361000  1.0
  C  C71  1  0.15191000  0.71830000  0.41542000  1.0
  C  C72  1  0.94181000  0.98072000  0.35475000  1.0
  C  C73  1  0.79656000  0.94181000  0.03891000  1.0
  C  C74  1  0.33547000  0.79656000  0.14525000  1.0
  C  C75  1  0.98072000  0.33547000  0.46109000  1.0
  C  C76  1  0.05819000  0.01928000  0.64525000  1.0
  C  C77  1  0.20344000  0.05819000  0.96109000  1.0
  C  C78  1  0.66453000  0.20344000  0.85475000  1.0
  C  C79  1  0.01928000  0.66453000  0.53891000  1.0
  C  C80  1  0.94323000  0.06244000  0.28832000  1.0
  C  C81  1  0.73156000  0.94324000  0.11921000  1.0
  C  C82  1  0.35077000  0.73156000  0.21167000  1.0
  C  C83  1  0.06244000  0.35077000  0.38079000  1.0
  C  C84  1  0.05677000  0.93756000  0.71168000  1.0
  C  C85  1  0.26844000  0.05677000  0.88079000  1.0
  C  C86  1  0.64923000  0.26844000  0.78833000  1.0
  C  C87  1  0.93756000  0.64923000  0.61921000  1.0
  C  C88  1  0.95383000  0.16982000  0.16937000  1.0
  C  C89  1  0.62319000  0.95383000  0.21600000  1.0
  C  C90  1  0.33919000  0.62320000  0.33063000  1.0
  C  C91  1  0.16982000  0.33919000  0.28401000  1.0
  C  C92  1  0.04617000  0.83018000  0.83064000  1.0
  C  C93  1  0.37681000  0.04617000  0.78400000  1.0
  C  C94  1  0.66081000  0.37680000  0.66937000  1.0
  C  C95  1  0.83018000  0.66081000  0.71599000  1.0
  C  C96  1  0.96032000  0.21712000  0.07602000  1.0
  C  C97  1  0.53634000  0.96031000  0.25681000  1.0
  C  C98  1  0.29315000  0.53635000  0.42397000  1.0
  C  C99  1  0.21712000  0.29315000  0.24319000  1.0
  C  C100  1  0.03969000  0.78289000  0.92397000  1.0
  C  C101  1  0.46366000  0.03969000  0.74320000  1.0
  C  C102  1  0.70685000  0.46366000  0.57603000  1.0
  C  C103  1  0.78288000  0.70685000  0.75680000  1.0
  C  C104  1  0.97561000  0.31136000  0.03299000  1.0
  C  C105  1  0.50859000  0.97560000  0.33576000  1.0
  C  C106  1  0.34435000  0.50860000  0.46701000  1.0
  C  C107  1  0.31136000  0.34435000  0.16424000  1.0
  C  C108  1  0.02440000  0.68864000  0.96700000  1.0
  C  C109  1  0.49141000  0.02440000  0.66424000  1.0
  C  C110  1  0.65565000  0.49141000  0.53299000  1.0
  C  C111  1  0.68864000  0.65565000  0.83575000  1.0
  C  C112  1  0.98313000  0.35087000  0.94245000  1.0
  C  C113  1  0.42557000  0.98312000  0.36775000  1.0
  C  C114  1  0.29332000  0.42557000  0.55755000  1.0
  C  C115  1  0.35088000  0.29333000  0.13225000  1.0
  C  C116  1  0.01687000  0.64912000  0.05755000  1.0
  C  C117  1  0.57443000  0.01688000  0.63225000  1.0
  C  C118  1  0.70668000  0.57443000  0.44245000  1.0
  C  C119  1  0.64912000  0.70667000  0.86775000  1.0
  C  C120  1  0.97629000  0.29644000  0.89636000  1.0
  C  C121  1  0.37264000  0.97628000  0.32016000  1.0
  C  C122  1  0.19280000  0.37265000  0.60364000  1.0
  C  C123  1  0.29644000  0.19280000  0.17985000  1.0
  C  C124  1  0.02371000  0.70356000  0.10364000  1.0
  C  C125  1  0.62736000  0.02372000  0.67985000  1.0
  C  C126  1  0.80720000  0.62735000  0.39636000  1.0
  C  C127  1  0.70356000  0.80720000  0.82015000  1.0
  C  C128  1  0.96141000  0.20352000  0.94392000  1.0
  C  C129  1  0.40533000  0.96140000  0.24211000  1.0
  C  C130  1  0.14744000  0.40533000  0.55607000  1.0
  C  C131  1  0.20352000  0.14745000  0.25788000  1.0
  C  C132  1  0.03859000  0.79648000  0.05608000  1.0
  C  C133  1  0.59467000  0.03859000  0.75789000  1.0
  C  C134  1  0.85256000  0.59467000  0.44393000  1.0
  C  C135  1  0.79648000  0.85256000  0.74211000  1.0
  N  N136  1  0.91850000  0.89343000  0.36145000  1.0
  N  N137  1  0.77995000  0.91850000  0.97493000  1.0
  N  N138  1  0.25488000  0.77995000  0.13855000  1.0
  N  N139  1  0.89343000  0.25488000  0.52506000  1.0
  N  N140  1  0.08150000  0.10657000  0.63855000  1.0
  N  N141  1  0.22005000  0.08150000  0.02507000  1.0
  N  N142  1  0.74512000  0.22005000  0.86145000  1.0
  N  N143  1  0.10657000  0.74512000  0.47494000  1.0
  N  N144  1  0.96955000  0.98917000  0.41833000  1.0
  N  N145  1  0.88788000  0.96955000  0.01962000  1.0
  N  N146  1  0.40750000  0.88788000  0.08167000  1.0
  N  N147  1  0.98917000  0.40750000  0.48038000  1.0
  N  N148  1  0.03045000  0.01083000  0.58167000  1.0
  N  N149  1  0.11212000  0.03045000  0.98038000  1.0
  N  N150  1  0.59249000  0.11212000  0.91834000  1.0
  N  N151  1  0.01083000  0.59250000  0.51962000  1.0
  N  N152  1  0.96342000  0.90329000  0.46931000  1.0
  N  N153  1  0.93273000  0.96342000  0.93987000  1.0
  N  N154  1  0.37260000  0.93273000  0.03069000  1.0
  N  N155  1  0.90329000  0.37260000  0.56013000  1.0
  N  N156  1  0.03658000  0.09671000  0.53069000  1.0
  N  N157  1  0.06727000  0.03657000  0.06013000  1.0
  N  N158  1  0.62740000  0.06727000  0.96930000  1.0
  N  N159  1  0.09671000  0.62741000  0.43987000  1.0
  N  N160  1  0.93924000  0.07780000  0.20695000  1.0
  N  N161  1  0.64618000  0.93923000  0.13857000  1.0
  N  N162  1  0.28475000  0.64619000  0.29305000  1.0
  N  N163  1  0.07780000  0.28475000  0.36143000  1.0
  N  N164  1  0.06076000  0.92219000  0.79306000  1.0
  N  N165  1  0.35381000  0.06076000  0.86144000  1.0
  N  N166  1  0.71525000  0.35382000  0.70695000  1.0
  N  N167  1  0.92220000  0.71525000  0.63856000  1.0
  N  N168  1  0.96558000  0.20912000  0.22407000  1.0
  N  N169  1  0.68965000  0.96557000  0.24354000  1.0
  N  N170  1  0.43319000  0.68965000  0.27593000  1.0
  N  N171  1  0.20912000  0.43319000  0.25646000  1.0
  N  N172  1  0.03442000  0.79088000  0.77593000  1.0
  N  N173  1  0.31035000  0.03443000  0.75646000  1.0
  N  N174  1  0.56681000  0.31036000  0.72407000  1.0
  N  N175  1  0.79088000  0.56681000  0.74354000  1.0
  N  N176  1  0.95842000  0.13974000  0.30080000  1.0
  N  N177  1  0.75923000  0.95842000  0.18132000  1.0
  N  N178  1  0.44055000  0.75923000  0.19920000  1.0
  N  N179  1  0.13975000  0.44055000  0.31867000  1.0
  N  N180  1  0.04158000  0.86025000  0.69920000  1.0
  N  N181  1  0.24077000  0.04158000  0.81868000  1.0
  N  N182  1  0.55945000  0.24078000  0.80080000  1.0
  N  N183  1  0.86025000  0.55945000  0.68133000  1.0
  N  N184  1  0.95281000  0.16404000  0.03181000  1.0
  N  N185  1  0.48461000  0.95280000  0.21124000  1.0
  N  N186  1  0.19585000  0.48462000  0.46819000  1.0
  N  N187  1  0.16404000  0.19585000  0.28876000  1.0
  N  N188  1  0.04719000  0.83595000  0.96820000  1.0
  N  N189  1  0.51538000  0.04719000  0.78877000  1.0
  N  N190  1  0.80415000  0.51539000  0.53181000  1.0
  N  N191  1  0.83596000  0.80415000  0.71123000  1.0
  O  O192  1  0.86264000  0.85803000  0.24223000  1.0
  O  O193  1  0.60487000  0.86264000  0.99539000  1.0
  O  O194  1  0.10026000  0.60487000  0.25777000  1.0
  O  O195  1  0.85803000  0.10026000  0.50461000  1.0
  O  O196  1  0.13736000  0.14197000  0.75777000  1.0
  O  O197  1  0.39513000  0.13736000  0.00461000  1.0
  O  O198  1  0.89974000  0.39513000  0.74223000  1.0
  O  O199  1  0.14197000  0.89974000  0.49539000  1.0
