# generated using pymatgen
data_PH14AuC11S2O
_symmetry_space_group_name_H-M   'P 1'
_cell_length_a   11.62680000
_cell_length_b   12.46370000
_cell_length_c   12.63730000
_cell_angle_alpha   119.47900000
_cell_angle_beta   117.33900000
_cell_angle_gamma   90.07490000
_symmetry_Int_Tables_number   1
_chemical_formula_structural   PH14AuC11S2O
_chemical_formula_sum   'P4 H56 Au4 C44 S8 O4'
_cell_volume   1353.59090959
_cell_formula_units_Z   4
loop_
 _symmetry_equiv_pos_site_id
 _symmetry_equiv_pos_as_xyz
  1  'x, y, z'
loop_
 _atom_site_type_symbol
 _atom_site_label
 _atom_site_symmetry_multiplicity
 _atom_site_fract_x
 _atom_site_fract_y
 _atom_site_fract_z
 _atom_site_occupancy
  P  P0  1  0.09383000  0.29911000  0.18771000  1.0
  P  P1  1  0.90617000  0.70089000  0.81229000  1.0
  P  P2  1  0.40578000  0.11175000  0.81249000  1.0
  P  P3  1  0.59422000  0.88825000  0.18751000  1.0
  H  H4  1  0.95135000  0.12458000  0.90214000  1.0
  H  H5  1  0.04865000  0.87542000  0.09786000  1.0
  H  H6  1  0.54851000  0.22257000  0.09808000  1.0
  H  H7  1  0.45149000  0.77743000  0.90192000  1.0
  H  H8  1  0.75009000  0.13550000  0.73632000  1.0
  H  H9  1  0.01347000  0.86409000  0.26383000  1.0
  H  H10  1  0.74989000  0.39936000  0.26382000  1.0
  H  H11  1  0.48674000  0.60037000  0.73607000  1.0
  H  H12  1  0.24991000  0.86450000  0.26368000  1.0
  H  H13  1  0.98653000  0.13592000  0.73617000  1.0
  H  H14  1  0.25011000  0.60065000  0.73619000  1.0
  H  H15  1  0.51326000  0.39962000  0.26393000  1.0
  H  H16  1  0.76846000  0.25566000  0.90020000  1.0
  H  H17  1  0.86776000  0.74415000  0.09992000  1.0
  H  H18  1  0.73144000  0.35573000  0.09984000  1.0
  H  H19  1  0.63232000  0.64440000  0.90009000  1.0
  H  H20  1  0.23154000  0.74434000  0.09980000  1.0
  H  H21  1  0.13224000  0.25585000  0.90008000  1.0
  H  H22  1  0.26856000  0.64428000  0.90017000  1.0
  H  H23  1  0.36768000  0.35558000  0.09990000  1.0
  H  H24  1  0.84116000  0.42619000  0.88182000  1.0
  H  H25  1  0.95864000  0.57321000  0.11696000  1.0
  H  H26  1  0.65897000  0.54447000  0.11812000  1.0
  H  H27  1  0.54123000  0.45638000  0.88312000  1.0
  H  H28  1  0.15884000  0.57381000  0.11818000  1.0
  H  H29  1  0.04136000  0.42681000  0.88305000  1.0
  H  H30  1  0.34102000  0.45552000  0.88187000  1.0
  H  H31  1  0.45876000  0.54361000  0.11687000  1.0
  H  H32  1  0.74767000  0.30411000  0.69788000  1.0
  H  H33  1  0.04812000  0.69461000  0.30111000  1.0
  H  H34  1  0.75242000  0.60626000  0.30210000  1.0
  H  H35  1  0.45177000  0.39368000  0.69893000  1.0
  H  H36  1  0.25233000  0.69590000  0.30213000  1.0
  H  H37  1  0.95188000  0.30540000  0.69889000  1.0
  H  H38  1  0.24758000  0.39374000  0.69790000  1.0
  H  H39  1  0.54822000  0.60631000  0.30107000  1.0
  H  H40  1  0.36463000  0.47506000  0.35753000  1.0
  H  H41  1  0.00673000  0.52478000  0.64182000  1.0
  H  H42  1  0.13529000  0.11741000  0.64262000  1.0
  H  H43  1  0.49355000  0.88282000  0.35840000  1.0
  H  H44  1  0.63536000  0.52495000  0.64247000  1.0
  H  H45  1  0.99326000  0.47522000  0.35817000  1.0
  H  H46  1  0.86471000  0.88259000  0.35737000  1.0
  H  H47  1  0.50645000  0.11718000  0.64161000  1.0
  H  H48  1  0.47283000  0.69960000  0.57434000  1.0
  H  H49  1  0.89737000  0.30017000  0.42490000  1.0
  H  H50  1  0.02707000  0.12531000  0.42572000  1.0
  H  H51  1  0.60305000  0.87524000  0.57559000  1.0
  H  H52  1  0.52717000  0.30041000  0.42566000  1.0
  H  H53  1  0.10262000  0.69983000  0.57509000  1.0
  H  H54  1  0.97294000  0.87470000  0.57428000  1.0
  H  H55  1  0.39696000  0.12475000  0.42441000  1.0
  H  H56  1  0.34144000  0.81133000  0.68181000  1.0
  H  H57  1  0.65855000  0.18866000  0.31820000  1.0
  H  H58  1  0.15842000  0.12974000  0.31810000  1.0
  H  H59  1  0.84159000  0.87026000  0.68190000  1.0
  Au  Au60  1  0.12661000  0.00015000  0.00053000  1.0
  Au  Au61  1  0.37356000  0.99965000  0.99964000  1.0
  Au  Au62  1  0.87339000  0.99985000  0.99946000  1.0
  Au  Au63  1  0.62644000  0.00034000  0.00036000  1.0
  C  C64  1  0.95459000  0.21607000  0.90866000  1.0
  C  C65  1  0.04541000  0.78393000  0.09134000  1.0
  C  C66  1  0.54534000  0.30752000  0.09150000  1.0
  C  C67  1  0.45466000  0.69247000  0.90850000  1.0
  C  C68  1  0.81459000  0.23057000  0.83558000  1.0
  C  C69  1  0.97846000  0.76914000  0.16437000  1.0
  C  C70  1  0.68539000  0.39517000  0.16453000  1.0
  C  C71  1  0.52160000  0.60485000  0.83555000  1.0
  C  C72  1  0.18541000  0.76944000  0.16442000  1.0
  C  C73  1  0.02154000  0.23087000  0.83563000  1.0
  C  C74  1  0.31461000  0.60483000  0.83547000  1.0
  C  C75  1  0.47839000  0.39514000  0.16444000  1.0
  C  C76  1  0.83410000  0.32972000  0.80136000  1.0
  C  C77  1  0.03187000  0.66979000  0.19813000  1.0
  C  C78  1  0.66596000  0.52841000  0.19861000  1.0
  C  C79  1  0.46806000  0.47177000  0.80191000  1.0
  C  C80  1  0.16590000  0.67029000  0.19864000  1.0
  C  C81  1  0.96812000  0.33022000  0.80188000  1.0
  C  C82  1  0.33403000  0.47158000  0.80138000  1.0
  C  C83  1  0.53194000  0.52822000  0.19809000  1.0
  C  C84  1  0.17248000  0.46127000  0.34493000  1.0
  C  C85  1  0.82752000  0.53872000  0.65508000  1.0
  C  C86  1  0.32739000  0.11663000  0.65517000  1.0
  C  C87  1  0.67262000  0.88337000  0.34483000  1.0
  C  C88  1  0.30749000  0.52436000  0.40539000  1.0
  C  C89  1  0.90171000  0.47554000  0.59422000  1.0
  C  C90  1  0.19238000  0.11907000  0.59468000  1.0
  C  C91  1  0.59851000  0.88117000  0.40591000  1.0
  C  C92  1  0.69251000  0.47565000  0.59461000  1.0
  C  C93  1  0.09829000  0.52445000  0.40577000  1.0
  C  C94  1  0.80762000  0.88093000  0.40531000  1.0
  C  C95  1  0.40150000  0.11882000  0.59410000  1.0
  C  C96  1  0.36777000  0.65023000  0.52659000  1.0
  C  C97  1  0.84041000  0.34968000  0.47301000  1.0
  C  C98  1  0.13208000  0.12375000  0.47345000  1.0
  C  C99  1  0.65986000  0.87661000  0.52726000  1.0
  C  C100  1  0.63223000  0.34977000  0.47341000  1.0
  C  C101  1  0.15958000  0.65032000  0.52699000  1.0
  C  C102  1  0.86792000  0.87626000  0.52655000  1.0
  C  C103  1  0.34015000  0.12339000  0.47273000  1.0
  C  C104  1  0.29405000  0.71295000  0.58736000  1.0
  C  C105  1  0.70594000  0.28704000  0.41265000  1.0
  C  C106  1  0.20576000  0.12572000  0.41253000  1.0
  C  C107  1  0.79425000  0.87428000  0.58746000  1.0
  S  S108  1  0.24328000  0.21364000  0.19182000  1.0
  S  S109  1  0.05233000  0.78667000  0.80916000  1.0
  S  S110  1  0.25614000  0.02266000  0.80888000  1.0
  S  S111  1  0.44871000  0.97745000  0.19111000  1.0
  S  S112  1  0.75672000  0.78636000  0.80817000  1.0
  S  S113  1  0.94767000  0.21333000  0.19084000  1.0
  S  S114  1  0.74386000  0.97734000  0.19112000  1.0
  S  S115  1  0.55129000  0.02255000  0.80888000  1.0
  O  O116  1  0.03110000  0.32320000  0.06152000  1.0
  O  O117  1  0.96890000  0.67680000  0.93848000  1.0
  O  O118  1  0.46894000  0.26192000  0.93863000  1.0
  O  O119  1  0.53107000  0.73807000  0.06137000  1.0
