# generated using pymatgen
data_CdH7C8NO5
_symmetry_space_group_name_H-M   'P 1'
_cell_length_a   8.35233000
_cell_length_b   8.41701000
_cell_length_c   12.54750000
_cell_angle_alpha   90.00010000
_cell_angle_beta   90.00020000
_cell_angle_gamma   72.66600000
_symmetry_Int_Tables_number   1
_chemical_formula_structural   CdH7C8NO5
_chemical_formula_sum   'Cd4 H28 C32 N4 O20'
_cell_volume   842.04813552
_cell_formula_units_Z   4
loop_
 _symmetry_equiv_pos_site_id
 _symmetry_equiv_pos_as_xyz
  1  'x, y, z'
loop_
 _atom_site_type_symbol
 _atom_site_label
 _atom_site_symmetry_multiplicity
 _atom_site_fract_x
 _atom_site_fract_y
 _atom_site_fract_z
 _atom_site_occupancy
  Cd  Cd0  1  0.48498000  0.79603000  0.57063000  1.0
  Cd  Cd1  1  0.51503000  0.70397000  0.07063000  1.0
  Cd  Cd2  1  0.51503000  0.20397000  0.42937000  1.0
  Cd  Cd3  1  0.48498000  0.29603000  0.92937000  1.0
  H  H4  1  0.96686000  0.62004000  0.56655000  1.0
  H  H5  1  0.03314000  0.87996000  0.06655000  1.0
  H  H6  1  0.03314000  0.37996000  0.43345000  1.0
  H  H7  1  0.96686000  0.12005000  0.93345000  1.0
  H  H8  1  0.92009000  0.61375000  0.95992000  1.0
  H  H9  1  0.07991000  0.88625000  0.45993000  1.0
  H  H10  1  0.07991000  0.38625000  0.04007000  1.0
  H  H11  1  0.92010000  0.11375000  0.54008000  1.0
  H  H12  1  0.15158000  0.69896000  0.87666000  1.0
  H  H13  1  0.84842000  0.80105000  0.37667000  1.0
  H  H14  1  0.84842000  0.30105000  0.12333000  1.0
  H  H15  1  0.15158000  0.19896000  0.62334000  1.0
  H  H16  1  0.74857000  0.47814000  0.56586000  1.0
  H  H17  1  0.25143000  0.02185000  0.06586000  1.0
  H  H18  1  0.25143000  0.52185000  0.43414000  1.0
  H  H19  1  0.74857000  0.97815000  0.93414000  1.0
  H  H20  1  0.63111000  0.48051000  0.67596000  1.0
  H  H21  1  0.36889000  0.01949000  0.17596000  1.0
  H  H22  1  0.36889000  0.51949000  0.32403000  1.0
  H  H23  1  0.63111000  0.98051000  0.82403000  1.0
  H  H24  1  0.61528000  0.71463000  0.34287000  1.0
  H  H25  1  0.38472000  0.78537000  0.84287000  1.0
  H  H26  1  0.38472000  0.28537000  0.65713000  1.0
  H  H27  1  0.61528000  0.21463000  0.15713000  1.0
  H  H28  1  0.63420000  0.55664000  0.41453000  1.0
  H  H29  1  0.36580000  0.94336000  0.91453000  1.0
  H  H30  1  0.36580000  0.44337000  0.58547000  1.0
  H  H31  1  0.63420000  0.05663000  0.08547000  1.0
  C  C32  1  0.07498000  0.66169000  0.71596000  1.0
  C  C33  1  0.92502000  0.83831000  0.21596000  1.0
  C  C34  1  0.92502000  0.33831000  0.28404000  1.0
  C  C35  1  0.07497000  0.16169000  0.78404000  1.0
  C  C36  1  0.95631000  0.61854000  0.65316000  1.0
  C  C37  1  0.04370000  0.88145000  0.15316000  1.0
  C  C38  1  0.04369000  0.38146000  0.34684000  1.0
  C  C39  1  0.95630000  0.11855000  0.84684000  1.0
  C  C40  1  0.82183000  0.57637000  0.69959000  1.0
  C  C41  1  0.17817000  0.92363000  0.19960000  1.0
  C  C42  1  0.17817000  0.42363000  0.30040000  1.0
  C  C43  1  0.82183000  0.07637000  0.80041000  1.0
  C  C44  1  0.81181000  0.57082000  0.81229000  1.0
  C  C45  1  0.18819000  0.92918000  0.31229000  1.0
  C  C46  1  0.18819000  0.42918000  0.18771000  1.0
  C  C47  1  0.81181000  0.07082000  0.68771000  1.0
  C  C48  1  0.93068000  0.61793000  0.87374000  1.0
  C  C49  1  0.06933000  0.88207000  0.37374000  1.0
  C  C50  1  0.06932000  0.38207000  0.12626000  1.0
  C  C51  1  0.93068000  0.11793000  0.62626000  1.0
  C  C52  1  0.05950000  0.66573000  0.82727000  1.0
  C  C53  1  0.94050000  0.83427000  0.32727000  1.0
  C  C54  1  0.94050000  0.33427000  0.17273000  1.0
  C  C55  1  0.05950000  0.16573000  0.67273000  1.0
  C  C56  1  0.21992000  0.70051000  0.66494000  1.0
  C  C57  1  0.78008000  0.79949000  0.16494000  1.0
  C  C58  1  0.78008000  0.29949000  0.33506000  1.0
  C  C59  1  0.21992000  0.20051000  0.83506000  1.0
  C  C60  1  0.68922000  0.50375000  0.86898000  1.0
  C  C61  1  0.31079000  0.99625000  0.36898000  1.0
  C  C62  1  0.31078000  0.49625000  0.13102000  1.0
  C  C63  1  0.68922000  0.00375000  0.63102000  1.0
  N  N64  1  0.69938000  0.54304000  0.63337000  1.0
  N  N65  1  0.30062000  0.95695000  0.13337000  1.0
  N  N66  1  0.30062000  0.45696000  0.36663000  1.0
  N  N67  1  0.69938000  0.04304000  0.86663000  1.0
  O  O68  1  0.26149000  0.65041000  0.56902000  1.0
  O  O69  1  0.73851000  0.84959000  0.06902000  1.0
  O  O70  1  0.73851000  0.34959000  0.43098000  1.0
  O  O71  1  0.26149000  0.15041000  0.93099000  1.0
  O  O72  1  0.30238000  0.78062000  0.71611000  1.0
  O  O73  1  0.69762000  0.71938000  0.21611000  1.0
  O  O74  1  0.69762000  0.21938000  0.28389000  1.0
  O  O75  1  0.30238000  0.28062000  0.78389000  1.0
  O  O76  1  0.69541000  0.49035000  0.97065000  1.0
  O  O77  1  0.30459000  0.00966000  0.47065000  1.0
  O  O78  1  0.30459000  0.50965000  0.02935000  1.0
  O  O79  1  0.69541000  0.99034000  0.52935000  1.0
  O  O80  1  0.58417000  0.45312000  0.81414000  1.0
  O  O81  1  0.41583000  0.04688000  0.31414000  1.0
  O  O82  1  0.41583000  0.54688000  0.18586000  1.0
  O  O83  1  0.58417000  0.95311000  0.68586000  1.0
  O  O84  1  0.56741000  0.67502000  0.40645000  1.0
  O  O85  1  0.43259000  0.82498000  0.90645000  1.0
  O  O86  1  0.43259000  0.32499000  0.59355000  1.0
  O  O87  1  0.56741000  0.17501000  0.09355000  1.0
