# generated using pymatgen
data_MnH20C18S2(N2O3)2
_symmetry_space_group_name_H-M   'P 1'
_cell_length_a   5.32700000
_cell_length_b   10.21980000
_cell_length_c   10.50150000
_cell_angle_alpha   107.04700000
_cell_angle_beta   99.88610000
_cell_angle_gamma   103.10800000
_symmetry_Int_Tables_number   1
_chemical_formula_structural   MnH20C18S2(N2O3)2
_chemical_formula_sum   'Mn1 H20 C18 S2 N4 O6'
_cell_volume   514.64146181
_cell_formula_units_Z   1
loop_
 _symmetry_equiv_pos_site_id
 _symmetry_equiv_pos_as_xyz
  1  'x, y, z'
loop_
 _atom_site_type_symbol
 _atom_site_label
 _atom_site_symmetry_multiplicity
 _atom_site_fract_x
 _atom_site_fract_y
 _atom_site_fract_z
 _atom_site_occupancy
  Mn  Mn0  1  0.50000000  0.50000000  0.00000000  1.0
  H  H1  1  0.36608000  0.86375000  0.27527000  1.0
  H  H2  1  0.63392000  0.13625000  0.72473000  1.0
  H  H3  1  0.24938000  0.08790000  0.38373000  1.0
  H  H4  1  0.75062000  0.91210000  0.61627000  1.0
  H  H5  1  0.71752000  0.31401000  0.19461000  1.0
  H  H6  1  0.28249000  0.68600000  0.80539000  1.0
  H  H7  1  0.87142000  0.10008000  0.08628000  1.0
  H  H8  1  0.12858000  0.89993000  0.91372000  1.0
  H  H9  1  0.18190000  0.28652000  0.35595000  1.0
  H  H10  1  0.81810000  0.71348000  0.64405000  1.0
  H  H11  1  0.35853000  0.37753000  0.26224000  1.0
  H  H12  1  0.64147000  0.62248000  0.73776000  1.0
  H  H13  1  0.76072000  0.47810000  0.46621000  1.0
  H  H14  1  0.23928000  0.52190000  0.53379000  1.0
  H  H15  1  0.57733000  0.38771000  0.55733000  1.0
  H  H16  1  0.42268000  0.61229000  0.44267000  1.0
  H  H17  1  0.89582000  0.67544000  0.96645000  1.0
  H  H18  1  0.10417000  0.32455000  0.03355000  1.0
  H  H19  1  0.96253000  0.52836000  0.88553000  1.0
  H  H20  1  0.03747000  0.47163000  0.11447000  1.0
  C  C21  1  0.68100000  0.82940000  0.09321000  1.0
  C  C22  1  0.31900000  0.17060000  0.90679000  1.0
  C  C23  1  0.62784000  0.96492000  0.17202000  1.0
  C  C24  1  0.37216000  0.03508000  0.82798000  1.0
  C  C25  1  0.45426000  0.96171000  0.25761000  1.0
  C  C26  1  0.54574000  0.03829000  0.74239000  1.0
  C  C27  1  0.38459000  0.08336000  0.31666000  1.0
  C  C28  1  0.61541000  0.91664000  0.68334000  1.0
  C  C29  1  0.65343000  0.21203000  0.21052000  1.0
  C  C30  1  0.34658000  0.78797000  0.78948000  1.0
  C  C31  1  0.73475000  0.09396000  0.15221000  1.0
  C  C32  1  0.26525000  0.90604000  0.84779000  1.0
  C  C33  1  0.38001000  0.32876000  0.34228000  1.0
  C  C34  1  0.61999000  0.67125000  0.65772000  1.0
  C  C35  1  0.55921000  0.43794000  0.47809000  1.0
  C  C36  1  0.44079000  0.56207000  0.52192000  1.0
  C  C37  1  0.11478000  0.34568000  0.70616000  1.0
  C  C38  1  0.88523000  0.65433000  0.29385000  1.0
  S  S39  1  0.99832000  0.20159000  0.57243000  1.0
  S  S40  1  0.00168000  0.79840000  0.42756000  1.0
  N  N41  1  0.20016000  0.45138000  0.80684000  1.0
  N  N42  1  0.79982000  0.54860000  0.19314000  1.0
  N  N43  1  0.47747000  0.20436000  0.28921000  1.0
  N  N44  1  0.52254000  0.79564000  0.71079000  1.0
  O  O45  1  0.49342000  0.71480000  0.06777000  1.0
  O  O46  1  0.50659000  0.28520000  0.93224000  1.0
  O  O47  1  0.89405000  0.83962000  0.05440000  1.0
  O  O48  1  0.10594000  0.16038000  0.94559000  1.0
  O  O49  1  0.81911000  0.57100000  0.90837000  1.0
  O  O50  1  0.18089000  0.42899000  0.09164000  1.0
