# generated using pymatgen
data_AlH9C24Br3(NO2)3
_symmetry_space_group_name_H-M   'P 1'
_cell_length_a   3.98369000
_cell_length_b   15.64776217
_cell_length_c   15.84830000
_cell_angle_alpha   117.38521362
_cell_angle_beta   97.07110000
_cell_angle_gamma   97.04283349
_symmetry_Int_Tables_number   1
_chemical_formula_structural   AlH9C24Br3(NO2)3
_chemical_formula_sum   'Al1 H9 C24 Br3 N3 O6'
_cell_volume   852.33504281
_cell_formula_units_Z   1
loop_
 _symmetry_equiv_pos_site_id
 _symmetry_equiv_pos_as_xyz
  1  'x, y, z'
loop_
 _atom_site_type_symbol
 _atom_site_label
 _atom_site_symmetry_multiplicity
 _atom_site_fract_x
 _atom_site_fract_y
 _atom_site_fract_z
 _atom_site_occupancy
  Al  Al0  1  0.48678000  0.50142000  0.50305000  1.0
  H  H1  1  0.85437000  0.50536000  0.23749000  1.0
  H  H2  1  0.95796000  0.59171000  0.14046000  1.0
  H  H3  1  0.28158000  0.86700000  0.40487000  1.0
  H  H4  1  0.06345000  0.58813000  0.95458000  1.0
  H  H5  1  0.28868000  0.76445000  0.76812000  1.0
  H  H6  1  0.36943000  0.85852000  0.94912000  1.0
  H  H7  1  0.63919000  0.04414000  0.13775000  1.0
  H  H8  1  0.60219000  0.23582000  0.48626000  1.0
  H  H9  1  0.40769000  0.05259000  0.39903000  1.0
  C  C10  1  0.86644000  0.35114000  0.42341000  1.0
  C  C11  1  0.99289000  0.58036000  0.42925000  1.0
  C  C12  1  0.08876000  0.57205000  0.65185000  1.0
  C  C13  1  0.25838000  0.78397000  0.06924000  1.0
  C  C14  1  0.20538000  0.78669000  0.21177000  1.0
  C  C15  1  0.39261000  0.92915000  0.21015000  1.0
  C  C16  1  0.94811000  0.58473000  0.27329000  1.0
  C  C17  1  0.00574000  0.63239000  0.21937000  1.0
  C  C18  1  0.12999000  0.73441000  0.26693000  1.0
  C  C19  1  0.19025000  0.78776000  0.36856000  1.0
  C  C20  1  0.13740000  0.73927000  0.42187000  1.0
  C  C21  1  0.01971000  0.63694000  0.37514000  1.0
  C  C22  1  0.11834000  0.62624000  0.91365000  1.0
  C  C23  1  0.08209000  0.57434000  0.81334000  1.0
  C  C24  1  0.14344000  0.62363000  0.76024000  1.0
  C  C25  1  0.24563000  0.72644000  0.81001000  1.0
  C  C26  1  0.28937000  0.77879000  0.91030000  1.0
  C  C27  1  0.22345000  0.72891000  0.96281000  1.0
  C  C28  1  0.63803000  0.08614000  0.21466000  1.0
  C  C29  1  0.75859000  0.18759000  0.26455000  1.0
  C  C30  1  0.74867000  0.24251000  0.36338000  1.0
  C  C31  1  0.61512000  0.19235000  0.41020000  1.0
  C  C32  1  0.50539000  0.09110000  0.36193000  1.0
  C  C33  1  0.51459000  0.03714000  0.26315000  1.0
  Br  Br34  1  0.21251000  0.81687000  0.55918000  1.0
  Br  Br35  1  0.92571000  0.43562000  0.74953000  1.0
  Br  Br36  1  0.91365000  0.24659000  0.19106000  1.0
  N  N37  1  0.17189000  0.73301000  0.11517000  1.0
  N  N38  1  0.30854000  0.88509000  0.26226000  1.0
  N  N39  1  0.37509000  0.88190000  0.11377000  1.0
  O  O40  1  0.84917000  0.59346000  0.60848000  1.0
  O  O41  1  0.69649000  0.39469000  0.48881000  1.0
  O  O42  1  0.71369000  0.51951000  0.40886000  1.0
  O  O43  1  0.28427000  0.51370000  0.61141000  1.0
  O  O44  1  0.26216000  0.59564000  0.49065000  1.0
  O  O45  1  0.12796000  0.39356000  0.40870000  1.0
