# generated using pymatgen
data_ZnH3C18SNCl8O5
_symmetry_space_group_name_H-M   'P 1'
_cell_length_a   12.59640000
_cell_length_b   16.86910000
_cell_length_c   17.66090000
_cell_angle_alpha   95.02810000
_cell_angle_beta   90.16410000
_cell_angle_gamma   92.07030000
_symmetry_Int_Tables_number   1
_chemical_formula_structural   ZnH3C18SNCl8O5
_chemical_formula_sum   'Zn2 H6 C36 S2 N2 Cl16 O10'
_cell_volume   3735.81345302
_cell_formula_units_Z   2
loop_
 _symmetry_equiv_pos_site_id
 _symmetry_equiv_pos_as_xyz
  1  'x, y, z'
loop_
 _atom_site_type_symbol
 _atom_site_label
 _atom_site_symmetry_multiplicity
 _atom_site_fract_x
 _atom_site_fract_y
 _atom_site_fract_z
 _atom_site_occupancy
  Zn  Zn0  1  0.49850000  0.41041000  0.49058000  1.0
  Zn  Zn1  1  0.50197000  0.58915000  0.50669000  1.0
  H  H2  1  0.51254000  0.00409000  0.59187000  1.0
  H  H3  1  0.48038000  0.99539000  0.41830000  1.0
  H  H4  1  0.40940000  0.55891000  0.01077000  1.0
  H  H5  1  0.59546000  0.44710000  0.98482000  1.0
  H  H6  1  0.06790000  0.30787000  0.51135000  1.0
  H  H7  1  0.93274000  0.66381000  0.48683000  1.0
  C  C8  1  0.49100000  0.51241000  0.35442000  1.0
  C  C9  1  0.29822000  0.48011000  0.50681000  1.0
  C  C10  1  0.50903000  0.51627000  0.64524000  1.0
  C  C11  1  0.70233000  0.49115000  0.48954000  1.0
  C  C12  1  0.42434000  0.75876000  0.47835000  1.0
  C  C13  1  0.41981000  0.84240000  0.48217000  1.0
  C  C14  1  0.49617000  0.88979000  0.52567000  1.0
  C  C15  1  0.57260000  0.84938000  0.56449000  1.0
  C  C16  1  0.57289000  0.76570000  0.55682000  1.0
  C  C17  1  0.49968000  0.97724000  0.53400000  1.0
  C  C18  1  0.49336000  0.02328000  0.47583000  1.0
  C  C19  1  0.43240000  0.15023000  0.43370000  1.0
  C  C20  1  0.49819000  0.11054000  0.48189000  1.0
  C  C21  1  0.56692000  0.15896000  0.53111000  1.0
  C  C22  1  0.56362000  0.24247000  0.53238000  1.0
  C  C23  1  0.43671000  0.23381000  0.43643000  1.0
  C  C24  1  0.48767000  0.51217000  0.26892000  1.0
  C  C25  1  0.58194000  0.51078000  0.22738000  1.0
  C  C26  1  0.58016000  0.51213000  0.14793000  1.0
  C  C27  1  0.48270000  0.51456000  0.10813000  1.0
  C  C28  1  0.38818000  0.51532000  0.15160000  1.0
  C  C29  1  0.39062000  0.51431000  0.23085000  1.0
  C  C30  1  0.47312000  0.52119000  0.02617000  1.0
  C  C31  1  0.53151000  0.48503000  0.97039000  1.0
  C  C32  1  0.61475000  0.49995000  0.84540000  1.0
  C  C33  1  0.52079000  0.49457000  0.88890000  1.0
  C  C34  1  0.42255000  0.49631000  0.85000000  1.0
  C  C35  1  0.41947000  0.50489000  0.77158000  1.0
  C  C36  1  0.51331000  0.51108000  0.73013000  1.0
  C  C37  1  0.61107000  0.50796000  0.76711000  1.0
  C  C38  1  0.10715000  0.41762000  0.50577000  1.0
  C  C39  1  0.89354000  0.55400000  0.49256000  1.0
  C  C40  1  0.18187000  0.48052000  0.50593000  1.0
  C  C41  1  0.81878000  0.49108000  0.49163000  1.0
  C  C42  1  0.99871000  0.52699000  0.49728000  1.0
  C  C43  1  0.00195000  0.44451000  0.50035000  1.0
  S  S44  1  0.12366000  0.57235000  0.50044000  1.0
  S  S45  1  0.87704000  0.39910000  0.49607000  1.0
  N  N46  1  0.49962000  0.72161000  0.51454000  1.0
  N  N47  1  0.50018000  0.27864000  0.48581000  1.0
  Cl  Cl48  1  0.66924000  0.71795000  0.60018000  1.0
  Cl  Cl49  1  0.66790000  0.90276000  0.61902000  1.0
  Cl  Cl50  1  0.33149000  0.70175000  0.42642000  1.0
  Cl  Cl51  1  0.31862000  0.88436000  0.43631000  1.0
  Cl  Cl52  1  0.65810000  0.11894000  0.58770000  1.0
  Cl  Cl53  1  0.64198000  0.30041000  0.59518000  1.0
  Cl  Cl54  1  0.34551000  0.09639000  0.37238000  1.0
  Cl  Cl55  1  0.36082000  0.28078000  0.37576000  1.0
  Cl  Cl56  1  0.27510000  0.51582000  0.28312000  1.0
  Cl  Cl57  1  0.26703000  0.51605000  0.10602000  1.0
  Cl  Cl58  1  0.70039000  0.50862000  0.27606000  1.0
  Cl  Cl59  1  0.69984000  0.51525000  0.10124000  1.0
  Cl  Cl60  1  0.30381000  0.48366000  0.89633000  1.0
  Cl  Cl61  1  0.30014000  0.50580000  0.72382000  1.0
  Cl  Cl62  1  0.73657000  0.49855000  0.88996000  1.0
  Cl  Cl63  1  0.72602000  0.51371000  0.71471000  1.0
  O  O64  1  0.48203000  0.44515000  0.38040000  1.0
  O  O65  1  0.50199000  0.58058000  0.39048000  1.0
  O  O66  1  0.34603000  0.54826000  0.50704000  1.0
  O  O67  1  0.34117000  0.41273000  0.50595000  1.0
  O  O68  1  0.50285000  0.58513000  0.62241000  1.0
  O  O69  1  0.51285000  0.45021000  0.60604000  1.0
  O  O70  1  0.65593000  0.42214000  0.47796000  1.0
  O  O71  1  0.65810000  0.55757000  0.50055000  1.0
  O  O72  1  0.13310000  0.34058000  0.51002000  1.0
  O  O73  1  0.86758000  0.63114000  0.48883000  1.0
