# generated using pymatgen
data_Cd2H10C8O13
_symmetry_space_group_name_H-M   'P 1'
_cell_length_a   7.45023000
_cell_length_b   9.03365000
_cell_length_c   11.31150000
_cell_angle_alpha   89.99980000
_cell_angle_beta   89.99990000
_cell_angle_gamma   84.27960000
_symmetry_Int_Tables_number   1
_chemical_formula_structural   Cd2H10C8O13
_chemical_formula_sum   'Cd4 H20 C16 O26'
_cell_volume   757.50414495
_cell_formula_units_Z   2
loop_
 _symmetry_equiv_pos_site_id
 _symmetry_equiv_pos_as_xyz
  1  'x, y, z'
loop_
 _atom_site_type_symbol
 _atom_site_label
 _atom_site_symmetry_multiplicity
 _atom_site_fract_x
 _atom_site_fract_y
 _atom_site_fract_z
 _atom_site_occupancy
  Cd  Cd0  1  0.27954000  0.75190000  0.66700000  1.0
  Cd  Cd1  1  0.72046000  0.24809000  0.16701000  1.0
  Cd  Cd2  1  0.17252000  0.73949000  0.16906000  1.0
  Cd  Cd3  1  0.82748000  0.26052000  0.66906000  1.0
  H  H4  1  0.98845000  0.52715000  0.25942000  1.0
  H  H5  1  0.01155000  0.47285000  0.75942000  1.0
  H  H6  1  0.24274000  0.70468000  0.44004000  1.0
  H  H7  1  0.75727000  0.29532000  0.94004000  1.0
  H  H8  1  0.15656000  0.35153000  0.34352000  1.0
  H  H9  1  0.84344000  0.64847000  0.84352000  1.0
  H  H10  1  0.39651000  0.40934000  0.48927000  1.0
  H  H11  1  0.60350000  0.59066000  0.98927000  1.0
  H  H12  1  0.43376000  0.94956000  0.22879000  1.0
  H  H13  1  0.56624000  0.05044000  0.72879000  1.0
  H  H14  1  0.99178000  0.93717000  0.51017000  1.0
  H  H15  1  0.00822000  0.06281000  0.01017000  1.0
  H  H16  1  0.30005000  0.13634000  0.31276000  1.0
  H  H17  1  0.69995000  0.86366000  0.81276000  1.0
  H  H18  1  0.12884000  0.12728000  0.49153000  1.0
  H  H19  1  0.87115000  0.87271000  0.99153000  1.0
  H  H20  1  0.32830000  0.88798000  0.00080000  1.0
  H  H21  1  0.67169000  0.11202000  0.50080000  1.0
  H  H22  1  0.15130000  0.84507000  0.93148000  1.0
  H  H23  1  0.84869000  0.15493000  0.43147000  1.0
  C  C24  1  0.37379000  0.44873000  0.25779000  1.0
  C  C25  1  0.62622000  0.55127000  0.75779000  1.0
  C  C26  1  0.21330000  0.45922000  0.34442000  1.0
  C  C27  1  0.78671000  0.54078000  0.84442000  1.0
  C  C28  1  0.27810000  0.48824000  0.46967000  1.0
  C  C29  1  0.72191000  0.51176000  0.96967000  1.0
  C  C30  1  0.13650000  0.45915000  0.56382000  1.0
  C  C31  1  0.86350000  0.54085000  0.06382000  1.0
  C  C32  1  0.04540000  0.04924000  0.27636000  1.0
  C  C33  1  0.95460000  0.95077000  0.77636000  1.0
  C  C34  1  0.23561000  0.03435000  0.33079000  1.0
  C  C35  1  0.76439000  0.96566000  0.83078000  1.0
  C  C36  1  0.21117000  0.02434000  0.46586000  1.0
  C  C37  1  0.78882000  0.97566000  0.96586000  1.0
  C  C38  1  0.38523000  0.03673000  0.53511000  1.0
  C  C39  1  0.61476000  0.96328000  0.03511000  1.0
  O  O40  1  0.38719000  0.54632000  0.17854000  1.0
  O  O41  1  0.61281000  0.45368000  0.67855000  1.0
  O  O42  1  0.48471000  0.33459000  0.27488000  1.0
  O  O43  1  0.51529000  0.66540000  0.77489000  1.0
  O  O44  1  0.07401000  0.57415000  0.31455000  1.0
  O  O45  1  0.92599000  0.42585000  0.81455000  1.0
  O  O46  1  0.33569000  0.63464000  0.47732000  1.0
  O  O47  1  0.66432000  0.36536000  0.97733000  1.0
  O  O48  1  0.11963000  0.54523000  0.65393000  1.0
  O  O49  1  0.88038000  0.45476000  0.15392000  1.0
  O  O50  1  0.05074000  0.34705000  0.54932000  1.0
  O  O51  1  0.94926000  0.65295000  0.04933000  1.0
  O  O52  1  0.98435000  0.94166000  0.22519000  1.0
  O  O53  1  0.01564000  0.05834000  0.72519000  1.0
  O  O54  1  0.95452000  0.17662000  0.29240000  1.0
  O  O55  1  0.04548000  0.82338000  0.79241000  1.0
  O  O56  1  0.34650000  0.90892000  0.28402000  1.0
  O  O57  1  0.65350000  0.09109000  0.78402000  1.0
  O  O58  1  0.11925000  0.89787000  0.49801000  1.0
  O  O59  1  0.88076000  0.10212000  0.99802000  1.0
  O  O60  1  0.42943000  0.95260000  0.62360000  1.0
  O  O61  1  0.57057000  0.04740000  0.12360000  1.0
  O  O62  1  0.47180000  0.14204000  0.50180000  1.0
  O  O63  1  0.52819000  0.85797000  0.00178000  1.0
  O  O64  1  0.18993000  0.89223000  0.00507000  1.0
  O  O65  1  0.81006000  0.10777000  0.50507000  1.0
