# generated using pymatgen
data_CuH10C14N8O3
_symmetry_space_group_name_H-M   'P 1'
_cell_length_a   8.29427000
_cell_length_b   8.87649000
_cell_length_c   12.11670000
_cell_angle_alpha   69.05990000
_cell_angle_beta   70.17450000
_cell_angle_gamma   78.45140000
_symmetry_Int_Tables_number   1
_chemical_formula_structural   CuH10C14N8O3
_chemical_formula_sum   'Cu2 H20 C28 N16 O6'
_cell_volume   780.60679773
_cell_formula_units_Z   2
loop_
 _symmetry_equiv_pos_site_id
 _symmetry_equiv_pos_as_xyz
  1  'x, y, z'
loop_
 _atom_site_type_symbol
 _atom_site_label
 _atom_site_symmetry_multiplicity
 _atom_site_fract_x
 _atom_site_fract_y
 _atom_site_fract_z
 _atom_site_occupancy
  Cu  Cu0  1  0.23264000  0.77191000  0.16697000  1.0
  Cu  Cu1  1  0.76735000  0.22809000  0.83304000  1.0
  H  H2  1  0.18408000  0.44480000  0.23149000  1.0
  H  H3  1  0.81592000  0.55519000  0.76851000  1.0
  H  H4  1  0.24973000  0.45503000  0.33695000  1.0
  H  H5  1  0.75028000  0.54497000  0.66305000  1.0
  H  H6  1  0.21328000  0.08925000  0.31094000  1.0
  H  H7  1  0.78671000  0.91074000  0.68906000  1.0
  H  H8  1  0.31029000  0.06308000  0.49235000  1.0
  H  H9  1  0.68972000  0.93692000  0.50764000  1.0
  H  H10  1  0.11037000  0.59010000  0.66581000  1.0
  H  H11  1  0.88964000  0.40989000  0.33419000  1.0
  H  H12  1  0.02239000  0.63959000  0.47746000  1.0
  H  H13  1  0.97761000  0.36041000  0.52255000  1.0
  H  H14  1  0.25376000  0.05299000  0.68891000  1.0
  H  H15  1  0.74624000  0.94700000  0.31109000  1.0
  H  H16  1  0.35112000  0.99853000  0.87623000  1.0
  H  H17  1  0.64888000  0.00148000  0.12377000  1.0
  H  H18  1  0.39595000  0.50202000  0.94546000  1.0
  H  H19  1  0.60405000  0.49799000  0.05455000  1.0
  H  H20  1  0.30452000  0.53468000  0.76072000  1.0
  H  H21  1  0.69548000  0.46532000  0.23929000  1.0
  C  C22  1  0.19736000  0.98271000  0.39302000  1.0
  C  C23  1  0.80264000  0.01728000  0.60699000  1.0
  C  C24  1  0.24876000  0.96383000  0.49464000  1.0
  C  C25  1  0.75124000  0.03616000  0.50536000  1.0
  C  C26  1  0.22208000  0.82132000  0.59664000  1.0
  C  C27  1  0.77793000  0.17867000  0.40336000  1.0
  C  C28  1  0.14086000  0.70144000  0.58980000  1.0
  C  C29  1  0.85915000  0.29856000  0.41020000  1.0
  C  C30  1  0.08932000  0.72483000  0.48767000  1.0
  C  C31  1  0.91068000  0.27517000  0.51234000  1.0
  C  C32  1  0.27478000  0.79777000  0.70588000  1.0
  C  C33  1  0.72523000  0.20223000  0.29412000  1.0
  C  C34  1  0.28967000  0.92933000  0.73956000  1.0
  C  C35  1  0.71033000  0.07067000  0.26044000  1.0
  C  C36  1  0.33969000  0.90365000  0.84292000  1.0
  C  C37  1  0.66030000  0.09636000  0.15708000  1.0
  C  C38  1  0.36230000  0.61959000  0.88457000  1.0
  C  C39  1  0.63769000  0.38041000  0.11543000  1.0
  C  C40  1  0.31188000  0.64153000  0.78219000  1.0
  C  C41  1  0.68813000  0.35847000  0.21781000  1.0
  C  C42  1  0.95328000  0.79402000  0.05008000  1.0
  C  C43  1  0.04671000  0.20599000  0.94991000  1.0
  C  C44  1  0.83317000  0.73453000  0.92535000  1.0
  C  C45  1  0.16683000  0.26548000  0.07465000  1.0
  C  C46  1  0.51770000  0.72027000  0.28489000  1.0
  C  C47  1  0.48230000  0.27973000  0.71511000  1.0
  C  C48  1  0.64219000  0.66284000  0.44215000  1.0
  C  C49  1  0.35780000  0.33715000  0.55785000  1.0
  N  N50  1  0.11753000  0.86407000  0.39089000  1.0
  N  N51  1  0.88247000  0.13592000  0.60912000  1.0
  N  N52  1  0.37566000  0.75025000  0.91386000  1.0
  N  N53  1  0.62434000  0.24975000  0.08614000  1.0
  N  N54  1  0.82743000  0.78789000  0.01327000  1.0
  N  N55  1  0.17257000  0.21213000  0.98672000  1.0
  N  N56  1  0.05618000  0.81155000  0.09077000  1.0
  N  N57  1  0.94382000  0.18846000  0.90922000  1.0
  N  N58  1  0.82195000  0.68808000  0.84852000  1.0
  N  N59  1  0.17804000  0.31192000  0.15147000  1.0
  N  N60  1  0.64182000  0.66889000  0.33373000  1.0
  N  N61  1  0.35818000  0.33111000  0.66627000  1.0
  N  N62  1  0.41906000  0.76855000  0.22658000  1.0
  N  N63  1  0.58093000  0.23145000  0.77342000  1.0
  N  N64  1  0.65991000  0.65398000  0.53699000  1.0
  N  N65  1  0.34009000  0.34600000  0.46302000  1.0
  O  O66  1  0.17832000  0.51512000  0.28100000  1.0
  O  O67  1  0.82169000  0.48488000  0.71900000  1.0
  O  O68  1  0.06732000  0.88424000  0.29356000  1.0
  O  O69  1  0.93267000  0.11575000  0.70645000  1.0
  O  O70  1  0.42111000  0.72790000  0.01338000  1.0
  O  O71  1  0.57889000  0.27211000  0.98662000  1.0
