# generated using pymatgen
data_KCu6H12C18N18ClO12
_symmetry_space_group_name_H-M   'P 1'
_cell_length_a   10.42380000
_cell_length_b   12.66940000
_cell_length_c   13.11000000
_cell_angle_alpha   83.57880000
_cell_angle_beta   81.85310000
_cell_angle_gamma   68.05860000
_symmetry_Int_Tables_number   1
_chemical_formula_structural   KCu6H12C18N18ClO12
_chemical_formula_sum   'K2 Cu12 H24 C36 N36 Cl2 O24'
_cell_volume   1586.46242179
_cell_formula_units_Z   2
loop_
 _symmetry_equiv_pos_site_id
 _symmetry_equiv_pos_as_xyz
  1  'x, y, z'
loop_
 _atom_site_type_symbol
 _atom_site_label
 _atom_site_symmetry_multiplicity
 _atom_site_fract_x
 _atom_site_fract_y
 _atom_site_fract_z
 _atom_site_occupancy
  K  K0  1  0.33103000  0.45921000  0.02684000  1.0
  K  K1  1  0.66898000  0.54079000  0.97316000  1.0
  Cu  Cu2  1  0.93360000  0.75097000  0.47587000  1.0
  Cu  Cu3  1  0.06640000  0.24903000  0.52413000  1.0
  Cu  Cu4  1  0.66802000  0.97909000  0.36791000  1.0
  Cu  Cu5  1  0.33198000  0.02091000  0.63209000  1.0
  Cu  Cu6  1  0.54511000  0.09143000  0.61331000  1.0
  Cu  Cu7  1  0.45489000  0.90857000  0.38669000  1.0
  Cu  Cu8  1  0.81595000  0.86167000  0.71652000  1.0
  Cu  Cu9  1  0.18405000  0.13833000  0.28348000  1.0
  Cu  Cu10  1  0.92490000  0.05465000  0.67674000  1.0
  Cu  Cu11  1  0.07510000  0.94535000  0.32325000  1.0
  Cu  Cu12  1  0.79688000  0.17377000  0.44328000  1.0
  Cu  Cu13  1  0.20312000  0.82623000  0.55672000  1.0
  H  H14  1  0.05587000  0.61491000  0.27994000  1.0
  H  H15  1  0.94413000  0.38509000  0.72006000  1.0
  H  H16  1  0.74115000  0.91115000  0.14270000  1.0
  H  H17  1  0.25885000  0.08886000  0.85730000  1.0
  H  H18  1  0.47513000  0.17911000  0.23986000  1.0
  H  H19  1  0.52487000  0.82089000  0.76014000  1.0
  H  H20  1  0.32505000  0.31701000  0.54352000  1.0
  H  H21  1  0.67495000  0.68299000  0.45648000  1.0
  H  H22  1  0.42409000  0.22015000  0.81247000  1.0
  H  H23  1  0.57590000  0.77985000  0.18753000  1.0
  H  H24  1  0.75181000  0.92777000  0.94224000  1.0
  H  H25  1  0.24819000  0.07223000  0.05776000  1.0
  H  H26  1  0.00048000  0.65405000  0.84837000  1.0
  H  H27  1  0.99952000  0.34595000  0.15163000  1.0
  H  H28  1  0.16172000  0.52498000  0.54252000  1.0
  H  H29  1  0.83828000  0.47502000  0.45748000  1.0
  H  H30  1  0.32447000  0.69824000  0.75544000  1.0
  H  H31  1  0.67553000  0.30176000  0.24456000  1.0
  H  H32  1  0.99053000  0.98550000  0.89727000  1.0
  H  H33  1  0.00947000  0.01450000  0.10273000  1.0
  H  H34  1  0.74761000  0.25154000  0.81266000  1.0
  H  H35  1  0.25239000  0.74846000  0.18734000  1.0
  H  H36  1  0.58019000  0.40220000  0.52117000  1.0
  H  H37  1  0.41981000  0.59780000  0.47882000  1.0
  C  C38  1  0.97184000  0.69473000  0.26331000  1.0
  C  C39  1  0.02815000  0.30528000  0.73669000  1.0
  C  C40  1  0.91811000  0.74380000  0.16946000  1.0
  C  C41  1  0.08189000  0.25620000  0.83054000  1.0
  C  C42  1  0.80925000  0.84705000  0.19274000  1.0
  C  C43  1  0.19075000  0.15295000  0.80726000  1.0
  C  C44  1  0.45303000  0.19455000  0.32152000  1.0
  C  C45  1  0.54697000  0.80545000  0.67848000  1.0
  C  C46  1  0.35964000  0.29045000  0.37222000  1.0
  C  C47  1  0.64036000  0.70955000  0.62779000  1.0
  C  C48  1  0.37549000  0.26582000  0.47795000  1.0
  C  C49  1  0.62451000  0.73418000  0.52205000  1.0
  C  C50  1  0.50969000  0.14085000  0.82729000  1.0
  C  C51  1  0.49031000  0.85915000  0.17271000  1.0
  C  C52  1  0.57077000  0.09388000  0.91903000  1.0
  C  C53  1  0.42923000  0.90612000  0.08097000  1.0
  C  C54  1  0.67996000  0.99121000  0.89399000  1.0
  C  C55  1  0.32004000  0.00879000  0.10602000  1.0
  C  C56  1  0.02354000  0.64044000  0.76637000  1.0
  C  C57  1  0.97646000  0.35956000  0.23363000  1.0
  C  C58  1  0.12400000  0.54841000  0.71430000  1.0
  C  C59  1  0.87601000  0.45159000  0.28571000  1.0
  C  C60  1  0.10735000  0.57398000  0.60870000  1.0
  C  C61  1  0.89265000  0.42602000  0.39130000  1.0
  C  C62  1  0.23667000  0.77625000  0.77233000  1.0
  C  C63  1  0.76333000  0.22375000  0.22767000  1.0
  C  C64  1  0.17543000  0.82272000  0.86772000  1.0
  C  C65  1  0.82457000  0.17728000  0.13228000  1.0
  C  C66  1  0.06385000  0.92368000  0.84581000  1.0
  C  C67  1  0.93615000  0.07632000  0.15419000  1.0
  C  C68  1  0.72228000  0.27077000  0.73340000  1.0
  C  C69  1  0.27772000  0.72923000  0.26660000  1.0
  C  C70  1  0.62370000  0.36763000  0.68854000  1.0
  C  C71  1  0.37630000  0.63237000  0.31146000  1.0
  C  C72  1  0.63633000  0.34898000  0.58319000  1.0
  C  C73  1  0.36367000  0.65102000  0.41681000  1.0
  N  N74  1  0.89935000  0.76478000  0.33759000  1.0
  N  N75  1  0.10064000  0.23522000  0.66241000  1.0
  N  N76  1  0.79853000  0.85863000  0.29397000  1.0
  N  N77  1  0.20146000  0.14137000  0.70603000  1.0
  N  N78  1  0.52167000  0.11819000  0.39290000  1.0
  N  N79  1  0.47833000  0.88181000  0.60710000  1.0
  N  N80  1  0.47384000  0.16217000  0.48939000  1.0
  N  N81  1  0.52616000  0.83783000  0.51061000  1.0
  N  N82  1  0.57800000  0.07035000  0.75264000  1.0
  N  N83  1  0.42200000  0.92965000  0.24736000  1.0
  N  N84  1  0.68333000  0.97798000  0.79373000  1.0
  N  N85  1  0.31667000  0.02202000  0.20627000  1.0
  N  N86  1  0.95276000  0.71629000  0.69592000  1.0
  N  N87  1  0.04724000  0.28371000  0.30408000  1.0
  N  N88  1  0.00461000  0.67506000  0.59839000  1.0
  N  N89  1  0.99539000  0.32494000  0.40161000  1.0
  N  N90  1  0.96354000  0.69857000  0.07199000  1.0
  N  N91  1  0.03646000  0.30143000  0.92801000  1.0
  N  N92  1  0.27287000  0.39244000  0.32584000  1.0
  N  N93  1  0.72713000  0.60756000  0.67416000  1.0
  N  N94  1  0.53157000  0.46360000  0.73881000  1.0
  N  N95  1  0.46843000  0.53640000  0.26119000  1.0
  N  N96  1  0.52874000  0.13958000  0.01634000  1.0
  N  N97  1  0.47126000  0.86042000  0.98366000  1.0
  N  N98  1  0.21883000  0.77761000  0.96492000  1.0
  N  N99  1  0.78117000  0.22239000  0.03508000  1.0
  N  N100  1  0.22200000  0.45112000  0.75840000  1.0
  N  N101  1  0.77800000  0.54888000  0.24160000  1.0
  N  N102  1  0.16635000  0.84569000  0.69813000  1.0
  N  N103  1  0.83366000  0.15431000  0.30187000  1.0
  N  N104  1  0.05888000  0.93623000  0.74360000  1.0
  N  N105  1  0.94112000  0.06377000  0.25640000  1.0
  N  N106  1  0.78872000  0.19901000  0.65928000  1.0
  N  N107  1  0.21128000  0.80099000  0.34072000  1.0
  N  N108  1  0.73516000  0.24689000  0.56669000  1.0
  N  N109  1  0.26483000  0.75311000  0.43331000  1.0
  Cl  Cl110  1  0.81222000  0.95855000  0.53048000  1.0
  Cl  Cl111  1  0.18777000  0.04145000  0.46952000  1.0
  O  O112  1  0.06273000  0.60481000  0.06510000  1.0
  O  O113  1  0.93726000  0.39520000  0.93491000  1.0
  O  O114  1  0.90339000  0.75363000  0.99579000  1.0
  O  O115  1  0.09660000  0.24637000  0.00421000  1.0
  O  O116  1  0.27492000  0.40137000  0.22955000  1.0
  O  O117  1  0.72508000  0.59863000  0.77045000  1.0
  O  O118  1  0.19677000  0.47088000  0.38241000  1.0
  O  O119  1  0.80323000  0.52912000  0.61758000  1.0
  O  O120  1  0.45867000  0.54683000  0.68483000  1.0
  O  O121  1  0.54133000  0.45316000  0.31517000  1.0
  O  O122  1  0.52567000  0.46241000  0.83531000  1.0
  O  O123  1  0.47433000  0.53759000  0.16469000  1.0
  O  O124  1  0.42519000  0.23024000  0.02553000  1.0
  O  O125  1  0.57481000  0.76976000  0.97448000  1.0
  O  O126  1  0.59571000  0.08727000  0.09065000  1.0
  O  O127  1  0.40429000  0.91273000  0.90935000  1.0
  O  O128  1  0.15572000  0.83212000  0.04272000  1.0
  O  O129  1  0.84428000  0.16788000  0.95728000  1.0
  O  O130  1  0.31973000  0.68462000  0.97037000  1.0
  O  O131  1  0.68027000  0.31538000  0.02963000  1.0
  O  O132  1  0.22434000  0.44221000  0.85439000  1.0
  O  O133  1  0.77566000  0.55779000  0.14561000  1.0
  O  O134  1  0.30371000  0.37603000  0.70056000  1.0
  O  O135  1  0.69629000  0.62397000  0.29944000  1.0
