# generated using pymatgen
data_CdH10C10(NO)4
_symmetry_space_group_name_H-M   'P 1'
_cell_length_a   5.20398000
_cell_length_b   8.40577000
_cell_length_c   12.36980000
_cell_angle_alpha   86.13120000
_cell_angle_beta   89.99990000
_cell_angle_gamma   89.99940000
_symmetry_Int_Tables_number   1
_chemical_formula_structural   CdH10C10(NO)4
_chemical_formula_sum   'Cd2 H20 C20 N8 O8'
_cell_volume   539.86476768
_cell_formula_units_Z   2
loop_
 _symmetry_equiv_pos_site_id
 _symmetry_equiv_pos_as_xyz
  1  'x, y, z'
loop_
 _atom_site_type_symbol
 _atom_site_label
 _atom_site_symmetry_multiplicity
 _atom_site_fract_x
 _atom_site_fract_y
 _atom_site_fract_z
 _atom_site_occupancy
  Cd  Cd0  1  0.00000000  0.00000000  0.00000000  1.0
  Cd  Cd1  1  0.50000000  0.49999000  0.50000000  1.0
  H  H2  1  0.42342000  0.31144000  0.00724000  1.0
  H  H3  1  0.92342000  0.18856000  0.49276000  1.0
  H  H4  1  0.57657000  0.68856000  0.99276000  1.0
  H  H5  1  0.07659000  0.81143000  0.50724000  1.0
  H  H6  1  0.29943000  0.59377000  0.10854000  1.0
  H  H7  1  0.79941000  0.90623000  0.39147000  1.0
  H  H8  1  0.70057000  0.40623000  0.89146000  1.0
  H  H9  1  0.20060000  0.09376000  0.60853000  1.0
  H  H10  1  0.73591000  0.24171000  0.18339000  1.0
  H  H11  1  0.23592000  0.25831000  0.31661000  1.0
  H  H12  1  0.26408000  0.75830000  0.81661000  1.0
  H  H13  1  0.76409000  0.74168000  0.68340000  1.0
  H  H14  1  0.65679000  0.51521000  0.24911000  1.0
  H  H15  1  0.15679000  0.98480000  0.25089000  1.0
  H  H16  1  0.34321000  0.48480000  0.75088000  1.0
  H  H17  1  0.84321000  0.01520000  0.74912000  1.0
  H  H18  1  0.84133000  0.67517000  0.18875000  1.0
  H  H19  1  0.34133000  0.82485000  0.31125000  1.0
  H  H20  1  0.15868000  0.32485000  0.81124000  1.0
  H  H21  1  0.65868000  0.17515000  0.68876000  1.0
  C  C22  1  0.26397000  0.34083000  0.05872000  1.0
  C  C23  1  0.76397000  0.15917000  0.44128000  1.0
  C  C24  1  0.73602000  0.65917000  0.94127000  1.0
  C  C25  1  0.23604000  0.84082000  0.55872000  1.0
  C  C26  1  0.20834000  0.47784000  0.10884000  1.0
  C  C27  1  0.70833000  0.02216000  0.39116000  1.0
  C  C28  1  0.79167000  0.52218000  0.89116000  1.0
  C  C29  1  0.29168000  0.97783000  0.60883000  1.0
  C  C30  1  0.90819000  0.29663000  0.14899000  1.0
  C  C31  1  0.40818000  0.20338000  0.35101000  1.0
  C  C32  1  0.09181000  0.70338000  0.85101000  1.0
  C  C33  1  0.59182000  0.79661000  0.64899000  1.0
  C  C34  1  0.85334000  0.55731000  0.23309000  1.0
  C  C35  1  0.35334000  0.94270000  0.26691000  1.0
  C  C36  1  0.14666000  0.44270000  0.76691000  1.0
  C  C37  1  0.64666000  0.05729000  0.73309000  1.0
  C  C38  1  0.99147000  0.58284000  0.34047000  1.0
  C  C39  1  0.49148000  0.91716000  0.15953000  1.0
  C  C40  1  0.00852000  0.41716000  0.65953000  1.0
  C  C41  1  0.50852000  0.08284000  0.84047000  1.0
  N  N42  1  0.07491000  0.22890000  0.08428000  1.0
  N  N43  1  0.57492000  0.27110000  0.41572000  1.0
  N  N44  1  0.92509000  0.77110000  0.91572000  1.0
  N  N45  1  0.42509000  0.72889000  0.58429000  1.0
  N  N46  1  0.98299000  0.44779000  0.16541000  1.0
  N  N47  1  0.48298000  0.05221000  0.33459000  1.0
  N  N48  1  0.01701000  0.55221000  0.83459000  1.0
  N  N49  1  0.51703000  0.94778000  0.66541000  1.0
  O  O50  1  0.85449000  0.63805000  0.41414000  1.0
  O  O51  1  0.35451000  0.86197000  0.08586000  1.0
  O  O52  1  0.14550000  0.36195000  0.58586000  1.0
  O  O53  1  0.64548000  0.13803000  0.91414000  1.0
  O  O54  1  0.23110000  0.55659000  0.34504000  1.0
  O  O55  1  0.73110000  0.94341000  0.15497000  1.0
  O  O56  1  0.76890000  0.44340000  0.65497000  1.0
  O  O57  1  0.26888000  0.05660000  0.84502000  1.0
