# generated using pymatgen
data_ZnH15C18N3O7
_symmetry_space_group_name_H-M   'P 1'
_cell_length_a   9.30874000
_cell_length_b   9.32501000
_cell_length_c   11.67460000
_cell_angle_alpha   81.52900000
_cell_angle_beta   67.21170000
_cell_angle_gamma   80.55810000
_symmetry_Int_Tables_number   1
_chemical_formula_structural   ZnH15C18N3O7
_chemical_formula_sum   'Zn2 H30 C36 N6 O14'
_cell_volume   917.72369990
_cell_formula_units_Z   2
loop_
 _symmetry_equiv_pos_site_id
 _symmetry_equiv_pos_as_xyz
  1  'x, y, z'
loop_
 _atom_site_type_symbol
 _atom_site_label
 _atom_site_symmetry_multiplicity
 _atom_site_fract_x
 _atom_site_fract_y
 _atom_site_fract_z
 _atom_site_occupancy
  Zn  Zn0  1  0.51745000  0.96540000  0.71183000  1.0
  Zn  Zn1  1  0.48254000  0.03460000  0.28817000  1.0
  H  H2  1  0.20061000  0.82947000  0.85334000  1.0
  H  H3  1  0.79939000  0.17052000  0.14667000  1.0
  H  H4  1  0.08495000  0.66057000  0.04689000  1.0
  H  H5  1  0.91505000  0.33943000  0.95311000  1.0
  H  H6  1  0.24354000  0.57367000  0.18160000  1.0
  H  H7  1  0.75646000  0.42633000  0.81840000  1.0
  H  H8  1  0.50341000  0.66448000  0.12263000  1.0
  H  H9  1  0.49659000  0.33552000  0.87737000  1.0
  H  H10  1  0.75267000  0.78749000  0.05411000  1.0
  H  H11  1  0.24733000  0.21252000  0.94589000  1.0
  H  H12  1  0.96698000  0.96583000  0.88609000  1.0
  H  H13  1  0.03302000  0.03418000  0.11391000  1.0
  H  H14  1  0.93159000  0.03002000  0.59910000  1.0
  H  H15  1  0.06841000  0.96998000  0.40090000  1.0
  H  H16  1  0.98572000  0.12261000  0.69822000  1.0
  H  H17  1  0.01428000  0.87739000  0.30178000  1.0
  H  H18  1  0.80440000  0.18124000  0.67335000  1.0
  H  H19  1  0.19560000  0.81876000  0.32665000  1.0
  H  H20  1  0.48227000  0.42951000  0.67299000  1.0
  H  H21  1  0.51773000  0.57049000  0.32701000  1.0
  H  H22  1  0.03723000  0.35747000  0.67590000  1.0
  H  H23  1  0.96278000  0.64253000  0.32410000  1.0
  H  H24  1  0.74105000  0.59579000  0.62760000  1.0
  H  H25  1  0.25895000  0.40421000  0.37240000  1.0
  H  H26  1  0.17612000  0.79155000  0.58790000  1.0
  H  H27  1  0.82388000  0.20845000  0.41210000  1.0
  H  H28  1  0.67610000  0.02666000  0.46828000  1.0
  H  H29  1  0.32389000  0.97334000  0.53172000  1.0
  H  H30  1  0.77702000  0.89545000  0.52504000  1.0
  H  H31  1  0.22298000  0.10454000  0.47496000  1.0
  C  C32  1  0.26245000  0.78915000  0.91627000  1.0
  C  C33  1  0.73755000  0.21085000  0.08374000  1.0
  C  C34  1  0.20031000  0.69491000  0.02266000  1.0
  C  C35  1  0.79969000  0.30508000  0.97734000  1.0
  C  C36  1  0.28824000  0.64752000  0.09761000  1.0
  C  C37  1  0.71176000  0.35248000  0.90239000  1.0
  C  C38  1  0.43329000  0.69732000  0.06497000  1.0
  C  C39  1  0.56671000  0.30268000  0.93503000  1.0
  C  C40  1  0.48762000  0.79261000  0.95694000  1.0
  C  C41  1  0.51238000  0.20739000  0.04306000  1.0
  C  C42  1  0.63638000  0.85355000  0.91472000  1.0
  C  C43  1  0.36362000  0.14645000  0.08528000  1.0
  C  C44  1  0.75148000  0.84481000  0.96688000  1.0
  C  C45  1  0.24852000  0.15519000  0.03312000  1.0
  C  C46  1  0.86054000  0.93411000  0.88487000  1.0
  C  C47  1  0.13946000  0.06589000  0.11513000  1.0
  C  C48  1  0.88813000  0.08756000  0.68323000  1.0
  C  C49  1  0.11187000  0.91245000  0.31677000  1.0
  C  C50  1  0.44989000  0.72252000  0.63371000  1.0
  C  C51  1  0.55011000  0.27748000  0.36629000  1.0
  C  C52  1  0.34009000  0.62202000  0.63290000  1.0
  C  C53  1  0.65991000  0.37798000  0.36710000  1.0
  C  C54  1  0.37178000  0.47207000  0.66208000  1.0
  C  C55  1  0.62822000  0.52793000  0.33792000  1.0
  C  C56  1  0.26236000  0.37674000  0.67908000  1.0
  C  C57  1  0.73764000  0.62325000  0.32092000  1.0
  C  C58  1  0.29450000  0.21598000  0.71468000  1.0
  C  C59  1  0.70549000  0.78403000  0.28532000  1.0
  C  C60  1  0.12187000  0.43196000  0.66303000  1.0
  C  C61  1  0.87813000  0.56804000  0.33696000  1.0
  C  C62  1  0.09277000  0.58057000  0.62737000  1.0
  C  C63  1  0.90723000  0.41943000  0.37263000  1.0
  C  C64  1  0.94781000  0.64065000  0.60365000  1.0
  C  C65  1  0.05219000  0.35937000  0.39634000  1.0
  C  C66  1  0.20120000  0.67584000  0.61355000  1.0
  C  C67  1  0.79881000  0.32417000  0.38645000  1.0
  N  N68  1  0.40263000  0.83631000  0.88387000  1.0
  N  N69  1  0.59737000  0.16369000  0.11614000  1.0
  N  N70  1  0.81054000  0.98989000  0.79083000  1.0
  N  N71  1  0.18946000  0.01011000  0.20917000  1.0
  N  N72  1  0.67521000  0.94171000  0.80716000  1.0
  N  N73  1  0.32479000  0.05830000  0.19284000  1.0
  O  O74  1  0.40451000  0.86078000  0.62909000  1.0
  O  O75  1  0.59549000  0.13922000  0.37091000  1.0
  O  O76  1  0.57439000  0.66945000  0.65047000  1.0
  O  O77  1  0.42561000  0.33055000  0.34953000  1.0
  O  O78  1  0.43765000  0.17435000  0.70680000  1.0
  O  O79  1  0.56235000  0.82565000  0.29320000  1.0
  O  O80  1  0.18669000  0.13611000  0.74970000  1.0
  O  O81  1  0.81330000  0.86389000  0.25031000  1.0
  O  O82  1  0.84410000  0.54516000  0.63339000  1.0
  O  O83  1  0.15590000  0.45484000  0.36661000  1.0
  O  O84  1  0.92673000  0.76780000  0.55995000  1.0
  O  O85  1  0.07327000  0.23219000  0.44006000  1.0
  O  O86  1  0.70646000  0.98767000  0.54057000  1.0
  O  O87  1  0.29354000  0.01233000  0.45943000  1.0
