# generated using pymatgen
data_CoH28C26(N2O)4
_symmetry_space_group_name_H-M   'P 1'
_cell_length_a   10.49400000
_cell_length_b   13.41480000
_cell_length_c   20.92870000
_cell_angle_alpha   89.98320000
_cell_angle_beta   94.36350000
_cell_angle_gamma   89.97060000
_symmetry_Int_Tables_number   1
_chemical_formula_structural   CoH28C26(N2O)4
_chemical_formula_sum   'Co4 H112 C104 N32 O16'
_cell_volume   2937.69544378
_cell_formula_units_Z   4
loop_
 _symmetry_equiv_pos_site_id
 _symmetry_equiv_pos_as_xyz
  1  'x, y, z'
loop_
 _atom_site_type_symbol
 _atom_site_label
 _atom_site_symmetry_multiplicity
 _atom_site_fract_x
 _atom_site_fract_y
 _atom_site_fract_z
 _atom_site_occupancy
  Co  Co0  1  0.50000000  0.50000000  0.00000000  1.0
  Co  Co1  1  0.50000000  0.99999000  0.50000000  1.0
  Co  Co2  1  1.00000000  0.50000000  0.50000000  1.0
  Co  Co3  1  0.00000000  0.00000000  0.00000000  1.0
  H  H4  1  0.43791000  0.35854000  0.82341000  1.0
  H  H5  1  0.56202000  0.85858000  0.67635000  1.0
  H  H6  1  0.56210000  0.64146000  0.17659000  1.0
  H  H7  1  0.43798000  0.14141000  0.32365000  1.0
  H  H8  1  0.18882000  0.59993000  0.76264000  1.0
  H  H9  1  0.81097000  0.09987000  0.73708000  1.0
  H  H10  1  0.81118000  0.40007000  0.23736000  1.0
  H  H11  1  0.18903000  0.90012000  0.26292000  1.0
  H  H12  1  0.28353000  0.37754000  0.62694000  1.0
  H  H13  1  0.71628000  0.87766000  0.87282000  1.0
  H  H14  1  0.71647000  0.62246000  0.37306000  1.0
  H  H15  1  0.28370000  0.12235000  0.12718000  1.0
  H  H16  1  0.70728000  0.59729000  0.48294000  1.0
  H  H17  1  0.29179000  0.09799000  0.01698000  1.0
  H  H18  1  0.29270000  0.40270000  0.51707000  1.0
  H  H19  1  0.70820000  0.90202000  0.98301000  1.0
  H  H20  1  0.80372000  0.59959000  0.01196000  1.0
  H  H21  1  0.19631000  0.09958000  0.48806000  1.0
  H  H22  1  0.19630000  0.40042000  0.98805000  1.0
  H  H23  1  0.80369000  0.90041000  0.51194000  1.0
  H  H24  1  0.58472000  0.44995000  0.87644000  1.0
  H  H25  1  0.41549000  0.94986000  0.62357000  1.0
  H  H26  1  0.41529000  0.55006000  0.12357000  1.0
  H  H27  1  0.58452000  0.05013000  0.37642000  1.0
  H  H28  1  0.79596000  0.47612000  0.82011000  1.0
  H  H29  1  0.20423000  0.97598000  0.67993000  1.0
  H  H30  1  0.20405000  0.52388000  0.17990000  1.0
  H  H31  1  0.79579000  0.02402000  0.32007000  1.0
  H  H32  1  0.06062000  0.53943000  0.91964000  1.0
  H  H33  1  0.93951000  0.03942000  0.58043000  1.0
  H  H34  1  0.93940000  0.46057000  0.08037000  1.0
  H  H35  1  0.06050000  0.96057000  0.41958000  1.0
  H  H36  1  0.99965000  0.61634000  0.85735000  1.0
  H  H37  1  0.00041000  0.11626000  0.64270000  1.0
  H  H38  1  0.00036000  0.38365000  0.14265000  1.0
  H  H39  1  0.99960000  0.88374000  0.35730000  1.0
  H  H40  1  0.90442000  0.46747000  0.63499000  1.0
  H  H41  1  0.09522000  0.96825000  0.86480000  1.0
  H  H42  1  0.09557000  0.53252000  0.36501000  1.0
  H  H43  1  0.90479000  0.03176000  0.13520000  1.0
  H  H44  1  0.68295000  0.49538000  0.67833000  1.0
  H  H45  1  0.31704000  0.99534000  0.82185000  1.0
  H  H46  1  0.31705000  0.50461000  0.32168000  1.0
  H  H47  1  0.68296000  0.00466000  0.17815000  1.0
  H  H48  1  0.32970000  0.21656000  0.62298000  1.0
  H  H49  1  0.67035000  0.71666000  0.87697000  1.0
  H  H50  1  0.67030000  0.78344000  0.37702000  1.0
  H  H51  1  0.32964000  0.28335000  0.12303000  1.0
  H  H52  1  0.48483000  0.16411000  0.63040000  1.0
  H  H53  1  0.51526000  0.66423000  0.86958000  1.0
  H  H54  1  0.51517000  0.83589000  0.36960000  1.0
  H  H55  1  0.48474000  0.33578000  0.13042000  1.0
  H  H56  1  0.46523000  0.29012000  0.60714000  1.0
  H  H57  1  0.53477000  0.79025000  0.89277000  1.0
  H  H58  1  0.53477000  0.70988000  0.39286000  1.0
  H  H59  1  0.46521000  0.20975000  0.10723000  1.0
  H  H60  1  0.29852000  0.15978000  0.73679000  1.0
  H  H61  1  0.70150000  0.65974000  0.76319000  1.0
  H  H62  1  0.70148000  0.84022000  0.26320000  1.0
  H  H63  1  0.29849000  0.34026000  0.23681000  1.0
  H  H64  1  0.41003000  0.19333000  0.80127000  1.0
  H  H65  1  0.59000000  0.69329000  0.69868000  1.0
  H  H66  1  0.58998000  0.80667000  0.19873000  1.0
  H  H67  1  0.41000000  0.30671000  0.30132000  1.0
  H  H68  1  0.45571000  0.10757000  0.74233000  1.0
  H  H69  1  0.54435000  0.60757000  0.75767000  1.0
  H  H70  1  0.54429000  0.89243000  0.25767000  1.0
  H  H71  1  0.45565000  0.39243000  0.24233000  1.0
  H  H72  1  0.61016000  0.29508000  0.77880000  1.0
  H  H73  1  0.38971000  0.79516000  0.72114000  1.0
  H  H74  1  0.38985000  0.70491000  0.22120000  1.0
  H  H75  1  0.61028000  0.20483000  0.27885000  1.0
  H  H76  1  0.62665000  0.34118000  0.69982000  1.0
  H  H77  1  0.37326000  0.84121000  0.80013000  1.0
  H  H78  1  0.37336000  0.65882000  0.30018000  1.0
  H  H79  1  0.62673000  0.15878000  0.19986000  1.0
  H  H80  1  0.64621000  0.21242000  0.71655000  1.0
  H  H81  1  0.35376000  0.71245000  0.78343000  1.0
  H  H82  1  0.35379000  0.78758000  0.28345000  1.0
  H  H83  1  0.64623000  0.28755000  0.21656000  1.0
  H  H84  1  0.07693000  0.81294000  0.08120000  1.0
  H  H85  1  0.92194000  0.31252000  0.41872000  1.0
  H  H86  1  0.92307000  0.18707000  0.91880000  1.0
  H  H87  1  0.07806000  0.68748000  0.58129000  1.0
  H  H88  1  0.95378000  0.81965000  0.88927000  1.0
  H  H89  1  0.04521000  0.31976000  0.61066000  1.0
  H  H90  1  0.04622000  0.18035000  0.11073000  1.0
  H  H91  1  0.95480000  0.68024000  0.38934000  1.0
  H  H92  1  0.08291000  0.62649000  0.04730000  1.0
  H  H93  1  0.91711000  0.12626000  0.45279000  1.0
  H  H94  1  0.91711000  0.37352000  0.95270000  1.0
  H  H95  1  0.08289000  0.87374000  0.54721000  1.0
  H  H96  1  0.31406000  0.83769000  0.44227000  1.0
  H  H97  1  0.68593000  0.33759000  0.05768000  1.0
  H  H98  1  0.68594000  0.16230000  0.55772000  1.0
  H  H99  1  0.31407000  0.66241000  0.94232000  1.0
  H  H100  1  0.62065000  0.79346000  0.57282000  1.0
  H  H101  1  0.37935000  0.29353000  0.92717000  1.0
  H  H102  1  0.37934000  0.20654000  0.42718000  1.0
  H  H103  1  0.62066000  0.70648000  0.07283000  1.0
  H  H104  1  0.46640000  0.59272000  0.62525000  1.0
  H  H105  1  0.53326000  0.09258000  0.87486000  1.0
  H  H106  1  0.53359000  0.40727000  0.37475000  1.0
  H  H107  1  0.46674000  0.90742000  0.12514000  1.0
  H  H108  1  0.43984000  0.52746000  0.55315000  1.0
  H  H109  1  0.56004000  0.02729000  0.94692000  1.0
  H  H110  1  0.56015000  0.47254000  0.44685000  1.0
  H  H111  1  0.43996000  0.97272000  0.05308000  1.0
  H  H112  1  0.28382000  0.65371000  0.47884000  1.0
  H  H113  1  0.71626000  0.15364000  0.02122000  1.0
  H  H114  1  0.71617000  0.34628000  0.52116000  1.0
  H  H115  1  0.28374000  0.84636000  0.97878000  1.0
  C  C116  1  0.31520000  0.48279000  0.79987000  1.0
  C  C117  1  0.68461000  0.98276000  0.69991000  1.0
  C  C118  1  0.68480000  0.51721000  0.20013000  1.0
  C  C119  1  0.31538000  0.01724000  0.30009000  1.0
  C  C120  1  0.38059000  0.39600000  0.78491000  1.0
  C  C121  1  0.61921000  0.89600000  0.71487000  1.0
  C  C122  1  0.61941000  0.60400000  0.21509000  1.0
  C  C123  1  0.38078000  0.10400000  0.28513000  1.0
  C  C124  1  0.23910000  0.53173000  0.75180000  1.0
  C  C125  1  0.76059000  0.03175000  0.74796000  1.0
  C  C126  1  0.76089000  0.46826000  0.24820000  1.0
  C  C127  1  0.23941000  0.96825000  0.25204000  1.0
  C  C128  1  0.22839000  0.49316000  0.68967000  1.0
  C  C129  1  0.77109000  0.99313000  0.81006000  1.0
  C  C130  1  0.77161000  0.50684000  0.31033000  1.0
  C  C131  1  0.22890000  0.00687000  0.18994000  1.0
  C  C132  1  0.33006000  0.52494000  0.86671000  1.0
  C  C133  1  0.66995000  0.02487000  0.63311000  1.0
  C  C134  1  0.66994000  0.47506000  0.13329000  1.0
  C  C135  1  0.33005000  0.97512000  0.36689000  1.0
  C  C136  1  0.29441000  0.40569000  0.67580000  1.0
  C  C137  1  0.70511000  0.90569000  0.82394000  1.0
  C  C138  1  0.70559000  0.59432000  0.32420000  1.0
  C  C139  1  0.29488000  0.09431000  0.17606000  1.0
  C  C140  1  0.72182000  0.56598000  0.53072000  1.0
  C  C141  1  0.27749000  0.06671000  0.96920000  1.0
  C  C142  1  0.27817000  0.43401000  0.46929000  1.0
  C  C143  1  0.72250000  0.93330000  0.03079000  1.0
  C  C144  1  0.37248000  0.35611000  0.72283000  1.0
  C  C145  1  0.62724000  0.85611000  0.77694000  1.0
  C  C146  1  0.62752000  0.64389000  0.27717000  1.0
  C  C147  1  0.37275000  0.14389000  0.22305000  1.0
  C  C148  1  0.85597000  0.55459000  0.91333000  1.0
  C  C149  1  0.14412000  0.05457000  0.58671000  1.0
  C  C150  1  0.14404000  0.44541000  0.08668000  1.0
  C  C151  1  0.85589000  0.94543000  0.41329000  1.0
  C  C152  1  0.63619000  0.55914000  0.57956000  1.0
  C  C153  1  0.36349000  0.05927000  0.92061000  1.0
  C  C154  1  0.36380000  0.44085000  0.42045000  1.0
  C  C155  1  0.63651000  0.94074000  0.07939000  1.0
  C  C156  1  0.14720000  0.54637000  0.63788000  1.0
  C  C157  1  0.85209000  0.04566000  0.86221000  1.0
  C  C158  1  0.85280000  0.45363000  0.36212000  1.0
  C  C159  1  0.14790000  0.95434000  0.13779000  1.0
  C  C160  1  0.78152000  0.56221000  0.96653000  1.0
  C  C161  1  0.21852000  0.06219000  0.53350000  1.0
  C  C162  1  0.21849000  0.43779000  0.03348000  1.0
  C  C163  1  0.78149000  0.93780000  0.46650000  1.0
  C  C164  1  0.77982000  0.50005000  0.86833000  1.0
  C  C165  1  0.22033000  0.99997000  0.63172000  1.0
  C  C166  1  0.22019000  0.49995000  0.13168000  1.0
  C  C167  1  0.77968000  0.00002000  0.36828000  1.0
  C  C168  1  0.98738000  0.59641000  0.90744000  1.0
  C  C169  1  0.01268000  0.09640000  0.59261000  1.0
  C  C170  1  0.01263000  0.40359000  0.09257000  1.0
  C  C171  1  0.98733000  0.90360000  0.40739000  1.0
  C  C172  1  0.44747000  0.26159000  0.70915000  1.0
  C  C173  1  0.55250000  0.76164000  0.79075000  1.0
  C  C174  1  0.55253000  0.73841000  0.29085000  1.0
  C  C175  1  0.44750000  0.23836000  0.20924000  1.0
  C  C176  1  0.70773000  0.51448000  0.63051000  1.0
  C  C177  1  0.29200000  0.01464000  0.86960000  1.0
  C  C178  1  0.29226000  0.48552000  0.36950000  1.0
  C  C179  1  0.70800000  0.98537000  0.13040000  1.0
  C  C180  1  0.43018000  0.23195000  0.63838000  1.0
  C  C181  1  0.56986000  0.73205000  0.86155000  1.0
  C  C182  1  0.56982000  0.76805000  0.36162000  1.0
  C  C183  1  0.43013000  0.26795000  0.13844000  1.0
  C  C184  1  0.39996000  0.17547000  0.74994000  1.0
  C  C185  1  0.60005000  0.67546000  0.75002000  1.0
  C  C186  1  0.60005000  0.82453000  0.25005000  1.0
  C  C187  1  0.39994000  0.32454000  0.24998000  1.0
  C  C188  1  0.59095000  0.27888000  0.72748000  1.0
  C  C189  1  0.40897000  0.77890000  0.77246000  1.0
  C  C190  1  0.40905000  0.72112000  0.27251000  1.0
  C  C191  1  0.59103000  0.22109000  0.22754000  1.0
  C  C192  1  0.99017000  0.78638000  0.93429000  1.0
  C  C193  1  0.00865000  0.28645000  0.56569000  1.0
  C  C194  1  0.00984000  0.21362000  0.06571000  1.0
  C  C195  1  0.99136000  0.71355000  0.43432000  1.0
  C  C196  1  0.01251000  0.68551000  0.94964000  1.0
  C  C197  1  0.98713000  0.18548000  0.55039000  1.0
  C  C198  1  0.98750000  0.31450000  0.05036000  1.0
  C  C199  1  0.01288000  0.81451000  0.44961000  1.0
  C  C200  1  0.05299000  0.68661000  0.01479000  1.0
  C  C201  1  0.94653000  0.18652000  0.48526000  1.0
  C  C202  1  0.94703000  0.31340000  0.98521000  1.0
  C  C203  1  0.05348000  0.81348000  0.51474000  1.0
  C  C204  1  0.46668000  0.68284000  0.54040000  1.0
  C  C205  1  0.53327000  0.18276000  0.95967000  1.0
  C  C206  1  0.53332000  0.31715000  0.45960000  1.0
  C  C207  1  0.46673000  0.81725000  0.04033000  1.0
  C  C208  1  0.53332000  0.77408000  0.54452000  1.0
  C  C209  1  0.46666000  0.27408000  0.95549000  1.0
  C  C210  1  0.46668000  0.22591000  0.45548000  1.0
  C  C211  1  0.53334000  0.72593000  0.04451000  1.0
  C  C212  1  0.49749000  0.58786000  0.57624000  1.0
  C  C213  1  0.50230000  0.08776000  0.92390000  1.0
  C  C214  1  0.50250000  0.41213000  0.42377000  1.0
  C  C215  1  0.49769000  0.91225000  0.07610000  1.0
  C  C216  1  0.36165000  0.70165000  0.49695000  1.0
  C  C217  1  0.63835000  0.20156000  0.00308000  1.0
  C  C218  1  0.63835000  0.29834000  0.50305000  1.0
  C  C219  1  0.36165000  0.79845000  0.99692000  1.0
  N  N220  1  0.66894000  0.51608000  0.95484000  1.0
  N  N221  1  0.33114000  0.01604000  0.54519000  1.0
  N  N222  1  0.33107000  0.48393000  0.04517000  1.0
  N  N223  1  0.66886000  0.98395000  0.45481000  1.0
  N  N224  1  0.83607000  0.52704000  0.55004000  1.0
  N  N225  1  0.16301000  0.02829000  0.94973000  1.0
  N  N226  1  0.16392000  0.47296000  0.44997000  1.0
  N  N227  1  0.83698000  0.97172000  0.05026000  1.0
  N  N228  1  0.67017000  0.47802000  0.89539000  1.0
  N  N229  1  0.32998000  0.97793000  0.60463000  1.0
  N  N230  1  0.32984000  0.52199000  0.10462000  1.0
  N  N231  1  0.67002000  0.02206000  0.39537000  1.0
  N  N232  1  0.82559000  0.49621000  0.61061000  1.0
  N  N233  1  0.17394000  0.99695000  0.88925000  1.0
  N  N234  1  0.17440000  0.50379000  0.38939000  1.0
  N  N235  1  0.82606000  0.00305000  0.11074000  1.0
  N  N236  1  0.01563000  0.84453000  0.98622000  1.0
  N  N237  1  0.98235000  0.34452000  0.51376000  1.0
  N  N238  1  0.98437000  0.15548000  0.01378000  1.0
  N  N239  1  0.01765000  0.65547000  0.48624000  1.0
  N  N240  1  0.05287000  0.78222000  0.03468000  1.0
  N  N241  1  0.94566000  0.28212000  0.46534000  1.0
  N  N242  1  0.94713000  0.21779000  0.96532000  1.0
  N  N243  1  0.05434000  0.71788000  0.53466000  1.0
  N  N244  1  0.47270000  0.84323000  0.50677000  1.0
  N  N245  1  0.52730000  0.34322000  0.99318000  1.0
  N  N246  1  0.52729000  0.15676000  0.49323000  1.0
  N  N247  1  0.47271000  0.65679000  0.00682000  1.0
  N  N248  1  0.36821000  0.79788000  0.47876000  1.0
  N  N249  1  0.63180000  0.29781000  0.02121000  1.0
  N  N250  1  0.63179000  0.20211000  0.52124000  1.0
  N  N251  1  0.36820000  0.70219000  0.97879000  1.0
  O  O252  1  0.41300000  0.48098000  0.90551000  1.0
  O  O253  1  0.58705000  0.98103000  0.59429000  1.0
  O  O254  1  0.58701000  0.51903000  0.09448000  1.0
  O  O255  1  0.41296000  0.01896000  0.40570000  1.0
  O  O256  1  0.11280000  0.49492000  0.58770000  1.0
  O  O257  1  0.88486000  0.99309000  0.91212000  1.0
  O  O258  1  0.88718000  0.50508000  0.41231000  1.0
  O  O259  1  0.11514000  0.00692000  0.08788000  1.0
  O  O260  1  0.26366000  0.59963000  0.87963000  1.0
  O  O261  1  0.73639000  0.09950000  0.62019000  1.0
  O  O262  1  0.73634000  0.40037000  0.12037000  1.0
  O  O263  1  0.26361000  0.90049000  0.37981000  1.0
  O  O264  1  0.11789000  0.63643000  0.64725000  1.0
  O  O265  1  0.88196000  0.13571000  0.85326000  1.0
  O  O266  1  0.88212000  0.36358000  0.35275000  1.0
  O  O267  1  0.11802000  0.86430000  0.14674000  1.0
