# generated using pymatgen
data_HgH18C27Br2N2O
_symmetry_space_group_name_H-M   'P 1'
_cell_length_a   7.17277000
_cell_length_b   13.08720000
_cell_length_c   14.28186093
_cell_angle_alpha   104.71076691
_cell_angle_beta   103.80513062
_cell_angle_gamma   90.19330000
_symmetry_Int_Tables_number   1
_chemical_formula_structural   HgH18C27Br2N2O
_chemical_formula_sum   'Hg2 H36 C54 Br4 N4 O2'
_cell_volume   1256.33064574
_cell_formula_units_Z   2
loop_
 _symmetry_equiv_pos_site_id
 _symmetry_equiv_pos_as_xyz
  1  'x, y, z'
loop_
 _atom_site_type_symbol
 _atom_site_label
 _atom_site_symmetry_multiplicity
 _atom_site_fract_x
 _atom_site_fract_y
 _atom_site_fract_z
 _atom_site_occupancy
  Hg  Hg0  1  0.15669000  0.00084000  0.00228000  1.0
  Hg  Hg1  1  0.05182000  0.50063000  0.00061000  1.0
  H  H2  1  0.91611000  0.99008000  0.63357000  1.0
  H  H3  1  0.28248000  0.00995000  0.36512000  1.0
  H  H4  1  0.94068000  0.16392000  0.75705000  1.0
  H  H5  1  0.18215000  0.83657000  0.24152000  1.0
  H  H6  1  0.79060000  0.31844000  0.70479000  1.0
  H  H7  1  0.08411000  0.68190000  0.29494000  1.0
  H  H8  1  0.60765000  0.29566000  0.52864000  1.0
  H  H9  1  0.07824000  0.70406000  0.47225000  1.0
  H  H10  1  0.57315000  0.12151000  0.40633000  1.0
  H  H11  1  0.16787000  0.87769000  0.59488000  1.0
  H  H12  1  0.94598000  0.06354000  0.33505000  1.0
  H  H13  1  0.61064000  0.93635000  0.66282000  1.0
  H  H14  1  0.90043000  0.16970000  0.20940000  1.0
  H  H15  1  0.68920000  0.83103000  0.78872000  1.0
  H  H16  1  0.58899000  0.14243000  0.07696000  1.0
  H  H17  1  0.50977000  0.85901000  0.92392000  1.0
  H  H18  1  0.38205000  0.90900000  0.18095000  1.0
  H  H19  1  0.20077000  0.09118000  0.82104000  1.0
  H  H20  1  0.81999000  0.80317000  0.14910000  1.0
  H  H21  1  0.66937000  0.19660000  0.84848000  1.0
  H  H22  1  0.70319000  0.70518000  0.96995000  1.0
  H  H23  1  0.72930000  0.29509000  0.02784000  1.0
  H  H24  1  0.39516000  0.58944000  0.91529000  1.0
  H  H25  1  0.47695000  0.41130000  0.08475000  1.0
  H  H26  1  0.33681000  0.65060000  0.20534000  1.0
  H  H27  1  0.13388000  0.34915000  0.79649000  1.0
  H  H28  1  0.78551000  0.57879000  0.26196000  1.0
  H  H29  1  0.52173000  0.42164000  0.73627000  1.0
  H  H30  1  0.74833000  0.39140000  0.25847000  1.0
  H  H31  1  0.48722000  0.60891000  0.73973000  1.0
  H  H32  1  0.56889000  0.33613000  0.36977000  1.0
  H  H33  1  0.19927000  0.66341000  0.63028000  1.0
  H  H34  1  0.43820000  0.47398000  0.48912000  1.0
  H  H35  1  0.95271000  0.52491000  0.51243000  1.0
  H  H36  1  0.47982000  0.66305000  0.49424000  1.0
  H  H37  1  0.98986000  0.33605000  0.50728000  1.0
  C  C38  1  0.70286000  0.83569000  0.47074000  1.0
  C  C39  1  0.23259000  0.16377000  0.52937000  1.0
  C  C40  1  0.72025000  0.93760000  0.43955000  1.0
  C  C41  1  0.28122000  0.06194000  0.56027000  1.0
  C  C42  1  0.68375000  0.90836000  0.33761000  1.0
  C  C43  1  0.34666000  0.09134000  0.66201000  1.0
  C  C44  1  0.64150000  0.79026000  0.29951000  1.0
  C  C45  1  0.34311000  0.20945000  0.70019000  1.0
  C  C46  1  0.65154000  0.74617000  0.37737000  1.0
  C  C47  1  0.27540000  0.25352000  0.62264000  1.0
  C  C48  1  0.74479000  0.04205000  0.51000000  1.0
  C  C49  1  0.23516000  0.95755000  0.48989000  1.0
  C  C50  1  0.84802000  0.05667000  0.61027000  1.0
  C  C51  1  0.23755000  0.94326000  0.38889000  1.0
  C  C52  1  0.86249000  0.15487000  0.67951000  1.0
  C  C53  1  0.18213000  0.84535000  0.31960000  1.0
  C  C54  1  0.77817000  0.24151000  0.65066000  1.0
  C  C55  1  0.12638000  0.75864000  0.34908000  1.0
  C  C56  1  0.67649000  0.22875000  0.55146000  1.0
  C  C57  1  0.12462000  0.77102000  0.44897000  1.0
  C  C58  1  0.65852000  0.13053000  0.48239000  1.0
  C  C59  1  0.17668000  0.86896000  0.51819000  1.0
  C  C60  1  0.66797000  0.97639000  0.26902000  1.0
  C  C61  1  0.39868000  0.02360000  0.73073000  1.0
  C  C62  1  0.81351000  0.05210000  0.27613000  1.0
  C  C63  1  0.53663000  0.94807000  0.72266000  1.0
  C  C64  1  0.78779000  0.11213000  0.20675000  1.0
  C  C65  1  0.57972000  0.88850000  0.79236000  1.0
  C  C66  1  0.61585000  0.09728000  0.13289000  1.0
  C  C67  1  0.48161000  0.90373000  0.86765000  1.0
  C  C68  1  0.50073000  0.96654000  0.19152000  1.0
  C  C69  1  0.30876000  0.03384000  0.80960000  1.0
  C  C70  1  0.58758000  0.73551000  0.19311000  1.0
  C  C71  1  0.39517000  0.26431000  0.80658000  1.0
  C  C72  1  0.68901000  0.75096000  0.12446000  1.0
  C  C73  1  0.56353000  0.24900000  0.87410000  1.0
  C  C74  1  0.62300000  0.69709000  0.02387000  1.0
  C  C75  1  0.59675000  0.30322000  0.97478000  1.0
  C  C76  1  0.45444000  0.63178000  0.99344000  1.0
  C  C77  1  0.45924000  0.36877000  0.00647000  1.0
  C  C78  1  0.42093000  0.66629000  0.15545000  1.0
  C  C79  1  0.26667000  0.33368000  0.84546000  1.0
  C  C80  1  0.63213000  0.63497000  0.37714000  1.0
  C  C81  1  0.25611000  0.36469000  0.62284000  1.0
  C  C82  1  0.70706000  0.55646000  0.31114000  1.0
  C  C83  1  0.39524000  0.44359000  0.68784000  1.0
  C  C84  1  0.68572000  0.45012000  0.30914000  1.0
  C  C85  1  0.37545000  0.54985000  0.68983000  1.0
  C  C86  1  0.58765000  0.41968000  0.37245000  1.0
  C  C87  1  0.21553000  0.57992000  0.62754000  1.0
  C  C88  1  0.51474000  0.49669000  0.43928000  1.0
  C  C89  1  0.07780000  0.50255000  0.56162000  1.0
  C  C90  1  0.53792000  0.60351000  0.44240000  1.0
  C  C91  1  0.09827000  0.39580000  0.55846000  1.0
  Br  Br92  1  0.06326000  0.81927000  0.01197000  1.0
  Br  Br93  1  0.04876000  0.18080000  0.99128000  1.0
  Br  Br94  1  0.05800000  0.47169000  0.16869000  1.0
  Br  Br95  1  0.89024000  0.52764000  0.83277000  1.0
  N  N96  1  0.47464000  0.02627000  0.12662000  1.0
  N  N97  1  0.34733000  0.97467000  0.87487000  1.0
  N  N98  1  0.35593000  0.61752000  0.05874000  1.0
  N  N99  1  0.29723000  0.38290000  0.94220000  1.0
  O  O100  1  0.72429000  0.82727000  0.55622000  1.0
  O  O101  1  0.16760000  0.17183000  0.44411000  1.0
