# generated using pymatgen
data_LiBH24(C11O4)2
_symmetry_space_group_name_H-M   'P 1'
_cell_length_a   8.75734000
_cell_length_b   9.63684902
_cell_length_c   14.29970000
_cell_angle_alpha   88.50526599
_cell_angle_beta   86.75720000
_cell_angle_gamma   62.98370067
_symmetry_Int_Tables_number   1
_chemical_formula_structural   LiBH24(C11O4)2
_chemical_formula_sum   'Li2 B2 H48 C44 O16'
_cell_volume   1073.38644609
_cell_formula_units_Z   2
loop_
 _symmetry_equiv_pos_site_id
 _symmetry_equiv_pos_as_xyz
  1  'x, y, z'
loop_
 _atom_site_type_symbol
 _atom_site_label
 _atom_site_symmetry_multiplicity
 _atom_site_fract_x
 _atom_site_fract_y
 _atom_site_fract_z
 _atom_site_occupancy
  Li  Li0  1  0.72092000  0.62668000  0.10157000  1.0
  Li  Li1  1  0.34768000  0.37366000  0.60134000  1.0
  B  B2  1  0.10988000  0.05621000  0.25340000  1.0
  B  B3  1  0.16614000  0.94397000  0.75309000  1.0
  H  H4  1  0.66525000  0.60694000  0.29697000  1.0
  H  H5  1  0.27275000  0.39291000  0.79694000  1.0
  H  H6  1  0.72403000  0.58873000  0.46730000  1.0
  H  H7  1  0.31281000  0.41098000  0.96738000  1.0
  H  H8  1  0.52015000  0.79618000  0.57662000  1.0
  H  H9  1  0.31569000  0.20355000  0.07665000  1.0
  H  H10  1  0.26170000  0.01737000  0.51826000  1.0
  H  H11  1  0.27849000  0.98246000  0.01812000  1.0
  H  H12  1  0.55994000  0.47900000  0.16435000  1.0
  H  H13  1  0.03916000  0.52107000  0.66421000  1.0
  H  H14  1  0.33620000  0.38640000  0.18440000  1.0
  H  H15  1  0.72296000  0.61340000  0.68437000  1.0
  H  H16  1  0.41645000  0.11824000  0.24240000  1.0
  H  H17  1  0.53492000  0.88148000  0.74231000  1.0
  H  H18  1  0.71915000  0.93938000  0.27774000  1.0
  H  H19  1  0.65868000  0.06058000  0.77743000  1.0
  H  H20  1  0.95654000  0.36964000  0.96578000  1.0
  H  H21  1  0.32597000  0.63073000  0.46535000  1.0
  H  H22  1  0.80676000  0.29506000  0.99659000  1.0
  H  H23  1  0.10178000  0.70494000  0.49642000  1.0
  H  H24  1  0.83685000  0.25608000  0.82782000  1.0
  H  H25  1  0.09216000  0.74434000  0.32766000  1.0
  H  H26  1  0.85779000  0.43027000  0.80793000  1.0
  H  H27  1  0.28729000  0.57029000  0.30760000  1.0
  H  H28  1  0.54878000  0.51971000  0.78367000  1.0
  H  H29  1  0.06785000  0.48056000  0.28363000  1.0
  H  H30  1  0.53524000  0.40285000  0.87838000  1.0
  H  H31  1  0.93768000  0.59726000  0.37839000  1.0
  H  H32  1  0.56862000  0.70477000  0.88735000  1.0
  H  H33  1  0.27301000  0.29541000  0.38720000  1.0
  H  H34  1  0.44283000  0.64297000  0.96332000  1.0
  H  H35  1  0.08579000  0.35717000  0.46339000  1.0
  H  H36  1  0.07493000  0.57415000  0.09540000  1.0
  H  H37  1  0.64931000  0.42552000  0.59537000  1.0
  H  H38  1  0.03092000  0.73958000  0.16675000  1.0
  H  H39  1  0.77036000  0.26008000  0.66685000  1.0
  H  H40  1  0.18928000  0.79033000  0.03891000  1.0
  H  H41  1  0.97968000  0.20895000  0.53910000  1.0
  H  H42  1  0.11432000  0.70481000  0.95495000  1.0
  H  H43  1  0.81932000  0.29478000  0.45508000  1.0
  H  H44  1  0.90694000  0.01550000  0.05800000  1.0
  H  H45  1  0.92191000  0.98402000  0.55812000  1.0
  H  H46  1  0.92264000  0.98220000  0.93514000  1.0
  H  H47  1  0.90433000  0.01758000  0.43526000  1.0
  H  H48  1  0.65286000  0.97928000  0.04514000  1.0
  H  H49  1  0.63147000  0.02079000  0.54525000  1.0
  H  H50  1  0.75160000  0.84194000  0.95160000  1.0
  H  H51  1  0.59311000  0.15811000  0.45166000  1.0
  C  C52  1  0.39360000  0.83170000  0.21274000  1.0
  C  C53  1  0.22548000  0.16853000  0.71261000  1.0
  C  C54  1  0.42942000  0.81914000  0.31247000  1.0
  C  C55  1  0.24869000  0.18086000  0.81236000  1.0
  C  C56  1  0.57756000  0.69510000  0.34642000  1.0
  C  C57  1  0.27292000  0.30477000  0.84637000  1.0
  C  C58  1  0.61040000  0.68589000  0.44085000  1.0
  C  C59  1  0.29629000  0.31390000  0.94085000  1.0
  C  C60  1  0.49606000  0.80286000  0.50237000  1.0
  C  C61  1  0.29848000  0.19698000  0.00236000  1.0
  C  C62  1  0.34998000  0.92702000  0.47036000  1.0
  C  C63  1  0.27660000  0.07285000  0.97026000  1.0
  C  C64  1  0.31402000  0.93526000  0.37540000  1.0
  C  C65  1  0.24914000  0.06472000  0.87525000  1.0
  C  C66  1  0.89724000  0.31513000  0.19658000  1.0
  C  C67  1  0.21244000  0.68514000  0.69623000  1.0
  C  C68  1  0.76441000  0.26219000  0.20934000  1.0
  C  C69  1  0.02673000  0.73796000  0.70906000  1.0
  C  C70  1  0.59315000  0.36117000  0.18888000  1.0
  C  C71  1  0.95451000  0.63888000  0.68870000  1.0
  C  C72  1  0.46882000  0.30976000  0.20021000  1.0
  C  C73  1  0.77883000  0.69018000  0.70008000  1.0
  C  C74  1  0.51460000  0.15794000  0.23287000  1.0
  C  C75  1  0.67271000  0.84196000  0.73270000  1.0
  C  C76  1  0.68273000  0.05784000  0.25335000  1.0
  C  C77  1  0.74072000  0.94212000  0.75308000  1.0
  C  C78  1  0.80953000  0.10895000  0.24140000  1.0
  C  C79  1  0.91862000  0.89115000  0.74107000  1.0
  C  C80  1  0.82800000  0.38271000  0.95420000  1.0
  C  C81  1  0.21055000  0.61749000  0.45391000  1.0
  C  C82  1  0.79301000  0.37582000  0.85203000  1.0
  C  C83  1  0.16823000  0.62456000  0.35180000  1.0
  C  C84  1  0.59766000  0.47380000  0.85253000  1.0
  C  C85  1  0.07098000  0.52643000  0.35246000  1.0
  C  C86  1  0.56477000  0.60301000  0.92199000  1.0
  C  C87  1  0.16761000  0.39716000  0.42189000  1.0
  C  C88  1  0.01482000  0.70203000  0.09753000  1.0
  C  C89  1  0.71686000  0.29763000  0.59758000  1.0
  C  C90  1  0.07831000  0.77572000  0.01909000  1.0
  C  C91  1  0.85404000  0.22379000  0.51922000  1.0
  C  C92  1  0.91931000  0.93124000  0.00415000  1.0
  C  C93  1  0.85015000  0.06842000  0.50426000  1.0
  C  C94  1  0.77439000  0.88543000  0.01731000  1.0
  C  C95  1  0.65940000  0.11450000  0.51738000  1.0
  O  O96  1  0.24578000  0.94716000  0.18746000  1.0
  O  O97  1  0.19311000  0.05314000  0.68725000  1.0
  O  O98  1  0.49311000  0.74252000  0.15123000  1.0
  O  O99  1  0.23583000  0.25783000  0.65115000  1.0
  O  O100  1  0.17075000  0.05569000  0.34660000  1.0
  O  O101  1  0.22634000  0.94431000  0.84635000  1.0
  O  O102  1  0.05707000  0.21391000  0.21441000  1.0
  O  O103  1  0.27103000  0.78639000  0.71402000  1.0
  O  O104  1  0.86806000  0.44841000  0.17023000  1.0
  O  O105  1  0.31651000  0.55191000  0.66990000  1.0
  O  O106  1  0.97147000  0.00963000  0.26066000  1.0
  O  O107  1  0.98114000  0.99056000  0.76024000  1.0
  O  O108  1  0.70424000  0.53718000  0.98583000  1.0
  O  O109  1  0.24166000  0.46287000  0.48553000  1.0
  O  O110  1  0.83201000  0.75923000  0.08553000  1.0
  O  O111  1  0.59108000  0.24068000  0.58555000  1.0
