# generated using pymatgen
data_SmH3C4O9
_symmetry_space_group_name_H-M   'P 1'
_cell_length_a   10.28570000
_cell_length_b   10.45900000
_cell_length_c   11.95920000
_cell_angle_alpha   89.99930000
_cell_angle_beta   70.72600000
_cell_angle_gamma   89.99840000
_symmetry_Int_Tables_number   1
_chemical_formula_structural   SmH3C4O9
_chemical_formula_sum   'Sm4 H12 C16 O36'
_cell_volume   1214.43848361
_cell_formula_units_Z   4
loop_
 _symmetry_equiv_pos_site_id
 _symmetry_equiv_pos_as_xyz
  1  'x, y, z'
loop_
 _atom_site_type_symbol
 _atom_site_label
 _atom_site_symmetry_multiplicity
 _atom_site_fract_x
 _atom_site_fract_y
 _atom_site_fract_z
 _atom_site_occupancy
  Sm  Sm0  1  0.80363000  0.60200000  0.37514000  1.0
  Sm  Sm1  1  0.69637000  0.10200000  0.12487000  1.0
  Sm  Sm2  1  0.19638000  0.39801000  0.62488000  1.0
  Sm  Sm3  1  0.30362000  0.89800000  0.87512000  1.0
  H  H4  1  0.88883000  0.55810000  0.10378000  1.0
  H  H5  1  0.61117000  0.05812000  0.39624000  1.0
  H  H6  1  0.11115000  0.44189000  0.89623000  1.0
  H  H7  1  0.38886000  0.94190000  0.60379000  1.0
  H  H8  1  0.00815000  0.74164000  0.12466000  1.0
  H  H9  1  0.49183000  0.24165000  0.37535000  1.0
  H  H10  1  0.99183000  0.25835000  0.87532000  1.0
  H  H11  1  0.50816000  0.75835000  0.62468000  1.0
  H  H12  1  0.05503000  0.61503000  0.17364000  1.0
  H  H13  1  0.44496000  0.11505000  0.32635000  1.0
  H  H14  1  0.94495000  0.38497000  0.82637000  1.0
  H  H15  1  0.55505000  0.88496000  0.67366000  1.0
  C  C16  1  0.48450000  0.55338000  0.54719000  1.0
  C  C17  1  0.01551000  0.05338000  0.95280000  1.0
  C  C18  1  0.51549000  0.44663000  0.45278000  1.0
  C  C19  1  0.98451000  0.94662000  0.04720000  1.0
  C  C20  1  0.84704000  0.34272000  0.20312000  1.0
  C  C21  1  0.65295000  0.84271000  0.29687000  1.0
  C  C22  1  0.15294000  0.65727000  0.79689000  1.0
  C  C23  1  0.34704000  0.15727000  0.70312000  1.0
  C  C24  1  0.79181000  0.39698000  0.10583000  1.0
  C  C25  1  0.70819000  0.89700000  0.39417000  1.0
  C  C26  1  0.20818000  0.60301000  0.89416000  1.0
  C  C27  1  0.29181000  0.10302000  0.60585000  1.0
  C  C28  1  0.06230000  0.53241000  0.45223000  1.0
  C  C29  1  0.43769000  0.03242000  0.04776000  1.0
  C  C30  1  0.93769000  0.46758000  0.54778000  1.0
  C  C31  1  0.56230000  0.96758000  0.95222000  1.0
  O  O32  1  0.57778000  0.63700000  0.53556000  1.0
  O  O33  1  0.92223000  0.13700000  0.96443000  1.0
  O  O34  1  0.42224000  0.36298000  0.46441000  1.0
  O  O35  1  0.07777000  0.86297000  0.03558000  1.0
  O  O36  1  0.36927000  0.55124000  0.62800000  1.0
  O  O37  1  0.13073000  0.05124000  0.87201000  1.0
  O  O38  1  0.63073000  0.44878000  0.37202000  1.0
  O  O39  1  0.86927000  0.94876000  0.12796000  1.0
  O  O40  1  0.90289000  0.42058000  0.25388000  1.0
  O  O41  1  0.59710000  0.92057000  0.24613000  1.0
  O  O42  1  0.09706000  0.57942000  0.74613000  1.0
  O  O43  1  0.40294000  0.07942000  0.75389000  1.0
  O  O44  1  0.82929000  0.22456000  0.22070000  1.0
  O  O45  1  0.67071000  0.72456000  0.27929000  1.0
  O  O46  1  0.17073000  0.77543000  0.77929000  1.0
  O  O47  1  0.32927000  0.27545000  0.72072000  1.0
  O  O48  1  0.71631000  0.32951000  0.06799000  1.0
  O  O49  1  0.78371000  0.82951000  0.43200000  1.0
  O  O50  1  0.28369000  0.67049000  0.93200000  1.0
  O  O51  1  0.21632000  0.17049000  0.56800000  1.0
  O  O52  1  0.82850000  0.51237000  0.06413000  1.0
  O  O53  1  0.67150000  0.01238000  0.43584000  1.0
  O  O54  1  0.17151000  0.48761000  0.93586000  1.0
  O  O55  1  0.32852000  0.98763000  0.56414000  1.0
  O  O56  1  0.03443000  0.60323000  0.37725000  1.0
  O  O57  1  0.46557000  0.10325000  0.12273000  1.0
  O  O58  1  0.96561000  0.39679000  0.62274000  1.0
  O  O59  1  0.53440000  0.89677000  0.87726000  1.0
  O  O60  1  0.18082000  0.50884000  0.45736000  1.0
  O  O61  1  0.31916000  0.00884000  0.04265000  1.0
  O  O62  1  0.81915000  0.49114000  0.54269000  1.0
  O  O63  1  0.68083000  0.99115000  0.95732000  1.0
  O  O64  1  0.97351000  0.65835000  0.16716000  1.0
  O  O65  1  0.52649000  0.15836000  0.33283000  1.0
  O  O66  1  0.02647000  0.34166000  0.83289000  1.0
  O  O67  1  0.47353000  0.84167000  0.66710000  1.0
