# generated using pymatgen
data_AlH4C13IO5
_symmetry_space_group_name_H-M   'P 1'
_cell_length_a   6.65334000
_cell_length_b   19.72970000
_cell_length_c   21.33360000
_cell_angle_alpha   93.24130000
_cell_angle_beta   89.99990000
_cell_angle_gamma   89.99980000
_symmetry_Int_Tables_number   1
_chemical_formula_structural   AlH4C13IO5
_chemical_formula_sum   'Al4 H16 C52 I4 O20'
_cell_volume   2795.94765005
_cell_formula_units_Z   4
loop_
 _symmetry_equiv_pos_site_id
 _symmetry_equiv_pos_as_xyz
  1  'x, y, z'
loop_
 _atom_site_type_symbol
 _atom_site_label
 _atom_site_symmetry_multiplicity
 _atom_site_fract_x
 _atom_site_fract_y
 _atom_site_fract_z
 _atom_site_occupancy
  Al  Al0  1  0.24571000  0.24844000  0.25088000  1.0
  Al  Al1  1  0.75429000  0.75156000  0.74912000  1.0
  Al  Al2  1  0.74571000  0.25156000  0.24912000  1.0
  Al  Al3  1  0.25429000  0.74844000  0.75088000  1.0
  H  H4  1  0.26651000  0.65339000  0.91701000  1.0
  H  H5  1  0.73349000  0.34661000  0.08299000  1.0
  H  H6  1  0.76654000  0.84662000  0.58300000  1.0
  H  H7  1  0.23346000  0.15338000  0.41699000  1.0
  H  H8  1  0.56313000  0.46551000  0.90210000  1.0
  H  H9  1  0.43687000  0.53449000  0.09790000  1.0
  H  H10  1  0.06309000  0.03447000  0.59788000  1.0
  H  H11  1  0.93691000  0.96553000  0.40212000  1.0
  H  H12  1  0.56651000  0.38924000  0.98912000  1.0
  H  H13  1  0.43350000  0.61076000  0.01087000  1.0
  H  H14  1  0.06646000  0.11074000  0.51086000  1.0
  H  H15  1  0.93354000  0.88926000  0.48914000  1.0
  H  H16  1  0.48733000  0.33554000  0.23415000  1.0
  H  H17  1  0.51267000  0.66446000  0.76585000  1.0
  H  H18  1  0.98733000  0.16446000  0.26585000  1.0
  H  H19  1  0.01267000  0.83554000  0.73415000  1.0
  C  C20  1  0.49656000  0.16503000  0.16283000  1.0
  C  C21  1  0.50344000  0.83497000  0.83717000  1.0
  C  C22  1  0.99656000  0.33497000  0.33717000  1.0
  C  C23  1  0.00344000  0.66503000  0.66283000  1.0
  C  C24  1  0.49970000  0.16645000  0.32927000  1.0
  C  C25  1  0.50030000  0.83355000  0.67073000  1.0
  C  C26  1  0.99969000  0.33355000  0.17073000  1.0
  C  C27  1  0.00031000  0.66645000  0.82927000  1.0
  C  C28  1  0.14890000  0.61546000  0.92107000  1.0
  C  C29  1  0.85110000  0.38454000  0.07893000  1.0
  C  C30  1  0.64892000  0.88455000  0.57894000  1.0
  C  C31  1  0.35108000  0.11545000  0.42106000  1.0
  C  C32  1  0.99447000  0.61299000  0.87651000  1.0
  C  C33  1  0.00553000  0.38701000  0.12349000  1.0
  C  C34  1  0.49447000  0.88702000  0.62349000  1.0
  C  C35  1  0.50553000  0.11298000  0.37650000  1.0
  C  C36  1  0.84372000  0.56311000  0.87963000  1.0
  C  C37  1  0.15627000  0.43689000  0.12037000  1.0
  C  C38  1  0.34371000  0.93689000  0.62037000  1.0
  C  C39  1  0.65629000  0.06311000  0.37963000  1.0
  C  C40  1  0.84027000  0.51794000  0.92896000  1.0
  C  C41  1  0.15973000  0.48206000  0.07104000  1.0
  C  C42  1  0.34026000  0.98205000  0.57104000  1.0
  C  C43  1  0.65974000  0.01795000  0.42896000  1.0
  C  C44  1  0.99845000  0.52247000  0.97492000  1.0
  C  C45  1  0.00155000  0.47753000  0.02508000  1.0
  C  C46  1  0.49845000  0.97754000  0.52508000  1.0
  C  C47  1  0.50155000  0.02247000  0.47492000  1.0
  C  C48  1  0.15456000  0.57141000  0.97014000  1.0
  C  C49  1  0.84544000  0.42859000  0.02986000  1.0
  C  C50  1  0.65458000  0.92859000  0.52987000  1.0
  C  C51  1  0.34542000  0.07141000  0.47013000  1.0
  C  C52  1  0.68573000  0.46825000  0.93599000  1.0
  C  C53  1  0.31427000  0.53175000  0.06401000  1.0
  C  C54  1  0.18571000  0.03174000  0.56400000  1.0
  C  C55  1  0.81429000  0.96826000  0.43600000  1.0
  C  C56  1  0.68763000  0.42588000  0.98431000  1.0
  C  C57  1  0.31237000  0.57412000  0.01569000  1.0
  C  C58  1  0.18760000  0.07411000  0.51568000  1.0
  C  C59  1  0.81240000  0.92589000  0.48432000  1.0
  C  C60  1  0.00281000  0.61482000  0.61104000  1.0
  C  C61  1  0.99719000  0.38519000  0.38896000  1.0
  C  C62  1  0.50281000  0.88519000  0.88896000  1.0
  C  C63  1  0.49719000  0.11481000  0.11104000  1.0
  C  C64  1  0.00207000  0.57068000  0.56818000  1.0
  C  C65  1  0.99793000  0.42932000  0.43182000  1.0
  C  C66  1  0.50207000  0.92932000  0.93182000  1.0
  C  C67  1  0.49793000  0.07068000  0.06818000  1.0
  C  C68  1  0.00072000  0.52233000  0.52143000  1.0
  C  C69  1  0.99927000  0.47767000  0.47857000  1.0
  C  C70  1  0.50072000  0.97767000  0.97857000  1.0
  C  C71  1  0.49928000  0.02233000  0.02143000  1.0
  I  I72  1  0.63307000  0.54629000  0.80575000  1.0
  I  I73  1  0.36692000  0.45372000  0.19426000  1.0
  I  I74  1  0.13304000  0.95371000  0.69425000  1.0
  I  I75  1  0.86696000  0.04629000  0.30575000  1.0
  O  O76  1  0.66624000  0.18980000  0.31125000  1.0
  O  O77  1  0.33376000  0.81020000  0.68875000  1.0
  O  O78  1  0.16624000  0.31020000  0.18875000  1.0
  O  O79  1  0.83376000  0.68980000  0.81125000  1.0
  O  O80  1  0.32474000  0.18236000  0.18453000  1.0
  O  O81  1  0.67526000  0.81764000  0.81547000  1.0
  O  O82  1  0.82474000  0.31764000  0.31547000  1.0
  O  O83  1  0.17526000  0.68236000  0.68453000  1.0
  O  O84  1  0.32680000  0.18576000  0.31189000  1.0
  O  O85  1  0.67321000  0.81424000  0.68811000  1.0
  O  O86  1  0.82679000  0.31423000  0.18811000  1.0
  O  O87  1  0.17321000  0.68577000  0.81189000  1.0
  O  O88  1  0.16801000  0.31400000  0.31798000  1.0
  O  O89  1  0.83199000  0.68600000  0.68202000  1.0
  O  O90  1  0.66801000  0.18600000  0.18202000  1.0
  O  O91  1  0.33199000  0.81400000  0.81798000  1.0
  O  O92  1  0.49404000  0.29024000  0.25013000  1.0
  O  O93  1  0.50596000  0.70976000  0.74987000  1.0
  O  O94  1  0.99404000  0.20976000  0.24987000  1.0
  O  O95  1  0.00596000  0.79024000  0.75013000  1.0
