# generated using pymatgen
data_Cd3H48C28S4(N10Cl)2
_symmetry_space_group_name_H-M   'P 1'
_cell_length_a   8.54694000
_cell_length_b   11.22530000
_cell_length_c   13.06800000
_cell_angle_alpha   73.81960000
_cell_angle_beta   86.44980000
_cell_angle_gamma   77.66850000
_symmetry_Int_Tables_number   1
_chemical_formula_structural   Cd3H48C28S4(N10Cl)2
_chemical_formula_sum   'Cd3 H48 C28 S4 N20 Cl2'
_cell_volume   1176.32196559
_cell_formula_units_Z   1
loop_
 _symmetry_equiv_pos_site_id
 _symmetry_equiv_pos_as_xyz
  1  'x, y, z'
loop_
 _atom_site_type_symbol
 _atom_site_label
 _atom_site_symmetry_multiplicity
 _atom_site_fract_x
 _atom_site_fract_y
 _atom_site_fract_z
 _atom_site_occupancy
  Cd  Cd0  1  0.96267000  0.57928000  0.77068000  1.0
  Cd  Cd1  1  0.03732000  0.42072000  0.22932000  1.0
  Cd  Cd2  1  0.00000000  0.50000000  0.49999000  1.0
  H  H3  1  0.42605000  0.87903000  0.43620000  1.0
  H  H4  1  0.57396000  0.12097000  0.56381000  1.0
  H  H5  1  0.55525000  0.77403000  0.52841000  1.0
  H  H6  1  0.44475000  0.22596000  0.47159000  1.0
  H  H7  1  0.35268000  0.00800000  0.82656000  1.0
  H  H8  1  0.64731000  0.99201000  0.17344000  1.0
  H  H9  1  0.21286000  0.02456000  0.91917000  1.0
  H  H10  1  0.78713000  0.97545000  0.08082000  1.0
  H  H11  1  0.23912000  0.64223000  0.33891000  1.0
  H  H12  1  0.76090000  0.35776000  0.66109000  1.0
  H  H13  1  0.31015000  0.78350000  0.32170000  1.0
  H  H14  1  0.68988000  0.21649000  0.67830000  1.0
  H  H15  1  0.52445000  0.62510000  0.27348000  1.0
  H  H16  1  0.47556000  0.37489000  0.72653000  1.0
  H  H17  1  0.50556000  0.51113000  0.39585000  1.0
  H  H18  1  0.49444000  0.48886000  0.60416000  1.0
  H  H19  1  0.58471000  0.64575000  0.39414000  1.0
  H  H20  1  0.41530000  0.35423000  0.60587000  1.0
  H  H21  1  0.17689000  0.77870000  0.77747000  1.0
  H  H22  1  0.82311000  0.22129000  0.22253000  1.0
  H  H23  1  0.30730000  0.86963000  0.69505000  1.0
  H  H24  1  0.69270000  0.13037000  0.30496000  1.0
  H  H25  1  0.44070000  0.72250000  0.86443000  1.0
  H  H26  1  0.55930000  0.27749000  0.13557000  1.0
  H  H27  1  0.54121000  0.69216000  0.74843000  1.0
  H  H28  1  0.45879000  0.30784000  0.25157000  1.0
  H  H29  1  0.41523000  0.59111000  0.82265000  1.0
  H  H30  1  0.58478000  0.40889000  0.17735000  1.0
  H  H31  1  0.26968000  0.07104000  0.61196000  1.0
  H  H32  1  0.73032000  0.92896000  0.38804000  1.0
  H  H33  1  0.13584000  0.19456000  0.52572000  1.0
  H  H34  1  0.86417000  0.80544000  0.47428000  1.0
  H  H35  1  0.04454000  0.98207000  0.58008000  1.0
  H  H36  1  0.95547000  0.01793000  0.41992000  1.0
  H  H37  1  0.90220000  0.10483000  0.61456000  1.0
  H  H38  1  0.09780000  0.89517000  0.38543000  1.0
  H  H39  1  0.02785000  0.99089000  0.71368000  1.0
  H  H40  1  0.97215000  0.00911000  0.28632000  1.0
  H  H41  1  0.15202000  0.17012000  0.99650000  1.0
  H  H42  1  0.84797000  0.82988000  0.00349000  1.0
  H  H43  1  0.11897000  0.33594000  0.96514000  1.0
  H  H44  1  0.88102000  0.66407000  0.03486000  1.0
  H  H45  1  0.39111000  0.23128000  0.04484000  1.0
  H  H46  1  0.60888000  0.76873000  0.95516000  1.0
  H  H47  1  0.40512000  0.33449000  0.91570000  1.0
  H  H48  1  0.59487000  0.66552000  0.08429000  1.0
  H  H49  1  0.44610000  0.16738000  0.93439000  1.0
  H  H50  1  0.55389000  0.83263000  0.06561000  1.0
  C  C51  1  0.17559000  0.56098000  0.99033000  1.0
  C  C52  1  0.82439000  0.43903000  0.00966000  1.0
  C  C53  1  0.73656000  0.87492000  0.76434000  1.0
  C  C54  1  0.26342000  0.12509000  0.23567000  1.0
  C  C55  1  0.27457000  0.68362000  0.48110000  1.0
  C  C56  1  0.72543000  0.31638000  0.51890000  1.0
  C  C57  1  0.32398000  0.68425000  0.36993000  1.0
  C  C58  1  0.67604000  0.31575000  0.63007000  1.0
  C  C59  1  0.49529000  0.61267000  0.35826000  1.0
  C  C60  1  0.50472000  0.38731000  0.64175000  1.0
  C  C61  1  0.25309000  0.72589000  0.63801000  1.0
  C  C62  1  0.74691000  0.27412000  0.36199000  1.0
  C  C63  1  0.28499000  0.77355000  0.72779000  1.0
  C  C64  1  0.71501000  0.22645000  0.27221000  1.0
  C  C65  1  0.42955000  0.68962000  0.79419000  1.0
  C  C66  1  0.57045000  0.31038000  0.20581000  1.0
  C  C67  1  0.13874000  0.21068000  0.68182000  1.0
  C  C68  1  0.86126000  0.78933000  0.31818000  1.0
  C  C69  1  0.14865000  0.13115000  0.60685000  1.0
  C  C70  1  0.85135000  0.86885000  0.39315000  1.0
  C  C71  1  0.02335000  0.04744000  0.63042000  1.0
  C  C72  1  0.97666000  0.95256000  0.36957000  1.0
  C  C73  1  0.15419000  0.26485000  0.83091000  1.0
  C  C74  1  0.84581000  0.73515000  0.16908000  1.0
  C  C75  1  0.19096000  0.25362000  0.94315000  1.0
  C  C76  1  0.80904000  0.74639000  0.05685000  1.0
  C  C77  1  0.36949000  0.24588000  0.96005000  1.0
  C  C78  1  0.63050000  0.75413000  0.03994000  1.0
  S  S79  1  0.24675000  0.55499000  0.10482000  1.0
  S  S80  1  0.75324000  0.44502000  0.89517000  1.0
  S  S81  1  0.60631000  0.00664000  0.75590000  1.0
  S  S82  1  0.39369000  0.99337000  0.24411000  1.0
  N  N83  1  0.12533000  0.56420000  0.90708000  1.0
  N  N84  1  0.87466000  0.43582000  0.09291000  1.0
  N  N85  1  0.83477000  0.78104000  0.77193000  1.0
  N  N86  1  0.16521000  0.21896000  0.22806000  1.0
  N  N87  1  0.15216000  0.65199000  0.63643000  1.0
  N  N88  1  0.84784000  0.34801000  0.36357000  1.0
  N  N89  1  0.16469000  0.62663000  0.53857000  1.0
  N  N90  1  0.83532000  0.37337000  0.46143000  1.0
  N  N91  1  0.33192000  0.74755000  0.54188000  1.0
  N  N92  1  0.66809000  0.25245000  0.45812000  1.0
  N  N93  1  0.44113000  0.82806000  0.51492000  1.0
  N  N94  1  0.55888000  0.17194000  0.48508000  1.0
  N  N95  1  0.09642000  0.36869000  0.75513000  1.0
  N  N96  1  0.90357000  0.63131000  0.24487000  1.0
  N  N97  1  0.08869000  0.33526000  0.66206000  1.0
  N  N98  1  0.91131000  0.66474000  0.33794000  1.0
  N  N99  1  0.18117000  0.16410000  0.78724000  1.0
  N  N100  1  0.81882000  0.83590000  0.21276000  1.0
  N  N101  1  0.23098000  0.03504000  0.83940000  1.0
  N  N102  1  0.76902000  0.96496000  0.16060000  1.0
  Cl  Cl103  1  0.76928000  0.60585000  0.60738000  1.0
  Cl  Cl104  1  0.23072000  0.39414000  0.39261000  1.0
