# generated using pymatgen
data_Cu3H30C30(N14O)2
_symmetry_space_group_name_H-M   'P 1'
_cell_length_a   13.24190000
_cell_length_b   14.54600000
_cell_length_c   15.51580000
_cell_angle_alpha   89.99690000
_cell_angle_beta   88.63630000
_cell_angle_gamma   89.99660000
_symmetry_Int_Tables_number   1
_chemical_formula_structural   Cu3H30C30(N14O)2
_chemical_formula_sum   'Cu6 H60 C60 N56 O4'
_cell_volume   2987.75536690
_cell_formula_units_Z   2
loop_
 _symmetry_equiv_pos_site_id
 _symmetry_equiv_pos_as_xyz
  1  'x, y, z'
loop_
 _atom_site_type_symbol
 _atom_site_label
 _atom_site_symmetry_multiplicity
 _atom_site_fract_x
 _atom_site_fract_y
 _atom_site_fract_z
 _atom_site_occupancy
  Cu  Cu0  1  0.99998000  0.99998000  0.00008000  1.0
  Cu  Cu1  1  0.49995000  0.50003000  0.50006000  1.0
  Cu  Cu2  1  0.98484000  0.79239000  0.89753000  1.0
  Cu  Cu3  1  0.51526000  0.29250000  0.60258000  1.0
  Cu  Cu4  1  0.01512000  0.20770000  0.10246000  1.0
  Cu  Cu5  1  0.48473000  0.70737000  0.39739000  1.0
  H  H6  1  0.56892000  0.61931000  0.24144000  1.0
  H  H7  1  0.93059000  0.11967000  0.25802000  1.0
  H  H8  1  0.43077000  0.38053000  0.75823000  1.0
  H  H9  1  0.06929000  0.88054000  0.74191000  1.0
  H  H10  1  0.69257000  0.66140000  0.12171000  1.0
  H  H11  1  0.80717000  0.16166000  0.37796000  1.0
  H  H12  1  0.30726000  0.33853000  0.87810000  1.0
  H  H13  1  0.19272000  0.83859000  0.62196000  1.0
  H  H14  1  0.73367000  0.92221000  0.24865000  1.0
  H  H15  1  0.76641000  0.42285000  0.25159000  1.0
  H  H16  1  0.26640000  0.07747000  0.75154000  1.0
  H  H17  1  0.23371000  0.57747000  0.74840000  1.0
  H  H18  1  0.60901000  0.86815000  0.36406000  1.0
  H  H19  1  0.89084000  0.36885000  0.13596000  1.0
  H  H20  1  0.39095000  0.13146000  0.63603000  1.0
  H  H21  1  0.10918000  0.63138000  0.86397000  1.0
  H  H22  1  0.36985000  0.69656000  0.24097000  1.0
  H  H23  1  0.12992000  0.19675000  0.25894000  1.0
  H  H24  1  0.63000000  0.30331000  0.75907000  1.0
  H  H25  1  0.86995000  0.80330000  0.74111000  1.0
  H  H26  1  0.24916000  0.79288000  0.15942000  1.0
  H  H27  1  0.25065000  0.29294000  0.34058000  1.0
  H  H28  1  0.75066000  0.20701000  0.84070000  1.0
  H  H29  1  0.74911000  0.70710000  0.65958000  1.0
  H  H30  1  0.25323000  0.98835000  0.36892000  1.0
  H  H31  1  0.24704000  0.48838000  0.13102000  1.0
  H  H32  1  0.74714000  0.01174000  0.63101000  1.0
  H  H33  1  0.75313000  0.51158000  0.86905000  1.0
  H  H34  1  0.37809000  0.88521000  0.44110000  1.0
  H  H35  1  0.12212000  0.38535000  0.05877000  1.0
  H  H36  1  0.62226000  0.11484000  0.55879000  1.0
  H  H37  1  0.87808000  0.61464000  0.94122000  1.0
  H  H38  1  0.09153000  0.74365000  0.07918000  1.0
  H  H39  1  0.40863000  0.24365000  0.42092000  1.0
  H  H40  1  0.90849000  0.25622000  0.92077000  1.0
  H  H41  1  0.59135000  0.75642000  0.57898000  1.0
  H  H42  1  0.96795000  0.51928000  0.19977000  1.0
  H  H43  1  0.53211000  0.01924000  0.30028000  1.0
  H  H44  1  0.03198000  0.48072000  0.80030000  1.0
  H  H45  1  0.46797000  0.98076000  0.69984000  1.0
  H  H46  1  0.96480000  0.52326000  0.08420000  1.0
  H  H47  1  0.53539000  0.02325000  0.41585000  1.0
  H  H48  1  0.03518000  0.47664000  0.91589000  1.0
  H  H49  1  0.46467000  0.97686000  0.58426000  1.0
  H  H50  1  0.86723000  0.57742000  0.14807000  1.0
  H  H51  1  0.63287000  0.07739000  0.35188000  1.0
  H  H52  1  0.13275000  0.42253000  0.85195000  1.0
  H  H53  1  0.36716000  0.92268000  0.64819000  1.0
  H  H54  1  0.04138000  0.65939000  0.27509000  1.0
  H  H55  1  0.45862000  0.15935000  0.22498000  1.0
  H  H56  1  0.95862000  0.34064000  0.72489000  1.0
  H  H57  1  0.54148000  0.84056000  0.77500000  1.0
  H  H58  1  0.93015000  0.71773000  0.24287000  1.0
  H  H59  1  0.56985000  0.21773000  0.25714000  1.0
  H  H60  1  0.06984000  0.28226000  0.75710000  1.0
  H  H61  1  0.43019000  0.78225000  0.74284000  1.0
  H  H62  1  0.05150000  0.76228000  0.21185000  1.0
  H  H63  1  0.44849000  0.26224000  0.28823000  1.0
  H  H64  1  0.94846000  0.23771000  0.78808000  1.0
  H  H65  1  0.55151000  0.73772000  0.71166000  1.0
  C  C66  1  0.60703000  0.68572000  0.23940000  1.0
  C  C67  1  0.89255000  0.18611000  0.26024000  1.0
  C  C68  1  0.39270000  0.31412000  0.76041000  1.0
  C  C69  1  0.10734000  0.81410000  0.73968000  1.0
  C  C70  1  0.67559000  0.70919000  0.17409000  1.0
  C  C71  1  0.82418000  0.20956000  0.32569000  1.0
  C  C72  1  0.32427000  0.29067000  0.82579000  1.0
  C  C73  1  0.17577000  0.79070000  0.67426000  1.0
  C  C74  1  0.72243000  0.79567000  0.17606000  1.0
  C  C75  1  0.77749000  0.29612000  0.32390000  1.0
  C  C76  1  0.27752000  0.20414000  0.82392000  1.0
  C  C77  1  0.22253000  0.70417000  0.67608000  1.0
  C  C78  1  0.69817000  0.85485000  0.24492000  1.0
  C  C79  1  0.80177000  0.35541000  0.25512000  1.0
  C  C80  1  0.30181000  0.14488000  0.75513000  1.0
  C  C81  1  0.19828000  0.64488000  0.74486000  1.0
  C  C82  1  0.62908000  0.82635000  0.30791000  1.0
  C  C83  1  0.87077000  0.32695000  0.19204000  1.0
  C  C84  1  0.37088000  0.17334000  0.69211000  1.0
  C  C85  1  0.12924000  0.67330000  0.80791000  1.0
  C  C86  1  0.79570000  0.82356000  0.10985000  1.0
  C  C87  1  0.70430000  0.32396000  0.39021000  1.0
  C  C88  1  0.20429000  0.17628000  0.89020000  1.0
  C  C89  1  0.29574000  0.67632000  0.60978000  1.0
  C  C90  1  0.34302000  0.76202000  0.26677000  1.0
  C  C91  1  0.15685000  0.26218000  0.23318000  1.0
  C  C92  1  0.65692000  0.23788000  0.73326000  1.0
  C  C93  1  0.84306000  0.73786000  0.76689000  1.0
  C  C94  1  0.27462000  0.81477000  0.22238000  1.0
  C  C95  1  0.22528000  0.31484000  0.27760000  1.0
  C  C96  1  0.72532000  0.18516000  0.77769000  1.0
  C  C97  1  0.77459000  0.68517000  0.72253000  1.0
  C  C98  1  0.23979000  0.89772000  0.25856000  1.0
  C  C99  1  0.26022000  0.39774000  0.24142000  1.0
  C  C100  1  0.76026000  0.10227000  0.74147000  1.0
  C  C101  1  0.73979000  0.60222000  0.75870000  1.0
  C  C102  1  0.27736000  0.92417000  0.33869000  1.0
  C  C103  1  0.22277000  0.42423000  0.16126000  1.0
  C  C104  1  0.72288000  0.07587000  0.66127000  1.0
  C  C105  1  0.77732000  0.57575000  0.83883000  1.0
  C  C106  1  0.34628000  0.86753000  0.37913000  1.0
  C  C107  1  0.15383000  0.36765000  0.12079000  1.0
  C  C108  1  0.65397000  0.13249000  0.62081000  1.0
  C  C109  1  0.84628000  0.63235000  0.87925000  1.0
  C  C110  1  0.16824000  0.95323000  0.21154000  1.0
  C  C111  1  0.33178000  0.45322000  0.28848000  1.0
  C  C112  1  0.83177000  0.04675000  0.78855000  1.0
  C  C113  1  0.66823000  0.54675000  0.71165000  1.0
  C  C114  1  0.05228000  0.67713000  0.07040000  1.0
  C  C115  1  0.44789000  0.17712000  0.42969000  1.0
  C  C116  1  0.94772000  0.32275000  0.92960000  1.0
  C  C117  1  0.55210000  0.82298000  0.57027000  1.0
  C  C118  1  0.94858000  0.56147000  0.14378000  1.0
  C  C119  1  0.55154000  0.06144000  0.35625000  1.0
  C  C120  1  0.05140000  0.43848000  0.85627000  1.0
  C  C121  1  0.44851000  0.93861000  0.64383000  1.0
  C  C122  1  0.00777000  0.69912000  0.22268000  1.0
  C  C123  1  0.49225000  0.19910000  0.27736000  1.0
  C  C124  1  0.99221000  0.30087000  0.77729000  1.0
  C  C125  1  0.50780000  0.80087000  0.72260000  1.0
  N  N126  1  0.58374000  0.74359000  0.30457000  1.0
  N  N127  1  0.91590000  0.24408000  0.19516000  1.0
  N  N128  1  0.41606000  0.25616000  0.69531000  1.0
  N  N129  1  0.08405000  0.75613000  0.80478000  1.0
  N  N130  1  0.84153000  0.90669000  0.10895000  1.0
  N  N131  1  0.65843000  0.40707000  0.39119000  1.0
  N  N132  1  0.15848000  0.09316000  0.89119000  1.0
  N  N133  1  0.34165000  0.59322000  0.60889000  1.0
  N  N134  1  0.90251000  0.90326000  0.04082000  1.0
  N  N135  1  0.59751000  0.40357000  0.45937000  1.0
  N  N136  1  0.09749000  0.09663000  0.95932000  1.0
  N  N137  1  0.40257000  0.59668000  0.54070000  1.0
  N  N138  1  0.89505000  0.82192000  0.00144000  1.0
  N  N139  1  0.60503000  0.32219000  0.49869000  1.0
  N  N140  1  0.10492000  0.17802000  0.99863000  1.0
  N  N141  1  0.39500000  0.67793000  0.50130000  1.0
  N  N142  1  0.82803000  0.77012000  0.04338000  1.0
  N  N143  1  0.67202000  0.27045000  0.45665000  1.0
  N  N144  1  0.17193000  0.22979000  0.95662000  1.0
  N  N145  1  0.32797000  0.72975000  0.54326000  1.0
  N  N146  1  0.37831000  0.78766000  0.34396000  1.0
  N  N147  1  0.12166000  0.28784000  0.15597000  1.0
  N  N148  1  0.62177000  0.21228000  0.65602000  1.0
  N  N149  1  0.87837000  0.71217000  0.84405000  1.0
  N  N150  1  0.12583000  0.92366000  0.13829000  1.0
  N  N151  1  0.37411000  0.42364000  0.36177000  1.0
  N  N152  1  0.87413000  0.07632000  0.86184000  1.0
  N  N153  1  0.62582000  0.57634000  0.63839000  1.0
  N  N154  1  0.07002000  0.99402000  0.11407000  1.0
  N  N155  1  0.42993000  0.49397000  0.38602000  1.0
  N  N156  1  0.92991000  0.00594000  0.88610000  1.0
  N  N157  1  0.56999000  0.50600000  0.61417000  1.0
  N  N158  1  0.07681000  0.06413000  0.16927000  1.0
  N  N159  1  0.42321000  0.56408000  0.33080000  1.0
  N  N160  1  0.92316000  0.93584000  0.83089000  1.0
  N  N161  1  0.57676000  0.43589000  0.66936000  1.0
  N  N162  1  0.13839000  0.03971000  0.23189000  1.0
  N  N163  1  0.36168000  0.53969000  0.26815000  1.0
  N  N164  1  0.86166000  0.96027000  0.76822000  1.0
  N  N165  1  0.63833000  0.46028000  0.73200000  1.0
  N  N166  1  0.09042000  0.87148000  0.94885000  1.0
  N  N167  1  0.40958000  0.37143000  0.55120000  1.0
  N  N168  1  0.90957000  0.12848000  0.05127000  1.0
  N  N169  1  0.59057000  0.62900000  0.44911000  1.0
  N  N170  1  0.17995000  0.85520000  0.94505000  1.0
  N  N171  1  0.32005000  0.35510000  0.55507000  1.0
  N  N172  1  0.82003000  0.14475000  0.05505000  1.0
  N  N173  1  0.68013000  0.64492000  0.44424000  1.0
  N  N174  1  0.26681000  0.84157000  0.94326000  1.0
  N  N175  1  0.23321000  0.34143000  0.55692000  1.0
  N  N176  1  0.73317000  0.15838000  0.05684000  1.0
  N  N177  1  0.76706000  0.65820000  0.44150000  1.0
  N  N178  1  0.00747000  0.64563000  0.14358000  1.0
  N  N179  1  0.49265000  0.14562000  0.35647000  1.0
  N  N180  1  0.99250000  0.35431000  0.85642000  1.0
  N  N181  1  0.50739000  0.85443000  0.64352000  1.0
  O  O182  1  0.04954000  0.63787000  0.99908000  1.0
  O  O183  1  0.45069000  0.13788000  0.50100000  1.0
  O  O184  1  0.95045000  0.36196000  0.00094000  1.0
  O  O185  1  0.54929000  0.86230000  0.49899000  1.0
