# generated using pymatgen
data_CaH8C14SO6
_symmetry_space_group_name_H-M   'P 1'
_cell_length_a   5.42559000
_cell_length_b   11.53600000
_cell_length_c   23.65847129
_cell_angle_alpha   77.48322691
_cell_angle_beta   89.99864229
_cell_angle_gamma   89.99680000
_symmetry_Int_Tables_number   1
_chemical_formula_structural   CaH8C14SO6
_chemical_formula_sum   'Ca4 H32 C56 S4 O24'
_cell_volume   1445.58024753
_cell_formula_units_Z   4
loop_
 _symmetry_equiv_pos_site_id
 _symmetry_equiv_pos_as_xyz
  1  'x, y, z'
loop_
 _atom_site_type_symbol
 _atom_site_label
 _atom_site_symmetry_multiplicity
 _atom_site_fract_x
 _atom_site_fract_y
 _atom_site_fract_z
 _atom_site_occupancy
  Ca  Ca0  1  0.30164000  0.43583000  0.94971000  1.0
  Ca  Ca1  1  0.80164000  0.56417000  0.55029000  1.0
  Ca  Ca2  1  0.69840000  0.56419000  0.05028000  1.0
  Ca  Ca3  1  0.19835000  0.43582000  0.44972000  1.0
  H  H4  1  0.98167000  0.89952000  0.97795000  1.0
  H  H5  1  0.12809000  0.10745000  0.93843000  1.0
  H  H6  1  0.76796000  0.96904000  0.86750000  1.0
  H  H7  1  0.62638000  0.76215000  0.91025000  1.0
  H  H8  1  0.13255000  0.33625000  0.83499000  1.0
  H  H9  1  0.02559000  0.44047000  0.73395000  1.0
  H  H10  1  0.68442000  0.30552000  0.67037000  1.0
  H  H11  1  0.78635000  0.19387000  0.77056000  1.0
  H  H12  1  0.48158000  0.10050000  0.52206000  1.0
  H  H13  1  0.62800000  0.89256000  0.56157000  1.0
  H  H14  1  0.26781000  0.03093000  0.63251000  1.0
  H  H15  1  0.12625000  0.23783000  0.58977000  1.0
  H  H16  1  0.63253000  0.66373000  0.66500000  1.0
  H  H17  1  0.52557000  0.55951000  0.76605000  1.0
  H  H18  1  0.18434000  0.69447000  0.82963000  1.0
  H  H19  1  0.28626000  0.80611000  0.72944000  1.0
  H  H20  1  0.01835000  0.10047000  0.02205000  1.0
  H  H21  1  0.87193000  0.89255000  0.06156000  1.0
  H  H22  1  0.23207000  0.03096000  0.13250000  1.0
  H  H23  1  0.37365000  0.23785000  0.08975000  1.0
  H  H24  1  0.86744000  0.66375000  0.16501000  1.0
  H  H25  1  0.97438000  0.55953000  0.26606000  1.0
  H  H26  1  0.31554000  0.69449000  0.32963000  1.0
  H  H27  1  0.21363000  0.80613000  0.22944000  1.0
  H  H28  1  0.51840000  0.89950000  0.47795000  1.0
  H  H29  1  0.37196000  0.10743000  0.43844000  1.0
  H  H30  1  0.73215000  0.96907000  0.36749000  1.0
  H  H31  1  0.87372000  0.76216000  0.41024000  1.0
  H  H32  1  0.36745000  0.33628000  0.33500000  1.0
  H  H33  1  0.47443000  0.44050000  0.23395000  1.0
  H  H34  1  0.81567000  0.30552000  0.17037000  1.0
  H  H35  1  0.71376000  0.19387000  0.27056000  1.0
  C  C36  1  0.20558000  0.69662000  0.97518000  1.0
  C  C37  1  0.29606000  0.81922000  0.94723000  1.0
  C  C38  1  0.15454000  0.91631000  0.95439000  1.0
  C  C39  1  0.23440000  0.03149000  0.93231000  1.0
  C  C40  1  0.45495000  0.04916000  0.90132000  1.0
  C  C41  1  0.59521000  0.95359000  0.89143000  1.0
  C  C42  1  0.51595000  0.83811000  0.91527000  1.0
  C  C43  1  0.46434000  0.25893000  0.80805000  1.0
  C  C44  1  0.24993000  0.32770000  0.79884000  1.0
  C  C45  1  0.19109000  0.38603000  0.74256000  1.0
  C  C46  1  0.34775000  0.37874000  0.69640000  1.0
  C  C47  1  0.29034000  0.45166000  0.63668000  1.0
  C  C48  1  0.56078000  0.30835000  0.70635000  1.0
  C  C49  1  0.61840000  0.24663000  0.76215000  1.0
  C  C50  1  0.70551000  0.30339000  0.52482000  1.0
  C  C51  1  0.79596000  0.18077000  0.55278000  1.0
  C  C52  1  0.65443000  0.08370000  0.54562000  1.0
  C  C53  1  0.73430000  0.96852000  0.56769000  1.0
  C  C54  1  0.95484000  0.95084000  0.59868000  1.0
  C  C55  1  0.09509000  0.04640000  0.60858000  1.0
  C  C56  1  0.01584000  0.16187000  0.58475000  1.0
  C  C57  1  0.96432000  0.74107000  0.69195000  1.0
  C  C58  1  0.74990000  0.67228000  0.70116000  1.0
  C  C59  1  0.69106000  0.61397000  0.75743000  1.0
  C  C60  1  0.84774000  0.62126000  0.80360000  1.0
  C  C61  1  0.79029000  0.54833000  0.86331000  1.0
  C  C62  1  0.06072000  0.69165000  0.79364000  1.0
  C  C63  1  0.11835000  0.75338000  0.73784000  1.0
  C  C64  1  0.79445000  0.30337000  0.02482000  1.0
  C  C65  1  0.70397000  0.18077000  0.05277000  1.0
  C  C66  1  0.84547000  0.08370000  0.04560000  1.0
  C  C67  1  0.76560000  0.96852000  0.06768000  1.0
  C  C68  1  0.54508000  0.95085000  0.09867000  1.0
  C  C69  1  0.40483000  0.04643000  0.10856000  1.0
  C  C70  1  0.48408000  0.16189000  0.08473000  1.0
  C  C71  1  0.53565000  0.74106000  0.19196000  1.0
  C  C72  1  0.75007000  0.67229000  0.20117000  1.0
  C  C73  1  0.80889000  0.61398000  0.25744000  1.0
  C  C74  1  0.65223000  0.62127000  0.30360000  1.0
  C  C75  1  0.70963000  0.54834000  0.36333000  1.0
  C  C76  1  0.43921000  0.69165000  0.29365000  1.0
  C  C77  1  0.38159000  0.75338000  0.23784000  1.0
  C  C78  1  0.29447000  0.69661000  0.47518000  1.0
  C  C79  1  0.20402000  0.81922000  0.44722000  1.0
  C  C80  1  0.34554000  0.91630000  0.45439000  1.0
  C  C81  1  0.26568000  0.03149000  0.43231000  1.0
  C  C82  1  0.04515000  0.04915000  0.40132000  1.0
  C  C83  1  0.90489000  0.95359000  0.39143000  1.0
  C  C84  1  0.98415000  0.83812000  0.41526000  1.0
  C  C85  1  0.03568000  0.25894000  0.30804000  1.0
  C  C86  1  0.25010000  0.32773000  0.29884000  1.0
  C  C87  1  0.30894000  0.38604000  0.24257000  1.0
  C  C88  1  0.15228000  0.37874000  0.19639000  1.0
  C  C89  1  0.20973000  0.45167000  0.13669000  1.0
  C  C90  1  0.93931000  0.30835000  0.20636000  1.0
  C  C91  1  0.88167000  0.24662000  0.26216000  1.0
  S  S92  1  0.56089000  0.19804000  0.87995000  1.0
  S  S93  1  0.06084000  0.80194000  0.62005000  1.0
  S  S94  1  0.43911000  0.80196000  0.12005000  1.0
  S  S95  1  0.93914000  0.19806000  0.37995000  1.0
  O  O96  1  0.36425000  0.61175000  0.98278000  1.0
  O  O97  1  0.98174000  0.68496000  0.98913000  1.0
  O  O98  1  0.43105000  0.26264000  0.91756000  1.0
  O  O99  1  0.82797000  0.19654000  0.88012000  1.0
  O  O100  1  0.06562000  0.47476000  0.62493000  1.0
  O  O101  1  0.47221000  0.48519000  0.60349000  1.0
  O  O102  1  0.86420000  0.38825000  0.51721000  1.0
  O  O103  1  0.48165000  0.31506000  0.51086000  1.0
  O  O104  1  0.93101000  0.73735000  0.58244000  1.0
  O  O105  1  0.32791000  0.80346000  0.61987000  1.0
  O  O106  1  0.56558000  0.52522000  0.87506000  1.0
  O  O107  1  0.97215000  0.51480000  0.89651000  1.0
  O  O108  1  0.63578000  0.38826000  0.01721000  1.0
  O  O109  1  0.01829000  0.31504000  0.01087000  1.0
  O  O110  1  0.56897000  0.73736000  0.08244000  1.0
  O  O111  1  0.17204000  0.80347000  0.11987000  1.0
  O  O112  1  0.93436000  0.52526000  0.37507000  1.0
  O  O113  1  0.52777000  0.51481000  0.39651000  1.0
  O  O114  1  0.13581000  0.61175000  0.48279000  1.0
  O  O115  1  0.51833000  0.68494000  0.48914000  1.0
  O  O116  1  0.06897000  0.26264000  0.41757000  1.0
  O  O117  1  0.67207000  0.19653000  0.38013000  1.0
  O  O118  1  0.43443000  0.47477000  0.12494000  1.0
  O  O119  1  0.02787000  0.48520000  0.10349000  1.0
