# generated using pymatgen
data_MoH12C12N2O3
_symmetry_space_group_name_H-M   'P 1'
_cell_length_a   3.79204000
_cell_length_b   14.92650000
_cell_length_c   20.40000000
_cell_angle_alpha   90.00000000
_cell_angle_beta   95.27520000
_cell_angle_gamma   90.00000000
_symmetry_Int_Tables_number   1
_chemical_formula_structural   MoH12C12N2O3
_chemical_formula_sum   'Mo4 H48 C48 N8 O12'
_cell_volume   1149.78791479
_cell_formula_units_Z   4
loop_
 _symmetry_equiv_pos_site_id
 _symmetry_equiv_pos_as_xyz
  1  'x, y, z'
loop_
 _atom_site_type_symbol
 _atom_site_label
 _atom_site_symmetry_multiplicity
 _atom_site_fract_x
 _atom_site_fract_y
 _atom_site_fract_z
 _atom_site_occupancy
  Mo  Mo0  1  0.11851000  0.64645000  0.32830000  1.0
  Mo  Mo1  1  0.88149000  0.14645000  0.17170000  1.0
  Mo  Mo2  1  0.88149000  0.35355000  0.67171000  1.0
  Mo  Mo3  1  0.11850000  0.85355000  0.82830000  1.0
  H  H4  1  0.96623000  0.64489000  0.17203000  1.0
  H  H5  1  0.03377000  0.14489000  0.32797000  1.0
  H  H6  1  0.03377000  0.35511000  0.82797000  1.0
  H  H7  1  0.96623000  0.85511000  0.67203000  1.0
  H  H8  1  0.13643000  0.52807000  0.45812000  1.0
  H  H9  1  0.86358000  0.02808000  0.04188000  1.0
  H  H10  1  0.86357000  0.47193000  0.54188000  1.0
  H  H11  1  0.13641000  0.97193000  0.95812000  1.0
  H  H12  1  0.33438000  0.37622000  0.50238000  1.0
  H  H13  1  0.66562000  0.87623000  0.99762000  1.0
  H  H14  1  0.66562000  0.62377000  0.49762000  1.0
  H  H15  1  0.33437000  0.12378000  0.00238000  1.0
  H  H16  1  0.43630000  0.34019000  0.20591000  1.0
  H  H17  1  0.56369000  0.84019000  0.29409000  1.0
  H  H18  1  0.56370000  0.65981000  0.79409000  1.0
  H  H19  1  0.43629000  0.15981000  0.70591000  1.0
  H  H20  1  0.50849000  0.30232000  0.30345000  1.0
  H  H21  1  0.49150000  0.80233000  0.19655000  1.0
  H  H22  1  0.49152000  0.69767000  0.69655000  1.0
  H  H23  1  0.50848000  0.19767000  0.80345000  1.0
  H  H24  1  0.05626000  0.55037000  0.07280000  1.0
  H  H25  1  0.94374000  0.05037000  0.42720000  1.0
  H  H26  1  0.94376000  0.44964000  0.92720000  1.0
  H  H27  1  0.05627000  0.94962000  0.57280000  1.0
  H  H28  1  0.49608000  0.32108000  0.08992000  1.0
  H  H29  1  0.50392000  0.82108000  0.41008000  1.0
  H  H30  1  0.50394000  0.67893000  0.91008000  1.0
  H  H31  1  0.49606000  0.17892000  0.58992000  1.0
  H  H32  1  0.47125000  0.41874000  0.03873000  1.0
  H  H33  1  0.52874000  0.91874000  0.46127000  1.0
  H  H34  1  0.52876000  0.58126000  0.96127000  1.0
  H  H35  1  0.47124000  0.08125000  0.53873000  1.0
  H  H36  1  0.08702000  0.35423000  0.04891000  1.0
  H  H37  1  0.91298000  0.85423000  0.45109000  1.0
  H  H38  1  0.91300000  0.64578000  0.95109000  1.0
  H  H39  1  0.08701000  0.14576000  0.54891000  1.0
  H  H40  1  0.61179000  0.23859000  0.48527000  1.0
  H  H41  1  0.38820000  0.73860000  0.01473000  1.0
  H  H42  1  0.38821000  0.76141000  0.51473000  1.0
  H  H43  1  0.61180000  0.26141000  0.98527000  1.0
  H  H44  1  0.85530000  0.22975000  0.41499000  1.0
  H  H45  1  0.14470000  0.72976000  0.08502000  1.0
  H  H46  1  0.14470000  0.77025000  0.58501000  1.0
  H  H47  1  0.85530000  0.27025000  0.91498000  1.0
  H  H48  1  0.42694000  0.18371000  0.41174000  1.0
  H  H49  1  0.57306000  0.68372000  0.08826000  1.0
  H  H50  1  0.57307000  0.81629000  0.58826000  1.0
  H  H51  1  0.42694000  0.31629000  0.91174000  1.0
  C  C52  1  0.06302000  0.57619000  0.17653000  1.0
  C  C53  1  0.93698000  0.07619000  0.32347000  1.0
  C  C54  1  0.93698000  0.42381000  0.82347000  1.0
  C  C55  1  0.06302000  0.92380000  0.67653000  1.0
  C  C56  1  0.29971000  0.43459000  0.31857000  1.0
  C  C57  1  0.70029000  0.93460000  0.18143000  1.0
  C  C58  1  0.70030000  0.56541000  0.68143000  1.0
  C  C59  1  0.29970000  0.06541000  0.81857000  1.0
  C  C60  1  0.44513000  0.32826000  0.40630000  1.0
  C  C61  1  0.55487000  0.82826000  0.09370000  1.0
  C  C62  1  0.55488000  0.67174000  0.59370000  1.0
  C  C63  1  0.44512000  0.17174000  0.90630000  1.0
  C  C64  1  0.21535000  0.47494000  0.42596000  1.0
  C  C65  1  0.78466000  0.97495000  0.07404000  1.0
  C  C66  1  0.78466000  0.52506000  0.57404000  1.0
  C  C67  1  0.21533000  0.02506000  0.92596000  1.0
  C  C68  1  0.32892000  0.39170000  0.45004000  1.0
  C  C69  1  0.67108000  0.89170000  0.04996000  1.0
  C  C70  1  0.67109000  0.60830000  0.54996000  1.0
  C  C71  1  0.32891000  0.10830000  0.95004000  1.0
  C  C72  1  0.25527000  0.46265000  0.24883000  1.0
  C  C73  1  0.74473000  0.96265000  0.25117000  1.0
  C  C74  1  0.74473000  0.53735000  0.75117000  1.0
  C  C75  1  0.25526000  0.03735000  0.74883000  1.0
  C  C76  1  0.32585000  0.40686000  0.19657000  1.0
  C  C77  1  0.67415000  0.90686000  0.30343000  1.0
  C  C78  1  0.67415000  0.59315000  0.80343000  1.0
  C  C79  1  0.32584000  0.09314000  0.69657000  1.0
  C  C80  1  0.42421000  0.35020000  0.33928000  1.0
  C  C81  1  0.57579000  0.85021000  0.16072000  1.0
  C  C82  1  0.57580000  0.64980000  0.66072000  1.0
  C  C83  1  0.42421000  0.14979000  0.83928000  1.0
  C  C84  1  0.25900000  0.43724000  0.13174000  1.0
  C  C85  1  0.74100000  0.93724000  0.36825000  1.0
  C  C86  1  0.74102000  0.56276000  0.86825000  1.0
  C  C87  1  0.25899000  0.06275000  0.63175000  1.0
  C  C88  1  0.11749000  0.52350000  0.12227000  1.0
  C  C89  1  0.88251000  0.02350000  0.37773000  1.0
  C  C90  1  0.88251000  0.47650000  0.87773000  1.0
  C  C91  1  0.11749000  0.97649000  0.62227000  1.0
  C  C92  1  0.33469000  0.37971000  0.07454000  1.0
  C  C93  1  0.66531000  0.87971000  0.42545000  1.0
  C  C94  1  0.66532000  0.62029000  0.92545000  1.0
  C  C95  1  0.33468000  0.12028000  0.57455000  1.0
  C  C96  1  0.59078000  0.24013000  0.43135000  1.0
  C  C97  1  0.40921000  0.74014000  0.06865000  1.0
  C  C98  1  0.40922000  0.75987000  0.56865000  1.0
  C  C99  1  0.59079000  0.25987000  0.93134000  1.0
  N  N100  1  0.20504000  0.49645000  0.36218000  1.0
  N  N101  1  0.79496000  0.99645000  0.13782000  1.0
  N  N102  1  0.79496000  0.50355000  0.63782000  1.0
  N  N103  1  0.20504000  0.00355000  0.86218000  1.0
  N  N104  1  0.13256000  0.54692000  0.23833000  1.0
  N  N105  1  0.86744000  0.04692000  0.26167000  1.0
  N  N106  1  0.86744000  0.45308000  0.76167000  1.0
  N  N107  1  0.13256000  0.95307000  0.73833000  1.0
  O  O108  1  0.64923000  0.62022000  0.32280000  1.0
  O  O109  1  0.35076000  0.12022000  0.17720000  1.0
  O  O110  1  0.35077000  0.37978000  0.67721000  1.0
  O  O111  1  0.64923000  0.87978000  0.82280000  1.0
  O  O112  1  0.13415000  0.73704000  0.27503000  1.0
  O  O113  1  0.86585000  0.23704000  0.22497000  1.0
  O  O114  1  0.86585000  0.26296000  0.72498000  1.0
  O  O115  1  0.13414000  0.76296000  0.77503000  1.0
  O  O116  1  0.19518000  0.68633000  0.40847000  1.0
  O  O117  1  0.80482000  0.18634000  0.09153000  1.0
  O  O118  1  0.80482000  0.31367000  0.59153000  1.0
  O  O119  1  0.19517000  0.81367000  0.90848000  1.0
