# generated using pymatgen
data_CdH12C15(NO)4
_symmetry_space_group_name_H-M   'P 1'
_cell_length_a   9.09159000
_cell_length_b   10.13630000
_cell_length_c   16.89500000
_cell_angle_alpha   103.92600000
_cell_angle_beta   90.00000000
_cell_angle_gamma   90.00000000
_symmetry_Int_Tables_number   1
_chemical_formula_structural   CdH12C15(NO)4
_chemical_formula_sum   'Cd4 H48 C60 N16 O16'
_cell_volume   1511.19698549
_cell_formula_units_Z   4
loop_
 _symmetry_equiv_pos_site_id
 _symmetry_equiv_pos_as_xyz
  1  'x, y, z'
loop_
 _atom_site_type_symbol
 _atom_site_label
 _atom_site_symmetry_multiplicity
 _atom_site_fract_x
 _atom_site_fract_y
 _atom_site_fract_z
 _atom_site_occupancy
  Cd  Cd0  1  0.11332000  0.84000000  0.93465000  1.0
  Cd  Cd1  1  0.61331000  0.16000000  0.56535000  1.0
  Cd  Cd2  1  0.88668000  0.16000000  0.06535000  1.0
  Cd  Cd3  1  0.38668000  0.84000000  0.43465000  1.0
  H  H4  1  0.46028000  0.19602000  0.07789000  1.0
  H  H5  1  0.96029000  0.80397000  0.42211000  1.0
  H  H6  1  0.53971000  0.80397000  0.92210000  1.0
  H  H7  1  0.03971000  0.19602000  0.57789000  1.0
  H  H8  1  0.53931000  0.43737000  0.13112000  1.0
  H  H9  1  0.03932000  0.56262000  0.36888000  1.0
  H  H10  1  0.46070000  0.56262000  0.86887000  1.0
  H  H11  1  0.96069000  0.43737000  0.63112000  1.0
  H  H12  1  0.40326000  0.62283000  0.08737000  1.0
  H  H13  1  0.90325000  0.37717000  0.41263000  1.0
  H  H14  1  0.59675000  0.37717000  0.91263000  1.0
  H  H15  1  0.09675000  0.62283000  0.58737000  1.0
  H  H16  1  0.10677000  0.32730000  0.94734000  1.0
  H  H17  1  0.60676000  0.67270000  0.55265000  1.0
  H  H18  1  0.89323000  0.67271000  0.05266000  1.0
  H  H19  1  0.39324000  0.32729000  0.44734000  1.0
  H  H20  1  0.81875000  0.99224000  0.85282000  1.0
  H  H21  1  0.31875000  0.00776000  0.64719000  1.0
  H  H22  1  0.18125000  0.00776000  0.14719000  1.0
  H  H23  1  0.68125000  0.99224000  0.35281000  1.0
  H  H24  1  0.73169000  0.61249000  0.68663000  1.0
  H  H25  1  0.23168000  0.38751000  0.81337000  1.0
  H  H26  1  0.26832000  0.38751000  0.31337000  1.0
  H  H27  1  0.76831000  0.61248000  0.18663000  1.0
  H  H28  1  0.96413000  0.58546000  0.79012000  1.0
  H  H29  1  0.46413000  0.41454000  0.70988000  1.0
  H  H30  1  0.03587000  0.41453000  0.20987000  1.0
  H  H31  1  0.53587000  0.58546000  0.29013000  1.0
  H  H32  1  0.20960000  0.61730000  0.74824000  1.0
  H  H33  1  0.70960000  0.38271000  0.75177000  1.0
  H  H34  1  0.79040000  0.38271000  0.25177000  1.0
  H  H35  1  0.29040000  0.61730000  0.24824000  1.0
  H  H36  1  0.45357000  0.64571000  0.65521000  1.0
  H  H37  1  0.95357000  0.35428000  0.84479000  1.0
  H  H38  1  0.54644000  0.35429000  0.34479000  1.0
  H  H39  1  0.04644000  0.64571000  0.15521000  1.0
  H  H40  1  0.43132000  0.97802000  0.86356000  1.0
  H  H41  1  0.93132000  0.02198000  0.63643000  1.0
  H  H42  1  0.56868000  0.02198000  0.13644000  1.0
  H  H43  1  0.06867000  0.97802000  0.36356000  1.0
  H  H44  1  0.62160000  0.99181000  0.75189000  1.0
  H  H45  1  0.12160000  0.00819000  0.74811000  1.0
  H  H46  1  0.37840000  0.00819000  0.24811000  1.0
  H  H47  1  0.87840000  0.99181000  0.25189000  1.0
  H  H48  1  0.62129000  0.86117000  0.66038000  1.0
  H  H49  1  0.12129000  0.13883000  0.83961000  1.0
  H  H50  1  0.37871000  0.13883000  0.33962000  1.0
  H  H51  1  0.87871000  0.86116000  0.16038000  1.0
  C  C52  1  0.22100000  0.10508000  0.98819000  1.0
  C  C53  1  0.72102000  0.89492000  0.51181000  1.0
  C  C54  1  0.77898000  0.89493000  0.01181000  1.0
  C  C55  1  0.27899000  0.10507000  0.48819000  1.0
  C  C56  1  0.27571000  0.24780000  0.01234000  1.0
  C  C57  1  0.77572000  0.75220000  0.48766000  1.0
  C  C58  1  0.72428000  0.75220000  0.98765000  1.0
  C  C59  1  0.22428000  0.24780000  0.51234000  1.0
  C  C60  1  0.39994000  0.27899000  0.06248000  1.0
  C  C61  1  0.89994000  0.72100000  0.43752000  1.0
  C  C62  1  0.60006000  0.72100000  0.93751000  1.0
  C  C63  1  0.10005000  0.27900000  0.56248000  1.0
  C  C64  1  0.44382000  0.41364000  0.09126000  1.0
  C  C65  1  0.94382000  0.58635000  0.40875000  1.0
  C  C66  1  0.55618000  0.58635000  0.90874000  1.0
  C  C67  1  0.05618000  0.41365000  0.59125000  1.0
  C  C68  1  0.36848000  0.51722000  0.06686000  1.0
  C  C69  1  0.86848000  0.48278000  0.43315000  1.0
  C  C70  1  0.63152000  0.48278000  0.93314000  1.0
  C  C71  1  0.13153000  0.51722000  0.56686000  1.0
  C  C72  1  0.25093000  0.48565000  0.01185000  1.0
  C  C73  1  0.75092000  0.51435000  0.48815000  1.0
  C  C74  1  0.74907000  0.51435000  0.98815000  1.0
  C  C75  1  0.24907000  0.48565000  0.51184000  1.0
  C  C76  1  0.20287000  0.35126000  0.98654000  1.0
  C  C77  1  0.70286000  0.64873000  0.51346000  1.0
  C  C78  1  0.79712000  0.64873000  0.01346000  1.0
  C  C79  1  0.29713000  0.35126000  0.48654000  1.0
  C  C80  1  0.18314000  0.59270000  0.97598000  1.0
  C  C81  1  0.68313000  0.40730000  0.52402000  1.0
  C  C82  1  0.81686000  0.40730000  0.02402000  1.0
  C  C83  1  0.31687000  0.59270000  0.47598000  1.0
  C  C84  1  0.83140000  0.88609000  0.82126000  1.0
  C  C85  1  0.33140000  0.11391000  0.67874000  1.0
  C  C86  1  0.16861000  0.11390000  0.17874000  1.0
  C  C87  1  0.66861000  0.88609000  0.32126000  1.0
  C  C88  1  0.78624000  0.68616000  0.73548000  1.0
  C  C89  1  0.28624000  0.31384000  0.76452000  1.0
  C  C90  1  0.21376000  0.31384000  0.26452000  1.0
  C  C91  1  0.71376000  0.68616000  0.23548000  1.0
  C  C92  1  0.90096000  0.67427000  0.78614000  1.0
  C  C93  1  0.40096000  0.32573000  0.71386000  1.0
  C  C94  1  0.09904000  0.32572000  0.21386000  1.0
  C  C95  1  0.59904000  0.67427000  0.28615000  1.0
  C  C96  1  0.29120000  0.69741000  0.75830000  1.0
  C  C97  1  0.79119000  0.30259000  0.74170000  1.0
  C  C98  1  0.70880000  0.30260000  0.24171000  1.0
  C  C99  1  0.20881000  0.69741000  0.25830000  1.0
  C  C100  1  0.41119000  0.70999000  0.71140000  1.0
  C  C101  1  0.91118000  0.29001000  0.78860000  1.0
  C  C102  1  0.58881000  0.29002000  0.28860000  1.0
  C  C103  1  0.08882000  0.70998000  0.21140000  1.0
  C  C104  1  0.39976000  0.88562000  0.81941000  1.0
  C  C105  1  0.89976000  0.11438000  0.68059000  1.0
  C  C106  1  0.60023000  0.11439000  0.18059000  1.0
  C  C107  1  0.10024000  0.88562000  0.31941000  1.0
  C  C108  1  0.61737000  0.88153000  0.72721000  1.0
  C  C109  1  0.11737000  0.11847000  0.77279000  1.0
  C  C110  1  0.38263000  0.11847000  0.27279000  1.0
  C  C111  1  0.88263000  0.88153000  0.22721000  1.0
  N  N112  1  0.92847000  0.79933000  0.83871000  1.0
  N  N113  1  0.42847000  0.20067000  0.66129000  1.0
  N  N114  1  0.07153000  0.20066000  0.16129000  1.0
  N  N115  1  0.57153000  0.79933000  0.33871000  1.0
  N  N116  1  0.74317000  0.82139000  0.75867000  1.0
  N  N117  1  0.24316000  0.17862000  0.74133000  1.0
  N  N118  1  0.25684000  0.17861000  0.24133000  1.0
  N  N119  1  0.75684000  0.82138000  0.25867000  1.0
  N  N120  1  0.28500000  0.80742000  0.82514000  1.0
  N  N121  1  0.78500000  0.19258000  0.67486000  1.0
  N  N122  1  0.71500000  0.19259000  0.17487000  1.0
  N  N123  1  0.21500000  0.80742000  0.32514000  1.0
  N  N124  1  0.47903000  0.83031000  0.75081000  1.0
  N  N125  1  0.97903000  0.16970000  0.74919000  1.0
  N  N126  1  0.52097000  0.16970000  0.24919000  1.0
  N  N127  1  0.02098000  0.83030000  0.25081000  1.0
  O  O128  1  0.09227000  0.08380000  0.95424000  1.0
  O  O129  1  0.59228000  0.91620000  0.54576000  1.0
  O  O130  1  0.90771000  0.91620000  0.04576000  1.0
  O  O131  1  0.40772000  0.08379000  0.45423000  1.0
  O  O132  1  0.29885000  0.00940000  0.00153000  1.0
  O  O133  1  0.79887000  0.99060000  0.49847000  1.0
  O  O134  1  0.70113000  0.99060000  0.99847000  1.0
  O  O135  1  0.20114000  0.00940000  0.50153000  1.0
  O  O136  1  0.12513000  0.55842000  0.90579000  1.0
  O  O137  1  0.62513000  0.44158000  0.59422000  1.0
  O  O138  1  0.87487000  0.44158000  0.09422000  1.0
  O  O139  1  0.37487000  0.55842000  0.40578000  1.0
  O  O140  1  0.19213000  0.71607000  0.01852000  1.0
  O  O141  1  0.69213000  0.28394000  0.48148000  1.0
  O  O142  1  0.80787000  0.28394000  0.98148000  1.0
  O  O143  1  0.30787000  0.71606000  0.51852000  1.0
