# generated using pymatgen
data_ZnH26C30(NO)4
_symmetry_space_group_name_H-M   'P 1'
_cell_length_a   12.11700000
_cell_length_b   12.13520000
_cell_length_c   12.21420000
_cell_angle_alpha   101.81820000
_cell_angle_beta   118.71440000
_cell_angle_gamma   107.61900000
_symmetry_Int_Tables_number   1
_chemical_formula_structural   ZnH26C30(NO)4
_chemical_formula_sum   'Zn2 H52 C60 N8 O8'
_cell_volume   1363.11945481
_cell_formula_units_Z   2
loop_
 _symmetry_equiv_pos_site_id
 _symmetry_equiv_pos_as_xyz
  1  'x, y, z'
loop_
 _atom_site_type_symbol
 _atom_site_label
 _atom_site_symmetry_multiplicity
 _atom_site_fract_x
 _atom_site_fract_y
 _atom_site_fract_z
 _atom_site_occupancy
  Zn  Zn0  1  0.75137000  0.45574000  0.70456000  1.0
  Zn  Zn1  1  0.25113000  0.04644000  0.79664000  1.0
  H  H2  1  0.86175000  0.74990000  0.74140000  1.0
  H  H3  1  0.99575000  0.75512000  0.61444000  1.0
  H  H4  1  0.50812000  0.12087000  0.75885000  1.0
  H  H5  1  0.64054000  0.38130000  0.88706000  1.0
  H  H6  1  0.26514000  0.35638000  0.31994000  1.0
  H  H7  1  0.96276000  0.14202000  0.40714000  1.0
  H  H8  1  0.53709000  0.94367000  0.17801000  1.0
  H  H9  1  0.23508000  0.55768000  0.09493000  1.0
  H  H10  1  0.21587000  0.01066000  0.01262000  1.0
  H  H11  1  0.00309000  0.48821000  0.70482000  1.0
  H  H12  1  0.49949000  0.20339000  0.48604000  1.0
  H  H13  1  0.28313000  0.29846000  0.79676000  1.0
  H  H14  1  0.04423000  0.97825000  0.87965000  1.0
  H  H15  1  0.90402000  0.52621000  0.56998000  1.0
  H  H16  1  0.59877000  0.16402000  0.61945000  1.0
  H  H17  1  0.45503000  0.33326000  0.93137000  1.0
  H  H18  1  0.87640000  0.04097000  0.18476000  1.0
  H  H19  1  0.14430000  0.46085000  0.33655000  1.0
  H  H20  1  0.35613000  0.69322000  0.31710000  1.0
  H  H21  1  0.62348000  0.80493000  0.16148000  1.0
  H  H22  1  0.02516000  0.58708000  0.01579000  1.0
  H  H23  1  0.42856000  0.90807000  0.93827000  1.0
  H  H24  1  0.07246000  0.00975000  0.48433000  1.0
  H  H25  1  0.47136000  0.49099000  0.56162000  1.0
  H  H26  1  0.28367000  0.21830000  0.15612000  1.0
  H  H27  1  0.93774000  0.28051000  0.56412000  1.0
  H  H28  1  0.56303000  0.12597000  0.34128000  1.0
  H  H29  1  0.21620000  0.37559000  0.93835000  1.0
  H  H30  1  0.89886000  0.90316000  0.02641000  1.0
  H  H31  1  0.12405000  0.59896000  0.49695000  1.0
  H  H32  1  0.37707000  0.87426000  0.47512000  1.0
  H  H33  1  0.60085000  0.62421000  0.00146000  1.0
  H  H34  1  0.49573000  0.34977000  0.24695000  1.0
  H  H35  1  0.89269000  0.15196000  0.64589000  1.0
  H  H36  1  0.60218000  0.25024000  0.25377000  1.0
  H  H37  1  0.00528000  0.24553000  0.85353000  1.0
  H  H38  1  0.50868000  0.50422000  0.27708000  1.0
  H  H39  1  0.77249000  0.99815000  0.50715000  1.0
  H  H40  1  0.72592000  0.23216000  0.22261000  1.0
  H  H41  1  0.98914000  0.26317000  0.99251000  1.0
  H  H42  1  0.20200000  0.85068000  0.14914000  1.0
  H  H43  1  0.29806000  0.64371000  0.85094000  1.0
  H  H44  1  0.20343000  0.05385000  0.35017000  1.0
  H  H45  1  0.29250000  0.44575000  0.64816000  1.0
  H  H46  1  0.74711000  0.69033000  0.37538000  1.0
  H  H47  1  0.68251000  0.81031000  0.55625000  1.0
  H  H48  1  0.81458000  0.37162000  0.12291000  1.0
  H  H49  1  0.75245000  0.12598000  0.94411000  1.0
  H  H50  1  0.91914000  0.76158000  0.31922000  1.0
  H  H51  1  0.55586000  0.73816000  0.65713000  1.0
  H  H52  1  0.94309000  0.59882000  0.17974000  1.0
  H  H53  1  0.58052000  0.89983000  0.84460000  1.0
  C  C54  1  0.93092000  0.74062000  0.83316000  1.0
  C  C55  1  0.09556000  0.76155000  0.69196000  1.0
  C  C56  1  0.40766000  0.09848000  0.66699000  1.0
  C  C57  1  0.56967000  0.40345000  0.80895000  1.0
  C  C58  1  0.06923000  0.20909000  0.26486000  1.0
  C  C59  1  0.05579000  0.29105000  0.36000000  1.0
  C  C60  1  0.44435000  0.80428000  0.23499000  1.0
  C  C61  1  0.43080000  0.69552000  0.14000000  1.0
  C  C62  1  0.09372000  0.05149000  0.08161000  1.0
  C  C63  1  0.03070000  0.44900000  0.54239000  1.0
  C  C64  1  0.47073000  0.01237000  0.41799000  1.0
  C  C65  1  0.40591000  0.48774000  0.95811000  1.0
  C  C66  1  0.63490000  0.48445000  0.46053000  1.0
  C  C67  1  0.97651000  0.01755000  0.65082000  1.0
  C  C68  1  0.52303000  0.17417000  0.03966000  1.0
  C  C69  1  0.86704000  0.32561000  0.84947000  1.0
  C  C70  1  0.68195000  0.49018000  0.28146000  1.0
  C  C71  1  0.79022000  0.00953000  0.69212000  1.0
  C  C72  1  0.70703000  0.40025000  0.21652000  1.0
  C  C73  1  0.81664000  0.09810000  0.80776000  1.0
  C  C74  1  0.18338000  0.25739000  0.25456000  1.0
  C  C75  1  0.99675000  0.24185000  0.42497000  1.0
  C  C76  1  0.50330000  0.92788000  0.24407000  1.0
  C  C77  1  0.31678000  0.57280000  0.07632000  1.0
  C  C78  1  0.10459000  0.97263000  0.97820000  1.0
  C  C79  1  0.00727000  0.52836000  0.63322000  1.0
  C  C80  1  0.49534000  0.12667000  0.52103000  1.0
  C  C81  1  0.39435000  0.37343000  0.86770000  1.0
  C  C82  1  0.96825000  0.08000000  0.18187000  1.0
  C  C83  1  0.10211000  0.42107000  0.38873000  1.0
  C  C84  1  0.39833000  0.78737000  0.31908000  1.0
  C  C85  1  0.53165000  0.71161000  0.11022000  1.0
  C  C86  1  0.02049000  0.66074000  0.97916000  1.0
  C  C87  1  0.31912000  0.83630000  0.86000000  1.0
  C  C88  1  0.18256000  0.04195000  0.52093000  1.0
  C  C89  1  0.47719000  0.45924000  0.64000000  1.0
  C  C90  1  0.19539000  0.17970000  0.16425000  1.0
  C  C91  1  0.98444000  0.31971000  0.51483000  1.0
  C  C92  1  0.51622000  0.03031000  0.33424000  1.0
  C  C93  1  0.30460000  0.47052000  0.98669000  1.0
  C  C94  1  0.98042000  0.00220000  0.09188000  1.0
  C  C95  1  0.09013000  0.49905000  0.47878000  1.0
  C  C96  1  0.41081000  0.88963000  0.40892000  1.0
  C  C97  1  0.51940000  0.60951000  0.02041000  1.0
  C  C98  1  0.56933000  0.45179000  0.30847000  1.0
  C  C99  1  0.85507000  0.04968000  0.61828000  1.0
  C  C100  1  0.64211000  0.26142000  0.19099000  1.0
  C  C101  1  0.93040000  0.23572000  0.88138000  1.0
  C  C102  1  0.10660000  0.78992000  0.04588000  1.0
  C  C103  1  0.25654000  0.70669000  0.81683000  1.0
  C  C104  1  0.24542000  0.06175000  0.45382000  1.0
  C  C105  1  0.38980000  0.43876000  0.68276000  1.0
  C  C106  1  0.76173000  0.61984000  0.31998000  1.0
  C  C107  1  0.69841000  0.88017000  0.64165000  1.0
  C  C108  1  0.79902000  0.44127000  0.17821000  1.0
  C  C109  1  0.73747000  0.05693000  0.85876000  1.0
  C  C110  1  0.85794000  0.66010000  0.28714000  1.0
  C  C111  1  0.62567000  0.83940000  0.69770000  1.0
  C  C112  1  0.87282000  0.56979000  0.21143000  1.0
  C  C113  1  0.64123000  0.92900000  0.80345000  1.0
  N  N114  1  0.91163000  0.63120000  0.84639000  1.0
  N  N115  1  0.21743000  0.86928000  0.78160000  1.0
  N  N116  1  0.28505000  0.06570000  0.65397000  1.0
  N  N117  1  0.58863000  0.43644000  0.71924000  1.0
  N  N118  1  0.04877000  0.83859000  0.95204000  1.0
  N  N119  1  0.11545000  0.66131000  0.71119000  1.0
  N  N120  1  0.38746000  0.09787000  0.54776000  1.0
  N  N121  1  0.44954000  0.40312000  0.78893000  1.0
  O  O122  1  0.66610000  0.40100000  0.50306000  1.0
  O  O123  1  0.10052000  0.09983000  0.76413000  1.0
  O  O124  1  0.39714000  0.16251000  0.99766000  1.0
  O  O125  1  0.83637000  0.33689000  0.73580000  1.0
  O  O126  1  0.65866000  0.58761000  0.53692000  1.0
  O  O127  1  0.95293000  0.91575000  0.57227000  1.0
  O  O128  1  0.54985000  0.12090000  0.96328000  1.0
  O  O129  1  0.84466000  0.38110000  0.92898000  1.0
