# generated using pymatgen
data_ZnSiH24C48N8(O4F3)2
_symmetry_space_group_name_H-M   'P 1'
_cell_length_a   7.79625000
_cell_length_b   19.81250000
_cell_length_c   19.81260000
_cell_angle_alpha   90.00130000
_cell_angle_beta   90.00000000
_cell_angle_gamma   89.99980000
_symmetry_Int_Tables_number   1
_chemical_formula_structural   ZnSiH24C48N8(O4F3)2
_chemical_formula_sum   'Zn1 Si1 H24 C48 N8 O8 F6'
_cell_volume   3060.31765743
_cell_formula_units_Z   1
loop_
 _symmetry_equiv_pos_site_id
 _symmetry_equiv_pos_as_xyz
  1  'x, y, z'
loop_
 _atom_site_type_symbol
 _atom_site_label
 _atom_site_symmetry_multiplicity
 _atom_site_fract_x
 _atom_site_fract_y
 _atom_site_fract_z
 _atom_site_occupancy
  Zn  Zn0  1  0.00000000  0.00000000  0.00000000  1.0
  Si  Si1  1  0.50000000  0.00000000  0.00000000  1.0
  H  H2  1  0.00000000  0.43607000  0.16997000  1.0
  H  H3  1  0.00000000  0.56393000  0.83003000  1.0
  H  H4  1  0.00000000  0.83003000  0.43607000  1.0
  H  H5  1  0.00000000  0.16998000  0.56393000  1.0
  H  H6  1  0.00000000  0.56393000  0.16997000  1.0
  H  H7  1  0.00000000  0.43607000  0.83003000  1.0
  H  H8  1  0.00000000  0.16997000  0.43607000  1.0
  H  H9  1  0.00000000  0.83003000  0.56393000  1.0
  H  H10  1  0.73347000  0.11427000  0.00000000  1.0
  H  H11  1  0.72342000  0.24037000  0.00000000  1.0
  H  H12  1  0.73348000  0.88573000  0.00000000  1.0
  H  H13  1  0.72343000  0.75963000  0.00000000  1.0
  H  H14  1  0.73348000  0.00000000  0.11427000  1.0
  H  H15  1  0.72343000  0.00000000  0.24037000  1.0
  H  H16  1  0.73348000  0.00000000  0.88573000  1.0
  H  H17  1  0.72343000  0.00000000  0.75963000  1.0
  H  H18  1  0.26653000  0.88573000  0.00000000  1.0
  H  H19  1  0.27657000  0.75963000  0.00000000  1.0
  H  H20  1  0.26652000  0.11427000  0.00000000  1.0
  H  H21  1  0.27656000  0.24037000  0.00000000  1.0
  H  H22  1  0.26653000  0.00000000  0.11427000  1.0
  H  H23  1  0.27657000  0.00000000  0.24037000  1.0
  H  H24  1  0.26653000  0.00000000  0.88573000  1.0
  H  H25  1  0.27657000  0.00000000  0.75963000  1.0
  C  C26  1  0.00000000  0.35420000  0.06358000  1.0
  C  C27  1  0.00000000  0.42904000  0.06239000  1.0
  C  C28  1  0.00000000  0.46455000  0.12288000  1.0
  C  C29  1  0.00000000  0.64580000  0.93643000  1.0
  C  C30  1  0.00000000  0.57096000  0.93761000  1.0
  C  C31  1  0.00000000  0.53545000  0.87712000  1.0
  C  C32  1  0.00000000  0.93642000  0.35420000  1.0
  C  C33  1  0.00000000  0.93761000  0.42904000  1.0
  C  C34  1  0.00000000  0.87711000  0.46455000  1.0
  C  C35  1  0.00000000  0.06358000  0.64580000  1.0
  C  C36  1  0.00000000  0.06239000  0.57096000  1.0
  C  C37  1  0.00000000  0.12289000  0.53545000  1.0
  C  C38  1  0.00000000  0.64580000  0.06358000  1.0
  C  C39  1  0.00000000  0.57096000  0.06239000  1.0
  C  C40  1  0.00000000  0.53545000  0.12289000  1.0
  C  C41  1  0.00000000  0.35420000  0.93642000  1.0
  C  C42  1  0.00000000  0.42904000  0.93761000  1.0
  C  C43  1  0.00000000  0.46455000  0.87711000  1.0
  C  C44  1  0.00000000  0.06357000  0.35420000  1.0
  C  C45  1  0.00000000  0.06239000  0.42904000  1.0
  C  C46  1  0.00000000  0.12288000  0.46455000  1.0
  C  C47  1  0.00000000  0.93643000  0.64580000  1.0
  C  C48  1  0.00000000  0.93761000  0.57096000  1.0
  C  C49  1  0.00000000  0.87712000  0.53545000  1.0
  C  C50  1  0.99999000  0.24926000  0.00000000  1.0
  C  C51  1  0.00000000  0.46401000  0.00000000  1.0
  C  C52  1  0.00000000  0.75074000  0.00000000  1.0
  C  C53  1  0.00000000  0.53598000  0.00000000  1.0
  C  C54  1  0.00000000  0.00000000  0.24926000  1.0
  C  C55  1  0.00000000  0.00000000  0.46401000  1.0
  C  C56  1  0.00000000  0.00001000  0.75074000  1.0
  C  C57  1  0.00000000  0.00000000  0.53598000  1.0
  C  C58  1  0.85117000  0.14380000  0.00000000  1.0
  C  C59  1  0.84592000  0.21402000  0.00000000  1.0
  C  C60  1  0.85118000  0.85620000  0.00000000  1.0
  C  C61  1  0.84593000  0.78598000  0.00000000  1.0
  C  C62  1  0.85118000  0.00000000  0.14380000  1.0
  C  C63  1  0.84593000  0.00000000  0.21402000  1.0
  C  C64  1  0.85118000  0.00000000  0.85620000  1.0
  C  C65  1  0.84593000  0.00001000  0.78598000  1.0
  C  C66  1  0.14882000  0.85620000  0.00000000  1.0
  C  C67  1  0.15408000  0.78598000  0.00000000  1.0
  C  C68  1  0.14881000  0.14380000  0.00000000  1.0
  C  C69  1  0.15407000  0.21402000  0.00000000  1.0
  C  C70  1  0.14882000  0.00000000  0.14380000  1.0
  C  C71  1  0.15408000  0.00000000  0.21402000  1.0
  C  C72  1  0.14882000  0.00000000  0.85620000  1.0
  C  C73  1  0.15408000  0.00001000  0.78598000  1.0
  N  N74  1  0.00000000  0.10925000  0.00000000  1.0
  N  N75  1  0.00000000  0.32208000  0.00000000  1.0
  N  N76  1  0.00000000  0.89075000  0.00000000  1.0
  N  N77  1  0.00000000  0.67792000  0.00000000  1.0
  N  N78  1  0.00000000  0.00000000  0.10925000  1.0
  N  N79  1  0.00000000  0.00000000  0.32208000  1.0
  N  N80  1  0.00000000  0.00000000  0.89075000  1.0
  N  N81  1  0.00000000  0.00001000  0.67792000  1.0
  O  O82  1  0.00000000  0.32097000  0.11586000  1.0
  O  O83  1  0.00000000  0.67902000  0.88414000  1.0
  O  O84  1  0.00000000  0.88413000  0.32097000  1.0
  O  O85  1  0.00000000  0.11587000  0.67902000  1.0
  O  O86  1  0.00000000  0.67903000  0.11587000  1.0
  O  O87  1  0.00000000  0.32097000  0.88413000  1.0
  O  O88  1  0.00000000  0.11586000  0.32098000  1.0
  O  O89  1  0.00000000  0.88414000  0.67902000  1.0
  F  F90  1  0.27361000  0.00000000  0.00000000  1.0
  F  F91  1  0.72639000  0.00000000  0.00000000  1.0
  F  F92  1  0.50000000  0.06064000  0.06064000  1.0
  F  F93  1  0.50000000  0.93936000  0.93936000  1.0
  F  F94  1  0.50000000  0.93936000  0.06064000  1.0
  F  F95  1  0.50000000  0.06064000  0.93936000  1.0
