# generated using pymatgen
data_ZnH22C32(N2O3)2
_symmetry_space_group_name_H-M   'P 1'
_cell_length_a   16.54100012
_cell_length_b   16.53850000
_cell_length_c   25.86070000
_cell_angle_alpha   89.99990000
_cell_angle_beta   90.00000002
_cell_angle_gamma   60.00499930
_symmetry_Int_Tables_number   1
_chemical_formula_structural   ZnH22C32(N2O3)2
_chemical_formula_sum   'Zn6 H132 C192 N24 O36'
_cell_volume   6127.03930238
_cell_formula_units_Z   6
loop_
 _symmetry_equiv_pos_site_id
 _symmetry_equiv_pos_as_xyz
  1  'x, y, z'
loop_
 _atom_site_type_symbol
 _atom_site_label
 _atom_site_symmetry_multiplicity
 _atom_site_fract_x
 _atom_site_fract_y
 _atom_site_fract_z
 _atom_site_occupancy
  Zn  Zn0  1  0.71546000  0.56905000  0.83335000  1.0
  Zn  Zn1  1  0.56906000  0.71547000  0.50000000  1.0
  Zn  Zn2  1  0.71546000  0.71549000  0.16665000  1.0
  Zn  Zn3  1  0.28454000  0.43095000  0.83335000  1.0
  Zn  Zn4  1  0.43094000  0.28453000  0.50000000  1.0
  Zn  Zn5  1  0.28454000  0.28451000  0.16665000  1.0
  H  H6  1  0.65905000  0.67047000  0.00000000  1.0
  H  H7  1  0.67043000  0.67044000  0.66666667  1.0
  H  H8  1  0.67043000  0.65913000  0.33333333  1.0
  H  H9  1  0.34095000  0.32952000  0.00000000  1.0
  H  H10  1  0.32957000  0.32956000  0.66666667  1.0
  H  H11  1  0.32957000  0.34087000  0.33333333  1.0
  H  H12  1  0.39959000  0.77851000  0.91772000  1.0
  H  H13  1  0.77845000  0.82196000  0.58431000  1.0
  H  H14  1  0.82192000  0.39960000  0.25113000  1.0
  H  H15  1  0.60041000  0.22149000  0.91772000  1.0
  H  H16  1  0.22155000  0.17804000  0.58431000  1.0
  H  H17  1  0.17808000  0.60040000  0.25112000  1.0
  H  H18  1  0.17807000  0.22152000  0.74888000  1.0
  H  H19  1  0.60041000  0.17809000  0.08228000  1.0
  H  H20  1  0.22155000  0.60040000  0.41569000  1.0
  H  H21  1  0.82193000  0.77847000  0.74888000  1.0
  H  H22  1  0.39960000  0.82190000  0.08228000  1.0
  H  H23  1  0.77845000  0.39960000  0.41569000  1.0
  H  H24  1  0.31102000  0.84449000  1.00000000  1.0
  H  H25  1  0.84448000  0.84448000  0.66663000  1.0
  H  H26  1  0.84447000  0.31104000  0.33333333  1.0
  H  H27  1  0.68898000  0.15551000  0.00000000  1.0
  H  H28  1  0.15552000  0.15552000  0.66663000  1.0
  H  H29  1  0.15553000  0.68896000  0.33333333  1.0
  H  H30  1  0.17817000  0.28874000  0.86216000  1.0
  H  H31  1  0.28870000  0.53307000  0.52891000  1.0
  H  H32  1  0.53305000  0.17825000  0.19553000  1.0
  H  H33  1  0.82183000  0.71126000  0.86216000  1.0
  H  H34  1  0.71130000  0.46693000  0.52891000  1.0
  H  H35  1  0.46695000  0.82176000  0.19553000  1.0
  H  H36  1  0.46695000  0.71129000  0.80447000  1.0
  H  H37  1  0.82183000  0.46691000  0.13784000  1.0
  H  H38  1  0.71130000  0.82177000  0.47109000  1.0
  H  H39  1  0.53306000  0.28870000  0.80447000  1.0
  H  H40  1  0.17817000  0.53309000  0.13784000  1.0
  H  H41  1  0.28870000  0.17823000  0.47109000  1.0
  H  H42  1  0.82195000  0.50118000  0.92933000  1.0
  H  H43  1  0.50121000  0.67686000  0.59604000  1.0
  H  H44  1  0.67686000  0.82196000  0.26270000  1.0
  H  H45  1  0.17805000  0.49882000  0.92933000  1.0
  H  H46  1  0.49879000  0.32314000  0.59604000  1.0
  H  H47  1  0.32313000  0.17805000  0.26269000  1.0
  H  H48  1  0.32313000  0.49883000  0.73730000  1.0
  H  H49  1  0.17805000  0.32314000  0.07067000  1.0
  H  H50  1  0.49880000  0.17806000  0.40396000  1.0
  H  H51  1  0.67687000  0.50117000  0.73730000  1.0
  H  H52  1  0.82195000  0.67687000  0.07067000  1.0
  H  H53  1  0.50120000  0.82194000  0.40396000  1.0
  H  H54  1  0.98330000  0.39750000  0.95859000  1.0
  H  H55  1  0.39743000  0.61929000  0.62531000  1.0
  H  H56  1  0.61920000  0.98335000  0.29196000  1.0
  H  H57  1  0.01670000  0.60250000  0.95859000  1.0
  H  H58  1  0.60257000  0.38071000  0.62531000  1.0
  H  H59  1  0.38080000  0.01665000  0.29196000  1.0
  H  H60  1  0.38079000  0.60255000  0.70804000  1.0
  H  H61  1  0.01669000  0.38080000  0.04141000  1.0
  H  H62  1  0.60258000  0.01672000  0.37469000  1.0
  H  H63  1  0.61921000  0.39745000  0.70804000  1.0
  H  H64  1  0.98331000  0.61920000  0.04141000  1.0
  H  H65  1  0.39742000  0.98328000  0.37469000  1.0
  H  H66  1  0.06792000  0.35466000  0.79811000  1.0
  H  H67  1  0.35469000  0.57739000  0.46482000  1.0
  H  H68  1  0.57739000  0.06794000  0.13145000  1.0
  H  H69  1  0.93208000  0.64534000  0.79811000  1.0
  H  H70  1  0.64532000  0.42260000  0.46482000  1.0
  H  H71  1  0.42261000  0.93206000  0.13145000  1.0
  H  H72  1  0.42261000  0.64533000  0.86854000  1.0
  H  H73  1  0.93208000  0.42258000  0.20189000  1.0
  H  H74  1  0.64532000  0.93208000  0.53518000  1.0
  H  H75  1  0.57739000  0.35467000  0.86854000  1.0
  H  H76  1  0.06792000  0.57743000  0.20189000  1.0
  H  H77  1  0.35468000  0.06792000  0.53518000  1.0
  H  H78  1  0.90002000  0.45967000  0.77496000  1.0
  H  H79  1  0.45968000  0.64028000  0.44168000  1.0
  H  H80  1  0.64032000  0.90003000  0.10833000  1.0
  H  H81  1  0.09998000  0.54033000  0.77496000  1.0
  H  H82  1  0.54032000  0.35972000  0.44168000  1.0
  H  H83  1  0.35968000  0.09997000  0.10833000  1.0
  H  H84  1  0.35967000  0.54035000  0.89167000  1.0
  H  H85  1  0.09998000  0.35968000  0.22504000  1.0
  H  H86  1  0.54032000  0.09997000  0.55832000  1.0
  H  H87  1  0.64033000  0.45965000  0.89167000  1.0
  H  H88  1  0.90002000  0.64032000  0.22504000  1.0
  H  H89  1  0.45968000  0.90003000  0.55832000  1.0
  H  H90  1  0.25079000  0.15679000  0.01948000  1.0
  H  H91  1  0.15675000  0.59249000  0.68625000  1.0
  H  H92  1  0.59249000  0.25078000  0.35286000  1.0
  H  H93  1  0.74920000  0.84321000  0.01948000  1.0
  H  H94  1  0.84325000  0.40751000  0.68625000  1.0
  H  H95  1  0.40751000  0.74922000  0.35286000  1.0
  H  H96  1  0.40752000  0.84326000  0.64714000  1.0
  H  H97  1  0.74921000  0.40758000  0.98052000  1.0
  H  H98  1  0.84325000  0.74924000  0.31375000  1.0
  H  H99  1  0.59249000  0.15673000  0.64714000  1.0
  H  H100  1  0.25080000  0.59241000  0.98052000  1.0
  H  H101  1  0.15675000  0.25076000  0.31375000  1.0
  H  H102  1  0.41396000  0.02054000  0.02612000  1.0
  H  H103  1  0.02042000  0.56556000  0.69286000  1.0
  H  H104  1  0.56555000  0.41403000  0.35946000  1.0
  H  H105  1  0.58604000  0.97945000  0.02612000  1.0
  H  H106  1  0.97959000  0.43443000  0.69286000  1.0
  H  H107  1  0.43445000  0.58598000  0.35946000  1.0
  H  H108  1  0.43445000  0.97957000  0.64054000  1.0
  H  H109  1  0.58604000  0.43450000  0.97388000  1.0
  H  H110  1  0.97959000  0.58597000  0.30714000  1.0
  H  H111  1  0.56555000  0.02043000  0.64054000  1.0
  H  H112  1  0.41396000  0.56550000  0.97388000  1.0
  H  H113  1  0.02041000  0.41403000  0.30714000  1.0
  H  H114  1  0.47162000  0.08250000  0.87377000  1.0
  H  H115  1  0.08241000  0.44598000  0.54050000  1.0
  H  H116  1  0.44597000  0.47157000  0.20711000  1.0
  H  H117  1  0.52838000  0.91749000  0.87377000  1.0
  H  H118  1  0.91759000  0.55402000  0.54050000  1.0
  H  H119  1  0.55403000  0.52844000  0.20711000  1.0
  H  H120  1  0.55403000  0.91754000  0.79289000  1.0
  H  H121  1  0.52838000  0.55413000  0.12623000  1.0
  H  H122  1  0.91758000  0.52839000  0.45950000  1.0
  H  H123  1  0.44597000  0.08246000  0.79289000  1.0
  H  H124  1  0.47162000  0.44587000  0.12623000  1.0
  H  H125  1  0.08241000  0.47161000  0.45950000  1.0
  H  H126  1  0.31121000  0.21352000  0.86593000  1.0
  H  H127  1  0.21346000  0.47532000  0.53271000  1.0
  H  H128  1  0.47529000  0.31115000  0.19932000  1.0
  H  H129  1  0.68879000  0.78648000  0.86593000  1.0
  H  H130  1  0.78654000  0.52469000  0.53271000  1.0
  H  H131  1  0.52471000  0.68886000  0.19933000  1.0
  H  H132  1  0.52471000  0.78644000  0.80067000  1.0
  H  H133  1  0.68879000  0.52473000  0.13407000  1.0
  H  H134  1  0.78654000  0.68877000  0.46729000  1.0
  H  H135  1  0.47529000  0.21356000  0.80068000  1.0
  H  H136  1  0.31121000  0.47527000  0.13406000  1.0
  H  H137  1  0.21346000  0.31123000  0.46729000  1.0
  C  C138  1  0.58238000  0.67861000  0.90359000  1.0
  C  C139  1  0.67861000  0.73897000  0.57020000  1.0
  C  C140  1  0.73900000  0.58247000  0.23695000  1.0
  C  C141  1  0.41762000  0.32139000  0.90359000  1.0
  C  C142  1  0.32139000  0.26103000  0.57021000  1.0
  C  C143  1  0.26100000  0.41753000  0.23695000  1.0
  C  C144  1  0.26100000  0.32148000  0.76305000  1.0
  C  C145  1  0.41762000  0.26100000  0.09641000  1.0
  C  C146  1  0.32139000  0.41758000  0.42979000  1.0
  C  C147  1  0.73900000  0.67852000  0.76305000  1.0
  C  C148  1  0.58238000  0.73901000  0.09641000  1.0
  C  C149  1  0.67861000  0.58242000  0.42980000  1.0
  C  C150  1  0.53408000  0.71918000  0.95394000  1.0
  C  C151  1  0.71912000  0.74676000  0.62056000  1.0
  C  C152  1  0.74675000  0.53414000  0.28731000  1.0
  C  C153  1  0.46592000  0.28082000  0.95394000  1.0
  C  C154  1  0.28088000  0.25324000  0.62056000  1.0
  C  C155  1  0.25325000  0.46586000  0.28731000  1.0
  C  C156  1  0.25325000  0.28090000  0.71269000  1.0
  C  C157  1  0.46592000  0.25326000  0.04606000  1.0
  C  C158  1  0.28088000  0.46588000  0.37944000  1.0
  C  C159  1  0.74675000  0.71910000  0.71269000  1.0
  C  C160  1  0.53408000  0.74675000  0.04606000  1.0
  C  C161  1  0.71911000  0.53412000  0.37944000  1.0
  C  C162  1  0.58307000  0.70847000  0.00000000  1.0
  C  C163  1  0.70842000  0.70844000  0.66662000  1.0
  C  C164  1  0.70842000  0.58314000  0.33333333  1.0
  C  C165  1  0.41693000  0.29153000  0.00000000  1.0
  C  C166  1  0.29158000  0.29156000  0.66662000  1.0
  C  C167  1  0.29158000  0.41686000  0.33333333  1.0
  C  C168  1  0.43613000  0.76932000  0.95419000  1.0
  C  C169  1  0.76925000  0.79461000  0.62079000  1.0
  C  C170  1  0.79456000  0.43618000  0.28759000  1.0
  C  C171  1  0.56387000  0.23068000  0.95419000  1.0
  C  C172  1  0.23075000  0.20539000  0.62079000  1.0
  C  C173  1  0.20544000  0.56382000  0.28759000  1.0
  C  C174  1  0.20544000  0.23074000  0.71241000  1.0
  C  C175  1  0.56387000  0.20544000  0.04581000  1.0
  C  C176  1  0.23075000  0.56385000  0.37921000  1.0
  C  C177  1  0.79457000  0.76925000  0.71241000  1.0
  C  C178  1  0.43613000  0.79456000  0.04581000  1.0
  C  C179  1  0.76925000  0.43614000  0.37921000  1.0
  C  C180  1  0.38715000  0.80643000  0.00000000  1.0
  C  C181  1  0.80639000  0.80642000  0.66661000  1.0
  C  C182  1  0.80638000  0.38719000  0.33333333  1.0
  C  C183  1  0.61285000  0.19357000  0.00000000  1.0
  C  C184  1  0.19361000  0.19358000  0.66661000  1.0
  C  C185  1  0.19361000  0.61282000  0.33333333  1.0
  C  C186  1  0.87806000  0.46704000  0.90120000  1.0
  C  C187  1  0.46703000  0.65492000  0.56792000  1.0
  C  C188  1  0.65489000  0.87809000  0.23456000  1.0
  C  C189  1  0.12194000  0.53296000  0.90120000  1.0
  C  C190  1  0.53297000  0.34508000  0.56792000  1.0
  C  C191  1  0.34511000  0.12191000  0.23456000  1.0
  C  C192  1  0.34511000  0.53298000  0.76543000  1.0
  C  C193  1  0.12194000  0.34510000  0.09880000  1.0
  C  C194  1  0.53298000  0.12194000  0.43208000  1.0
  C  C195  1  0.65489000  0.46702000  0.76543000  1.0
  C  C196  1  0.87806000  0.65490000  0.09880000  1.0
  C  C197  1  0.46702000  0.87805000  0.43208000  1.0
  C  C198  1  0.96890000  0.40966000  0.91769000  1.0
  C  C199  1  0.40962000  0.62150000  0.58441000  1.0
  C  C200  1  0.62142000  0.96894000  0.25106000  1.0
  C  C201  1  0.03110000  0.59034000  0.91769000  1.0
  C  C202  1  0.59038000  0.37850000  0.58441000  1.0
  C  C203  1  0.37858000  0.03106000  0.25106000  1.0
  C  C204  1  0.37857000  0.59037000  0.74894000  1.0
  C  C205  1  0.03110000  0.37856000  0.08231000  1.0
  C  C206  1  0.59038000  0.03112000  0.41559000  1.0
  C  C207  1  0.62143000  0.40964000  0.74894000  1.0
  C  C208  1  0.96890000  0.62144000  0.08231000  1.0
  C  C209  1  0.40962000  0.96888000  0.41559000  1.0
  C  C210  1  0.04031000  0.36651000  0.88073000  1.0
  C  C211  1  0.36648000  0.59318000  0.54747000  1.0
  C  C212  1  0.59312000  0.04037000  0.21409000  1.0
  C  C213  1  0.95969000  0.63349000  0.88073000  1.0
  C  C214  1  0.63352000  0.40682000  0.54747000  1.0
  C  C215  1  0.40688000  0.95963000  0.21409000  1.0
  C  C216  1  0.40687000  0.63350000  0.78591000  1.0
  C  C217  1  0.95969000  0.40682000  0.11927000  1.0
  C  C218  1  0.63352000  0.95966000  0.45253000  1.0
  C  C219  1  0.59312000  0.36651000  0.78591000  1.0
  C  C220  1  0.04032000  0.59317000  0.11927000  1.0
  C  C221  1  0.36648000  0.04034000  0.45253000  1.0
  C  C222  1  0.01475000  0.38557000  0.82812000  1.0
  C  C223  1  0.38557000  0.59965000  0.49485000  1.0
  C  C224  1  0.59963000  0.01480000  0.16148000  1.0
  C  C225  1  0.98525000  0.61443000  0.82812000  1.0
  C  C226  1  0.61443000  0.40036000  0.49485000  1.0
  C  C227  1  0.40038000  0.98519000  0.16148000  1.0
  C  C228  1  0.40037000  0.61443000  0.83852000  1.0
  C  C229  1  0.98525000  0.40032000  0.17188000  1.0
  C  C230  1  0.61443000  0.98521000  0.50515000  1.0
  C  C231  1  0.59963000  0.38557000  0.83852000  1.0
  C  C232  1  0.01475000  0.59968000  0.17188000  1.0
  C  C233  1  0.38557000  0.01479000  0.50515000  1.0
  C  C234  1  0.92199000  0.44378000  0.81523000  1.0
  C  C235  1  0.44381000  0.63418000  0.48196000  1.0
  C  C236  1  0.63420000  0.92202000  0.14861000  1.0
  C  C237  1  0.07801000  0.55622000  0.81523000  1.0
  C  C238  1  0.55620000  0.36581000  0.48196000  1.0
  C  C239  1  0.36580000  0.07798000  0.14860000  1.0
  C  C240  1  0.36580000  0.55622000  0.85139000  1.0
  C  C241  1  0.07801000  0.36578000  0.18477000  1.0
  C  C242  1  0.55619000  0.07800000  0.51804000  1.0
  C  C243  1  0.63420000  0.44378000  0.85139000  1.0
  C  C244  1  0.92199000  0.63423000  0.18477000  1.0
  C  C245  1  0.44381000  0.92200000  0.51804000  1.0
  C  C246  1  0.16880000  0.26703000  0.94080000  1.0
  C  C247  1  0.26702000  0.56415000  0.60757000  1.0
  C  C248  1  0.56419000  0.16880000  0.27417000  1.0
  C  C249  1  0.83120000  0.73297000  0.94080000  1.0
  C  C250  1  0.73298000  0.43585000  0.60757000  1.0
  C  C251  1  0.43581000  0.83120000  0.27417000  1.0
  C  C252  1  0.43581000  0.73299000  0.72583000  1.0
  C  C253  1  0.83120000  0.43583000  0.05920000  1.0
  C  C254  1  0.73298000  0.83117000  0.39243000  1.0
  C  C255  1  0.56419000  0.26701000  0.72583000  1.0
  C  C256  1  0.16880000  0.56417000  0.05920000  1.0
  C  C257  1  0.26702000  0.16883000  0.39243000  1.0
  C  C258  1  0.26919000  0.19253000  0.94232000  1.0
  C  C259  1  0.19248000  0.53831000  0.60911000  1.0
  C  C260  1  0.53832000  0.26918000  0.27572000  1.0
  C  C261  1  0.73080000  0.80748000  0.94232000  1.0
  C  C262  1  0.80752000  0.46169000  0.60911000  1.0
  C  C263  1  0.46168000  0.73082000  0.27572000  1.0
  C  C264  1  0.46169000  0.80749000  0.72428000  1.0
  C  C265  1  0.73080000  0.46173000  0.05768000  1.0
  C  C266  1  0.80752000  0.73079000  0.39089000  1.0
  C  C267  1  0.53831000  0.19251000  0.72428000  1.0
  C  C268  1  0.26919000  0.53828000  0.05767000  1.0
  C  C269  1  0.19248000  0.26921000  0.39089000  1.0
  C  C270  1  0.30050000  0.13920000  0.98788000  1.0
  C  C271  1  0.13914000  0.56036000  0.65467000  1.0
  C  C272  1  0.56040000  0.30049000  0.32126000  1.0
  C  C273  1  0.69950000  0.86080000  0.98788000  1.0
  C  C274  1  0.86086000  0.43964000  0.65467000  1.0
  C  C275  1  0.43960000  0.69951000  0.32126000  1.0
  C  C276  1  0.43961000  0.86088000  0.67874000  1.0
  C  C277  1  0.69950000  0.43970000  0.01212000  1.0
  C  C278  1  0.86086000  0.69950000  0.34533000  1.0
  C  C279  1  0.56039000  0.13912000  0.67874000  1.0
  C  C280  1  0.30050000  0.56030000  0.01212000  1.0
  C  C281  1  0.13914000  0.30050000  0.34533000  1.0
  C  C282  1  0.39117000  0.06438000  0.99160000  1.0
  C  C283  1  0.06430000  0.54454000  0.65836000  1.0
  C  C284  1  0.54459000  0.39114000  0.32494000  1.0
  C  C285  1  0.60883000  0.93562000  0.99160000  1.0
  C  C286  1  0.93571000  0.45545000  0.65836000  1.0
  C  C287  1  0.45542000  0.60885000  0.32495000  1.0
  C  C288  1  0.45542000  0.93573000  0.67505000  1.0
  C  C289  1  0.60884000  0.45555000  0.00840000  1.0
  C  C290  1  0.93570000  0.60884000  0.34164000  1.0
  C  C291  1  0.54458000  0.06428000  0.67505000  1.0
  C  C292  1  0.39116000  0.54445000  0.00840000  1.0
  C  C293  1  0.06429000  0.39116000  0.34164000  1.0
  C  C294  1  0.45287000  0.04122000  0.94971000  1.0
  C  C295  1  0.04116000  0.50600000  0.61647000  1.0
  C  C296  1  0.50603000  0.45283000  0.28304000  1.0
  C  C297  1  0.54713000  0.95878000  0.94971000  1.0
  C  C298  1  0.95884000  0.49401000  0.61647000  1.0
  C  C299  1  0.49397000  0.54718000  0.28304000  1.0
  C  C300  1  0.49397000  0.95885000  0.71695000  1.0
  C  C301  1  0.54713000  0.49409000  0.05029000  1.0
  C  C302  1  0.95884000  0.54715000  0.38354000  1.0
  C  C303  1  0.50603000  0.04115000  0.71695000  1.0
  C  C304  1  0.45287000  0.50591000  0.05029000  1.0
  C  C305  1  0.04116000  0.45284000  0.38353000  1.0
  C  C306  1  0.42233000  0.09741000  0.90525000  1.0
  C  C307  1  0.09733000  0.48036000  0.57199000  1.0
  C  C308  1  0.48041000  0.42225000  0.23858000  1.0
  C  C309  1  0.57767000  0.90259000  0.90525000  1.0
  C  C310  1  0.90267000  0.51965000  0.57199000  1.0
  C  C311  1  0.51960000  0.57774000  0.23858000  1.0
  C  C312  1  0.51960000  0.90266000  0.76142000  1.0
  C  C313  1  0.57766000  0.51975000  0.09475000  1.0
  C  C314  1  0.90267000  0.57768000  0.42801000  1.0
  C  C315  1  0.48040000  0.09734000  0.76142000  1.0
  C  C316  1  0.42233000  0.48026000  0.09475000  1.0
  C  C317  1  0.09733000  0.42231000  0.42801000  1.0
  C  C318  1  0.33176000  0.17180000  0.90118000  1.0
  C  C319  1  0.17174000  0.49651000  0.56795000  1.0
  C  C320  1  0.49652000  0.33169000  0.23456000  1.0
  C  C321  1  0.66824000  0.82820000  0.90118000  1.0
  C  C322  1  0.82826000  0.50349000  0.56795000  1.0
  C  C323  1  0.50348000  0.66831000  0.23456000  1.0
  C  C324  1  0.50348000  0.82821000  0.76544000  1.0
  C  C325  1  0.66824000  0.50356000  0.09882000  1.0
  C  C326  1  0.82826000  0.66825000  0.43205000  1.0
  C  C327  1  0.49652000  0.17179000  0.76544000  1.0
  C  C328  1  0.33176000  0.49644000  0.09882000  1.0
  C  C329  1  0.17174000  0.33175000  0.43205000  1.0
  N  N330  1  0.85355000  0.48446000  0.85092000  1.0
  N  N331  1  0.48451000  0.66195000  0.51764000  1.0
  N  N332  1  0.66198000  0.85357000  0.18429000  1.0
  N  N333  1  0.14645000  0.51554000  0.85092000  1.0
  N  N334  1  0.51550000  0.33804000  0.51764000  1.0
  N  N335  1  0.33802000  0.14643000  0.18429000  1.0
  N  N336  1  0.33802000  0.51555000  0.81571000  1.0
  N  N337  1  0.14645000  0.33802000  0.14908000  1.0
  N  N338  1  0.51550000  0.14645000  0.48236000  1.0
  N  N339  1  0.66198000  0.48445000  0.81571000  1.0
  N  N340  1  0.85355000  0.66199000  0.14908000  1.0
  N  N341  1  0.48450000  0.85355000  0.48236000  1.0
  N  N342  1  0.13313000  0.30607000  0.89284000  1.0
  N  N343  1  0.30606000  0.56077000  0.55959000  1.0
  N  N344  1  0.56072000  0.13320000  0.22621000  1.0
  N  N345  1  0.86687000  0.69393000  0.89284000  1.0
  N  N346  1  0.69394000  0.43923000  0.55959000  1.0
  N  N347  1  0.43928000  0.86680000  0.22621000  1.0
  N  N348  1  0.43928000  0.69392000  0.77379000  1.0
  N  N349  1  0.86687000  0.43920000  0.10716000  1.0
  N  N350  1  0.69394000  0.86683000  0.44040000  1.0
  N  N351  1  0.56072000  0.30608000  0.77379000  1.0
  N  N352  1  0.13313000  0.56080000  0.10716000  1.0
  N  N353  1  0.30606000  0.13317000  0.44040000  1.0
  O  O354  1  0.67145000  0.62189000  0.90422000  1.0
  O  O355  1  0.62188000  0.70664000  0.57085000  1.0
  O  O356  1  0.70667000  0.67155000  0.23757000  1.0
  O  O357  1  0.32855000  0.37811000  0.90422000  1.0
  O  O358  1  0.37811000  0.29337000  0.57084000  1.0
  O  O359  1  0.29333000  0.32845000  0.23757000  1.0
  O  O360  1  0.29333000  0.37822000  0.76242000  1.0
  O  O361  1  0.32855000  0.29334000  0.09578000  1.0
  O  O362  1  0.37811000  0.32852000  0.42916000  1.0
  O  O363  1  0.70667000  0.62178000  0.76242000  1.0
  O  O364  1  0.67145000  0.70666000  0.09578000  1.0
  O  O365  1  0.62189000  0.67149000  0.42916000  1.0
  O  O366  1  0.53477000  0.69978000  0.86261000  1.0
  O  O367  1  0.69988000  0.76533000  0.52922000  1.0
  O  O368  1  0.76532000  0.53486000  0.19596000  1.0
  O  O369  1  0.46523000  0.30022000  0.86261000  1.0
  O  O370  1  0.30011000  0.23468000  0.52922000  1.0
  O  O371  1  0.23468000  0.46514000  0.19596000  1.0
  O  O372  1  0.23468000  0.30019000  0.80404000  1.0
  O  O373  1  0.46523000  0.23455000  0.13739000  1.0
  O  O374  1  0.30012000  0.46520000  0.47078000  1.0
  O  O375  1  0.76532000  0.69981000  0.80404000  1.0
  O  O376  1  0.53477000  0.76545000  0.13739000  1.0
  O  O377  1  0.69988000  0.53480000  0.47078000  1.0
  O  O378  1  0.12034000  0.28868000  0.98032000  1.0
  O  O379  1  0.28871000  0.59093000  0.64708000  1.0
  O  O380  1  0.59105000  0.12030000  0.31367000  1.0
  O  O381  1  0.87966000  0.71132000  0.98032000  1.0
  O  O382  1  0.71129000  0.40907000  0.64708000  1.0
  O  O383  1  0.40895000  0.87970000  0.31367000  1.0
  O  O384  1  0.40895000  0.71135000  0.68633000  1.0
  O  O385  1  0.87966000  0.40902000  0.01968000  1.0
  O  O386  1  0.71130000  0.87964000  0.35292000  1.0
  O  O387  1  0.59105000  0.28865000  0.68633000  1.0
  O  O388  1  0.12034000  0.59098000  0.01967000  1.0
  O  O389  1  0.28870000  0.12036000  0.35292000  1.0
