# generated using pymatgen
data_AgH6C6(SO)2
_symmetry_space_group_name_H-M   'P 1'
_cell_length_a   13.02890000
_cell_length_b   13.02890000
_cell_length_c   13.56800000
_cell_angle_alpha   90.00020000
_cell_angle_beta   90.00020000
_cell_angle_gamma   89.99990000
_symmetry_Int_Tables_number   1
_chemical_formula_structural   AgH6C6(SO)2
_chemical_formula_sum   'Ag8 H48 C48 S16 O16'
_cell_volume   2303.19832730
_cell_formula_units_Z   8
loop_
 _symmetry_equiv_pos_site_id
 _symmetry_equiv_pos_as_xyz
  1  'x, y, z'
loop_
 _atom_site_type_symbol
 _atom_site_label
 _atom_site_symmetry_multiplicity
 _atom_site_fract_x
 _atom_site_fract_y
 _atom_site_fract_z
 _atom_site_occupancy
  Ag  Ag0  1  0.66738000  0.82512000  0.75287000  1.0
  Ag  Ag1  1  0.83262000  0.67488000  0.75287000  1.0
  Ag  Ag2  1  0.67488000  0.66738000  0.25286000  1.0
  Ag  Ag3  1  0.82512000  0.83262000  0.25287000  1.0
  Ag  Ag4  1  0.33261000  0.17488000  0.24713000  1.0
  Ag  Ag5  1  0.16738000  0.32512000  0.24714000  1.0
  Ag  Ag6  1  0.32512000  0.33262000  0.74714000  1.0
  Ag  Ag7  1  0.17488000  0.16738000  0.74713000  1.0
  H  H8  1  0.69439000  0.08000000  0.78875000  1.0
  H  H9  1  0.63840000  0.09350000  0.66960000  1.0
  H  H10  1  0.58200000  0.15956000  0.77378000  1.0
  H  H11  1  0.20435000  0.03731000  0.97725000  1.0
  H  H12  1  0.14067000  0.11801000  0.06607000  1.0
  H  H13  1  0.20673000  0.00599000  0.10791000  1.0
  H  H14  1  0.80561000  0.42000000  0.78875000  1.0
  H  H15  1  0.86160000  0.40650000  0.66960000  1.0
  H  H16  1  0.91800000  0.34044000  0.77378000  1.0
  H  H17  1  0.29565000  0.46269000  0.97725000  1.0
  H  H18  1  0.35933000  0.38199000  0.06607000  1.0
  H  H19  1  0.29327000  0.49401000  0.10791000  1.0
  H  H20  1  0.42000000  0.69439000  0.28875000  1.0
  H  H21  1  0.40650000  0.63840000  0.16960000  1.0
  H  H22  1  0.34044000  0.58200000  0.27378000  1.0
  H  H23  1  0.46269000  0.20435000  0.47725000  1.0
  H  H24  1  0.38199000  0.14067000  0.56607000  1.0
  H  H25  1  0.49401000  0.20673000  0.60791000  1.0
  H  H26  1  0.08000000  0.80561000  0.28875000  1.0
  H  H27  1  0.09350000  0.86160000  0.16960000  1.0
  H  H28  1  0.15956000  0.91800000  0.27378000  1.0
  H  H29  1  0.03731000  0.29565000  0.47725000  1.0
  H  H30  1  0.11801000  0.35933000  0.56607000  1.0
  H  H31  1  0.00599000  0.29327000  0.60791000  1.0
  H  H32  1  0.30561000  0.92000000  0.21125000  1.0
  H  H33  1  0.36160000  0.90650000  0.33040000  1.0
  H  H34  1  0.41800000  0.84044000  0.22622000  1.0
  H  H35  1  0.79565000  0.96269000  0.02275000  1.0
  H  H36  1  0.85933000  0.88199000  0.93393000  1.0
  H  H37  1  0.79327000  0.99401000  0.89209000  1.0
  H  H38  1  0.19439000  0.58000000  0.21125000  1.0
  H  H39  1  0.13840000  0.59350000  0.33040000  1.0
  H  H40  1  0.08200000  0.65956000  0.22622000  1.0
  H  H41  1  0.70435000  0.53731000  0.02275000  1.0
  H  H42  1  0.64067000  0.61801000  0.93393000  1.0
  H  H43  1  0.70673000  0.50599000  0.89209000  1.0
  H  H44  1  0.58000000  0.30561000  0.71125000  1.0
  H  H45  1  0.59350000  0.36160000  0.83040000  1.0
  H  H46  1  0.65956000  0.41800000  0.72622000  1.0
  H  H47  1  0.53731000  0.79565000  0.52275000  1.0
  H  H48  1  0.61801000  0.85933000  0.43393000  1.0
  H  H49  1  0.50599000  0.79327000  0.39208000  1.0
  H  H50  1  0.92000000  0.19439000  0.71124000  1.0
  H  H51  1  0.90650000  0.13840000  0.83040000  1.0
  H  H52  1  0.84044000  0.08200000  0.72622000  1.0
  H  H53  1  0.96269000  0.70435000  0.52275000  1.0
  H  H54  1  0.88199000  0.64067000  0.43393000  1.0
  H  H55  1  0.99401000  0.70673000  0.39209000  1.0
  C  C56  1  0.37881000  0.12002000  0.85990000  1.0
  C  C57  1  0.44148000  0.05587000  0.93166000  1.0
  C  C58  1  0.52033000  0.99115000  0.89784000  1.0
  C  C59  1  0.42026000  0.06392000  0.03314000  1.0
  C  C60  1  0.62221000  0.09049000  0.74889000  1.0
  C  C61  1  0.20641000  0.06718000  0.05273000  1.0
  C  C62  1  0.12119000  0.37999000  0.85989000  1.0
  C  C63  1  0.05852000  0.44413000  0.93166000  1.0
  C  C64  1  0.97967000  0.50885000  0.89784000  1.0
  C  C65  1  0.07974000  0.43608000  0.03314000  1.0
  C  C66  1  0.87779000  0.40951000  0.74889000  1.0
  C  C67  1  0.29359000  0.43282000  0.05273000  1.0
  C  C68  1  0.37999000  0.37881000  0.35989000  1.0
  C  C69  1  0.44413000  0.44148000  0.43166000  1.0
  C  C70  1  0.50885000  0.52033000  0.39784000  1.0
  C  C71  1  0.43608000  0.42026000  0.53314000  1.0
  C  C72  1  0.40951000  0.62221000  0.24889000  1.0
  C  C73  1  0.43282000  0.20641000  0.55273000  1.0
  C  C74  1  0.12001000  0.12118000  0.35989000  1.0
  C  C75  1  0.05587000  0.05851000  0.43166000  1.0
  C  C76  1  0.99115000  0.97966000  0.39784000  1.0
  C  C77  1  0.06392000  0.07974000  0.53314000  1.0
  C  C78  1  0.09049000  0.87779000  0.24889000  1.0
  C  C79  1  0.06718000  0.29359000  0.55273000  1.0
  C  C80  1  0.62119000  0.87999000  0.14010000  1.0
  C  C81  1  0.55852000  0.94413000  0.06834000  1.0
  C  C82  1  0.47967000  0.00885000  0.10216000  1.0
  C  C83  1  0.57974000  0.93608000  0.96686000  1.0
  C  C84  1  0.37779000  0.90951000  0.25111000  1.0
  C  C85  1  0.79359000  0.93282000  0.94727000  1.0
  C  C86  1  0.87882000  0.62001000  0.14011000  1.0
  C  C87  1  0.94149000  0.55587000  0.06834000  1.0
  C  C88  1  0.02033000  0.49115000  0.10216000  1.0
  C  C89  1  0.92026000  0.56392000  0.96686000  1.0
  C  C90  1  0.12221000  0.59049000  0.25111000  1.0
  C  C91  1  0.70641000  0.56718000  0.94727000  1.0
  C  C92  1  0.62001000  0.62119000  0.64011000  1.0
  C  C93  1  0.55587000  0.55852000  0.56834000  1.0
  C  C94  1  0.49115000  0.47967000  0.60216000  1.0
  C  C95  1  0.56392000  0.57974000  0.46686000  1.0
  C  C96  1  0.59049000  0.37779000  0.75111000  1.0
  C  C97  1  0.56718000  0.79359000  0.44727000  1.0
  C  C98  1  0.87999000  0.87881000  0.64011000  1.0
  C  C99  1  0.94413000  0.94148000  0.56834000  1.0
  C  C100  1  0.00885000  0.02033000  0.60216000  1.0
  C  C101  1  0.93608000  0.92026000  0.46686000  1.0
  C  C102  1  0.90951000  0.12221000  0.75111000  1.0
  C  C103  1  0.93282000  0.70641000  0.44727000  1.0
  S  S104  1  0.53788000  0.98169000  0.76782000  1.0
  S  S105  1  0.31850000  0.14880000  0.06580000  1.0
  S  S106  1  0.96211000  0.51831000  0.76782000  1.0
  S  S107  1  0.18151000  0.35120000  0.06579000  1.0
  S  S108  1  0.51831000  0.53788000  0.26782000  1.0
  S  S109  1  0.35120000  0.31850000  0.56580000  1.0
  S  S110  1  0.98169000  0.96211000  0.26782000  1.0
  S  S111  1  0.14880000  0.18151000  0.56579000  1.0
  S  S112  1  0.46212000  0.01831000  0.23218000  1.0
  S  S113  1  0.68151000  0.85120000  0.93420000  1.0
  S  S114  1  0.03789000  0.48169000  0.23218000  1.0
  S  S115  1  0.81850000  0.64880000  0.93421000  1.0
  S  S116  1  0.48169000  0.46212000  0.73218000  1.0
  S  S117  1  0.64880000  0.68151000  0.43420000  1.0
  S  S118  1  0.01831000  0.03788000  0.73218000  1.0
  S  S119  1  0.85120000  0.81849000  0.43421000  1.0
  O  O120  1  0.29237000  0.08262000  0.83625000  1.0
  O  O121  1  0.41873000  0.20416000  0.83336000  1.0
  O  O122  1  0.20762000  0.41738000  0.83624000  1.0
  O  O123  1  0.08127000  0.29583000  0.83335000  1.0
  O  O124  1  0.41738000  0.29237000  0.33625000  1.0
  O  O125  1  0.29584000  0.41873000  0.33333333  1.0
  O  O126  1  0.08261000  0.20762000  0.33625000  1.0
  O  O127  1  0.20416000  0.08127000  0.33333333  1.0
  O  O128  1  0.70763000  0.91738000  0.16375000  1.0
  O  O129  1  0.58127000  0.79584000  0.16664000  1.0
  O  O130  1  0.79237000  0.58261000  0.16376000  1.0
  O  O131  1  0.91873000  0.70416000  0.16665000  1.0
  O  O132  1  0.58262000  0.70763000  0.66375000  1.0
  O  O133  1  0.70416000  0.58127000  0.66666667  1.0
  O  O134  1  0.91738000  0.79238000  0.66376000  1.0
  O  O135  1  0.79583000  0.91873000  0.66666667  1.0
