# generated using pymatgen
data_CdH16C24(NO2)2
_symmetry_space_group_name_H-M   'P 1'
_cell_length_a   14.30170000
_cell_length_b   18.36320000
_cell_length_c   19.57490000
_cell_angle_alpha   90.00010000
_cell_angle_beta   90.00000000
_cell_angle_gamma   90.00000000
_symmetry_Int_Tables_number   1
_chemical_formula_structural   CdH16C24(NO2)2
_chemical_formula_sum   'Cd8 H128 C192 N16 O32'
_cell_volume   5140.85767088
_cell_formula_units_Z   8
loop_
 _symmetry_equiv_pos_site_id
 _symmetry_equiv_pos_as_xyz
  1  'x, y, z'
loop_
 _atom_site_type_symbol
 _atom_site_label
 _atom_site_symmetry_multiplicity
 _atom_site_fract_x
 _atom_site_fract_y
 _atom_site_fract_z
 _atom_site_occupancy
  Cd  Cd0  1  0.97753000  0.08762000  0.94220000  1.0
  Cd  Cd1  1  0.02247000  0.41238000  0.44220000  1.0
  Cd  Cd2  1  0.52247000  0.58762000  0.05780000  1.0
  Cd  Cd3  1  0.47753000  0.91238000  0.55780000  1.0
  Cd  Cd4  1  0.02247000  0.91238000  0.05781000  1.0
  Cd  Cd5  1  0.97753000  0.58762000  0.55780000  1.0
  Cd  Cd6  1  0.47753000  0.41238000  0.94219000  1.0
  Cd  Cd7  1  0.52247000  0.08762000  0.44220000  1.0
  H  H8  1  0.51781000  0.22076000  0.14726000  1.0
  H  H9  1  0.48219000  0.27924000  0.64726000  1.0
  H  H10  1  0.98219000  0.72076000  0.85274000  1.0
  H  H11  1  0.01781000  0.77924000  0.35274000  1.0
  H  H12  1  0.48219000  0.77924000  0.85274000  1.0
  H  H13  1  0.51781000  0.72076000  0.35274000  1.0
  H  H14  1  0.01781000  0.27924000  0.14726000  1.0
  H  H15  1  0.98219000  0.22076000  0.64726000  1.0
  H  H16  1  0.77263000  0.12202000  0.03416000  1.0
  H  H17  1  0.22737000  0.37798000  0.53416000  1.0
  H  H18  1  0.72737000  0.62202000  0.96584000  1.0
  H  H19  1  0.27263000  0.87798000  0.46584000  1.0
  H  H20  1  0.22737000  0.87798000  0.96584000  1.0
  H  H21  1  0.77263000  0.62202000  0.46584000  1.0
  H  H22  1  0.27263000  0.37798000  0.03416000  1.0
  H  H23  1  0.72737000  0.12202000  0.53416000  1.0
  H  H24  1  0.71542000  0.89357000  0.86564000  1.0
  H  H25  1  0.28458000  0.60643000  0.36564000  1.0
  H  H26  1  0.78458000  0.39357000  0.13436000  1.0
  H  H27  1  0.21542000  0.10643000  0.63436000  1.0
  H  H28  1  0.28458000  0.10643000  0.13436000  1.0
  H  H29  1  0.71542000  0.39357000  0.63436000  1.0
  H  H30  1  0.21542000  0.60643000  0.86564000  1.0
  H  H31  1  0.78458000  0.89357000  0.36564000  1.0
  H  H32  1  0.56911000  0.77398000  0.69244000  1.0
  H  H33  1  0.43089000  0.72602000  0.19244000  1.0
  H  H34  1  0.93089000  0.27398000  0.30756000  1.0
  H  H35  1  0.06911000  0.22602000  0.80756000  1.0
  H  H36  1  0.43090000  0.22602000  0.30756000  1.0
  H  H37  1  0.56911000  0.27398000  0.80756000  1.0
  H  H38  1  0.06911000  0.72602000  0.69244000  1.0
  H  H39  1  0.93089000  0.77398000  0.19244000  1.0
  H  H40  1  0.80372000  0.99388000  0.21602000  1.0
  H  H41  1  0.19628000  0.50612000  0.71601000  1.0
  H  H42  1  0.69628000  0.49388000  0.78398000  1.0
  H  H43  1  0.30372000  0.00612000  0.28398000  1.0
  H  H44  1  0.19628000  0.00612000  0.78399000  1.0
  H  H45  1  0.80372000  0.49388000  0.28398000  1.0
  H  H46  1  0.30372000  0.50612000  0.21601000  1.0
  H  H47  1  0.69628000  0.99388000  0.71602000  1.0
  H  H48  1  0.67176000  0.33830000  0.95231000  1.0
  H  H49  1  0.32824000  0.16170000  0.45231000  1.0
  H  H50  1  0.82824000  0.83829000  0.04769000  1.0
  H  H51  1  0.17176000  0.66171000  0.54769000  1.0
  H  H52  1  0.32824000  0.66171000  0.04769000  1.0
  H  H53  1  0.67176000  0.83830000  0.54769000  1.0
  H  H54  1  0.17176000  0.16170000  0.95232000  1.0
  H  H55  1  0.82824000  0.33829000  0.45231000  1.0
  H  H56  1  0.79389000  0.98832000  0.93685000  1.0
  H  H57  1  0.20611000  0.51168000  0.43685000  1.0
  H  H58  1  0.70611000  0.48832000  0.06315000  1.0
  H  H59  1  0.29389000  0.01168000  0.56315000  1.0
  H  H60  1  0.20611000  0.01168000  0.06315000  1.0
  H  H61  1  0.79389000  0.48832000  0.56315000  1.0
  H  H62  1  0.29389000  0.51168000  0.93685000  1.0
  H  H63  1  0.70611000  0.98832000  0.43685000  1.0
  H  H64  1  0.91476000  0.79496000  0.70733000  1.0
  H  H65  1  0.08524000  0.70504000  0.20733000  1.0
  H  H66  1  0.58524000  0.29496000  0.29267000  1.0
  H  H67  1  0.41476000  0.20504000  0.79267000  1.0
  H  H68  1  0.08524000  0.20504000  0.29267000  1.0
  H  H69  1  0.91476000  0.29496000  0.79267000  1.0
  H  H70  1  0.41476000  0.70504000  0.70733000  1.0
  H  H71  1  0.58524000  0.79496000  0.20733000  1.0
  H  H72  1  0.67242000  0.69270000  0.62227000  1.0
  H  H73  1  0.32758000  0.80730000  0.12227000  1.0
  H  H74  1  0.82758000  0.19270000  0.37773000  1.0
  H  H75  1  0.17242000  0.30730000  0.87773000  1.0
  H  H76  1  0.32758000  0.30730000  0.37773000  1.0
  H  H77  1  0.67242000  0.19270000  0.87773000  1.0
  H  H78  1  0.17242000  0.80730000  0.62227000  1.0
  H  H79  1  0.82758000  0.69270000  0.12227000  1.0
  H  H80  1  0.69428000  0.07752000  0.27838000  1.0
  H  H81  1  0.30572000  0.42249000  0.77838000  1.0
  H  H82  1  0.80572000  0.57752000  0.72162000  1.0
  H  H83  1  0.19428000  0.92248000  0.22162000  1.0
  H  H84  1  0.30572000  0.92248000  0.72162000  1.0
  H  H85  1  0.69428000  0.57752000  0.22162000  1.0
  H  H86  1  0.19428000  0.42249000  0.27838000  1.0
  H  H87  1  0.80572000  0.07752000  0.77838000  1.0
  H  H88  1  0.75509000  0.23675000  0.01049000  1.0
  H  H89  1  0.24491000  0.26325000  0.51049000  1.0
  H  H90  1  0.74491000  0.73675000  0.98951000  1.0
  H  H91  1  0.25509000  0.76325000  0.48951000  1.0
  H  H92  1  0.24491000  0.76325000  0.98951000  1.0
  H  H93  1  0.75510000  0.73675000  0.48951000  1.0
  H  H94  1  0.25509000  0.26325000  0.01049000  1.0
  H  H95  1  0.74491000  0.23675000  0.51049000  1.0
  H  H96  1  0.94804000  0.90978000  0.72542000  1.0
  H  H97  1  0.05196000  0.59022000  0.22542000  1.0
  H  H98  1  0.55196000  0.40978000  0.27458000  1.0
  H  H99  1  0.44804000  0.09022000  0.77458000  1.0
  H  H100  1  0.05196000  0.09022000  0.27458000  1.0
  H  H101  1  0.94804000  0.40978000  0.77458000  1.0
  H  H102  1  0.44804000  0.59022000  0.72542000  1.0
  H  H103  1  0.55196000  0.90978000  0.22542000  1.0
  H  H104  1  0.63911000  0.86515000  0.76929000  1.0
  H  H105  1  0.36089000  0.63485000  0.26929000  1.0
  H  H106  1  0.86089000  0.36515000  0.23071000  1.0
  H  H107  1  0.13911000  0.13485000  0.73071000  1.0
  H  H108  1  0.36089000  0.13485000  0.23071000  1.0
  H  H109  1  0.63911000  0.36515000  0.73071000  1.0
  H  H110  1  0.13911000  0.63485000  0.76929000  1.0
  H  H111  1  0.86089000  0.86515000  0.26929000  1.0
  H  H112  1  0.61993000  0.17900000  0.21771000  1.0
  H  H113  1  0.38007000  0.32100000  0.71771000  1.0
  H  H114  1  0.88007000  0.67900000  0.78229000  1.0
  H  H115  1  0.11993000  0.82100000  0.28229000  1.0
  H  H116  1  0.38007000  0.82100000  0.78229000  1.0
  H  H117  1  0.61993000  0.67900000  0.28230000  1.0
  H  H118  1  0.11993000  0.32100000  0.21770000  1.0
  H  H119  1  0.88007000  0.17900000  0.71771000  1.0
  H  H120  1  0.01656000  0.00274000  0.80329000  1.0
  H  H121  1  0.98344000  0.49726000  0.30329000  1.0
  H  H122  1  0.48344000  0.50274000  0.19671000  1.0
  H  H123  1  0.51656000  0.99726000  0.69671000  1.0
  H  H124  1  0.98344000  0.99726000  0.19671000  1.0
  H  H125  1  0.01656000  0.50274000  0.69671000  1.0
  H  H126  1  0.51656000  0.49726000  0.80329000  1.0
  H  H127  1  0.48344000  0.00274000  0.30329000  1.0
  H  H128  1  0.44472000  0.32222000  0.08260000  1.0
  H  H129  1  0.55528000  0.17778000  0.58260000  1.0
  H  H130  1  0.05528000  0.82222000  0.91740000  1.0
  H  H131  1  0.94472000  0.67778000  0.41740000  1.0
  H  H132  1  0.55528000  0.67778000  0.91740000  1.0
  H  H133  1  0.44472000  0.82222000  0.41740000  1.0
  H  H134  1  0.94472000  0.17778000  0.08260000  1.0
  H  H135  1  0.05528000  0.32222000  0.58260000  1.0
  C  C136  1  0.55558000  0.24539000  0.10479000  1.0
  C  C137  1  0.44442000  0.25461000  0.60479000  1.0
  C  C138  1  0.94442000  0.74539000  0.89521000  1.0
  C  C139  1  0.05558000  0.75461000  0.39521000  1.0
  C  C140  1  0.44442000  0.75461000  0.89521000  1.0
  C  C141  1  0.55558000  0.74539000  0.39521000  1.0
  C  C142  1  0.05558000  0.25461000  0.10479000  1.0
  C  C143  1  0.94442000  0.24539000  0.60479000  1.0
  C  C144  1  0.79445000  0.05358000  0.12185000  1.0
  C  C145  1  0.20555000  0.44642000  0.62185000  1.0
  C  C146  1  0.70555000  0.55358000  0.87815000  1.0
  C  C147  1  0.29445000  0.94642000  0.37815000  1.0
  C  C148  1  0.20555000  0.94642000  0.87815000  1.0
  C  C149  1  0.79445000  0.55358000  0.37815000  1.0
  C  C150  1  0.29445000  0.44642000  0.12185000  1.0
  C  C151  1  0.70555000  0.05358000  0.62185000  1.0
  C  C152  1  0.75420000  0.11269000  0.08757000  1.0
  C  C153  1  0.24580000  0.38731000  0.58757000  1.0
  C  C154  1  0.74580000  0.61269000  0.91243000  1.0
  C  C155  1  0.25421000  0.88731000  0.41243000  1.0
  C  C156  1  0.24580000  0.88731000  0.91243000  1.0
  C  C157  1  0.75420000  0.61269000  0.41243000  1.0
  C  C158  1  0.25420000  0.38731000  0.08757000  1.0
  C  C159  1  0.74579000  0.11269000  0.58757000  1.0
  C  C160  1  0.68938000  0.15794000  0.12108000  1.0
  C  C161  1  0.31062000  0.34206000  0.62108000  1.0
  C  C162  1  0.81062000  0.65794000  0.87892000  1.0
  C  C163  1  0.18938000  0.84206000  0.37892000  1.0
  C  C164  1  0.31062000  0.84206000  0.87892000  1.0
  C  C165  1  0.68938000  0.65794000  0.37892000  1.0
  C  C166  1  0.18937000  0.34206000  0.12108000  1.0
  C  C167  1  0.81062000  0.15794000  0.62108000  1.0
  C  C168  1  0.64415000  0.21931000  0.08511000  1.0
  C  C169  1  0.35584000  0.28069000  0.58511000  1.0
  C  C170  1  0.85584000  0.71931000  0.91489000  1.0
  C  C171  1  0.14416000  0.78069000  0.41489000  1.0
  C  C172  1  0.35584000  0.78069000  0.91489000  1.0
  C  C173  1  0.64416000  0.71931000  0.41489000  1.0
  C  C174  1  0.14415000  0.28069000  0.08511000  1.0
  C  C175  1  0.85584000  0.21931000  0.58511000  1.0
  C  C176  1  0.78184000  0.91664000  0.84911000  1.0
  C  C177  1  0.21816000  0.58336000  0.34911000  1.0
  C  C178  1  0.71816000  0.41664000  0.15089000  1.0
  C  C179  1  0.28184000  0.08336000  0.65089000  1.0
  C  C180  1  0.21816000  0.08336000  0.15089000  1.0
  C  C181  1  0.78184000  0.41664000  0.65089000  1.0
  C  C182  1  0.28184000  0.58336000  0.84911000  1.0
  C  C183  1  0.71816000  0.91664000  0.34911000  1.0
  C  C184  1  0.78225000  0.83732000  0.74411000  1.0
  C  C185  1  0.21775000  0.66268000  0.24411000  1.0
  C  C186  1  0.71775000  0.33732000  0.25589000  1.0
  C  C187  1  0.28225000  0.16268000  0.75589000  1.0
  C  C188  1  0.21775000  0.16268000  0.25589000  1.0
  C  C189  1  0.78225000  0.33732000  0.75589000  1.0
  C  C190  1  0.28225000  0.66268000  0.74411000  1.0
  C  C191  1  0.71775000  0.83732000  0.24411000  1.0
  C  C192  1  0.64494000  0.77725000  0.69702000  1.0
  C  C193  1  0.35506000  0.72275000  0.19702000  1.0
  C  C194  1  0.85506000  0.27725000  0.30298000  1.0
  C  C195  1  0.14494000  0.22275000  0.80298000  1.0
  C  C196  1  0.35506000  0.22275000  0.30298000  1.0
  C  C197  1  0.64494000  0.27725000  0.80298000  1.0
  C  C198  1  0.14494000  0.72275000  0.69702000  1.0
  C  C199  1  0.85506000  0.77725000  0.19702000  1.0
  C  C200  1  0.86344000  0.00447000  0.08692000  1.0
  C  C201  1  0.13656000  0.49553000  0.58692000  1.0
  C  C202  1  0.63655000  0.50447000  0.91308000  1.0
  C  C203  1  0.36345000  0.99553000  0.41308000  1.0
  C  C204  1  0.13656000  0.99553000  0.91308000  1.0
  C  C205  1  0.86344000  0.50447000  0.41308000  1.0
  C  C206  1  0.36345000  0.49553000  0.08692000  1.0
  C  C207  1  0.63656000  0.00447000  0.58692000  1.0
  C  C208  1  0.77197000  0.04044000  0.19048000  1.0
  C  C209  1  0.22803000  0.45956000  0.69048000  1.0
  C  C210  1  0.72803000  0.54044000  0.80952000  1.0
  C  C211  1  0.27197000  0.95956000  0.30952000  1.0
  C  C212  1  0.22803000  0.95956000  0.80952000  1.0
  C  C213  1  0.77197000  0.54044000  0.30952000  1.0
  C  C214  1  0.27197000  0.45956000  0.19048000  1.0
  C  C215  1  0.72803000  0.04044000  0.69048000  1.0
  C  C216  1  0.82514000  0.89258000  0.78874000  1.0
  C  C217  1  0.17486000  0.60742000  0.28874000  1.0
  C  C218  1  0.67486000  0.39259000  0.21126000  1.0
  C  C219  1  0.32514000  0.10742000  0.71126000  1.0
  C  C220  1  0.17486000  0.10741000  0.21126000  1.0
  C  C221  1  0.82514000  0.39259000  0.71126000  1.0
  C  C222  1  0.32514000  0.60742000  0.78874000  1.0
  C  C223  1  0.67486000  0.89258000  0.28874000  1.0
  C  C224  1  0.64077000  0.31061000  0.99615000  1.0
  C  C225  1  0.35923000  0.18939000  0.49615000  1.0
  C  C226  1  0.85923000  0.81061000  0.00385000  1.0
  C  C227  1  0.14077000  0.68939000  0.50385000  1.0
  C  C228  1  0.35923000  0.68939000  0.00385000  1.0
  C  C229  1  0.64077000  0.81061000  0.50385000  1.0
  C  C230  1  0.14077000  0.18939000  0.99615000  1.0
  C  C231  1  0.85923000  0.31061000  0.49615000  1.0
  C  C232  1  0.82512000  0.96910000  0.88934000  1.0
  C  C233  1  0.17488000  0.53090000  0.38934000  1.0
  C  C234  1  0.67488000  0.46910000  0.11066000  1.0
  C  C235  1  0.32512000  0.03090000  0.61066000  1.0
  C  C236  1  0.17488000  0.03090000  0.11066000  1.0
  C  C237  1  0.82512000  0.46910000  0.61066000  1.0
  C  C238  1  0.32512000  0.53090000  0.88934000  1.0
  C  C239  1  0.67488000  0.96910000  0.38934000  1.0
  C  C240  1  0.83875000  0.79192000  0.70399000  1.0
  C  C241  1  0.16126000  0.70809000  0.20399000  1.0
  C  C242  1  0.66125000  0.29192000  0.29601000  1.0
  C  C243  1  0.33874000  0.20808000  0.79601000  1.0
  C  C244  1  0.16126000  0.20808000  0.29601000  1.0
  C  C245  1  0.83874000  0.29192000  0.79601000  1.0
  C  C246  1  0.33874000  0.70808000  0.70399000  1.0
  C  C247  1  0.66125000  0.79192000  0.20399000  1.0
  C  C248  1  0.86206000  0.68952000  0.62113000  1.0
  C  C249  1  0.13795000  0.81049000  0.12113000  1.0
  C  C250  1  0.63795000  0.18952000  0.37887000  1.0
  C  C251  1  0.36205000  0.31049000  0.87887000  1.0
  C  C252  1  0.13795000  0.31048000  0.37887000  1.0
  C  C253  1  0.86205000  0.18952000  0.87887000  1.0
  C  C254  1  0.36205000  0.81048000  0.62113000  1.0
  C  C255  1  0.63795000  0.68952000  0.12113000  1.0
  C  C256  1  0.70214000  0.73302000  0.65689000  1.0
  C  C257  1  0.29786000  0.76698000  0.15689000  1.0
  C  C258  1  0.79786000  0.23302000  0.34312000  1.0
  C  C259  1  0.20214000  0.26698000  0.84311000  1.0
  C  C260  1  0.29786000  0.26698000  0.34312000  1.0
  C  C261  1  0.70214000  0.23302000  0.84311000  1.0
  C  C262  1  0.20214000  0.76698000  0.65689000  1.0
  C  C263  1  0.79786000  0.73302000  0.15688000  1.0
  C  C264  1  0.79952000  0.73988000  0.66057000  1.0
  C  C265  1  0.20049000  0.76012000  0.16057000  1.0
  C  C266  1  0.70048000  0.23988000  0.33943000  1.0
  C  C267  1  0.29951000  0.26012000  0.83943000  1.0
  C  C268  1  0.20048000  0.26012000  0.33943000  1.0
  C  C269  1  0.79952000  0.23988000  0.83943000  1.0
  C  C270  1  0.29952000  0.76012000  0.66057000  1.0
  C  C271  1  0.70048000  0.73988000  0.16057000  1.0
  C  C272  1  0.71009000  0.08626000  0.22459000  1.0
  C  C273  1  0.28992000  0.41374000  0.72459000  1.0
  C  C274  1  0.78991000  0.58626000  0.77541000  1.0
  C  C275  1  0.21009000  0.91374000  0.27541000  1.0
  C  C276  1  0.28991000  0.91374000  0.77541000  1.0
  C  C277  1  0.71009000  0.58626000  0.27541000  1.0
  C  C278  1  0.21008000  0.41374000  0.22459000  1.0
  C  C279  1  0.78991000  0.08626000  0.72459000  1.0
  C  C280  1  0.68697000  0.25426000  0.02937000  1.0
  C  C281  1  0.31303000  0.24574000  0.52937000  1.0
  C  C282  1  0.81303000  0.75426000  0.97063000  1.0
  C  C283  1  0.18697000  0.74575000  0.47063000  1.0
  C  C284  1  0.31303000  0.74574000  0.97063000  1.0
  C  C285  1  0.68698000  0.75426000  0.47064000  1.0
  C  C286  1  0.18697000  0.24574000  0.02937000  1.0
  C  C287  1  0.81303000  0.25426000  0.52937000  1.0
  C  C288  1  0.91164000  0.92436000  0.77233000  1.0
  C  C289  1  0.08836000  0.57564000  0.27233000  1.0
  C  C290  1  0.58836000  0.42436000  0.22767000  1.0
  C  C291  1  0.41164000  0.07564000  0.72767000  1.0
  C  C292  1  0.08836000  0.07565000  0.22767000  1.0
  C  C293  1  0.91164000  0.42436000  0.72767000  1.0
  C  C294  1  0.41164000  0.57564000  0.77233000  1.0
  C  C295  1  0.58836000  0.92436000  0.27233000  1.0
  C  C296  1  0.68468000  0.82897000  0.74024000  1.0
  C  C297  1  0.31532000  0.67103000  0.24024000  1.0
  C  C298  1  0.81532000  0.32897000  0.25976000  1.0
  C  C299  1  0.18468000  0.17103000  0.75976000  1.0
  C  C300  1  0.31532000  0.17103000  0.25976000  1.0
  C  C301  1  0.68468000  0.32897000  0.75976000  1.0
  C  C302  1  0.18468000  0.67103000  0.74024000  1.0
  C  C303  1  0.81532000  0.82897000  0.24024000  1.0
  C  C304  1  0.66801000  0.14383000  0.18996000  1.0
  C  C305  1  0.33199000  0.35617000  0.68996000  1.0
  C  C306  1  0.83198000  0.64383000  0.81004000  1.0
  C  C307  1  0.16801000  0.85617000  0.31004000  1.0
  C  C308  1  0.33199000  0.85617000  0.81004000  1.0
  C  C309  1  0.66802000  0.64383000  0.31004000  1.0
  C  C310  1  0.16801000  0.35617000  0.18996000  1.0
  C  C311  1  0.83198000  0.14383000  0.68996000  1.0
  C  C312  1  0.95009000  0.97657000  0.81508000  1.0
  C  C313  1  0.04991000  0.52343000  0.31508000  1.0
  C  C314  1  0.54991000  0.47657000  0.18492000  1.0
  C  C315  1  0.45009000  0.02343000  0.68492000  1.0
  C  C316  1  0.04991000  0.02343000  0.18492000  1.0
  C  C317  1  0.95009000  0.47657000  0.68492000  1.0
  C  C318  1  0.45009000  0.52343000  0.81508000  1.0
  C  C319  1  0.54991000  0.97657000  0.31508000  1.0
  C  C320  1  0.51393000  0.30190000  0.06878000  1.0
  C  C321  1  0.48607000  0.19810000  0.56878000  1.0
  C  C322  1  0.98607000  0.80190000  0.93122000  1.0
  C  C323  1  0.01393000  0.69810000  0.43122000  1.0
  C  C324  1  0.48607000  0.69810000  0.93122000  1.0
  C  C325  1  0.51393000  0.80190000  0.43122000  1.0
  C  C326  1  0.01393000  0.19810000  0.06878000  1.0
  C  C327  1  0.98607000  0.30190000  0.56878000  1.0
  N  N328  1  0.55529000  0.33406000  0.01488000  1.0
  N  N329  1  0.44471000  0.16594000  0.51488000  1.0
  N  N330  1  0.94471000  0.83406000  0.98512000  1.0
  N  N331  1  0.05529000  0.66594000  0.48512000  1.0
  N  N332  1  0.44471000  0.66594000  0.98512000  1.0
  N  N333  1  0.55529000  0.83406000  0.48512000  1.0
  N  N334  1  0.05529000  0.16594000  0.01488000  1.0
  N  N335  1  0.94471000  0.33406000  0.51488000  1.0
  N  N336  1  0.90815000  0.99867000  0.87301000  1.0
  N  N337  1  0.09185000  0.50133000  0.37301000  1.0
  N  N338  1  0.59185000  0.49867000  0.12699000  1.0
  N  N339  1  0.40815000  0.00133000  0.62699000  1.0
  N  N340  1  0.09185000  0.00133000  0.12699000  1.0
  N  N341  1  0.90815000  0.49867000  0.62699000  1.0
  N  N342  1  0.40815000  0.50133000  0.87301000  1.0
  N  N343  1  0.59185000  0.99867000  0.37301000  1.0
  O  O344  1  0.88281000  0.94404000  0.11576000  1.0
  O  O345  1  0.11719000  0.55596000  0.61575000  1.0
  O  O346  1  0.61720000  0.44404000  0.88424000  1.0
  O  O347  1  0.38281000  0.05597000  0.38425000  1.0
  O  O348  1  0.11719000  0.05596000  0.88425000  1.0
  O  O349  1  0.88280000  0.44403000  0.38424000  1.0
  O  O350  1  0.38281000  0.55596000  0.11575000  1.0
  O  O351  1  0.61720000  0.94403000  0.61575000  1.0
  O  O352  1  0.90195000  0.02494000  0.03150000  1.0
  O  O353  1  0.09805000  0.47506000  0.53150000  1.0
  O  O354  1  0.59805000  0.52494000  0.96850000  1.0
  O  O355  1  0.40196000  0.97506000  0.46850000  1.0
  O  O356  1  0.09805000  0.97506000  0.96850000  1.0
  O  O357  1  0.90196000  0.52494000  0.46849000  1.0
  O  O358  1  0.40195000  0.47506000  0.03150000  1.0
  O  O359  1  0.59805000  0.02494000  0.53150000  1.0
  O  O360  1  0.82991000  0.65755000  0.56827000  1.0
  O  O361  1  0.17009000  0.84245000  0.06827000  1.0
  O  O362  1  0.67009000  0.15755000  0.43173000  1.0
  O  O363  1  0.32991000  0.34245000  0.93173000  1.0
  O  O364  1  0.17009000  0.34245000  0.43173000  1.0
  O  O365  1  0.82991000  0.15755000  0.93173000  1.0
  O  O366  1  0.32991000  0.84245000  0.56827000  1.0
  O  O367  1  0.67009000  0.65755000  0.06827000  1.0
  O  O368  1  0.94494000  0.67955000  0.64344000  1.0
  O  O369  1  0.05506000  0.82045000  0.14344000  1.0
  O  O370  1  0.55506000  0.17955000  0.35656000  1.0
  O  O371  1  0.44494000  0.32045000  0.85656000  1.0
  O  O372  1  0.05506000  0.32045000  0.35657000  1.0
  O  O373  1  0.94494000  0.17955000  0.85656000  1.0
  O  O374  1  0.44494000  0.82045000  0.64344000  1.0
  O  O375  1  0.55506000  0.67955000  0.14344000  1.0
