# generated using pymatgen
data_HgH8C10S2(NCl)2
_symmetry_space_group_name_H-M   'P 1'
_cell_length_a   8.03070000
_cell_length_b   8.03074000
_cell_length_c   11.29780000
_cell_angle_alpha   87.57200000
_cell_angle_beta   87.57230000
_cell_angle_gamma   73.59990000
_symmetry_Int_Tables_number   1
_chemical_formula_structural   HgH8C10S2(NCl)2
_chemical_formula_sum   'Hg2 H16 C20 S4 N4 Cl4'
_cell_volume   697.99900764
_cell_formula_units_Z   2
loop_
 _symmetry_equiv_pos_site_id
 _symmetry_equiv_pos_as_xyz
  1  'x, y, z'
loop_
 _atom_site_type_symbol
 _atom_site_label
 _atom_site_symmetry_multiplicity
 _atom_site_fract_x
 _atom_site_fract_y
 _atom_site_fract_z
 _atom_site_occupancy
  Hg  Hg0  1  0.99609000  0.00391000  0.75000000  1.0
  Hg  Hg1  1  0.00391000  0.99609000  0.25000000  1.0
  H  H2  1  0.99407000  0.26109000  0.51549000  1.0
  H  H3  1  0.73892000  0.00593000  0.98451000  1.0
  H  H4  1  0.00593000  0.73891000  0.48451000  1.0
  H  H5  1  0.26109000  0.99407000  0.01549000  1.0
  H  H6  1  0.80755000  0.42228000  0.35239000  1.0
  H  H7  1  0.57773000  0.19245000  0.14761000  1.0
  H  H8  1  0.19245000  0.57772000  0.64761000  1.0
  H  H9  1  0.42228000  0.80755000  0.85239000  1.0
  H  H10  1  0.40063000  0.20750000  0.49816000  1.0
  H  H11  1  0.79251000  0.59938000  0.00184000  1.0
  H  H12  1  0.59937000  0.79250000  0.50184000  1.0
  H  H13  1  0.20750000  0.40062000  0.99816000  1.0
  H  H14  1  0.60625000  0.05282000  0.65141000  1.0
  H  H15  1  0.94718000  0.39375000  0.84859000  1.0
  H  H16  1  0.39375000  0.94718000  0.34859000  1.0
  H  H17  1  0.05282000  0.60625000  0.15141000  1.0
  C  C18  1  0.86176000  0.25234000  0.50736000  1.0
  C  C19  1  0.74766000  0.13824000  0.99265000  1.0
  C  C20  1  0.13824000  0.74766000  0.49264000  1.0
  C  C21  1  0.25234000  0.86175000  0.00735000  1.0
  C  C22  1  0.75733000  0.34259000  0.41707000  1.0
  C  C23  1  0.65741000  0.24267000  0.08294000  1.0
  C  C24  1  0.24267000  0.65741000  0.58294000  1.0
  C  C25  1  0.34259000  0.75732000  0.91706000  1.0
  C  C26  1  0.58846000  0.32755000  0.41182000  1.0
  C  C27  1  0.67246000  0.41154000  0.08818000  1.0
  C  C28  1  0.41153000  0.67246000  0.58818000  1.0
  C  C29  1  0.32754000  0.58846000  0.91182000  1.0
  C  C30  1  0.53135000  0.22259000  0.49743000  1.0
  C  C31  1  0.77742000  0.46866000  0.00257000  1.0
  C  C32  1  0.46865000  0.77741000  0.50257000  1.0
  C  C33  1  0.22259000  0.53134000  0.99743000  1.0
  C  C34  1  0.64555000  0.13639000  0.58359000  1.0
  C  C35  1  0.86361000  0.35445000  0.91641000  1.0
  C  C36  1  0.35445000  0.86361000  0.41641000  1.0
  C  C37  1  0.13639000  0.64555000  0.08359000  1.0
  S  S38  1  0.43692000  0.43288000  0.30469000  1.0
  S  S39  1  0.56712000  0.56309000  0.19531000  1.0
  S  S40  1  0.56308000  0.56712000  0.69531000  1.0
  S  S41  1  0.43288000  0.43691000  0.80469000  1.0
  N  N42  1  0.80792000  0.15056000  0.58870000  1.0
  N  N43  1  0.84944000  0.19208000  0.91130000  1.0
  N  N44  1  0.19208000  0.84944000  0.41130000  1.0
  N  N45  1  0.15056000  0.80792000  0.08870000  1.0
  Cl  Cl46  1  0.86425000  0.77226000  0.78888000  1.0
  Cl  Cl47  1  0.22774000  0.13575000  0.71112000  1.0
  Cl  Cl48  1  0.13575000  0.22773000  0.21112000  1.0
  Cl  Cl49  1  0.77226000  0.86425000  0.28888000  1.0
