# generated using pymatgen
data_ZnH8C10(N2O3)2
_symmetry_space_group_name_H-M   'P 1'
_cell_length_a   6.60763000
_cell_length_b   9.74497000
_cell_length_c   10.43930000
_cell_angle_alpha   76.44400000
_cell_angle_beta   89.99960000
_cell_angle_gamma   89.99900000
_symmetry_Int_Tables_number   1
_chemical_formula_structural   ZnH8C10(N2O3)2
_chemical_formula_sum   'Zn2 H16 C20 N8 O12'
_cell_volume   653.47201033
_cell_formula_units_Z   2
loop_
 _symmetry_equiv_pos_site_id
 _symmetry_equiv_pos_as_xyz
  1  'x, y, z'
loop_
 _atom_site_type_symbol
 _atom_site_label
 _atom_site_symmetry_multiplicity
 _atom_site_fract_x
 _atom_site_fract_y
 _atom_site_fract_z
 _atom_site_occupancy
  Zn  Zn0  1  0.00000000  0.50000000  0.00000000  1.0
  Zn  Zn1  1  0.50000000  0.50000000  0.50000000  1.0
  H  H2  1  0.11387000  0.31774000  0.86517000  1.0
  H  H3  1  0.61386000  0.68226000  0.63483000  1.0
  H  H4  1  0.88613000  0.68226000  0.13483000  1.0
  H  H5  1  0.38613000  0.31775000  0.36517000  1.0
  H  H6  1  0.31746000  0.36161000  0.91973000  1.0
  H  H7  1  0.81745000  0.63839000  0.58027000  1.0
  H  H8  1  0.68254000  0.63839000  0.08027000  1.0
  H  H9  1  0.18254000  0.36162000  0.41973000  1.0
  H  H10  1  0.32460000  0.62422000  0.08636000  1.0
  H  H11  1  0.82459000  0.37579000  0.41363000  1.0
  H  H12  1  0.67540000  0.37578000  0.91363000  1.0
  H  H13  1  0.17539000  0.62422000  0.58637000  1.0
  H  H14  1  0.26457000  0.49409000  0.20798000  1.0
  H  H15  1  0.76457000  0.50591000  0.29201000  1.0
  H  H16  1  0.73542000  0.50591000  0.79202000  1.0
  H  H17  1  0.23542000  0.49409000  0.70798000  1.0
  C  C18  1  0.99410000  0.10772000  0.49435000  1.0
  C  C19  1  0.49411000  0.89228000  0.00565000  1.0
  C  C20  1  0.00591000  0.89228000  0.50565000  1.0
  C  C21  1  0.50592000  0.10772000  0.99435000  1.0
  C  C22  1  0.00634000  0.98041000  0.60218000  1.0
  C  C23  1  0.50635000  0.01959000  0.89783000  1.0
  C  C24  1  0.99367000  0.01959000  0.39783000  1.0
  C  C25  1  0.49368000  0.98040000  0.10217000  1.0
  C  C26  1  0.01482000  0.95378000  0.73951000  1.0
  C  C27  1  0.51483000  0.04622000  0.76049000  1.0
  C  C28  1  0.98518000  0.04622000  0.26049000  1.0
  C  C29  1  0.48518000  0.95378000  0.23952000  1.0
  C  C30  1  0.02833000  0.81452000  0.81480000  1.0
  C  C31  1  0.52833000  0.18549000  0.68520000  1.0
  C  C32  1  0.97167000  0.18548000  0.18520000  1.0
  C  C33  1  0.47166000  0.81452000  0.31480000  1.0
  C  C34  1  0.01123000  0.06520000  0.80430000  1.0
  C  C35  1  0.51123000  0.93480000  0.69570000  1.0
  C  C36  1  0.98877000  0.93480000  0.19570000  1.0
  C  C37  1  0.48877000  0.06520000  0.30429000  1.0
  N  N38  1  0.04053000  0.69772000  0.87494000  1.0
  N  N39  1  0.54053000  0.30228000  0.62506000  1.0
  N  N40  1  0.95945000  0.30229000  0.12506000  1.0
  N  N41  1  0.45946000  0.69772000  0.37494000  1.0
  N  N42  1  0.00675000  0.15994000  0.85538000  1.0
  N  N43  1  0.50675000  0.84006000  0.64463000  1.0
  N  N44  1  0.99324000  0.84006000  0.14463000  1.0
  N  N45  1  0.49324000  0.15995000  0.35537000  1.0
  O  O46  1  0.98828000  0.23709000  0.48936000  1.0
  O  O47  1  0.48829000  0.76291000  0.01064000  1.0
  O  O48  1  0.01172000  0.76291000  0.51065000  1.0
  O  O49  1  0.51173000  0.23708000  0.98936000  1.0
  O  O50  1  0.19254000  0.40320000  0.87387000  1.0
  O  O51  1  0.69253000  0.59680000  0.62613000  1.0
  O  O52  1  0.80746000  0.59680000  0.12613000  1.0
  O  O53  1  0.30746000  0.40321000  0.37386000  1.0
  O  O54  1  0.25107000  0.53356000  0.11162000  1.0
  O  O55  1  0.75107000  0.46644000  0.38837000  1.0
  O  O56  1  0.74892000  0.46644000  0.88838000  1.0
  O  O57  1  0.24892000  0.53356000  0.61162000  1.0
