# generated using pymatgen
data_Cu3H42C38N2O15
_symmetry_space_group_name_H-M   'P 1'
_cell_length_a   8.82522000
_cell_length_b   8.82410000
_cell_length_c   31.47484556
_cell_angle_alpha   82.59387809
_cell_angle_beta   82.58761437
_cell_angle_gamma   79.12600000
_symmetry_Int_Tables_number   1
_chemical_formula_structural   Cu3H42C38N2O15
_chemical_formula_sum   'Cu6 H84 C76 N4 O30'
_cell_volume   2373.16622762
_cell_formula_units_Z   2
loop_
 _symmetry_equiv_pos_site_id
 _symmetry_equiv_pos_as_xyz
  1  'x, y, z'
loop_
 _atom_site_type_symbol
 _atom_site_label
 _atom_site_symmetry_multiplicity
 _atom_site_fract_x
 _atom_site_fract_y
 _atom_site_fract_z
 _atom_site_occupancy
  Cu  Cu0  1  0.33110000  0.67048000  0.75015000  1.0
  Cu  Cu1  1  0.66887000  0.32947000  0.24985000  1.0
  Cu  Cu2  1  0.63828000  0.65829000  0.78207000  1.0
  Cu  Cu3  1  0.34084000  0.36102000  0.71761000  1.0
  Cu  Cu4  1  0.36171000  0.34167000  0.21794000  1.0
  Cu  Cu5  1  0.65918000  0.63894000  0.28238000  1.0
  H  H6  1  0.13226000  0.90786000  0.12447000  1.0
  H  H7  1  0.09214000  0.86709000  0.37575000  1.0
  H  H8  1  0.86769000  0.09217000  0.87554000  1.0
  H  H9  1  0.90789000  0.13293000  0.62425000  1.0
  H  H10  1  0.02938000  0.96743000  0.05234000  1.0
  H  H11  1  0.03228000  0.97038000  0.44782000  1.0
  H  H12  1  0.97056000  0.03258000  0.94767000  1.0
  H  H13  1  0.96773000  0.02964000  0.55218000  1.0
  H  H14  1  0.11232000  0.48144000  0.03700000  1.0
  H  H15  1  0.51815000  0.88893000  0.46307000  1.0
  H  H16  1  0.88768000  0.51858000  0.96300000  1.0
  H  H17  1  0.48186000  0.11108000  0.53694000  1.0
  H  H18  1  0.20428000  0.42050000  0.11090000  1.0
  H  H19  1  0.57944000  0.79646000  0.38923000  1.0
  H  H20  1  0.79573000  0.57951000  0.88909000  1.0
  H  H21  1  0.42059000  0.20356000  0.61077000  1.0
  H  H22  1  0.88756000  0.79269000  0.93141000  1.0
  H  H23  1  0.20752000  0.11291000  0.56876000  1.0
  H  H24  1  0.11243000  0.20733000  0.06859000  1.0
  H  H25  1  0.79249000  0.88708000  0.43125000  1.0
  H  H26  1  0.03440000  0.76415000  0.85882000  1.0
  H  H27  1  0.23674000  0.96548000  0.64125000  1.0
  H  H28  1  0.96559000  0.23585000  0.14118000  1.0
  H  H29  1  0.76328000  0.03448000  0.35875000  1.0
  H  H30  1  0.46395000  0.66090000  0.91604000  1.0
  H  H31  1  0.33911000  0.53649000  0.58376000  1.0
  H  H32  1  0.53605000  0.33909000  0.08395000  1.0
  H  H33  1  0.66089000  0.46349000  0.41624000  1.0
  H  H34  1  0.31787000  0.68966000  0.98896000  1.0
  H  H35  1  0.30995000  0.68313000  0.51094000  1.0
  H  H36  1  0.68214000  0.31035000  0.01103000  1.0
  H  H37  1  0.69005000  0.31686000  0.48906000  1.0
  H  H38  1  0.51542000  0.89054000  0.67911000  1.0
  H  H39  1  0.10849000  0.48657000  0.82024000  1.0
  H  H40  1  0.48456000  0.10946000  0.32089000  1.0
  H  H41  1  0.89149000  0.51342000  0.17976000  1.0
  H  H42  1  0.60106000  0.68987000  0.68578000  1.0
  H  H43  1  0.30876000  0.39903000  0.81486000  1.0
  H  H44  1  0.39896000  0.31014000  0.31422000  1.0
  H  H45  1  0.69123000  0.60094000  0.18514000  1.0
  H  H46  1  0.81083000  0.85263000  0.67505000  1.0
  H  H47  1  0.14486000  0.19052000  0.82448000  1.0
  H  H48  1  0.18915000  0.14738000  0.32496000  1.0
  H  H49  1  0.85511000  0.80947000  0.17551000  1.0
  H  H50  1  0.71118000  0.96026000  0.71751000  1.0
  H  H51  1  0.03933000  0.29160000  0.78181000  1.0
  H  H52  1  0.28881000  0.03973000  0.28249000  1.0
  H  H53  1  0.96067000  0.70838000  0.21819000  1.0
  H  H54  1  0.01781000  0.82111000  0.73815000  1.0
  H  H55  1  0.17858000  0.98287000  0.76216000  1.0
  H  H56  1  0.98219000  0.17888000  0.26185000  1.0
  H  H57  1  0.82141000  0.01711000  0.23784000  1.0
  H  H58  1  0.96742000  0.69769000  0.78462000  1.0
  H  H59  1  0.30183000  0.03205000  0.71554000  1.0
  H  H60  1  0.03257000  0.30231000  0.21539000  1.0
  H  H61  1  0.69816000  0.96795000  0.28446000  1.0
  H  H62  1  0.94643000  0.97002000  0.79755000  1.0
  H  H63  1  0.02987000  0.05235000  0.70259000  1.0
  H  H64  1  0.05356000  0.02996000  0.20246000  1.0
  H  H65  1  0.97014000  0.94765000  0.29740000  1.0
  H  H66  1  0.79996000  0.03277000  0.76247000  1.0
  H  H67  1  0.96645000  0.19917000  0.73758000  1.0
  H  H68  1  0.20004000  0.96724000  0.23753000  1.0
  H  H69  1  0.03354000  0.80081000  0.26242000  1.0
  H  H70  1  0.81922000  0.54593000  0.70088000  1.0
  H  H71  1  0.45382000  0.18349000  0.79862000  1.0
  H  H72  1  0.18080000  0.45409000  0.29911000  1.0
  H  H73  1  0.54617000  0.81651000  0.20138000  1.0
  H  H74  1  0.95021000  0.50705000  0.74140000  1.0
  H  H75  1  0.49202000  0.05017000  0.75868000  1.0
  H  H76  1  0.04981000  0.49296000  0.25859000  1.0
  H  H77  1  0.50797000  0.94982000  0.24132000  1.0
  H  H78  1  0.99284000  0.62902000  0.69354000  1.0
  H  H79  1  0.36997000  0.01021000  0.80675000  1.0
  H  H80  1  0.00716000  0.37101000  0.30646000  1.0
  H  H81  1  0.63001000  0.98978000  0.19325000  1.0
  H  H82  1  0.63340000  0.38299000  0.72406000  1.0
  H  H83  1  0.61860000  0.36732000  0.77564000  1.0
  H  H84  1  0.36661000  0.61705000  0.27594000  1.0
  H  H85  1  0.38142000  0.63268000  0.22436000  1.0
  H  H86  1  0.68453000  0.99556000  0.82952000  1.0
  H  H87  1  0.00323000  0.31438000  0.67051000  1.0
  H  H88  1  0.31546000  0.00443000  0.17049000  1.0
  H  H89  1  0.99676000  0.68561000  0.32949000  1.0
  C  C90  1  0.23506000  0.62010000  0.16512000  1.0
  C  C91  1  0.37993000  0.76479000  0.33509000  1.0
  C  C92  1  0.76494000  0.37988000  0.83489000  1.0
  C  C93  1  0.62009000  0.23524000  0.66490000  1.0
  C  C94  1  0.17517000  0.66010000  0.12187000  1.0
  C  C95  1  0.33982000  0.82489000  0.37830000  1.0
  C  C96  1  0.82486000  0.33990000  0.87813000  1.0
  C  C97  1  0.66021000  0.17511000  0.62169000  1.0
  C  C98  1  0.12694000  0.81447000  0.10544000  1.0
  C  C99  1  0.18544000  0.87290000  0.39474000  1.0
  C  C100  1  0.87305000  0.18554000  0.89457000  1.0
  C  C101  1  0.81459000  0.12711000  0.60525000  1.0
  C  C102  1  0.07085000  0.84866000  0.06527000  1.0
  C  C103  1  0.15109000  0.92928000  0.43487000  1.0
  C  C104  1  0.92913000  0.15136000  0.93473000  1.0
  C  C105  1  0.84892000  0.07073000  0.56513000  1.0
  C  C106  1  0.06760000  0.72780000  0.04117000  1.0
  C  C107  1  0.27192000  0.93321000  0.45889000  1.0
  C  C108  1  0.93238000  0.27222000  0.95883000  1.0
  C  C109  1  0.72810000  0.06679000  0.54111000  1.0
  C  C110  1  0.11712000  0.57328000  0.05657000  1.0
  C  C111  1  0.42645000  0.88380000  0.44350000  1.0
  C  C112  1  0.88286000  0.42673000  0.94343000  1.0
  C  C113  1  0.57357000  0.11623000  0.55650000  1.0
  C  C114  1  0.16846000  0.54002000  0.09731000  1.0
  C  C115  1  0.45987000  0.83214000  0.40281000  1.0
  C  C116  1  0.83155000  0.46000000  0.90269000  1.0
  C  C117  1  0.54015000  0.16787000  0.59719000  1.0
  C  C118  1  0.09409000  0.74204000  0.96412000  1.0
  C  C119  1  0.25784000  0.90665000  0.53592000  1.0
  C  C120  1  0.90591000  0.25798000  0.03588000  1.0
  C  C121  1  0.74215000  0.09334000  0.46409000  1.0
  C  C122  1  0.01389000  0.76386000  0.92756000  1.0
  C  C123  1  0.23648000  0.98659000  0.57252000  1.0
  C  C124  1  0.98611000  0.23614000  0.07244000  1.0
  C  C125  1  0.76355000  0.01339000  0.42748000  1.0
  C  C126  1  0.09597000  0.74877000  0.88732000  1.0
  C  C127  1  0.25201000  0.90420000  0.61270000  1.0
  C  C128  1  0.90401000  0.25124000  0.11268000  1.0
  C  C129  1  0.74801000  0.09579000  0.38730000  1.0
  C  C130  1  0.25877000  0.71163000  0.88290000  1.0
  C  C131  1  0.28888000  0.74138000  0.61704000  1.0
  C  C132  1  0.74122000  0.28838000  0.11710000  1.0
  C  C133  1  0.71113000  0.25861000  0.38295000  1.0
  C  C134  1  0.33762000  0.69000000  0.91973000  1.0
  C  C135  1  0.31021000  0.66284000  0.58017000  1.0
  C  C136  1  0.66236000  0.31001000  0.08028000  1.0
  C  C137  1  0.68979000  0.33715000  0.41982000  1.0
  C  C138  1  0.25645000  0.70526000  0.96041000  1.0
  C  C139  1  0.29470000  0.74430000  0.53954000  1.0
  C  C140  1  0.74354000  0.29473000  0.03959000  1.0
  C  C141  1  0.70530000  0.25570000  0.46046000  1.0
  C  C142  1  0.34332000  0.69484000  0.83928000  1.0
  C  C143  1  0.30531000  0.65645000  0.66063000  1.0
  C  C144  1  0.65665000  0.30515000  0.16072000  1.0
  C  C145  1  0.69471000  0.34352000  0.33936000  1.0
  C  C146  1  0.58194000  0.80020000  0.70035000  1.0
  C  C147  1  0.19989000  0.41899000  0.79954000  1.0
  C  C148  1  0.41807000  0.19980000  0.29965000  1.0
  C  C149  1  0.80010000  0.58101000  0.20046000  1.0
  C  C150  1  0.73492000  0.84578000  0.70572000  1.0
  C  C151  1  0.15324000  0.26685000  0.79392000  1.0
  C  C152  1  0.26507000  0.15422000  0.29428000  1.0
  C  C153  1  0.84675000  0.73313000  0.20608000  1.0
  C  C154  1  0.91975000  0.79261000  0.76139000  1.0
  C  C155  1  0.20689000  0.08036000  0.73867000  1.0
  C  C156  1  0.08024000  0.20740000  0.23862000  1.0
  C  C157  1  0.79310000  0.91963000  0.26133000  1.0
  C  C158  1  0.84981000  0.93406000  0.78457000  1.0
  C  C159  1  0.06528000  0.14946000  0.71549000  1.0
  C  C160  1  0.15018000  0.06595000  0.21544000  1.0
  C  C161  1  0.93472000  0.85054000  0.28450000  1.0
  C  C162  1  0.89872000  0.59438000  0.71713000  1.0
  C  C163  1  0.40498000  0.10318000  0.78278000  1.0
  C  C164  1  0.10130000  0.40563000  0.28286000  1.0
  C  C165  1  0.59500000  0.89681000  0.21723000  1.0
  N  N166  1  0.81273000  0.73009000  0.73823000  1.0
  N  N167  1  0.26933000  0.18842000  0.76150000  1.0
  N  N168  1  0.18730000  0.26992000  0.26176000  1.0
  N  N169  1  0.73067000  0.81157000  0.23850000  1.0
  O  O170  1  0.21331000  0.48608000  0.18400000  1.0
  O  O171  1  0.51374000  0.78699000  0.31616000  1.0
  O  O172  1  0.78667000  0.51389000  0.81599000  1.0
  O  O173  1  0.48630000  0.21302000  0.68386000  1.0
  O  O174  1  0.29921000  0.71600000  0.17988000  1.0
  O  O175  1  0.28436000  0.70013000  0.32037000  1.0
  O  O176  1  0.70080000  0.28405000  0.82011000  1.0
  O  O177  1  0.71564000  0.29990000  0.67962000  1.0
  O  O178  1  0.57236000  0.42950000  0.74990000  1.0
  O  O179  1  0.42766000  0.57051000  0.25010000  1.0
  O  O180  1  0.00231000  0.76495000  0.00228000  1.0
  O  O181  1  0.23467000  0.99856000  0.49778000  1.0
  O  O182  1  0.99770000  0.23508000  0.99771000  1.0
  O  O183  1  0.76535000  0.00144000  0.50222000  1.0
  O  O184  1  0.48918000  0.64731000  0.83565000  1.0
  O  O185  1  0.35076000  0.51015000  0.66417000  1.0
  O  O186  1  0.51079000  0.35270000  0.16433000  1.0
  O  O187  1  0.64925000  0.48983000  0.33584000  1.0
  O  O188  1  0.25966000  0.72932000  0.80784000  1.0
  O  O189  1  0.27256000  0.73993000  0.69212000  1.0
  O  O190  1  0.74037000  0.27064000  0.19216000  1.0
  O  O191  1  0.72746000  0.26000000  0.30788000  1.0
  O  O192  1  0.49953000  0.78689000  0.74242000  1.0
  O  O193  1  0.21724000  0.50065000  0.75742000  1.0
  O  O194  1  0.50049000  0.21311000  0.25757000  1.0
  O  O195  1  0.78276000  0.49935000  0.24258000  1.0
  O  O196  1  0.73467000  0.89728000  0.81878000  1.0
  O  O197  1  0.10162000  0.26451000  0.68122000  1.0
  O  O198  1  0.26531000  0.10272000  0.18122000  1.0
  O  O199  1  0.89836000  0.73550000  0.31879000  1.0
