# generated using pymatgen
data_AgH21C24(NO)4
_symmetry_space_group_name_H-M   'P 1'
_cell_length_a   11.36660000
_cell_length_b   11.70920000
_cell_length_c   20.38230000
_cell_angle_alpha   88.34290000
_cell_angle_beta   89.99950000
_cell_angle_gamma   89.99940000
_symmetry_Int_Tables_number   1
_chemical_formula_structural   AgH21C24(NO)4
_chemical_formula_sum   'Ag4 H84 C96 N16 O16'
_cell_volume   2711.62311531
_cell_formula_units_Z   4
loop_
 _symmetry_equiv_pos_site_id
 _symmetry_equiv_pos_as_xyz
  1  'x, y, z'
loop_
 _atom_site_type_symbol
 _atom_site_label
 _atom_site_symmetry_multiplicity
 _atom_site_fract_x
 _atom_site_fract_y
 _atom_site_fract_z
 _atom_site_occupancy
  Ag  Ag0  1  0.27476000  0.63782000  0.34982000  1.0
  Ag  Ag1  1  0.77478000  0.36220000  0.15018000  1.0
  Ag  Ag2  1  0.72523000  0.36219000  0.65017000  1.0
  Ag  Ag3  1  0.22522000  0.63780000  0.84981000  1.0
  H  H4  1  0.50165000  0.60656000  0.43556000  1.0
  H  H5  1  0.00163000  0.39342000  0.06444000  1.0
  H  H6  1  0.49836000  0.39344000  0.56443000  1.0
  H  H7  1  0.99837000  0.60656000  0.93556000  1.0
  H  H8  1  0.68118000  0.28766000  0.40246000  1.0
  H  H9  1  0.18117000  0.71231000  0.09755000  1.0
  H  H10  1  0.31881000  0.71234000  0.59753000  1.0
  H  H11  1  0.81882000  0.28767000  0.90246000  1.0
  H  H12  1  0.51006000  0.23195000  0.33437000  1.0
  H  H13  1  0.01006000  0.76804000  0.16564000  1.0
  H  H14  1  0.48992000  0.76805000  0.66563000  1.0
  H  H15  1  0.98993000  0.23194000  0.83437000  1.0
  H  H16  1  0.34153000  0.36651000  0.32019000  1.0
  H  H17  1  0.84152000  0.63349000  0.17982000  1.0
  H  H18  1  0.65845000  0.63349000  0.67982000  1.0
  H  H19  1  0.15847000  0.36649000  0.82019000  1.0
  H  H20  1  0.68909000  0.58901000  0.47682000  1.0
  H  H21  1  0.18910000  0.41097000  0.02318000  1.0
  H  H22  1  0.31089000  0.41098000  0.52317000  1.0
  H  H23  1  0.81090000  0.58903000  0.97682000  1.0
  H  H24  1  0.85707000  0.28741000  0.46976000  1.0
  H  H25  1  0.35707000  0.71258000  0.03023000  1.0
  H  H26  1  0.14293000  0.71260000  0.53024000  1.0
  H  H27  1  0.64293000  0.28742000  0.96976000  1.0
  H  H28  1  0.71305000  0.27136000  0.50453000  1.0
  H  H29  1  0.21304000  0.72863000  0.99546000  1.0
  H  H30  1  0.28695000  0.72863000  0.49546000  1.0
  H  H31  1  0.78696000  0.27138000  0.00453000  1.0
  H  H32  1  0.11011000  0.65567000  0.71210000  1.0
  H  H33  1  0.61010000  0.34430000  0.78790000  1.0
  H  H34  1  0.88989000  0.34432000  0.28790000  1.0
  H  H35  1  0.38988000  0.65569000  0.21210000  1.0
  H  H36  1  0.17649000  0.33319000  0.61963000  1.0
  H  H37  1  0.67647000  0.66679000  0.88035000  1.0
  H  H38  1  0.82350000  0.66680000  0.38036000  1.0
  H  H39  1  0.32353000  0.33320000  0.11965000  1.0
  H  H40  1  0.34042000  0.30192000  0.69770000  1.0
  H  H41  1  0.84042000  0.69803000  0.80229000  1.0
  H  H42  1  0.65957000  0.69806000  0.30229000  1.0
  H  H43  1  0.15958000  0.30194000  0.19771000  1.0
  H  H44  1  0.38509000  0.45251000  0.77939000  1.0
  H  H45  1  0.88509000  0.54743000  0.72061000  1.0
  H  H46  1  0.61491000  0.54746000  0.22060000  1.0
  H  H47  1  0.11490000  0.45255000  0.27939000  1.0
  H  H48  1  0.00247000  0.61859000  0.61659000  1.0
  H  H49  1  0.50246000  0.38140000  0.88341000  1.0
  H  H50  1  0.99752000  0.38141000  0.38342000  1.0
  H  H51  1  0.49752000  0.61860000  0.11659000  1.0
  H  H52  1  0.00186000  0.29895000  0.62727000  1.0
  H  H53  1  0.50186000  0.70102000  0.87273000  1.0
  H  H54  1  0.99813000  0.70105000  0.37273000  1.0
  H  H55  1  0.49816000  0.29897000  0.12728000  1.0
  H  H56  1  0.02312000  0.30719000  0.54056000  1.0
  H  H57  1  0.52312000  0.69280000  0.95944000  1.0
  H  H58  1  0.97687000  0.69281000  0.45945000  1.0
  H  H59  1  0.47689000  0.30720000  0.04057000  1.0
  H  H60  1  0.07712000  0.09103000  0.61348000  1.0
  H  H61  1  0.57714000  0.90892000  0.88653000  1.0
  H  H62  1  0.92287000  0.90898000  0.38653000  1.0
  H  H63  1  0.42290000  0.09102000  0.11347000  1.0
  H  H64  1  0.15397000  0.03663000  0.72403000  1.0
  H  H65  1  0.65400000  0.96335000  0.77598000  1.0
  H  H66  1  0.84602000  0.96338000  0.27597000  1.0
  H  H67  1  0.34606000  0.03661000  0.22403000  1.0
  H  H68  1  0.01724000  0.02349000  0.81971000  1.0
  H  H69  1  0.51730000  0.97655000  0.68030000  1.0
  H  H70  1  0.98274000  0.97653000  0.18029000  1.0
  H  H71  1  0.48278000  0.02349000  0.31971000  1.0
  H  H72  1  0.80701000  0.07285000  0.80516000  1.0
  H  H73  1  0.30705000  0.92722000  0.69484000  1.0
  H  H74  1  0.19298000  0.92719000  0.19484000  1.0
  H  H75  1  0.69301000  0.07289000  0.30516000  1.0
  H  H76  1  0.72997000  0.13238000  0.69491000  1.0
  H  H77  1  0.22999000  0.86764000  0.80508000  1.0
  H  H78  1  0.27003000  0.86765000  0.30509000  1.0
  H  H79  1  0.77004000  0.13242000  0.19491000  1.0
  H  H80  1  0.76305000  0.12341000  0.57249000  1.0
  H  H81  1  0.26305000  0.87658000  0.92750000  1.0
  H  H82  1  0.23694000  0.87658000  0.42751000  1.0
  H  H83  1  0.73697000  0.12344000  0.07249000  1.0
  H  H84  1  0.91034000  0.12203000  0.54106000  1.0
  H  H85  1  0.41034000  0.87795000  0.95893000  1.0
  H  H86  1  0.08966000  0.87797000  0.45894000  1.0
  H  H87  1  0.58967000  0.12205000  0.04106000  1.0
  C  C88  1  0.85757000  0.51725000  0.54478000  1.0
  C  C89  1  0.35758000  0.48273000  0.95523000  1.0
  C  C90  1  0.14240000  0.48275000  0.45523000  1.0
  C  C91  1  0.64242000  0.51727000  0.04477000  1.0
  C  C92  1  0.50602000  0.52194000  0.41447000  1.0
  C  C93  1  0.00601000  0.47806000  0.08554000  1.0
  C  C94  1  0.49397000  0.47806000  0.58553000  1.0
  C  C95  1  0.99399000  0.52193000  0.91446000  1.0
  C  C96  1  0.60394000  0.45102000  0.42777000  1.0
  C  C97  1  0.10395000  0.54898000  0.07224000  1.0
  C  C98  1  0.39605000  0.54898000  0.57223000  1.0
  C  C99  1  0.89606000  0.45102000  0.92777000  1.0
  C  C100  1  0.60572000  0.34446000  0.39750000  1.0
  C  C101  1  0.10573000  0.65553000  0.10251000  1.0
  C  C102  1  0.39427000  0.65554000  0.60249000  1.0
  C  C103  1  0.89428000  0.34446000  0.89750000  1.0
  C  C104  1  0.51087000  0.31331000  0.35885000  1.0
  C  C105  1  0.01088000  0.68667000  0.14116000  1.0
  C  C106  1  0.48912000  0.68669000  0.64115000  1.0
  C  C107  1  0.98913000  0.31331000  0.85885000  1.0
  C  C108  1  0.41706000  0.38877000  0.35023000  1.0
  C  C109  1  0.91705000  0.61123000  0.14978000  1.0
  C  C110  1  0.58293000  0.61123000  0.64978000  1.0
  C  C111  1  0.08295000  0.38875000  0.85022000  1.0
  C  C112  1  0.69362000  0.49668000  0.47017000  1.0
  C  C113  1  0.19362000  0.50331000  0.02983000  1.0
  C  C114  1  0.30637000  0.50332000  0.52982000  1.0
  C  C115  1  0.80638000  0.49669000  0.97017000  1.0
  C  C116  1  0.77945000  0.44291000  0.50553000  1.0
  C  C117  1  0.27944000  0.55707000  0.99447000  1.0
  C  C118  1  0.22054000  0.55709000  0.49447000  1.0
  C  C119  1  0.72055000  0.44293000  0.00552000  1.0
  C  C120  1  0.79754000  0.31568000  0.50947000  1.0
  C  C121  1  0.29753000  0.68431000  0.99053000  1.0
  C  C122  1  0.20245000  0.68431000  0.49053000  1.0
  C  C123  1  0.70246000  0.31570000  0.00947000  1.0
  C  C124  1  0.15958000  0.57639000  0.70698000  1.0
  C  C125  1  0.65957000  0.42358000  0.79302000  1.0
  C  C126  1  0.84042000  0.42360000  0.29302000  1.0
  C  C127  1  0.34041000  0.57642000  0.20698000  1.0
  C  C128  1  0.12590000  0.49726000  0.65963000  1.0
  C  C129  1  0.62589000  0.50271000  0.84036000  1.0
  C  C130  1  0.87408000  0.50273000  0.34037000  1.0
  C  C131  1  0.37409000  0.49729000  0.15963000  1.0
  C  C132  1  0.19320000  0.39625000  0.65667000  1.0
  C  C133  1  0.69319000  0.60371000  0.84332000  1.0
  C  C134  1  0.80679000  0.60374000  0.34333000  1.0
  C  C135  1  0.30680000  0.39627000  0.15668000  1.0
  C  C136  1  0.28681000  0.37902000  0.69982000  1.0
  C  C137  1  0.78682000  0.62093000  0.80017000  1.0
  C  C138  1  0.71318000  0.62096000  0.30018000  1.0
  C  C139  1  0.21319000  0.37905000  0.19983000  1.0
  C  C140  1  0.31210000  0.46262000  0.74498000  1.0
  C  C141  1  0.81210000  0.53734000  0.75501000  1.0
  C  C142  1  0.68789000  0.53736000  0.25502000  1.0
  C  C143  1  0.18789000  0.46265000  0.24498000  1.0
  C  C144  1  0.02627000  0.52791000  0.61820000  1.0
  C  C145  1  0.52626000  0.47206000  0.88180000  1.0
  C  C146  1  0.97372000  0.47208000  0.38181000  1.0
  C  C147  1  0.47373000  0.52793000  0.11820000  1.0
  C  C148  1  0.95417000  0.46014000  0.58313000  1.0
  C  C149  1  0.45418000  0.53984000  0.91687000  1.0
  C  C150  1  0.04581000  0.53986000  0.41688000  1.0
  C  C151  1  0.54583000  0.46016000  0.08313000  1.0
  C  C152  1  0.96425000  0.33280000  0.58118000  1.0
  C  C153  1  0.46424000  0.66718000  0.91882000  1.0
  C  C154  1  0.03574000  0.66720000  0.41882000  1.0
  C  C155  1  0.53576000  0.33282000  0.08118000  1.0
  C  C156  1  0.89847000  0.11502000  0.64665000  1.0
  C  C157  1  0.39849000  0.88497000  0.85335000  1.0
  C  C158  1  0.10152000  0.88498000  0.35335000  1.0
  C  C159  1  0.60154000  0.11504000  0.14665000  1.0
  C  C160  1  0.01750000  0.08730000  0.65556000  1.0
  C  C161  1  0.51752000  0.91267000  0.84445000  1.0
  C  C162  1  0.98249000  0.91270000  0.34444000  1.0
  C  C163  1  0.48252000  0.08731000  0.15556000  1.0
  C  C164  1  0.06088000  0.05607000  0.71762000  1.0
  C  C165  1  0.56091000  0.94392000  0.78239000  1.0
  C  C166  1  0.93911000  0.94394000  0.28238000  1.0
  C  C167  1  0.43914000  0.05607000  0.21762000  1.0
  C  C168  1  0.98486000  0.05034000  0.77136000  1.0
  C  C169  1  0.48490000  0.94969000  0.72864000  1.0
  C  C170  1  0.01513000  0.94968000  0.22864000  1.0
  C  C171  1  0.51516000  0.05034000  0.27136000  1.0
  C  C172  1  0.86607000  0.07777000  0.76298000  1.0
  C  C173  1  0.36610000  0.92227000  0.73702000  1.0
  C  C174  1  0.13393000  0.92226000  0.23702000  1.0
  C  C175  1  0.63395000  0.07780000  0.26298000  1.0
  C  C176  1  0.82290000  0.11044000  0.70112000  1.0
  C  C177  1  0.32293000  0.88957000  0.79887000  1.0
  C  C178  1  0.17709000  0.88958000  0.29888000  1.0
  C  C179  1  0.67711000  0.11047000  0.20112000  1.0
  C  C180  1  0.85303000  0.15436000  0.58037000  1.0
  C  C181  1  0.35304000  0.84562000  0.91962000  1.0
  C  C182  1  0.14696000  0.84565000  0.41963000  1.0
  C  C183  1  0.64699000  0.15437000  0.08037000  1.0
  N  N184  1  0.49438000  0.79546000  0.36603000  1.0
  N  N185  1  0.99439000  0.20455000  0.13397000  1.0
  N  N186  1  0.50562000  0.20453000  0.63397000  1.0
  N  N187  1  0.00562000  0.79546000  0.86603000  1.0
  N  N188  1  0.41506000  0.49231000  0.37704000  1.0
  N  N189  1  0.91504000  0.50768000  0.12297000  1.0
  N  N190  1  0.58493000  0.50769000  0.62297000  1.0
  N  N191  1  0.08495000  0.49230000  0.87703000  1.0
  N  N192  1  0.24886000  0.55963000  0.74912000  1.0
  N  N193  1  0.74885000  0.44033000  0.75088000  1.0
  N  N194  1  0.75114000  0.44035000  0.25088000  1.0
  N  N195  1  0.25114000  0.55966000  0.24911000  1.0
  N  N196  1  0.84700000  0.28118000  0.57385000  1.0
  N  N197  1  0.34699000  0.71881000  0.92615000  1.0
  N  N198  1  0.15300000  0.71882000  0.42615000  1.0
  N  N199  1  0.65301000  0.28120000  0.07385000  1.0
  O  O200  1  0.45189000  0.75549000  0.31270000  1.0
  O  O201  1  0.95189000  0.24452000  0.18729000  1.0
  O  O202  1  0.54810000  0.24451000  0.68729000  1.0
  O  O203  1  0.04812000  0.75548000  0.81272000  1.0
  O  O204  1  0.43198000  0.79121000  0.41784000  1.0
  O  O205  1  0.93199000  0.20879000  0.08216000  1.0
  O  O206  1  0.56801000  0.20878000  0.58216000  1.0
  O  O207  1  0.06800000  0.79123000  0.91785000  1.0
  O  O208  1  0.59648000  0.83633000  0.36617000  1.0
  O  O209  1  0.09650000  0.16369000  0.13383000  1.0
  O  O210  1  0.40351000  0.16365000  0.63383000  1.0
  O  O211  1  0.90351000  0.83633000  0.86616000  1.0
  O  O212  1  0.84556000  0.62279000  0.54419000  1.0
  O  O213  1  0.34559000  0.37719000  0.95583000  1.0
  O  O214  1  0.15439000  0.37721000  0.45583000  1.0
  O  O215  1  0.65441000  0.62281000  0.04418000  1.0
