# generated using pymatgen
data_CdH12(C2O)6
_symmetry_space_group_name_H-M   'P 1'
_cell_length_a   8.06383000
_cell_length_b   10.91940000
_cell_length_c   14.24430000
_cell_angle_alpha   79.99000000
_cell_angle_beta   90.00060000
_cell_angle_gamma   90.00010000
_symmetry_Int_Tables_number   1
_chemical_formula_structural   CdH12(C2O)6
_chemical_formula_sum   'Cd4 H48 C48 O24'
_cell_volume   1235.14896116
_cell_formula_units_Z   4
loop_
 _symmetry_equiv_pos_site_id
 _symmetry_equiv_pos_as_xyz
  1  'x, y, z'
loop_
 _atom_site_type_symbol
 _atom_site_label
 _atom_site_symmetry_multiplicity
 _atom_site_fract_x
 _atom_site_fract_y
 _atom_site_fract_z
 _atom_site_occupancy
  Cd  Cd0  1  0.05146000  0.99247000  0.96365000  1.0
  Cd  Cd1  1  0.55146000  0.00753000  0.03635000  1.0
  Cd  Cd2  1  0.14591000  0.39055000  0.91582000  1.0
  Cd  Cd3  1  0.64592000  0.60944000  0.08418000  1.0
  H  H4  1  0.30930000  0.33279000  0.75120000  1.0
  H  H5  1  0.80929000  0.66722000  0.24880000  1.0
  H  H6  1  0.28440000  0.11602000  0.63991000  1.0
  H  H7  1  0.78440000  0.88399000  0.36009000  1.0
  H  H8  1  0.24429000  0.18920000  0.47252000  1.0
  H  H9  1  0.74429000  0.81081000  0.52748000  1.0
  H  H10  1  0.48125000  0.43294000  0.63916000  1.0
  H  H11  1  0.98126000  0.56707000  0.36084000  1.0
  H  H12  1  0.53581000  0.58386000  0.49152000  1.0
  H  H13  1  0.03581000  0.41614000  0.50848000  1.0
  H  H14  1  0.43960000  0.54276000  0.33523000  1.0
  H  H15  1  0.93959000  0.45724000  0.66477000  1.0
  H  H16  1  0.24452000  0.23487000  0.30361000  1.0
  H  H17  1  0.74452000  0.76513000  0.69638000  1.0
  H  H18  1  0.26901000  0.51264000  0.21558000  1.0
  H  H19  1  0.76902000  0.48736000  0.78442000  1.0
  H  H20  1  0.27439000  0.80457000  0.74265000  1.0
  H  H21  1  0.77438000  0.19543000  0.25735000  1.0
  H  H22  1  0.24750000  0.62106000  0.60159000  1.0
  H  H23  1  0.74749000  0.37894000  0.39841000  1.0
  H  H24  1  0.25598000  0.72775000  0.43477000  1.0
  H  H25  1  0.75597000  0.27225000  0.56524000  1.0
  H  H26  1  0.46415000  0.90747000  0.65410000  1.0
  H  H27  1  0.96415000  0.09254000  0.34590000  1.0
  H  H28  1  0.57722000  0.07389000  0.53097000  1.0
  H  H29  1  0.07722000  0.92611000  0.46904000  1.0
  H  H30  1  0.52751000  0.07165000  0.35929000  1.0
  H  H31  1  0.02751000  0.92835000  0.64071000  1.0
  H  H32  1  0.40801000  0.99401000  0.23837000  1.0
  H  H33  1  0.90800000  0.00598000  0.76163000  1.0
  H  H34  1  0.17609000  0.76579000  0.27742000  1.0
  H  H35  1  0.67608000  0.23421000  0.72259000  1.0
  H  H36  1  0.88261000  0.80749000  0.88262000  1.0
  H  H37  1  0.38261000  0.19251000  0.11738000  1.0
  H  H38  1  0.07082000  0.76064000  0.88364000  1.0
  H  H39  1  0.57082000  0.23936000  0.11636000  1.0
  H  H40  1  0.87692000  0.07491000  0.11819000  1.0
  H  H41  1  0.37691000  0.92508000  0.88181000  1.0
  H  H42  1  0.03551000  0.16872000  0.09822000  1.0
  H  H43  1  0.53550000  0.83128000  0.90178000  1.0
  H  H44  1  0.79821000  0.40368000  0.95668000  1.0
  H  H45  1  0.29820000  0.59632000  0.04331000  1.0
  H  H46  1  0.86852000  0.26571000  0.99392000  1.0
  H  H47  1  0.36852000  0.73428000  0.00608000  1.0
  H  H48  1  0.48681000  0.29768000  0.90609000  1.0
  H  H49  1  0.98681000  0.70231000  0.09391000  1.0
  H  H50  1  0.51336000  0.43651000  0.92672000  1.0
  H  H51  1  0.01336000  0.56349000  0.07328000  1.0
  C  C52  1  0.23433000  0.14516000  0.81843000  1.0
  C  C53  1  0.73433000  0.85484000  0.18156000  1.0
  C  C54  1  0.29448000  0.23789000  0.73855000  1.0
  C  C55  1  0.79448000  0.76212000  0.26145000  1.0
  C  C56  1  0.31241000  0.21053000  0.65062000  1.0
  C  C57  1  0.81242000  0.78948000  0.34938000  1.0
  C  C58  1  0.35527000  0.30078000  0.56629000  1.0
  C  C59  1  0.85528000  0.69923000  0.43370000  1.0
  C  C60  1  0.30674000  0.27669000  0.47677000  1.0
  C  C61  1  0.80674000  0.72332000  0.52323000  1.0
  C  C62  1  0.43879000  0.41294000  0.57070000  1.0
  C  C63  1  0.93880000  0.58707000  0.42930000  1.0
  C  C64  1  0.46796000  0.49864000  0.48766000  1.0
  C  C65  1  0.96797000  0.50137000  0.51234000  1.0
  C  C66  1  0.41211000  0.47629000  0.39961000  1.0
  C  C67  1  0.91211000  0.52372000  0.60039000  1.0
  C  C68  1  0.33061000  0.36391000  0.39313000  1.0
  C  C69  1  0.83061000  0.63609000  0.60686000  1.0
  C  C70  1  0.27264000  0.33291000  0.30345000  1.0
  C  C71  1  0.77265000  0.66709000  0.69655000  1.0
  C  C72  1  0.24904000  0.41288000  0.22113000  1.0
  C  C73  1  0.74904000  0.58711000  0.77887000  1.0
  C  C74  1  0.19570000  0.36942000  0.13373000  1.0
  C  C75  1  0.69570000  0.63058000  0.86627000  1.0
  C  C76  1  0.19404000  0.61277000  0.78819000  1.0
  C  C77  1  0.69405000  0.38723000  0.21181000  1.0
  C  C78  1  0.25232000  0.71808000  0.71614000  1.0
  C  C79  1  0.75232000  0.28192000  0.28386000  1.0
  C  C80  1  0.28033000  0.70847000  0.62433000  1.0
  C  C81  1  0.78032000  0.29153000  0.37568000  1.0
  C  C82  1  0.35073000  0.80635000  0.55233000  1.0
  C  C83  1  0.85073000  0.19365000  0.44768000  1.0
  C  C84  1  0.32697000  0.80428000  0.45486000  1.0
  C  C85  1  0.82697000  0.19572000  0.54514000  1.0
  C  C86  1  0.44189000  0.90528000  0.57887000  1.0
  C  C87  1  0.94188000  0.09472000  0.42114000  1.0
  C  C88  1  0.50604000  0.99871000  0.50973000  1.0
  C  C89  1  0.00605000  0.00129000  0.49028000  1.0
  C  C90  1  0.47886000  0.99710000  0.41329000  1.0
  C  C91  1  0.97886000  0.00291000  0.58672000  1.0
  C  C92  1  0.38671000  0.90069000  0.38415000  1.0
  C  C93  1  0.88671000  0.09932000  0.61586000  1.0
  C  C94  1  0.34979000  0.91342000  0.28254000  1.0
  C  C95  1  0.84978000  0.08658000  0.71746000  1.0
  C  C96  1  0.24451000  0.84506000  0.23890000  1.0
  C  C97  1  0.74450000  0.15494000  0.76110000  1.0
  C  C98  1  0.19606000  0.88550000  0.13838000  1.0
  C  C99  1  0.69605000  0.11449000  0.86162000  1.0
  O  O100  1  0.18608000  0.25416000  0.13076000  1.0
  O  O101  1  0.68607000  0.74584000  0.86924000  1.0
  O  O102  1  0.16421000  0.45496000  0.06047000  1.0
  O  O103  1  0.66421000  0.54504000  0.93953000  1.0
  O  O104  1  0.24284000  0.02933000  0.81732000  1.0
  O  O105  1  0.74284000  0.97067000  0.18268000  1.0
  O  O106  1  0.16273000  0.18507000  0.88911000  1.0
  O  O107  1  0.66272000  0.81494000  0.11089000  1.0
  O  O108  1  0.99915000  0.83633000  0.88045000  1.0
  O  O109  1  0.49915000  0.16366000  0.11955000  1.0
  O  O110  1  0.94288000  0.12835000  0.06802000  1.0
  O  O111  1  0.44288000  0.87164000  0.93198000  1.0
  O  O112  1  0.87124000  0.33774000  0.94047000  1.0
  O  O113  1  0.37125000  0.66226000  0.05953000  1.0
  O  O114  1  0.42932000  0.37311000  0.91919000  1.0
  O  O115  1  0.92933000  0.62689000  0.08080000  1.0
  O  O116  1  0.17238000  0.50565000  0.76511000  1.0
  O  O117  1  0.67239000  0.49436000  0.23489000  1.0
  O  O118  1  0.17192000  0.63074000  0.87396000  1.0
  O  O119  1  0.67193000  0.36926000  0.12604000  1.0
  O  O120  1  0.06207000  0.84235000  0.10849000  1.0
  O  O121  1  0.56206000  0.15764000  0.89152000  1.0
  O  O122  1  0.27630000  0.97041000  0.08272000  1.0
  O  O123  1  0.77629000  0.02959000  0.91728000  1.0
