# generated using pymatgen
data_ZnHC4N11
_symmetry_space_group_name_H-M   'P 1'
_cell_length_a   14.64395857
_cell_length_b   14.68080000
_cell_length_c   14.68080000
_cell_angle_alpha   70.47800000
_cell_angle_beta   70.57960659
_cell_angle_gamma   109.42039341
_symmetry_Int_Tables_number   1
_chemical_formula_structural   ZnHC4N11
_chemical_formula_sum   'Zn6 H6 C24 N66'
_cell_volume   2431.12944420
_cell_formula_units_Z   6
loop_
 _symmetry_equiv_pos_site_id
 _symmetry_equiv_pos_as_xyz
  1  'x, y, z'
loop_
 _atom_site_type_symbol
 _atom_site_label
 _atom_site_symmetry_multiplicity
 _atom_site_fract_x
 _atom_site_fract_y
 _atom_site_fract_z
 _atom_site_occupancy
  Zn  Zn0  1  0.69295000  0.24565000  0.50733000  1.0
  Zn  Zn1  1  0.44730000  0.24702000  0.24565000  1.0
  Zn  Zn2  1  0.20027000  0.50732000  0.24703000  1.0
  Zn  Zn3  1  0.30705000  0.75435000  0.49267000  1.0
  Zn  Zn4  1  0.55270000  0.75298000  0.75436000  1.0
  Zn  Zn5  1  0.79972000  0.49267000  0.75298000  1.0
  H  H6  1  0.06777000  0.36182000  0.63933000  1.0
  H  H7  1  0.70595000  0.99885000  0.36182000  1.0
  H  H8  1  0.70710000  0.63933000  0.99885000  1.0
  H  H9  1  0.93223000  0.63818000  0.36067000  1.0
  H  H10  1  0.29405000  0.00115000  0.63818000  1.0
  H  H11  1  0.29290000  0.36067000  0.00115000  1.0
  C  C12  1  0.95049000  0.36711000  0.50035000  1.0
  C  C13  1  0.87450000  0.35814000  0.59803000  1.0
  C  C14  1  0.94808000  0.37733000  0.39971000  1.0
  C  C15  1  0.76938000  0.35793000  0.63028000  1.0
  C  C16  1  0.58338000  0.13254000  0.36711000  1.0
  C  C17  1  0.51636000  0.04383000  0.35814000  1.0
  C  C18  1  0.57075000  0.22296000  0.37733000  1.0
  C  C19  1  0.41145000  0.01179000  0.35793000  1.0
  C  C20  1  0.45084000  0.50035000  0.13254000  1.0
  C  C21  1  0.47253000  0.59803000  0.04383000  1.0
  C  C22  1  0.34779000  0.39971000  0.22296000  1.0
  C  C23  1  0.39966000  0.63028000  0.01179000  1.0
  C  C24  1  0.04951000  0.63289000  0.49965000  1.0
  C  C25  1  0.12550000  0.64186000  0.40197000  1.0
  C  C26  1  0.05192000  0.62267000  0.60029000  1.0
  C  C27  1  0.23062000  0.64207000  0.36972000  1.0
  C  C28  1  0.41662000  0.86746000  0.63289000  1.0
  C  C29  1  0.48364000  0.95617000  0.64186000  1.0
  C  C30  1  0.42925000  0.77704000  0.62267000  1.0
  C  C31  1  0.58855000  0.98821000  0.64207000  1.0
  C  C32  1  0.54916000  0.49965000  0.86746000  1.0
  C  C33  1  0.52747000  0.40197000  0.95617000  1.0
  C  C34  1  0.65221000  0.60029000  0.77704000  1.0
  C  C35  1  0.60034000  0.36972000  0.98821000  1.0
  N  N36  1  0.03990000  0.37068000  0.50977000  1.0
  N  N37  1  0.01553000  0.36338000  0.60823000  1.0
  N  N38  1  0.91890000  0.35557000  0.66536000  1.0
  N  N39  1  0.73337000  0.39940000  0.69457000  1.0
  N  N40  1  0.63102000  0.38070000  0.70882000  1.0
  N  N41  1  0.60583000  0.33084000  0.65514000  1.0
  N  N42  1  0.69137000  0.31587000  0.60434000  1.0
  N  N43  1  0.03900000  0.42943000  0.29875000  1.0
  N  N44  1  0.00183000  0.42013000  0.22720000  1.0
  N  N45  1  0.89317000  0.36559000  0.28185000  1.0
  N  N46  1  0.85681000  0.33759000  0.39054000  1.0
  N  N47  1  0.66922000  0.11955000  0.37068000  1.0
  N  N48  1  0.65215000  0.02839000  0.36338000  1.0
  N  N49  1  0.56333000  0.97907000  0.35557000  1.0
  N  N50  1  0.33397000  0.90603000  0.39940000  1.0
  N  N51  1  0.25032000  0.91048000  0.38070000  1.0
  N  N52  1  0.27499000  0.01402000  0.33084000  1.0
  N  N53  1  0.37550000  0.07979000  0.31587000  1.0
  N  N54  1  0.60957000  0.27182000  0.42943000  1.0
  N  N55  1  0.58170000  0.35267000  0.42013000  1.0
  N  N56  1  0.52758000  0.35256000  0.36559000  1.0
  N  N57  1  0.51922000  0.27187000  0.33759000  1.0
  N  N58  1  0.54967000  0.50977000  0.11955000  1.0
  N  N59  1  0.62376000  0.60823000  0.02839000  1.0
  N  N60  1  0.58426000  0.66536000  0.97907000  1.0
  N  N61  1  0.42794000  0.69457000  0.90604000  1.0
  N  N62  1  0.33984000  0.70882000  0.91048000  1.0
  N  N63  1  0.26097000  0.65514000  0.01402000  1.0
  N  N64  1  0.29571000  0.60434000  0.07979000  1.0
  N  N65  1  0.33775000  0.29876000  0.27182000  1.0
  N  N66  1  0.22903000  0.22720000  0.35267000  1.0
  N  N67  1  0.17502000  0.28185000  0.35256000  1.0
  N  N68  1  0.24735000  0.39054000  0.27187000  1.0
  N  N69  1  0.96010000  0.62932000  0.49023000  1.0
  N  N70  1  0.98447000  0.63662000  0.39177000  1.0
  N  N71  1  0.08110000  0.64443000  0.33464000  1.0
  N  N72  1  0.26663000  0.60060000  0.30543000  1.0
  N  N73  1  0.36898000  0.61930000  0.29118000  1.0
  N  N74  1  0.39417000  0.66916000  0.34486000  1.0
  N  N75  1  0.30863000  0.68413000  0.39566000  1.0
  N  N76  1  0.96100000  0.57057000  0.70125000  1.0
  N  N77  1  0.99817000  0.57987000  0.77280000  1.0
  N  N78  1  0.10683000  0.63441000  0.71815000  1.0
  N  N79  1  0.14319000  0.66241000  0.60946000  1.0
  N  N80  1  0.33078000  0.88045000  0.62932000  1.0
  N  N81  1  0.34785000  0.97161000  0.63662000  1.0
  N  N82  1  0.43667000  0.02093000  0.64443000  1.0
  N  N83  1  0.66603000  0.09397000  0.60060000  1.0
  N  N84  1  0.74968000  0.08952000  0.61930000  1.0
  N  N85  1  0.72501000  0.98598000  0.66916000  1.0
  N  N86  1  0.62450000  0.92021000  0.68413000  1.0
  N  N87  1  0.39043000  0.72818000  0.57057000  1.0
  N  N88  1  0.41830000  0.64733000  0.57987000  1.0
  N  N89  1  0.47243000  0.64745000  0.63440000  1.0
  N  N90  1  0.48078000  0.72813000  0.66241000  1.0
  N  N91  1  0.45033000  0.49023000  0.88045000  1.0
  N  N92  1  0.37624000  0.39177000  0.97161000  1.0
  N  N93  1  0.41574000  0.33464000  0.02093000  1.0
  N  N94  1  0.57206000  0.30543000  0.09397000  1.0
  N  N95  1  0.66016000  0.29118000  0.08952000  1.0
  N  N96  1  0.73903000  0.34486000  0.98598000  1.0
  N  N97  1  0.70429000  0.39566000  0.92021000  1.0
  N  N98  1  0.66225000  0.70124000  0.72818000  1.0
  N  N99  1  0.77097000  0.77280000  0.64733000  1.0
  N  N100  1  0.82498000  0.71815000  0.64744000  1.0
  N  N101  1  0.75265000  0.60946000  0.72813000  1.0
