# generated using pymatgen
data_MnH14C14S2N2O5
_symmetry_space_group_name_H-M   'P 1'
_cell_length_a   5.71997000
_cell_length_b   8.78451191
_cell_length_c   17.55700000
_cell_angle_alpha   78.80999852
_cell_angle_beta   89.98830000
_cell_angle_gamma   71.32357827
_symmetry_Int_Tables_number   1
_chemical_formula_structural   MnH14C14S2N2O5
_chemical_formula_sum   'Mn2 H28 C28 S4 N4 O10'
_cell_volume   818.02383769
_cell_formula_units_Z   2
loop_
 _symmetry_equiv_pos_site_id
 _symmetry_equiv_pos_as_xyz
  1  'x, y, z'
loop_
 _atom_site_type_symbol
 _atom_site_label
 _atom_site_symmetry_multiplicity
 _atom_site_fract_x
 _atom_site_fract_y
 _atom_site_fract_z
 _atom_site_occupancy
  Mn  Mn0  1  0.51680000  0.00196000  0.74979000  1.0
  Mn  Mn1  1  0.48322000  0.99804000  0.25021000  1.0
  H  H2  1  0.96346000  0.01278000  0.79791000  1.0
  H  H3  1  0.02365000  0.00915000  0.29587000  1.0
  H  H4  1  0.03656000  0.98722000  0.20208000  1.0
  H  H5  1  0.97634000  0.99085000  0.70412000  1.0
  H  H6  1  0.32127000  0.23556000  0.96197000  1.0
  H  H7  1  0.44403000  0.23229000  0.46276000  1.0
  H  H8  1  0.67873000  0.76444000  0.03804000  1.0
  H  H9  1  0.55595000  0.76772000  0.53724000  1.0
  H  H10  1  0.26916000  0.05996000  0.01862000  1.0
  H  H11  1  0.67030000  0.05593000  0.51791000  1.0
  H  H12  1  0.73084000  0.94004000  0.98138000  1.0
  H  H13  1  0.32967000  0.94408000  0.48209000  1.0
  H  H14  1  0.27509000  0.76198000  0.85108000  1.0
  H  H15  1  0.96885000  0.76059000  0.35068000  1.0
  H  H16  1  0.72491000  0.23803000  0.14893000  1.0
  H  H17  1  0.03118000  0.23939000  0.64931000  1.0
  H  H18  1  0.41642000  0.49360000  0.94122000  1.0
  H  H19  1  0.09322000  0.49292000  0.44160000  1.0
  H  H20  1  0.58358000  0.50640000  0.05878000  1.0
  H  H21  1  0.90680000  0.50706000  0.55839000  1.0
  H  H22  1  0.13543000  0.40996000  0.84507000  1.0
  H  H23  1  0.45853000  0.40578000  0.34620000  1.0
  H  H24  1  0.86457000  0.59003000  0.15493000  1.0
  H  H25  1  0.54146000  0.59423000  0.65380000  1.0
  H  H26  1  0.95733000  0.67913000  0.75563000  1.0
  H  H27  1  0.36937000  0.67462000  0.25651000  1.0
  H  H28  1  0.04268000  0.32086000  0.24437000  1.0
  H  H29  1  0.63062000  0.32539000  0.74349000  1.0
  C  C30  1  0.23049000  0.07518000  0.89466000  1.0
  C  C31  1  0.69177000  0.07680000  0.39341000  1.0
  C  C32  1  0.76952000  0.92482000  0.10534000  1.0
  C  C33  1  0.30821000  0.92321000  0.60659000  1.0
  C  C34  1  0.20587000  0.15621000  0.96537000  1.0
  C  C35  1  0.63787000  0.15398000  0.46535000  1.0
  C  C36  1  0.79412000  0.84380000  0.03463000  1.0
  C  C37  1  0.36210000  0.84603000  0.53465000  1.0
  C  C38  1  0.46403000  0.68003000  0.85075000  1.0
  C  C39  1  0.86101000  0.67817000  0.35093000  1.0
  C  C40  1  0.53597000  0.31998000  0.14925000  1.0
  C  C41  1  0.13902000  0.32181000  0.64907000  1.0
  C  C42  1  0.54568000  0.53031000  0.90224000  1.0
  C  C43  1  0.92782000  0.52875000  0.40272000  1.0
  C  C44  1  0.45433000  0.46968000  0.09777000  1.0
  C  C45  1  0.07220000  0.47124000  0.59727000  1.0
  C  C46  1  0.79571000  0.43093000  0.90577000  1.0
  C  C47  1  0.77676000  0.42859000  0.40662000  1.0
  C  C48  1  0.20429000  0.56907000  0.09423000  1.0
  C  C49  1  0.22324000  0.57141000  0.59338000  1.0
  C  C50  1  0.94386000  0.48299000  0.84923000  1.0
  C  C51  1  0.57752000  0.47938000  0.35012000  1.0
  C  C52  1  0.05615000  0.51700000  0.15077000  1.0
  C  C53  1  0.42247000  0.52063000  0.64988000  1.0
  C  C54  1  0.84437000  0.63413000  0.79865000  1.0
  C  C55  1  0.52711000  0.63018000  0.29928000  1.0
  C  C56  1  0.15564000  0.36586000  0.20136000  1.0
  C  C57  1  0.47289000  0.36982000  0.70072000  1.0
  S  S58  1  0.89092000  0.26218000  0.98243000  1.0
  S  S59  1  0.84692000  0.26016000  0.48344000  1.0
  S  S60  1  0.10908000  0.73782000  0.01757000  1.0
  S  S61  1  0.15307000  0.73984000  0.51656000  1.0
  N  N62  1  0.61104000  0.73556000  0.80033000  1.0
  N  N63  1  0.65935000  0.73250000  0.30063000  1.0
  N  N64  1  0.38896000  0.26444000  0.19968000  1.0
  N  N65  1  0.34066000  0.26749000  0.69936000  1.0
  O  O66  1  0.43048000  0.06087000  0.86010000  1.0
  O  O67  1  0.50768000  0.05612000  0.36092000  1.0
  O  O68  1  0.56955000  0.93911000  0.13990000  1.0
  O  O69  1  0.49229000  0.94388000  0.63909000  1.0
  O  O70  1  0.05639000  0.02692000  0.87731000  1.0
  O  O71  1  0.91047000  0.03827000  0.37299000  1.0
  O  O72  1  0.94360000  0.97310000  0.12268000  1.0
  O  O73  1  0.08950000  0.96175000  0.62700000  1.0
  O  O74  1  0.86958000  0.00944000  0.74969000  1.0
  O  O75  1  0.13044000  0.99054000  0.25031000  1.0
