# generated using pymatgen
data_CdH12C16(N5O)2
_symmetry_space_group_name_H-M   'P 1'
_cell_length_a   9.44794000
_cell_length_b   10.16830000
_cell_length_c   10.59305322
_cell_angle_alpha   118.68449212
_cell_angle_beta   90.00097593
_cell_angle_gamma   89.99940000
_symmetry_Int_Tables_number   1
_chemical_formula_structural   CdH12C16(N5O)2
_chemical_formula_sum   'Cd2 H24 C32 N20 O4'
_cell_volume   892.77687934
_cell_formula_units_Z   2
loop_
 _symmetry_equiv_pos_site_id
 _symmetry_equiv_pos_as_xyz
  1  'x, y, z'
loop_
 _atom_site_type_symbol
 _atom_site_label
 _atom_site_symmetry_multiplicity
 _atom_site_fract_x
 _atom_site_fract_y
 _atom_site_fract_z
 _atom_site_occupancy
  Cd  Cd0  1  0.50000000  0.50000000  0.00000000  1.0
  Cd  Cd1  1  0.00000000  0.00000000  0.50000000  1.0
  H  H2  1  0.56239000  0.77118000  0.88812000  1.0
  H  H3  1  0.06239000  0.72882000  0.61189000  1.0
  H  H4  1  0.43761000  0.22882000  0.11188000  1.0
  H  H5  1  0.93761000  0.27118000  0.38812000  1.0
  H  H6  1  0.44808000  0.79137000  0.77088000  1.0
  H  H7  1  0.94808000  0.70863000  0.72912000  1.0
  H  H8  1  0.55192000  0.20863000  0.22912000  1.0
  H  H9  1  0.05192000  0.29137000  0.27088000  1.0
  H  H10  1  0.34903000  0.67508000  0.31896000  1.0
  H  H11  1  0.84904000  0.82492000  0.18104000  1.0
  H  H12  1  0.65097000  0.32492000  0.68104000  1.0
  H  H13  1  0.15096000  0.17508000  0.81896000  1.0
  H  H14  1  0.39101000  0.74769000  0.57410000  1.0
  H  H15  1  0.89101000  0.75232000  0.92590000  1.0
  H  H16  1  0.60899000  0.25231000  0.42590000  1.0
  H  H17  1  0.10899000  0.24768000  0.07410000  1.0
  H  H18  1  0.80630000  0.54728000  0.45110000  1.0
  H  H19  1  0.30630000  0.95272000  0.04890000  1.0
  H  H20  1  0.19370000  0.45273000  0.54890000  1.0
  H  H21  1  0.69370000  0.04728000  0.95110000  1.0
  H  H22  1  0.74574000  0.48174000  0.19614000  1.0
  H  H23  1  0.24575000  0.01826000  0.30386000  1.0
  H  H24  1  0.25426000  0.51826000  0.80386000  1.0
  H  H25  1  0.75426000  0.98174000  0.69614000  1.0
  C  C26  1  0.16161000  0.53321000  0.10843000  1.0
  C  C27  1  0.66161000  0.96680000  0.39157000  1.0
  C  C28  1  0.83838000  0.46680000  0.89157000  1.0
  C  C29  1  0.33839000  0.03320000  0.60843000  1.0
  C  C30  1  0.03483000  0.64984000  0.31572000  1.0
  C  C31  1  0.53482000  0.85015000  0.18427000  1.0
  C  C32  1  0.96518000  0.35015000  0.68427000  1.0
  C  C33  1  0.46518000  0.14984000  0.81572000  1.0
  C  C34  1  0.44946000  0.64829000  0.35191000  1.0
  C  C35  1  0.94947000  0.85171000  0.14809000  1.0
  C  C36  1  0.55054000  0.35171000  0.64809000  1.0
  C  C37  1  0.05053000  0.14829000  0.85191000  1.0
  C  C38  1  0.47454000  0.68999000  0.49573000  1.0
  C  C39  1  0.97455000  0.81001000  0.00427000  1.0
  C  C40  1  0.52546000  0.31001000  0.50427000  1.0
  C  C41  1  0.02545000  0.19000000  0.99574000  1.0
  C  C42  1  0.60513000  0.65433000  0.53414000  1.0
  C  C43  1  0.10513000  0.84568000  0.96587000  1.0
  C  C44  1  0.39487000  0.34567000  0.46586000  1.0
  C  C45  1  0.89487000  0.15433000  0.03414000  1.0
  C  C46  1  0.70429000  0.57769000  0.42516000  1.0
  C  C47  1  0.20429000  0.92231000  0.07485000  1.0
  C  C48  1  0.29571000  0.42231000  0.57484000  1.0
  C  C49  1  0.79571000  0.07769000  0.92516000  1.0
  C  C50  1  0.67074000  0.54020000  0.28402000  1.0
  C  C51  1  0.17074000  0.95979000  0.21598000  1.0
  C  C52  1  0.32926000  0.45980000  0.71598000  1.0
  C  C53  1  0.82926000  0.04020000  0.78402000  1.0
  C  C54  1  0.64310000  0.68967000  0.68556000  1.0
  C  C55  1  0.14310000  0.81032000  0.81444000  1.0
  C  C56  1  0.35690000  0.31033000  0.31444000  1.0
  C  C57  1  0.85690000  0.18967000  0.18556000  1.0
  N  N58  1  0.25838000  0.51037000  0.03042000  1.0
  N  N59  1  0.75838000  0.98963000  0.46957000  1.0
  N  N60  1  0.74162000  0.48962000  0.96957000  1.0
  N  N61  1  0.24162000  0.01037000  0.53043000  1.0
  N  N62  1  0.04836000  0.54962000  0.18308000  1.0
  N  N63  1  0.54834000  0.95038000  0.31691000  1.0
  N  N64  1  0.95164000  0.45038000  0.81691000  1.0
  N  N65  1  0.45166000  0.04962000  0.68308000  1.0
  N  N66  1  0.01170000  0.73957000  0.43701000  1.0
  N  N67  1  0.51170000  0.76043000  0.06299000  1.0
  N  N68  1  0.98830000  0.26043000  0.56299000  1.0
  N  N69  1  0.48830000  0.23957000  0.93701000  1.0
  N  N70  1  0.54506000  0.57442000  0.24734000  1.0
  N  N71  1  0.04506000  0.92558000  0.25266000  1.0
  N  N72  1  0.45494000  0.42558000  0.75266000  1.0
  N  N73  1  0.95494000  0.07442000  0.74734000  1.0
  N  N74  1  0.54760000  0.76403000  0.78903000  1.0
  N  N75  1  0.04759000  0.73597000  0.71097000  1.0
  N  N76  1  0.45240000  0.23598000  0.21097000  1.0
  N  N77  1  0.95241000  0.26404000  0.28904000  1.0
  O  O78  1  0.76007000  0.64820000  0.71002000  1.0
  O  O79  1  0.26007000  0.85180000  0.78999000  1.0
  O  O80  1  0.23993000  0.35180000  0.28998000  1.0
  O  O81  1  0.73993000  0.14821000  0.21002000  1.0
