# generated using pymatgen
data_Cu3H16C12SN8O11
_symmetry_space_group_name_H-M   'P 1'
_cell_length_a   13.69360000
_cell_length_b   13.69360000
_cell_length_c   14.24750000
_cell_angle_alpha   66.13870000
_cell_angle_beta   66.13870000
_cell_angle_gamma   66.64950000
_symmetry_Int_Tables_number   1
_chemical_formula_structural   Cu3H16C12SN8O11
_chemical_formula_sum   'Cu12 H64 C48 S4 N32 O44'
_cell_volume   2146.19411437
_cell_formula_units_Z   4
loop_
 _symmetry_equiv_pos_site_id
 _symmetry_equiv_pos_as_xyz
  1  'x, y, z'
loop_
 _atom_site_type_symbol
 _atom_site_label
 _atom_site_symmetry_multiplicity
 _atom_site_fract_x
 _atom_site_fract_y
 _atom_site_fract_z
 _atom_site_occupancy
  Cu  Cu0  1  0.56996000  0.03655000  0.54418000  1.0
  Cu  Cu1  1  0.96345000  0.43005000  0.95582000  1.0
  Cu  Cu2  1  0.43005000  0.96345000  0.45582000  1.0
  Cu  Cu3  1  0.03655000  0.56995000  0.04418000  1.0
  Cu  Cu4  1  0.35310000  0.24375000  0.53494000  1.0
  Cu  Cu5  1  0.75626000  0.64690000  0.96506000  1.0
  Cu  Cu6  1  0.64690000  0.75625000  0.46506000  1.0
  Cu  Cu7  1  0.24375000  0.35310000  0.03494000  1.0
  Cu  Cu8  1  0.66407000  0.84536000  0.75705000  1.0
  Cu  Cu9  1  0.15463000  0.33593000  0.74296000  1.0
  Cu  Cu10  1  0.33593000  0.15463000  0.24295000  1.0
  Cu  Cu11  1  0.84537000  0.66407000  0.25705000  1.0
  H  H12  1  0.37527000  0.04919000  0.62558000  1.0
  H  H13  1  0.95082000  0.62473000  0.87441000  1.0
  H  H14  1  0.62473000  0.95082000  0.37441000  1.0
  H  H15  1  0.04918000  0.37527000  0.12559000  1.0
  H  H16  1  0.47033000  0.94504000  0.72781000  1.0
  H  H17  1  0.05496000  0.52967000  0.77219000  1.0
  H  H18  1  0.52967000  0.05496000  0.27219000  1.0
  H  H19  1  0.94504000  0.47033000  0.22781000  1.0
  H  H20  1  0.25824000  0.14495000  0.71360000  1.0
  H  H21  1  0.85505000  0.74176000  0.78640000  1.0
  H  H22  1  0.74176000  0.85505000  0.28640000  1.0
  H  H23  1  0.14495000  0.25824000  0.21360000  1.0
  H  H24  1  0.64882000  0.69507000  0.67866000  1.0
  H  H25  1  0.30493000  0.35118000  0.82134000  1.0
  H  H26  1  0.35118000  0.30493000  0.32133000  1.0
  H  H27  1  0.69507000  0.64882000  0.17867000  1.0
  H  H28  1  0.73381000  0.62498000  0.74766000  1.0
  H  H29  1  0.37502000  0.26618000  0.75234000  1.0
  H  H30  1  0.26619000  0.37502000  0.25234000  1.0
  H  H31  1  0.62497000  0.73381000  0.24766000  1.0
  H  H32  1  0.23092000  0.71544000  0.34878000  1.0
  H  H33  1  0.28456000  0.76908000  0.15122000  1.0
  H  H34  1  0.76908000  0.28456000  0.65121000  1.0
  H  H35  1  0.71544000  0.23092000  0.84878000  1.0
  H  H36  1  0.15040000  0.67891000  0.31439000  1.0
  H  H37  1  0.32109000  0.84960000  0.18562000  1.0
  H  H38  1  0.84960000  0.32109000  0.68561000  1.0
  H  H39  1  0.67891000  0.15040000  0.81439000  1.0
  H  H40  1  0.02068000  0.00289000  0.35653000  1.0
  H  H41  1  0.99711000  0.97932000  0.14347000  1.0
  H  H42  1  0.97932000  0.99711000  0.64347000  1.0
  H  H43  1  0.00289000  0.02068000  0.85653000  1.0
  H  H44  1  0.05421000  0.86145000  0.39211000  1.0
  H  H45  1  0.13855000  0.94579000  0.10789000  1.0
  H  H46  1  0.94578000  0.13855000  0.60789000  1.0
  H  H47  1  0.86145000  0.05422000  0.89211000  1.0
  H  H48  1  0.06789000  0.60142000  0.59868000  1.0
  H  H49  1  0.39858000  0.93211000  0.90132000  1.0
  H  H50  1  0.93212000  0.39858000  0.40132000  1.0
  H  H51  1  0.60142000  0.06789000  0.09868000  1.0
  H  H52  1  0.33189000  0.48988000  0.34536000  1.0
  H  H53  1  0.51012000  0.66810000  0.15464000  1.0
  H  H54  1  0.66810000  0.51012000  0.65464000  1.0
  H  H55  1  0.48988000  0.33190000  0.84536000  1.0
  H  H56  1  0.93142000  0.83257000  0.63521000  1.0
  H  H57  1  0.16743000  0.06858000  0.86479000  1.0
  H  H58  1  0.06858000  0.16743000  0.36479000  1.0
  H  H59  1  0.83257000  0.93142000  0.13521000  1.0
  H  H60  1  0.81550000  0.04612000  0.36643000  1.0
  H  H61  1  0.95388000  0.18450000  0.13357000  1.0
  H  H62  1  0.18450000  0.95388000  0.63357000  1.0
  H  H63  1  0.04612000  0.81550000  0.86643000  1.0
  H  H64  1  0.80990000  0.18526000  0.01156000  1.0
  H  H65  1  0.81473000  0.19010000  0.48844000  1.0
  H  H66  1  0.19010000  0.81474000  0.98845000  1.0
  H  H67  1  0.18526000  0.80990000  0.51155000  1.0
  H  H68  1  0.57225000  0.50447000  0.01986000  1.0
  H  H69  1  0.49552000  0.42776000  0.48014000  1.0
  H  H70  1  0.42776000  0.49553000  0.98014000  1.0
  H  H71  1  0.50447000  0.57225000  0.51986000  1.0
  H  H72  1  0.48761000  0.42817000  0.21339000  1.0
  H  H73  1  0.57182000  0.51240000  0.28660000  1.0
  H  H74  1  0.51240000  0.57183000  0.78661000  1.0
  H  H75  1  0.42818000  0.48760000  0.71339000  1.0
  C  C76  1  0.13768000  0.54735000  0.55493000  1.0
  C  C77  1  0.45265000  0.86232000  0.94507000  1.0
  C  C78  1  0.86232000  0.45265000  0.44507000  1.0
  C  C79  1  0.54735000  0.13768000  0.05493000  1.0
  C  C80  1  0.27557000  0.48937000  0.42514000  1.0
  C  C81  1  0.51064000  0.72442000  0.07487000  1.0
  C  C82  1  0.72443000  0.51064000  0.57487000  1.0
  C  C83  1  0.48936000  0.27557000  0.92514000  1.0
  C  C84  1  0.87627000  0.88487000  0.58602000  1.0
  C  C85  1  0.11513000  0.12373000  0.91398000  1.0
  C  C86  1  0.12373000  0.11513000  0.41398000  1.0
  C  C87  1  0.88487000  0.87627000  0.08602000  1.0
  C  C88  1  0.81599000  0.99591000  0.44782000  1.0
  C  C89  1  0.00409000  0.18401000  0.05218000  1.0
  C  C90  1  0.18401000  0.00409000  0.55218000  1.0
  C  C91  1  0.99591000  0.81599000  0.94781000  1.0
  C  C92  1  0.60076000  0.26322000  0.22453000  1.0
  C  C93  1  0.73678000  0.39924000  0.27547000  1.0
  C  C94  1  0.39924000  0.73678000  0.77547000  1.0
  C  C95  1  0.26322000  0.60076000  0.72453000  1.0
  C  C96  1  0.69209000  0.19468000  0.16681000  1.0
  C  C97  1  0.80532000  0.30791000  0.33319000  1.0
  C  C98  1  0.30791000  0.80532000  0.83319000  1.0
  C  C99  1  0.19468000  0.69209000  0.66681000  1.0
  C  C100  1  0.73945000  0.23816000  0.05672000  1.0
  C  C101  1  0.76183000  0.26056000  0.44328000  1.0
  C  C102  1  0.26056000  0.76184000  0.94328000  1.0
  C  C103  1  0.23816000  0.73944000  0.55672000  1.0
  C  C104  1  0.69563000  0.34865000  0.00438000  1.0
  C  C105  1  0.65135000  0.30437000  0.49562000  1.0
  C  C106  1  0.30437000  0.65135000  0.99561000  1.0
  C  C107  1  0.34865000  0.69563000  0.50439000  1.0
  C  C108  1  0.60504000  0.41762000  0.06081000  1.0
  C  C109  1  0.58237000  0.39496000  0.43919000  1.0
  C  C110  1  0.39496000  0.58238000  0.93919000  1.0
  C  C111  1  0.41762000  0.60504000  0.56081000  1.0
  C  C112  1  0.55818000  0.37438000  0.16995000  1.0
  C  C113  1  0.62562000  0.44183000  0.33005000  1.0
  C  C114  1  0.44183000  0.62562000  0.83005000  1.0
  C  C115  1  0.37438000  0.55817000  0.66995000  1.0
  C  C116  1  0.55140000  0.22233000  0.34353000  1.0
  C  C117  1  0.77767000  0.44860000  0.15647000  1.0
  C  C118  1  0.44860000  0.77767000  0.65647000  1.0
  C  C119  1  0.22233000  0.55139000  0.84353000  1.0
  C  C120  1  0.74093000  0.07230000  0.21259000  1.0
  C  C121  1  0.92770000  0.25907000  0.28741000  1.0
  C  C122  1  0.25907000  0.92770000  0.78741000  1.0
  C  C123  1  0.07230000  0.74093000  0.71259000  1.0
  S  S124  1  0.74959000  0.40287000  0.86301000  1.0
  S  S125  1  0.59713000  0.25042000  0.63699000  1.0
  S  S126  1  0.25041000  0.59713000  0.13699000  1.0
  S  S127  1  0.40287000  0.74959000  0.36301000  1.0
  N  N128  1  0.27356000  0.40572000  0.51411000  1.0
  N  N129  1  0.59428000  0.72644000  0.98589000  1.0
  N  N130  1  0.72644000  0.59429000  0.48588000  1.0
  N  N131  1  0.40572000  0.27356000  0.01411000  1.0
  N  N132  1  0.18741000  0.44201000  0.59561000  1.0
  N  N133  1  0.55799000  0.81258000  0.90439000  1.0
  N  N134  1  0.81258000  0.55799000  0.40439000  1.0
  N  N135  1  0.44201000  0.18742000  0.09561000  1.0
  N  N136  1  0.19055000  0.57945000  0.44805000  1.0
  N  N137  1  0.42055000  0.80945000  0.05195000  1.0
  N  N138  1  0.80945000  0.42055000  0.55195000  1.0
  N  N139  1  0.57945000  0.19055000  0.94805000  1.0
  N  N140  1  0.16208000  0.68671000  0.37828000  1.0
  N  N141  1  0.31329000  0.83792000  0.12173000  1.0
  N  N142  1  0.83792000  0.31329000  0.62172000  1.0
  N  N143  1  0.68671000  0.16208000  0.87828000  1.0
  N  N144  1  0.72939000  0.98064000  0.53288000  1.0
  N  N145  1  0.01935000  0.27062000  0.96712000  1.0
  N  N146  1  0.27061000  0.01936000  0.46712000  1.0
  N  N147  1  0.98065000  0.72938000  0.03288000  1.0
  N  N148  1  0.76687000  0.91068000  0.61868000  1.0
  N  N149  1  0.08932000  0.23314000  0.88132000  1.0
  N  N150  1  0.23313000  0.08932000  0.38132000  1.0
  N  N151  1  0.91068000  0.76687000  0.11868000  1.0
  N  N152  1  0.90980000  0.93598000  0.47915000  1.0
  N  N153  1  0.06402000  0.09020000  0.02086000  1.0
  N  N154  1  0.09020000  0.06402000  0.52086000  1.0
  N  N155  1  0.93598000  0.90980000  0.97914000  1.0
  N  N156  1  0.02063000  0.93049000  0.41882000  1.0
  N  N157  1  0.06951000  0.97937000  0.08118000  1.0
  N  N158  1  0.97937000  0.06951000  0.58118000  1.0
  N  N159  1  0.93049000  0.02063000  0.91882000  1.0
  O  O160  1  0.45398000  0.27946000  0.38487000  1.0
  O  O161  1  0.72054000  0.54602000  0.11512000  1.0
  O  O162  1  0.54602000  0.72054000  0.61513000  1.0
  O  O163  1  0.27946000  0.45398000  0.88487000  1.0
  O  O164  1  0.61135000  0.13661000  0.39453000  1.0
  O  O165  1  0.86339000  0.38865000  0.10547000  1.0
  O  O166  1  0.38865000  0.86339000  0.60547000  1.0
  O  O167  1  0.13661000  0.61135000  0.89453000  1.0
  O  O168  1  0.68062000  0.00868000  0.23547000  1.0
  O  O169  1  0.99132000  0.31938000  0.26453000  1.0
  O  O170  1  0.31938000  0.99133000  0.76453000  1.0
  O  O171  1  0.00868000  0.68062000  0.73547000  1.0
  O  O172  1  0.83967000  0.03809000  0.21542000  1.0
  O  O173  1  0.96191000  0.16033000  0.28458000  1.0
  O  O174  1  0.16033000  0.96191000  0.78459000  1.0
  O  O175  1  0.03809000  0.83967000  0.71542000  1.0
  O  O176  1  0.77598000  0.50366000  0.84738000  1.0
  O  O177  1  0.49634000  0.22402000  0.65263000  1.0
  O  O178  1  0.22402000  0.49634000  0.15262000  1.0
  O  O179  1  0.50366000  0.77598000  0.34738000  1.0
  O  O180  1  0.65783000  0.42555000  0.82103000  1.0
  O  O181  1  0.57445000  0.34218000  0.67896000  1.0
  O  O182  1  0.34217000  0.57445000  0.17897000  1.0
  O  O183  1  0.42555000  0.65783000  0.32104000  1.0
  O  O184  1  0.84675000  0.31526000  0.82553000  1.0
  O  O185  1  0.68474000  0.15326000  0.67447000  1.0
  O  O186  1  0.15325000  0.68474000  0.17447000  1.0
  O  O187  1  0.31526000  0.84675000  0.32553000  1.0
  O  O188  1  0.41462000  0.08730000  0.55235000  1.0
  O  O189  1  0.91270000  0.58539000  0.94765000  1.0
  O  O190  1  0.58539000  0.91270000  0.44765000  1.0
  O  O191  1  0.08730000  0.41461000  0.05235000  1.0
  O  O192  1  0.54965000  0.93624000  0.68692000  1.0
  O  O193  1  0.06376000  0.45035000  0.81308000  1.0
  O  O194  1  0.45035000  0.06376000  0.31308000  1.0
  O  O195  1  0.93624000  0.54965000  0.18692000  1.0
  O  O196  1  0.23940000  0.22277000  0.66886000  1.0
  O  O197  1  0.77723000  0.76060000  0.83114000  1.0
  O  O198  1  0.76060000  0.77723000  0.33114000  1.0
  O  O199  1  0.22277000  0.23940000  0.16886000  1.0
  O  O200  1  0.71369000  0.69523000  0.69214000  1.0
  O  O201  1  0.30477000  0.28631000  0.80786000  1.0
  O  O202  1  0.28631000  0.30477000  0.30786000  1.0
  O  O203  1  0.69523000  0.71369000  0.19215000  1.0
