# generated using pymatgen
data_CuH7C7N5O2
_symmetry_space_group_name_H-M   'P 1'
_cell_length_a   15.24870000
_cell_length_b   15.25850000
_cell_length_c   15.49979191
_cell_angle_alpha   60.60811050
_cell_angle_beta   60.61477251
_cell_angle_gamma   89.95280000
_symmetry_Int_Tables_number   1
_chemical_formula_structural   CuH7C7N5O2
_chemical_formula_sum   'Cu8 H56 C56 N40 O16'
_cell_volume   2597.50101390
_cell_formula_units_Z   8
loop_
 _symmetry_equiv_pos_site_id
 _symmetry_equiv_pos_as_xyz
  1  'x, y, z'
loop_
 _atom_site_type_symbol
 _atom_site_label
 _atom_site_symmetry_multiplicity
 _atom_site_fract_x
 _atom_site_fract_y
 _atom_site_fract_z
 _atom_site_occupancy
  Cu  Cu0  1  0.46239000  0.48717000  0.10941000  1.0
  Cu  Cu1  1  0.92819000  0.40332000  0.10958000  1.0
  Cu  Cu2  1  0.40375000  0.46253000  0.60919000  1.0
  Cu  Cu3  1  0.48725000  0.92815000  0.60937000  1.0
  Cu  Cu4  1  0.53762000  0.51282000  0.89056000  1.0
  Cu  Cu5  1  0.07196000  0.59709000  0.88994000  1.0
  Cu  Cu6  1  0.59652000  0.53764000  0.39050000  1.0
  Cu  Cu7  1  0.51275000  0.07184000  0.39068000  1.0
  H  H8  1  0.35489000  0.62646000  0.19872000  1.0
  H  H9  1  0.94723000  0.17516000  0.19765000  1.0
  H  H10  1  0.17567000  0.35550000  0.69797000  1.0
  H  H11  1  0.62688000  0.94601000  0.69896000  1.0
  H  H12  1  0.64501000  0.37349000  0.80132000  1.0
  H  H13  1  0.05313000  0.82542000  0.80188000  1.0
  H  H14  1  0.82461000  0.64458000  0.30184000  1.0
  H  H15  1  0.37304000  0.05385000  0.30120000  1.0
  H  H16  1  0.36841000  0.94235000  0.82368000  1.0
  H  H17  1  0.30878000  0.23415000  0.82288000  1.0
  H  H18  1  0.23388000  0.36821000  0.32325000  1.0
  H  H19  1  0.94169000  0.30680000  0.32493000  1.0
  H  H20  1  0.63160000  0.05765000  0.17631000  1.0
  H  H21  1  0.69148000  0.76624000  0.17668000  1.0
  H  H22  1  0.76622000  0.63182000  0.67666000  1.0
  H  H23  1  0.05822000  0.69304000  0.67532000  1.0
  H  H24  1  0.31795000  0.92101000  0.96460000  1.0
  H  H25  1  0.21839000  0.11488000  0.96344000  1.0
  H  H26  1  0.11484000  0.31792000  0.46430000  1.0
  H  H27  1  0.92105000  0.21690000  0.46541000  1.0
  H  H28  1  0.68203000  0.07897000  0.03540000  1.0
  H  H29  1  0.78181000  0.88558000  0.03617000  1.0
  H  H30  1  0.88532000  0.68211000  0.53563000  1.0
  H  H31  1  0.07887000  0.78289000  0.53488000  1.0
  H  H32  1  0.54238000  0.72008000  0.67734000  1.0
  H  H33  1  0.28019000  0.60189000  0.67739000  1.0
  H  H34  1  0.60223000  0.54264000  0.17694000  1.0
  H  H35  1  0.71966000  0.27987000  0.17846000  1.0
  H  H36  1  0.45767000  0.27994000  0.32264000  1.0
  H  H37  1  0.72008000  0.39854000  0.32205000  1.0
  H  H38  1  0.39793000  0.45749000  0.82279000  1.0
  H  H39  1  0.28030000  0.72011000  0.82174000  1.0
  H  H40  1  0.14529000  0.27027000  0.25489000  1.0
  H  H41  1  0.09955000  0.47429000  0.25323000  1.0
  H  H42  1  0.47502000  0.14567000  0.75457000  1.0
  H  H43  1  0.27092000  0.09958000  0.75452000  1.0
  H  H44  1  0.85474000  0.72973000  0.74505000  1.0
  H  H45  1  0.89932000  0.52423000  0.74816000  1.0
  H  H46  1  0.52488000  0.85452000  0.24540000  1.0
  H  H47  1  0.72906000  0.90043000  0.24549000  1.0
  H  H48  1  0.16802000  0.34263000  0.10993000  1.0
  H  H49  1  0.22117000  0.54613000  0.10817000  1.0
  H  H50  1  0.54699000  0.16819000  0.60974000  1.0
  H  H51  1  0.34356000  0.22152000  0.60986000  1.0
  H  H52  1  0.83200000  0.65736000  0.89001000  1.0
  H  H53  1  0.77784000  0.45258000  0.89334000  1.0
  H  H54  1  0.45293000  0.83178000  0.39034000  1.0
  H  H55  1  0.65642000  0.77849000  0.39015000  1.0
  H  H56  1  0.21645000  0.23410000  0.15147000  1.0
  H  H57  1  0.13165000  0.61354000  0.14989000  1.0
  H  H58  1  0.61440000  0.21619000  0.65132000  1.0
  H  H59  1  0.23492000  0.13229000  0.65081000  1.0
  H  H60  1  0.78354000  0.76589000  0.84848000  1.0
  H  H61  1  0.86731000  0.38505000  0.85183000  1.0
  H  H62  1  0.38553000  0.78380000  0.34874000  1.0
  H  H63  1  0.76505000  0.86772000  0.34921000  1.0
  C  C64  1  0.37583000  0.66560000  0.10736000  1.0
  C  C65  1  0.01753000  0.22712000  0.10642000  1.0
  C  C66  1  0.22763000  0.37644000  0.60661000  1.0
  C  C67  1  0.66591000  0.01633000  0.60776000  1.0
  C  C68  1  0.62407000  0.33434000  0.89268000  1.0
  C  C69  1  0.98282000  0.77339000  0.89308000  1.0
  C  C70  1  0.77261000  0.62364000  0.39320000  1.0
  C  C71  1  0.33403000  0.98354000  0.39240000  1.0
  C  C72  1  0.44664000  0.66909000  0.93840000  1.0
  C  C73  1  0.11520000  0.39245000  0.93799000  1.0
  C  C74  1  0.39265000  0.44707000  0.43782000  1.0
  C  C75  1  0.66915000  0.11454000  0.43903000  1.0
  C  C76  1  0.55332000  0.33087000  0.06162000  1.0
  C  C77  1  0.88509000  0.60811000  0.06144000  1.0
  C  C78  1  0.60757000  0.55304000  0.56196000  1.0
  C  C79  1  0.33082000  0.88541000  0.56111000  1.0
  C  C80  1  0.43108000  0.76678000  0.88034000  1.0
  C  C81  1  0.18907000  0.35289000  0.87981000  1.0
  C  C82  1  0.35300000  0.43142000  0.37970000  1.0
  C  C83  1  0.76662000  0.18803000  0.38127000  1.0
  C  C84  1  0.56888000  0.23319000  0.11969000  1.0
  C  C85  1  0.81124000  0.64762000  0.11963000  1.0
  C  C86  1  0.64720000  0.56867000  0.62011000  1.0
  C  C87  1  0.23337000  0.81191000  0.61888000  1.0
  C  C88  1  0.38055000  0.80960000  0.94799000  1.0
  C  C89  1  0.17210000  0.24255000  0.94714000  1.0
  C  C90  1  0.24272000  0.38099000  0.44725000  1.0
  C  C91  1  0.80951000  0.17069000  0.44892000  1.0
  C  C92  1  0.61940000  0.19036000  0.05203000  1.0
  C  C93  1  0.82817000  0.75795000  0.05237000  1.0
  C  C94  1  0.75748000  0.61907000  0.55260000  1.0
  C  C95  1  0.19045000  0.82917000  0.55128000  1.0
  C  C96  1  0.50576000  0.71890000  0.75825000  1.0
  C  C97  1  0.23612000  0.52236000  0.75812000  1.0
  C  C98  1  0.52274000  0.50601000  0.25784000  1.0
  C  C99  1  0.71871000  0.23560000  0.25922000  1.0
  C  C100  1  0.49427000  0.28110000  0.24174000  1.0
  C  C101  1  0.76415000  0.47811000  0.24135000  1.0
  C  C102  1  0.47746000  0.49411000  0.74192000  1.0
  C  C103  1  0.28129000  0.76439000  0.74095000  1.0
  C  C104  1  0.30656000  0.37503000  0.10675000  1.0
  C  C105  1  0.08538000  0.51750000  0.10543000  1.0
  C  C106  1  0.51837000  0.30691000  0.60635000  1.0
  C  C107  1  0.37570000  0.08635000  0.60618000  1.0
  C  C108  1  0.69347000  0.62496000  0.89317000  1.0
  C  C109  1  0.91387000  0.48175000  0.89550000  1.0
  C  C110  1  0.48177000  0.69324000  0.39343000  1.0
  C  C111  1  0.62426000  0.91366000  0.39384000  1.0
  C  C112  1  0.20216000  0.30057000  0.16049000  1.0
  C  C113  1  0.13673000  0.53806000  0.15890000  1.0
  C  C114  1  0.53892000  0.20232000  0.66020000  1.0
  C  C115  1  0.30135000  0.13716000  0.66004000  1.0
  C  C116  1  0.79786000  0.69942000  0.83945000  1.0
  C  C117  1  0.86227000  0.46063000  0.84253000  1.0
  C  C118  1  0.46103000  0.79776000  0.33978000  1.0
  C  C119  1  0.69862000  0.86285000  0.33997000  1.0
  N  N120  1  0.35424000  0.75598000  0.06225000  1.0
  N  N121  1  0.08422000  0.18190000  0.06116000  1.0
  N  N122  1  0.18232000  0.35486000  0.56145000  1.0
  N  N123  1  0.75620000  0.08282000  0.56289000  1.0
  N  N124  1  0.64567000  0.24396000  0.93778000  1.0
  N  N125  1  0.91608000  0.81859000  0.93837000  1.0
  N  N126  1  0.81790000  0.64520000  0.43839000  1.0
  N  N127  1  0.24373000  0.91702000  0.43731000  1.0
  N  N128  1  0.42084000  0.61694000  0.05189000  1.0
  N  N129  1  0.02784000  0.33104000  0.05127000  1.0
  N  N130  1  0.33157000  0.42137000  0.55122000  1.0
  N  N131  1  0.61723000  0.02696000  0.55223000  1.0
  N  N132  1  0.57909000  0.38301000  0.94814000  1.0
  N  N133  1  0.97256000  0.66948000  0.94815000  1.0
  N  N134  1  0.66868000  0.57870000  0.44855000  1.0
  N  N135  1  0.38274000  0.97297000  0.44789000  1.0
  N  N136  1  0.35728000  0.90049000  0.90613000  1.0
  N  N137  1  0.23738000  0.19368000  0.90505000  1.0
  N  N138  1  0.19355000  0.35766000  0.40546000  1.0
  N  N139  1  0.90038000  0.23572000  0.40708000  1.0
  N  N140  1  0.64272000  0.09949000  0.09387000  1.0
  N  N141  1  0.76286000  0.80677000  0.09448000  1.0
  N  N142  1  0.80661000  0.64239000  0.59443000  1.0
  N  N143  1  0.09959000  0.76408000  0.59316000  1.0
  N  N144  1  0.47045000  0.79754000  0.76468000  1.0
  N  N145  1  0.26530000  0.43749000  0.76437000  1.0
  N  N146  1  0.43780000  0.47066000  0.26415000  1.0
  N  N147  1  0.79724000  0.26440000  0.26582000  1.0
  N  N148  1  0.52956000  0.20245000  0.23533000  1.0
  N  N149  1  0.73496000  0.56295000  0.23513000  1.0
  N  N150  1  0.56239000  0.52943000  0.73565000  1.0
  N  N151  1  0.20279000  0.73560000  0.73432000  1.0
  N  N152  1  0.49250000  0.63899000  0.86105000  1.0
  N  N153  1  0.14650000  0.49965000  0.86074000  1.0
  N  N154  1  0.49991000  0.49288000  0.36062000  1.0
  N  N155  1  0.63902000  0.14609000  0.36167000  1.0
  N  N156  1  0.50750000  0.36100000  0.13895000  1.0
  N  N157  1  0.85375000  0.50092000  0.13871000  1.0
  N  N158  1  0.50032000  0.50726000  0.63912000  1.0
  N  N159  1  0.36096000  0.85388000  0.63847000  1.0
  O  O160  1  0.31475000  0.39652000  0.17319000  1.0
  O  O161  1  0.01065000  0.42996000  0.17221000  1.0
  O  O162  1  0.43067000  0.31533000  0.67270000  1.0
  O  O163  1  0.39707000  0.01158000  0.67258000  1.0
  O  O164  1  0.68529000  0.60343000  0.82675000  1.0
  O  O165  1  0.98833000  0.56939000  0.82852000  1.0
  O  O166  1  0.56951000  0.68494000  0.32703000  1.0
  O  O167  1  0.60293000  0.98846000  0.32742000  1.0
  O  O168  1  0.37874000  0.41134000  0.99871000  1.0
  O  O169  1  0.12090000  0.58921000  0.99749000  1.0
  O  O170  1  0.58993000  0.37903000  0.49838000  1.0
  O  O171  1  0.41205000  0.12218000  0.49802000  1.0
  O  O172  1  0.62127000  0.58869000  0.00119000  1.0
  O  O173  1  0.87859000  0.41013000  0.00352000  1.0
  O  O174  1  0.41021000  0.62103000  0.50138000  1.0
  O  O175  1  0.58789000  0.87781000  0.50200000  1.0
