# generated using pymatgen
data_AgH6C7SN3(OF)3
_symmetry_space_group_name_H-M   'P 1'
_cell_length_a   7.17610000
_cell_length_b   8.74409000
_cell_length_c   10.34460000
_cell_angle_alpha   99.37550000
_cell_angle_beta   105.77600000
_cell_angle_gamma   110.72600000
_symmetry_Int_Tables_number   1
_chemical_formula_structural   AgH6C7SN3(OF)3
_chemical_formula_sum   'Ag2 H12 C14 S2 N6 O6 F6'
_cell_volume   559.49625944
_cell_formula_units_Z   2
loop_
 _symmetry_equiv_pos_site_id
 _symmetry_equiv_pos_as_xyz
  1  'x, y, z'
loop_
 _atom_site_type_symbol
 _atom_site_label
 _atom_site_symmetry_multiplicity
 _atom_site_fract_x
 _atom_site_fract_y
 _atom_site_fract_z
 _atom_site_occupancy
  Ag  Ag0  1  0.17403000  0.23772000  0.11715000  1.0
  Ag  Ag1  1  0.82597000  0.76228000  0.88285000  1.0
  H  H2  1  0.18182000  0.23748000  0.43965000  1.0
  H  H3  1  0.81818000  0.76251000  0.56035000  1.0
  H  H4  1  0.38053000  0.42231000  0.68783000  1.0
  H  H5  1  0.61946000  0.57768000  0.31218000  1.0
  H  H6  1  0.83736000  0.35105000  0.94310000  1.0
  H  H7  1  0.16265000  0.64895000  0.05690000  1.0
  H  H8  1  0.47929000  0.34598000  0.93515000  1.0
  H  H9  1  0.52072000  0.65404000  0.06485000  1.0
  H  H10  1  0.47333000  0.08045000  0.23354000  1.0
  H  H11  1  0.52666000  0.91955000  0.76645000  1.0
  H  H12  1  0.82658000  0.08178000  0.24015000  1.0
  H  H13  1  0.17342000  0.91822000  0.75985000  1.0
  C  C14  1  0.18034000  0.77426000  0.38781000  1.0
  C  C15  1  0.81966000  0.22573000  0.61219000  1.0
  C  C16  1  0.32293000  0.35582000  0.46586000  1.0
  C  C17  1  0.67706000  0.64417000  0.53415000  1.0
  C  C18  1  0.43455000  0.45857000  0.60411000  1.0
  C  C19  1  0.56545000  0.54142000  0.39590000  1.0
  C  C20  1  0.75609000  0.29163000  0.00859000  1.0
  C  C21  1  0.24392000  0.70837000  0.99141000  1.0
  C  C22  1  0.55941000  0.28927000  0.00460000  1.0
  C  C23  1  0.44060000  0.71074000  0.99539000  1.0
  C  C24  1  0.55631000  0.14221000  0.16958000  1.0
  C  C25  1  0.44369000  0.85780000  0.83041000  1.0
  C  C26  1  0.75205000  0.14412000  0.17337000  1.0
  C  C27  1  0.24795000  0.85588000  0.82663000  1.0
  S  S28  1  0.99162000  0.82378000  0.25574000  1.0
  S  S29  1  0.00838000  0.17622000  0.74427000  1.0
  N  N30  1  0.38839000  0.39771000  0.36162000  1.0
  N  N31  1  0.61161000  0.60228000  0.63839000  1.0
  N  N32  1  0.85247000  0.21856000  0.09236000  1.0
  N  N33  1  0.14754000  0.78144000  0.90764000  1.0
  N  N34  1  0.45867000  0.21425000  0.08464000  1.0
  N  N35  1  0.54133000  0.78576000  0.91535000  1.0
  O  O36  1  0.13487000  0.97151000  0.22870000  1.0
  O  O37  1  0.86514000  0.02849000  0.77131000  1.0
  O  O38  1  0.88606000  0.66642000  0.13884000  1.0
  O  O39  1  0.11394000  0.33359000  0.86116000  1.0
  O  O40  1  0.85390000  0.85861000  0.32546000  1.0
  O  O41  1  0.14610000  0.14139000  0.67454000  1.0
  F  F42  1  0.28408000  0.90163000  0.50980000  1.0
  F  F43  1  0.71592000  0.09837000  0.49020000  1.0
  F  F44  1  0.07665000  0.62784000  0.41692000  1.0
  F  F45  1  0.92334000  0.37215000  0.58308000  1.0
  F  F46  1  0.32852000  0.75247000  0.33712000  1.0
  F  F47  1  0.67147000  0.24752000  0.66288000  1.0
