# generated using pymatgen
data_Co2H7C10NO7
_symmetry_space_group_name_H-M   'P 1'
_cell_length_a   9.93058000
_cell_length_b   12.66224045
_cell_length_c   13.04878589
_cell_angle_alpha   71.37973348
_cell_angle_beta   67.63872046
_cell_angle_gamma   66.92433953
_symmetry_Int_Tables_number   1
_chemical_formula_structural   Co2H7C10NO7
_chemical_formula_sum   'Co8 H28 C40 N4 O28'
_cell_volume   1367.79338070
_cell_formula_units_Z   4
loop_
 _symmetry_equiv_pos_site_id
 _symmetry_equiv_pos_as_xyz
  1  'x, y, z'
loop_
 _atom_site_type_symbol
 _atom_site_label
 _atom_site_symmetry_multiplicity
 _atom_site_fract_x
 _atom_site_fract_y
 _atom_site_fract_z
 _atom_site_occupancy
  Co  Co0  1  0.47696000  0.38692000  0.10565000  1.0
  Co  Co1  1  0.67431000  0.83521000  0.74224000  1.0
  Co  Co2  1  0.96938000  0.11309000  0.39453000  1.0
  Co  Co3  1  0.25189000  0.66470000  0.75775000  1.0
  Co  Co4  1  0.52307000  0.61306000  0.89435000  1.0
  Co  Co5  1  0.32570000  0.16477000  0.25780000  1.0
  Co  Co6  1  0.03059000  0.88690000  0.60548000  1.0
  Co  Co7  1  0.74811000  0.33530000  0.24227000  1.0
  H  H8  1  0.91818000  0.10526000  0.85365000  1.0
  H  H9  1  0.79856000  0.24941000  0.98213000  1.0
  H  H10  1  0.36224000  0.28317000  0.99236000  1.0
  H  H11  1  0.46384000  0.13199000  0.87313000  1.0
  H  H12  1  0.84856000  0.03025000  0.25513000  1.0
  H  H13  1  0.57071000  0.08635000  0.46189000  1.0
  H  H14  1  0.63140000  0.96619000  0.39930000  1.0
  H  H15  1  0.87681000  0.39476000  0.64679000  1.0
  H  H16  1  0.03010000  0.25050000  0.51847000  1.0
  H  H17  1  0.63822000  0.21611000  0.50811000  1.0
  H  H18  1  0.46909000  0.36716000  0.62737000  1.0
  H  H19  1  0.13389000  0.46978000  0.24501000  1.0
  H  H20  1  0.11906000  0.41360000  0.03821000  1.0
  H  H21  1  0.99701000  0.53380000  0.10072000  1.0
  H  H22  1  0.08179000  0.89474000  0.14630000  1.0
  H  H23  1  0.20145000  0.75058000  0.01785000  1.0
  H  H24  1  0.63774000  0.71685000  0.00765000  1.0
  H  H25  1  0.53610000  0.86806000  0.12685000  1.0
  H  H26  1  0.15146000  0.96974000  0.74489000  1.0
  H  H27  1  0.42927000  0.91365000  0.53810000  1.0
  H  H28  1  0.36859000  0.03381000  0.60069000  1.0
  H  H29  1  0.12322000  0.60523000  0.35321000  1.0
  H  H30  1  0.96989000  0.74949000  0.48153000  1.0
  H  H31  1  0.36176000  0.78387000  0.49191000  1.0
  H  H32  1  0.53089000  0.63283000  0.37265000  1.0
  H  H33  1  0.86613000  0.53022000  0.75500000  1.0
  H  H34  1  0.88099000  0.58639000  0.96179000  1.0
  H  H35  1  0.00304000  0.46620000  0.89927000  1.0
  C  C36  1  0.76243000  0.01745000  0.78143000  1.0
  C  C37  1  0.69938000  0.10742000  0.85361000  1.0
  C  C38  1  0.79422000  0.14244000  0.88361000  1.0
  C  C39  1  0.72828000  0.22352000  0.95363000  1.0
  C  C40  1  0.48470000  0.24146000  0.96013000  1.0
  C  C41  1  0.54099000  0.15827000  0.89381000  1.0
  C  C42  1  0.63122000  0.15705000  0.24173000  1.0
  C  C43  1  0.75194000  0.09217000  0.30534000  1.0
  C  C44  1  0.67413000  0.02392000  0.41748000  1.0
  C  C45  1  0.76097000  0.95218000  0.50299000  1.0
  C  C46  1  0.56112000  0.48231000  0.71883000  1.0
  C  C47  1  0.66031000  0.39228000  0.64676000  1.0
  C  C48  1  0.82015000  0.35742000  0.61683000  1.0
  C  C49  1  0.90545000  0.27631000  0.54685000  1.0
  C  C50  1  0.68656000  0.25799000  0.54033000  1.0
  C  C51  1  0.59318000  0.34112000  0.60667000  1.0
  C  C52  1  0.02997000  0.34296000  0.25828000  1.0
  C  C53  1  0.14943000  0.40788000  0.19475000  1.0
  C  C54  1  0.11562000  0.47609000  0.08256000  1.0
  C  C55  1  0.21629000  0.54783000  0.99703000  1.0
  C  C56  1  0.23753000  0.98255000  0.21856000  1.0
  C  C57  1  0.30059000  0.89259000  0.14636000  1.0
  C  C58  1  0.20575000  0.85758000  0.11635000  1.0
  C  C59  1  0.27172000  0.77649000  0.04634000  1.0
  C  C60  1  0.51529000  0.75856000  0.03986000  1.0
  C  C61  1  0.45898000  0.84176000  0.10616000  1.0
  C  C62  1  0.36878000  0.84294000  0.75828000  1.0
  C  C63  1  0.24808000  0.90783000  0.69468000  1.0
  C  C64  1  0.32589000  0.97606000  0.58253000  1.0
  C  C65  1  0.23900000  0.04781000  0.49703000  1.0
  C  C66  1  0.43890000  0.51769000  0.28119000  1.0
  C  C67  1  0.33971000  0.60771000  0.35325000  1.0
  C  C68  1  0.17986000  0.64258000  0.38317000  1.0
  C  C69  1  0.09454000  0.72369000  0.45315000  1.0
  C  C70  1  0.31342000  0.74201000  0.45968000  1.0
  C  C71  1  0.40680000  0.65888000  0.39335000  1.0
  C  C72  1  0.97002000  0.65705000  0.74172000  1.0
  C  C73  1  0.85059000  0.59212000  0.80525000  1.0
  C  C74  1  0.88442000  0.52391000  0.91743000  1.0
  C  C75  1  0.78376000  0.45218000  0.00294000  1.0
  N  N76  1  0.57567000  0.27331000  0.99154000  1.0
  N  N77  1  0.84075000  0.22639000  0.50886000  1.0
  N  N78  1  0.42434000  0.72669000  0.00846000  1.0
  N  N79  1  0.15924000  0.77359000  0.49115000  1.0
  O  O80  1  0.89936000  0.99961000  0.71906000  1.0
  O  O81  1  0.66654000  0.96814000  0.79052000  1.0
  O  O82  1  0.60791000  0.26779000  0.20845000  1.0
  O  O83  1  0.55833000  0.10151000  0.23013000  1.0
  O  O84  1  0.80478000  0.17301000  0.32033000  1.0
  O  O85  1  0.70630000  0.87284000  0.57510000  1.0
  O  O86  1  0.87457000  0.97571000  0.50402000  1.0
  O  O87  1  0.61785000  0.50049000  0.78101000  1.0
  O  O88  1  0.42495000  0.53140000  0.70990000  1.0
  O  O89  1  0.08411000  0.23222000  0.29150000  1.0
  O  O90  1  0.88997000  0.39846000  0.26988000  1.0
  O  O91  1  0.29806000  0.32705000  0.17979000  1.0
  O  O92  1  0.15433000  0.62715000  0.92494000  1.0
  O  O93  1  0.35441000  0.52433000  0.99603000  1.0
  O  O94  1  0.10060000  0.00042000  0.28092000  1.0
  O  O95  1  0.33342000  0.03185000  0.20949000  1.0
  O  O96  1  0.39212000  0.73220000  0.79153000  1.0
  O  O97  1  0.44165000  0.89848000  0.76990000  1.0
  O  O98  1  0.19520000  0.82698000  0.67969000  1.0
  O  O99  1  0.29364000  0.12717000  0.42492000  1.0
  O  O100  1  0.12541000  0.02428000  0.49598000  1.0
  O  O101  1  0.38217000  0.49953000  0.21899000  1.0
  O  O102  1  0.57508000  0.46859000  0.29009000  1.0
  O  O103  1  0.91587000  0.76780000  0.70850000  1.0
  O  O104  1  0.11002000  0.60155000  0.73014000  1.0
  O  O105  1  0.70201000  0.67293000  0.82021000  1.0
  O  O106  1  0.84566000  0.37285000  0.07506000  1.0
  O  O107  1  0.64565000  0.47567000  0.00395000  1.0
