# generated using pymatgen
data_Zr3H14C31ClO16F5
_symmetry_space_group_name_H-M   'P 1'
_cell_length_a   14.82286936
_cell_length_b   14.83954791
_cell_length_c   14.86950000
_cell_angle_alpha   60.19006238
_cell_angle_beta   60.11884381
_cell_angle_gamma   60.11917358
_symmetry_Int_Tables_number   1
_chemical_formula_structural   Zr3H14C31ClO16F5
_chemical_formula_sum   'Zr6 H28 C62 Cl2 O32 F10'
_cell_volume   2320.25318281
_cell_formula_units_Z   2
loop_
 _symmetry_equiv_pos_site_id
 _symmetry_equiv_pos_as_xyz
  1  'x, y, z'
loop_
 _atom_site_type_symbol
 _atom_site_label
 _atom_site_symmetry_multiplicity
 _atom_site_fract_x
 _atom_site_fract_y
 _atom_site_fract_z
 _atom_site_occupancy
  Zr  Zr0  1  0.37771000  0.88065000  0.12278000  1.0
  Zr  Zr1  1  0.61652000  0.11849000  0.88306000  1.0
  Zr  Zr2  1  0.37728000  0.11890000  0.88200000  1.0
  Zr  Zr3  1  0.61529000  0.88323000  0.12026000  1.0
  Zr  Zr4  1  0.61290000  0.88144000  0.88296000  1.0
  Zr  Zr5  1  0.37512000  0.12107000  0.11913000  1.0
  H  H6  1  0.40175000  0.90657000  0.90757000  1.0
  H  H7  1  0.77748000  0.90860000  0.90672000  1.0
  H  H8  1  0.40357000  0.28115000  0.90643000  1.0
  H  H9  1  0.40333000  0.90868000  0.28176000  1.0
  H  H10  1  0.74767000  0.54725000  0.82886000  1.0
  H  H11  1  0.64956000  0.63110000  0.75852000  1.0
  H  H12  1  0.65118000  0.46146000  0.75617000  1.0
  H  H13  1  0.74828000  0.37719000  0.82777000  1.0
  H  H14  1  0.05364000  0.24090000  0.39346000  1.0
  H  H15  1  0.13372000  0.14156000  0.48065000  1.0
  H  H16  1  0.95938000  0.14578000  0.64586000  1.0
  H  H17  1  0.87904000  0.24190000  0.55771000  1.0
  H  H18  1  0.85279000  0.52547000  0.25734000  1.0
  H  H19  1  0.93755000  0.60934000  0.18654000  1.0
  H  H20  1  0.10735000  0.43880000  0.18569000  1.0
  H  H21  1  0.02196000  0.35572000  0.25423000  1.0
  H  H22  1  0.75568000  0.85695000  0.35534000  1.0
  H  H23  1  0.67489000  0.76823000  0.43972000  1.0
  H  H24  1  0.67813000  0.76583000  0.60882000  1.0
  H  H25  1  0.75762000  0.85550000  0.52504000  1.0
  H  H26  1  0.26023000  0.81216000  0.00002000  1.0
  H  H27  1  0.26689000  0.65652000  0.97586000  1.0
  H  H28  1  0.92712000  0.81448000  0.99266000  1.0
  H  H29  1  0.09931000  0.65796000  0.97181000  1.0
  H  H30  1  0.33706000  0.54026000  0.37122000  1.0
  H  H31  1  0.25472000  0.62400000  0.45690000  1.0
  H  H32  1  0.25587000  0.45290000  0.62514000  1.0
  H  H33  1  0.33804000  0.36943000  0.53918000  1.0
  C  C34  1  0.49956000  0.69182000  0.01098000  1.0
  C  C35  1  0.79443000  0.00032000  0.69795000  1.0
  C  C36  1  0.50140000  0.29565000  0.00804000  1.0
  C  C37  1  0.19149000  0.00253000  0.30191000  1.0
  C  C38  1  0.18748000  0.00280000  0.01265000  1.0
  C  C39  1  0.50492000  0.69493000  0.30019000  1.0
  C  C40  1  0.79520000  0.00403000  0.00895000  1.0
  C  C41  1  0.50581000  0.29639000  0.69481000  1.0
  C  C42  1  0.49796000  0.00642000  0.69494000  1.0
  C  C43  1  0.19146000  0.30055000  0.99842000  1.0
  C  C44  1  0.49793000  0.01126000  0.29613000  1.0
  C  C45  1  0.79436000  0.69718000  0.00163000  1.0
  C  C46  1  0.50440000  0.58654000  0.01670000  1.0
  C  C47  1  0.50593000  0.38974000  0.01510000  1.0
  C  C48  1  0.57893000  0.54003000  0.93347000  1.0
  C  C49  1  0.43356000  0.43285000  0.10225000  1.0
  C  C50  1  0.57949000  0.44628000  0.93248000  1.0
  C  C51  1  0.43259000  0.52762000  0.10269000  1.0
  C  C52  1  0.67212000  0.55486000  0.82476000  1.0
  C  C53  1  0.67260000  0.44863000  0.82350000  1.0
  C  C54  1  0.09149000  0.00071000  0.40206000  1.0
  C  C55  1  0.89430000  0.99918000  0.59793000  1.0
  C  C56  1  0.04492000  0.07310000  0.45989000  1.0
  C  C57  1  0.94161000  0.92443000  0.54152000  1.0
  C  C58  1  0.95042000  0.07272000  0.55285000  1.0
  C  C59  1  0.03597000  0.92540000  0.44727000  1.0
  C  C60  1  0.05887000  0.16507000  0.46456000  1.0
  C  C61  1  0.95014000  0.16625000  0.56840000  1.0
  C  C62  1  0.89504000  0.59773000  0.99833000  1.0
  C  C63  1  0.09216000  0.40153000  0.99607000  1.0
  C  C64  1  0.94202000  0.54073000  0.08125000  1.0
  C  C65  1  0.04627000  0.45911000  0.91109000  1.0
  C  C66  1  0.03609000  0.44723000  0.07998000  1.0
  C  C67  1  0.95145000  0.55322000  0.91231000  1.0
  C  C68  1  0.92872000  0.53828000  0.19022000  1.0
  C  C69  1  0.03531000  0.43202000  0.18879000  1.0
  C  C70  1  0.49953000  0.01597000  0.39290000  1.0
  C  C71  1  0.50016000  0.01299000  0.59067000  1.0
  C  C72  1  0.58150000  0.93977000  0.44072000  1.0
  C  C73  1  0.41842000  0.09231000  0.54135000  1.0
  C  C74  1  0.58205000  0.93829000  0.53495000  1.0
  C  C75  1  0.41800000  0.09362000  0.44657000  1.0
  C  C76  1  0.68570000  0.84084000  0.43036000  1.0
  C  C77  1  0.68708000  0.83967000  0.53660000  1.0
  C  C78  1  0.08471000  0.00043000  0.01762000  1.0
  C  C79  1  0.09045000  0.90850000  0.00444000  1.0
  C  C80  1  0.98614000  0.08613000  0.03462000  1.0
  C  C81  1  0.18832000  0.81568000  0.99387000  1.0
  C  C82  1  0.19149000  0.72767000  0.98194000  1.0
  C  C83  1  0.89518000  0.00148000  0.01455000  1.0
  C  C84  1  0.89056000  0.08666000  0.03304000  1.0
  C  C85  1  0.99419000  0.90910000  0.00267000  1.0
  C  C86  1  0.00060000  0.81696000  0.98999000  1.0
  C  C87  1  0.09692000  0.72838000  0.97983000  1.0
  C  C88  1  0.50839000  0.59330000  0.39850000  1.0
  C  C89  1  0.50947000  0.39507000  0.59350000  1.0
  C  C90  1  0.42932000  0.54197000  0.44987000  1.0
  C  C91  1  0.59012000  0.44585000  0.54209000  1.0
  C  C92  1  0.42989000  0.44748000  0.54278000  1.0
  C  C93  1  0.58936000  0.54094000  0.44896000  1.0
  C  C94  1  0.32583000  0.54977000  0.44510000  1.0
  C  C95  1  0.32652000  0.44271000  0.55035000  1.0
  Cl  Cl96  1  0.76795000  0.19258000  0.05780000  1.0
  Cl  Cl97  1  0.97722000  0.19131000  0.06137000  1.0
  O  O98  1  0.42188000  0.73449000  0.08449000  1.0
  O  O99  1  0.75959000  0.07593000  0.73695000  1.0
  O  O100  1  0.57774000  0.25910000  0.92984000  1.0
  O  O101  1  0.23507000  0.92421000  0.26409000  1.0
  O  O102  1  0.22715000  0.07658000  0.93229000  1.0
  O  O103  1  0.57928000  0.73754000  0.25974000  1.0
  O  O104  1  0.75477000  0.92843000  0.08453000  1.0
  O  O105  1  0.42748000  0.26035000  0.73204000  1.0
  O  O106  1  0.57263000  0.92611000  0.73466000  1.0
  O  O107  1  0.22747000  0.26288000  0.07681000  1.0
  O  O108  1  0.42038000  0.08416000  0.25738000  1.0
  O  O109  1  0.75125000  0.73668000  0.92844000  1.0
  O  O110  1  0.23343000  0.26002000  0.92251000  1.0
  O  O111  1  0.57416000  0.93204000  0.26092000  1.0
  O  O112  1  0.76002000  0.73566000  0.07739000  1.0
  O  O113  1  0.42094000  0.07989000  0.73810000  1.0
  O  O114  1  0.22795000  0.92705000  0.08797000  1.0
  O  O115  1  0.57962000  0.25689000  0.73774000  1.0
  O  O116  1  0.76169000  0.07759000  0.92879000  1.0
  O  O117  1  0.42623000  0.73260000  0.26452000  1.0
  O  O118  1  0.22705000  0.08196000  0.26237000  1.0
  O  O119  1  0.57292000  0.73279000  0.92996000  1.0
  O  O120  1  0.75238000  0.92586000  0.73811000  1.0
  O  O121  1  0.42033000  0.26131000  0.07796000  1.0
  O  O122  1  0.42972000  0.93476000  0.20210000  1.0
  O  O123  1  0.42963000  0.20132000  0.93312000  1.0
  O  O124  1  0.69752000  0.93386000  0.93514000  1.0
  O  O125  1  0.42756000  0.93265000  0.93574000  1.0
  O  O126  1  0.54559000  0.04926000  0.85392000  1.0
  O  O127  1  0.54563000  0.85294000  0.05110000  1.0
  O  O128  1  0.54509000  0.05117000  0.05047000  1.0
  O  O129  1  0.34792000  0.04953000  0.05051000  1.0
  F  F130  1  0.36044000  0.38513000  0.19059000  1.0
  F  F131  1  0.35752000  0.56004000  0.19082000  1.0
  F  F132  1  0.89808000  0.84714000  0.57510000  1.0
  F  F133  1  0.07040000  0.84956000  0.40178000  1.0
  F  F134  1  0.09201000  0.42722000  0.82264000  1.0
  F  F135  1  0.91782000  0.59989000  0.82486000  1.0
  F  F136  1  0.33403000  0.17133000  0.58390000  1.0
  F  F137  1  0.33311000  0.17317000  0.41058000  1.0
  F  F138  1  0.67343000  0.40573000  0.58049000  1.0
  F  F139  1  0.67162000  0.58040000  0.41023000  1.0
