# generated using pymatgen
data_CaH16C16(ClO3)2
_symmetry_space_group_name_H-M   'P 1'
_cell_length_a   6.63954000
_cell_length_b   11.39920000
_cell_length_c   13.35260000
_cell_angle_alpha   73.87300000
_cell_angle_beta   89.99990000
_cell_angle_gamma   89.99940000
_symmetry_Int_Tables_number   1
_chemical_formula_structural   CaH16C16(ClO3)2
_chemical_formula_sum   'Ca2 H32 C32 Cl4 O12'
_cell_volume   970.82880290
_cell_formula_units_Z   2
loop_
 _symmetry_equiv_pos_site_id
 _symmetry_equiv_pos_as_xyz
  1  'x, y, z'
loop_
 _atom_site_type_symbol
 _atom_site_label
 _atom_site_symmetry_multiplicity
 _atom_site_fract_x
 _atom_site_fract_y
 _atom_site_fract_z
 _atom_site_occupancy
  Ca  Ca0  1  0.20455000  0.95519000  0.44964000  1.0
  Ca  Ca1  1  0.70456000  0.04482000  0.55035000  1.0
  H  H2  1  0.46473000  0.71059000  0.97449000  1.0
  H  H3  1  0.96474000  0.28942000  0.02550000  1.0
  H  H4  1  0.76970000  0.57992000  0.98553000  1.0
  H  H5  1  0.26971000  0.42007000  0.01447000  1.0
  H  H6  1  0.80989000  0.45334000  0.86186000  1.0
  H  H7  1  0.30990000  0.54666000  0.13815000  1.0
  H  H8  1  0.54889000  0.45868000  0.72764000  1.0
  H  H9  1  0.04890000  0.54131000  0.27237000  1.0
  H  H10  1  0.04445000  0.56832000  0.73536000  1.0
  H  H11  1  0.54445000  0.43168000  0.26464000  1.0
  H  H12  1  0.21741000  0.50844000  0.66265000  1.0
  H  H13  1  0.71742000  0.49156000  0.33735000  1.0
  H  H14  1  0.29712000  0.90149000  0.01769000  1.0
  H  H15  1  0.79711000  0.09851000  0.98231000  1.0
  H  H16  1  0.26900000  0.07551000  0.09649000  1.0
  H  H17  1  0.76900000  0.92449000  0.90350000  1.0
  H  H18  1  0.97964000  0.08815000  0.20913000  1.0
  H  H19  1  0.47964000  0.91186000  0.79087000  1.0
  H  H20  1  0.02516000  0.74448000  0.04879000  1.0
  H  H21  1  0.52515000  0.25552000  0.95120000  1.0
  H  H22  1  0.56638000  0.85060000  0.27930000  1.0
  H  H23  1  0.06637000  0.14939000  0.72070000  1.0
  H  H24  1  0.54959000  0.00525000  0.21229000  1.0
  H  H25  1  0.04960000  0.99473000  0.78771000  1.0
  H  H26  1  0.06190000  0.20635000  0.37520000  1.0
  H  H27  1  0.56189000  0.79366000  0.62480000  1.0
  H  H28  1  0.29802000  0.21866000  0.39019000  1.0
  H  H29  1  0.79800000  0.78134000  0.60980000  1.0
  H  H30  1  0.09752000  0.81096000  0.30332000  1.0
  H  H31  1  0.59753000  0.18904000  0.69668000  1.0
  H  H32  1  0.10311000  0.74525000  0.42359000  1.0
  H  H33  1  0.60311000  0.25476000  0.57641000  1.0
  C  C34  1  0.33679000  0.65424000  0.84665000  1.0
  C  C35  1  0.83681000  0.34576000  0.15334000  1.0
  C  C36  1  0.48439000  0.65471000  0.92096000  1.0
  C  C37  1  0.98440000  0.34529000  0.07903000  1.0
  C  C38  1  0.65515000  0.58193000  0.92659000  1.0
  C  C39  1  0.15517000  0.41807000  0.07341000  1.0
  C  C40  1  0.67742000  0.51118000  0.85707000  1.0
  C  C41  1  0.17744000  0.48881000  0.14294000  1.0
  C  C42  1  0.52996000  0.51379000  0.78208000  1.0
  C  C43  1  0.02997000  0.48619000  0.21793000  1.0
  C  C44  1  0.35513000  0.58463000  0.77542000  1.0
  C  C45  1  0.85515000  0.41537000  0.22459000  1.0
  C  C46  1  0.19285000  0.58407000  0.69753000  1.0
  C  C47  1  0.69287000  0.41593000  0.30247000  1.0
  C  C48  1  0.17366000  0.69967000  0.60659000  1.0
  C  C49  1  0.67365000  0.30033000  0.39342000  1.0
  C  C50  1  0.16822000  0.90834000  0.06627000  1.0
  C  C51  1  0.66819000  0.09166000  0.93373000  1.0
  C  C52  1  0.15282000  0.00532000  0.11094000  1.0
  C  C53  1  0.65281000  0.99468000  0.88906000  1.0
  C  C54  1  0.98862000  0.01287000  0.17384000  1.0
  C  C55  1  0.48861000  0.98713000  0.82616000  1.0
  C  C56  1  0.83360000  0.92516000  0.19312000  1.0
  C  C57  1  0.33360000  0.07484000  0.80688000  1.0
  C  C58  1  0.85120000  0.83031000  0.14518000  1.0
  C  C59  1  0.35120000  0.16969000  0.85482000  1.0
  C  C60  1  0.01676000  0.82034000  0.08334000  1.0
  C  C61  1  0.51674000  0.17965000  0.91667000  1.0
  C  C62  1  0.65409000  0.93584000  0.25807000  1.0
  C  C63  1  0.15408000  0.06415000  0.74193000  1.0
  C  C64  1  0.69369000  0.96920000  0.35879000  1.0
  C  C65  1  0.19368000  0.03080000  0.64121000  1.0
  Cl  Cl66  1  0.11995000  0.74103000  0.84356000  1.0
  Cl  Cl67  1  0.61997000  0.25897000  0.15644000  1.0
  Cl  Cl68  1  0.66003000  0.72232000  0.15963000  1.0
  Cl  Cl69  1  0.16002000  0.27768000  0.84037000  1.0
  O  O70  1  0.01077000  0.71346000  0.55380000  1.0
  O  O71  1  0.51078000  0.28653000  0.44619000  1.0
  O  O72  1  0.31891000  0.77529000  0.58409000  1.0
  O  O73  1  0.81894000  0.22472000  0.41591000  1.0
  O  O74  1  0.86880000  0.97105000  0.39525000  1.0
  O  O75  1  0.36879000  0.02897000  0.60475000  1.0
  O  O76  1  0.53864000  0.99402000  0.40575000  1.0
  O  O77  1  0.03863000  0.00597000  0.59424000  1.0
  O  O78  1  0.19459000  0.16936000  0.36740000  1.0
  O  O79  1  0.69460000  0.83065000  0.63259000  1.0
  O  O80  1  0.18817000  0.78913000  0.36314000  1.0
  O  O81  1  0.68818000  0.21087000  0.63687000  1.0
