# generated using pymatgen
data_ZnH9C7NO5
_symmetry_space_group_name_H-M   'P 1'
_cell_length_a   7.99543000
_cell_length_b   13.94640000
_cell_length_c   13.94640000
_cell_angle_alpha   60.00000000
_cell_angle_beta   89.99990000
_cell_angle_gamma   90.00010000
_symmetry_Int_Tables_number   1
_chemical_formula_structural   ZnH9C7NO5
_chemical_formula_sum   'Zn6 H54 C42 N6 O30'
_cell_volume   1346.78010229
_cell_formula_units_Z   6
loop_
 _symmetry_equiv_pos_site_id
 _symmetry_equiv_pos_as_xyz
  1  'x, y, z'
loop_
 _atom_site_type_symbol
 _atom_site_label
 _atom_site_symmetry_multiplicity
 _atom_site_fract_x
 _atom_site_fract_y
 _atom_site_fract_z
 _atom_site_occupancy
  Zn  Zn0  1  0.60424000  0.76738000  0.21922000  1.0
  Zn  Zn1  1  0.60424000  0.21921000  0.01341000  1.0
  Zn  Zn2  1  0.60424000  0.01340000  0.76739000  1.0
  Zn  Zn3  1  0.39576000  0.23262000  0.78078000  1.0
  Zn  Zn4  1  0.39576000  0.78079000  0.98660000  1.0
  Zn  Zn5  1  0.39576000  0.98660000  0.23261000  1.0
  H  H6  1  0.53038000  0.87183000  0.55147000  1.0
  H  H7  1  0.53038000  0.55147000  0.57670000  1.0
  H  H8  1  0.53038000  0.57670000  0.87184000  1.0
  H  H9  1  0.46962000  0.12817000  0.44853000  1.0
  H  H10  1  0.46962000  0.44853000  0.42330000  1.0
  H  H11  1  0.46963000  0.42330000  0.12816000  1.0
  H  H12  1  0.12569000  0.87917000  0.16981000  1.0
  H  H13  1  0.12569000  0.16981000  0.95102000  1.0
  H  H14  1  0.12569000  0.95102000  0.87917000  1.0
  H  H15  1  0.87431000  0.12083000  0.83019000  1.0
  H  H16  1  0.87431000  0.83019000  0.04898000  1.0
  H  H17  1  0.87431000  0.04898000  0.12083000  1.0
  H  H18  1  0.93933000  0.73851000  0.33241000  1.0
  H  H19  1  0.93933000  0.33240000  0.92909000  1.0
  H  H20  1  0.93933000  0.92908000  0.73852000  1.0
  H  H21  1  0.06067000  0.26149000  0.66759000  1.0
  H  H22  1  0.06067000  0.66760000  0.07091000  1.0
  H  H23  1  0.06067000  0.07092000  0.26148000  1.0
  H  H24  1  0.94464000  0.48181000  0.32756000  1.0
  H  H25  1  0.94464000  0.32756000  0.19063000  1.0
  H  H26  1  0.94464000  0.19063000  0.48181000  1.0
  H  H27  1  0.05536000  0.51819000  0.67244000  1.0
  H  H28  1  0.05536000  0.67244000  0.80937000  1.0
  H  H29  1  0.05536000  0.80937000  0.51819000  1.0
  H  H30  1  0.12202000  0.43035000  0.41905000  1.0
  H  H31  1  0.12202000  0.41906000  0.15059000  1.0
  H  H32  1  0.12202000  0.15059000  0.43035000  1.0
  H  H33  1  0.87798000  0.56965000  0.58094000  1.0
  H  H34  1  0.87798000  0.58094000  0.84941000  1.0
  H  H35  1  0.87798000  0.84941000  0.56965000  1.0
  H  H36  1  0.15224000  0.51992000  0.27455000  1.0
  H  H37  1  0.15223000  0.27455000  0.20553000  1.0
  H  H38  1  0.15224000  0.20553000  0.51992000  1.0
  H  H39  1  0.84776000  0.48008000  0.72545000  1.0
  H  H40  1  0.84777000  0.72545000  0.79447000  1.0
  H  H41  1  0.84776000  0.79447000  0.48008000  1.0
  H  H42  1  0.16847000  0.68807000  0.42663000  1.0
  H  H43  1  0.16847000  0.42663000  0.88530000  1.0
  H  H44  1  0.16847000  0.88530000  0.68807000  1.0
  H  H45  1  0.83153000  0.31193000  0.57337000  1.0
  H  H46  1  0.83153000  0.57337000  0.11470000  1.0
  H  H47  1  0.83153000  0.11470000  0.31193000  1.0
  H  H48  1  0.31338000  0.62080000  0.38264000  1.0
  H  H49  1  0.31338000  0.38264000  0.99656000  1.0
  H  H50  1  0.31338000  0.99656000  0.62080000  1.0
  H  H51  1  0.68662000  0.37920000  0.61736000  1.0
  H  H52  1  0.68662000  0.61736000  0.00344000  1.0
  H  H53  1  0.68662000  0.00344000  0.37920000  1.0
  H  H54  1  0.20006000  0.54114000  0.50844000  1.0
  H  H55  1  0.20006000  0.50844000  0.95042000  1.0
  H  H56  1  0.20006000  0.95042000  0.54114000  1.0
  H  H57  1  0.79994000  0.45886000  0.49156000  1.0
  H  H58  1  0.79994000  0.49156000  0.04958000  1.0
  H  H59  1  0.79994000  0.04958000  0.45886000  1.0
  C  C60  1  0.54260000  0.77330000  0.42683000  1.0
  C  C61  1  0.54260000  0.42683000  0.79988000  1.0
  C  C62  1  0.54260000  0.79987000  0.77330000  1.0
  C  C63  1  0.45740000  0.22670000  0.57317000  1.0
  C  C64  1  0.45740000  0.57317000  0.20012000  1.0
  C  C65  1  0.45740000  0.20013000  0.22670000  1.0
  C  C66  1  0.52895000  0.71747000  0.55088000  1.0
  C  C67  1  0.52895000  0.55088000  0.73166000  1.0
  C  C68  1  0.52895000  0.73166000  0.71747000  1.0
  C  C69  1  0.47105000  0.28253000  0.44912000  1.0
  C  C70  1  0.47105000  0.44912000  0.26835000  1.0
  C  C71  1  0.47105000  0.26834000  0.28253000  1.0
  C  C72  1  0.52783000  0.78195000  0.60210000  1.0
  C  C73  1  0.52783000  0.60210000  0.61595000  1.0
  C  C74  1  0.52783000  0.61595000  0.78195000  1.0
  C  C75  1  0.47217000  0.21805000  0.39790000  1.0
  C  C76  1  0.47217000  0.39790000  0.38405000  1.0
  C  C77  1  0.47217000  0.38405000  0.21805000  1.0
  C  C78  1  0.23939000  0.85103000  0.14556000  1.0
  C  C79  1  0.23939000  0.14556000  0.00341000  1.0
  C  C80  1  0.23939000  0.00341000  0.85103000  1.0
  C  C81  1  0.76061000  0.14897000  0.85443000  1.0
  C  C82  1  0.76061000  0.85444000  0.99659000  1.0
  C  C83  1  0.76061000  0.99660000  0.14896000  1.0
  C  C84  1  0.93668000  0.66995000  0.31459000  1.0
  C  C85  1  0.93668000  0.31459000  0.01545000  1.0
  C  C86  1  0.93668000  0.01546000  0.66995000  1.0
  C  C87  1  0.06332000  0.33005000  0.68541000  1.0
  C  C88  1  0.06332000  0.68541000  0.98454000  1.0
  C  C89  1  0.06332000  0.98454000  0.33005000  1.0
  C  C90  1  0.06987000  0.50141000  0.34477000  1.0
  C  C91  1  0.06987000  0.34477000  0.15382000  1.0
  C  C92  1  0.06987000  0.15382000  0.50141000  1.0
  C  C93  1  0.93013000  0.49859000  0.65523000  1.0
  C  C94  1  0.93013000  0.65523000  0.84618000  1.0
  C  C95  1  0.93013000  0.84618000  0.49859000  1.0
  C  C96  1  0.19294000  0.61208000  0.42390000  1.0
  C  C97  1  0.19294000  0.42391000  0.96401000  1.0
  C  C98  1  0.19294000  0.96401000  0.61208000  1.0
  C  C99  1  0.80706000  0.38792000  0.57610000  1.0
  C  C100  1  0.80706000  0.57609000  0.03599000  1.0
  C  C101  1  0.80706000  0.03599000  0.38792000  1.0
  N  N102  1  0.05895000  0.59553000  0.36255000  1.0
  N  N103  1  0.05895000  0.36256000  0.04191000  1.0
  N  N104  1  0.05895000  0.04191000  0.59553000  1.0
  N  N105  1  0.94105000  0.40447000  0.63745000  1.0
  N  N106  1  0.94105000  0.63744000  0.95809000  1.0
  N  N107  1  0.94105000  0.95809000  0.40447000  1.0
  O  O108  1  0.52417000  0.87751000  0.37353000  1.0
  O  O109  1  0.52417000  0.37353000  0.74896000  1.0
  O  O110  1  0.52417000  0.74896000  0.87751000  1.0
  O  O111  1  0.47583000  0.12249000  0.62647000  1.0
  O  O112  1  0.47583000  0.62647000  0.25104000  1.0
  O  O113  1  0.47583000  0.25103000  0.12250000  1.0
  O  O114  1  0.57702000  0.71179000  0.38593000  1.0
  O  O115  1  0.57702000  0.38593000  0.90228000  1.0
  O  O116  1  0.57702000  0.90228000  0.71179000  1.0
  O  O117  1  0.42298000  0.28821000  0.61407000  1.0
  O  O118  1  0.42298000  0.61407000  0.09772000  1.0
  O  O119  1  0.42298000  0.09772000  0.28821000  1.0
  O  O120  1  0.37906000  0.86709000  0.18070000  1.0
  O  O121  1  0.37906000  0.18070000  0.95221000  1.0
  O  O122  1  0.37906000  0.95221000  0.86709000  1.0
  O  O123  1  0.62094000  0.13291000  0.81930000  1.0
  O  O124  1  0.62094000  0.81930000  0.04780000  1.0
  O  O125  1  0.62094000  0.04779000  0.13291000  1.0
  O  O126  1  0.22047000  0.80719000  0.08651000  1.0
  O  O127  1  0.22047000  0.08650000  0.10630000  1.0
  O  O128  1  0.22047000  0.10630000  0.80719000  1.0
  O  O129  1  0.77952000  0.19281000  0.91349000  1.0
  O  O130  1  0.77953000  0.91350000  0.89370000  1.0
  O  O131  1  0.77953000  0.89370000  0.19281000  1.0
  O  O132  1  0.82633000  0.66439000  0.25346000  1.0
  O  O133  1  0.82633000  0.25347000  0.08214000  1.0
  O  O134  1  0.82633000  0.08215000  0.66439000  1.0
  O  O135  1  0.17367000  0.33561000  0.74654000  1.0
  O  O136  1  0.17367000  0.74653000  0.91786000  1.0
  O  O137  1  0.17367000  0.91785000  0.33562000  1.0
