# generated using pymatgen
data_CuH15C23(N2O3)2
_symmetry_space_group_name_H-M   'P 1'
_cell_length_a   9.00335000
_cell_length_b   9.02224000
_cell_length_c   13.38680000
_cell_angle_alpha   101.43900000
_cell_angle_beta   101.97300000
_cell_angle_gamma   106.18100000
_symmetry_Int_Tables_number   1
_chemical_formula_structural   CuH15C23(N2O3)2
_chemical_formula_sum   'Cu2 H30 C46 N8 O12'
_cell_volume   982.91872937
_cell_formula_units_Z   2
loop_
 _symmetry_equiv_pos_site_id
 _symmetry_equiv_pos_as_xyz
  1  'x, y, z'
loop_
 _atom_site_type_symbol
 _atom_site_label
 _atom_site_symmetry_multiplicity
 _atom_site_fract_x
 _atom_site_fract_y
 _atom_site_fract_z
 _atom_site_occupancy
  Cu  Cu0  1  0.00000000  0.50000000  0.50000000  1.0
  Cu  Cu1  1  0.00000000  0.00000000  0.50000000  1.0
  H  H2  1  0.26518000  0.33115000  0.56440000  1.0
  H  H3  1  0.73481000  0.66885000  0.43559000  1.0
  H  H4  1  0.53758000  0.45159000  0.69574000  1.0
  H  H5  1  0.46241000  0.54842000  0.30426000  1.0
  H  H6  1  0.63043000  0.29532000  0.81463000  1.0
  H  H7  1  0.36957000  0.70468000  0.18537000  1.0
  H  H8  1  0.16027000  0.93327000  0.68171000  1.0
  H  H9  1  0.83973000  0.06673000  0.31828000  1.0
  H  H10  1  0.83818000  0.13047000  0.04394000  1.0
  H  H11  1  0.16182000  0.86954000  0.95606000  1.0
  H  H12  1  0.96672000  0.97338000  0.14357000  1.0
  H  H13  1  0.03328000  0.02662000  0.85643000  1.0
  H  H14  1  0.59168000  0.53881000  0.94771000  1.0
  H  H15  1  0.40832000  0.46119000  0.05229000  1.0
  H  H16  1  0.46205000  0.69688000  0.85021000  1.0
  H  H17  1  0.53795000  0.30312000  0.14979000  1.0
  H  H18  1  0.85336000  0.55549000  0.29669000  1.0
  H  H19  1  0.14663000  0.44450000  0.70330000  1.0
  H  H20  1  0.06422000  0.34516000  0.06993000  1.0
  H  H21  1  0.93579000  0.65485000  0.93007000  1.0
  H  H22  1  0.20506000  0.24719000  0.21226000  1.0
  H  H23  1  0.79495000  0.75282000  0.78774000  1.0
  H  H24  1  0.15613000  0.30606000  0.39067000  1.0
  H  H25  1  0.84386000  0.69393000  0.60933000  1.0
  H  H26  1  0.47276000  0.18188000  0.38567000  1.0
  H  H27  1  0.52725000  0.81813000  0.61433000  1.0
  H  H28  1  0.64629000  0.14365000  0.91420000  1.0
  H  H29  1  0.35371000  0.85635000  0.08580000  1.0
  H  H30  1  0.96305000  0.73862000  0.17765000  1.0
  H  H31  1  0.03695000  0.26137000  0.82234000  1.0
  C  C32  1  0.30555000  0.27027000  0.62180000  1.0
  C  C33  1  0.69444000  0.72973000  0.37820000  1.0
  C  C34  1  0.45739000  0.33558000  0.69467000  1.0
  C  C35  1  0.54261000  0.66442000  0.30533000  1.0
  C  C36  1  0.50816000  0.24830000  0.76199000  1.0
  C  C37  1  0.49183000  0.75171000  0.23802000  1.0
  C  C38  1  0.40075000  0.09962000  0.75727000  1.0
  C  C39  1  0.59925000  0.90038000  0.24273000  1.0
  C  C40  1  0.24710000  0.04717000  0.68603000  1.0
  C  C41  1  0.75290000  0.95283000  0.31397000  1.0
  C  C42  1  0.43676000  0.97732000  0.81092000  1.0
  C  C43  1  0.56324000  0.02269000  0.18908000  1.0
  C  C44  1  0.64263000  0.92495000  0.93948000  1.0
  C  C45  1  0.35738000  0.07506000  0.06052000  1.0
  C  C46  1  0.78534000  0.00052000  0.02254000  1.0
  C  C47  1  0.21467000  0.99948000  0.97746000  1.0
  C  C48  1  0.85690000  0.91290000  0.07837000  1.0
  C  C49  1  0.14310000  0.08711000  0.92162000  1.0
  C  C50  1  0.78807000  0.74504000  0.05222000  1.0
  C  C51  1  0.21193000  0.25496000  0.94778000  1.0
  C  C52  1  0.64580000  0.66846000  0.96910000  1.0
  C  C53  1  0.35421000  0.33154000  0.03090000  1.0
  C  C54  1  0.57337000  0.75692000  0.91334000  1.0
  C  C55  1  0.42663000  0.24308000  0.08666000  1.0
  C  C56  1  0.85356000  0.50640000  0.08653000  1.0
  C  C57  1  0.14643000  0.49360000  0.91347000  1.0
  C  C58  1  0.92960000  0.48741000  0.27442000  1.0
  C  C59  1  0.07039000  0.51258000  0.72558000  1.0
  C  C60  1  0.94753000  0.45693000  0.17214000  1.0
  C  C61  1  0.05246000  0.54306000  0.82786000  1.0
  C  C62  1  0.04775000  0.36948000  0.14891000  1.0
  C  C63  1  0.95225000  0.63052000  0.85109000  1.0
  C  C64  1  0.12587000  0.31546000  0.22776000  1.0
  C  C65  1  0.87414000  0.68454000  0.77224000  1.0
  C  C66  1  0.10044000  0.34928000  0.32753000  1.0
  C  C67  1  0.89956000  0.65071000  0.67247000  1.0
  C  C68  1  0.81084000  0.04641000  0.64425000  1.0
  C  C69  1  0.18916000  0.95359000  0.35575000  1.0
  C  C70  1  0.77860000  0.25058000  0.49726000  1.0
  C  C71  1  0.22140000  0.74942000  0.50274000  1.0
  C  C72  1  0.65257000  0.02221000  0.56666000  1.0
  C  C73  1  0.34744000  0.97779000  0.43335000  1.0
  C  C74  1  0.63462000  0.12412000  0.50126000  1.0
  C  C75  1  0.36539000  0.87587000  0.49874000  1.0
  C  C76  1  0.48270000  0.10204000  0.43623000  1.0
  C  C77  1  0.51731000  0.89796000  0.56378000  1.0
  N  N78  1  0.20213000  0.12726000  0.61781000  1.0
  N  N79  1  0.79786000  0.87274000  0.38219000  1.0
  N  N80  1  0.00394000  0.43347000  0.34987000  1.0
  N  N81  1  0.99606000  0.56652000  0.65013000  1.0
  N  N82  1  0.57944000  0.02432000  0.88772000  1.0
  N  N83  1  0.42056000  0.97568000  0.11228000  1.0
  N  N84  1  0.86620000  0.66400000  0.11324000  1.0
  N  N85  1  0.13380000  0.33599000  0.88675000  1.0
  O  O86  1  0.76018000  0.37451000  0.47005000  1.0
  O  O87  1  0.23982000  0.62549000  0.52996000  1.0
  O  O88  1  0.91584000  0.23326000  0.52138000  1.0
  O  O89  1  0.08417000  0.76674000  0.47862000  1.0
  O  O90  1  0.89451000  0.95855000  0.61635000  1.0
  O  O91  1  0.10550000  0.04146000  0.38365000  1.0
  O  O92  1  0.84512000  0.14141000  0.73444000  1.0
  O  O93  1  0.15488000  0.85859000  0.26556000  1.0
  O  O94  1  0.33993000  0.83821000  0.78091000  1.0
  O  O95  1  0.66007000  0.16179000  0.21909000  1.0
  O  O96  1  0.77254000  0.40619000  0.99999000  1.0
  O  O97  1  0.22743000  0.59380000  0.00001000  1.0
