# generated using pymatgen
data_BaH6C5NO4
_symmetry_space_group_name_H-M   'P 1'
_cell_length_a   8.13110000
_cell_length_b   9.74769000
_cell_length_c   10.27997361
_cell_angle_alpha   117.37645384
_cell_angle_beta   89.99999348
_cell_angle_gamma   89.99990000
_symmetry_Int_Tables_number   1
_chemical_formula_structural   BaH6C5NO4
_chemical_formula_sum   'Ba4 H24 C20 N4 O16'
_cell_volume   723.53266833
_cell_formula_units_Z   4
loop_
 _symmetry_equiv_pos_site_id
 _symmetry_equiv_pos_as_xyz
  1  'x, y, z'
loop_
 _atom_site_type_symbol
 _atom_site_label
 _atom_site_symmetry_multiplicity
 _atom_site_fract_x
 _atom_site_fract_y
 _atom_site_fract_z
 _atom_site_occupancy
  Ba  Ba0  1  0.46382000  0.32232000  0.27117000  1.0
  Ba  Ba1  1  0.96382000  0.17768000  0.22883000  1.0
  Ba  Ba2  1  0.53618000  0.67768000  0.72883000  1.0
  Ba  Ba3  1  0.03619000  0.82232000  0.77117000  1.0
  H  H4  1  0.45816000  0.41617000  0.83471000  1.0
  H  H5  1  0.95816000  0.08383000  0.66529000  1.0
  H  H6  1  0.54184000  0.58383000  0.16529000  1.0
  H  H7  1  0.04184000  0.91617000  0.33471000  1.0
  H  H8  1  0.31439000  0.46872000  0.97999000  1.0
  H  H9  1  0.81439000  0.03128000  0.52001000  1.0
  H  H10  1  0.68562000  0.53127000  0.02001000  1.0
  H  H11  1  0.18561000  0.96872000  0.47998000  1.0
  H  H12  1  0.60586000  0.15943000  0.76092000  1.0
  H  H13  1  0.10586000  0.34057000  0.73908000  1.0
  H  H14  1  0.39414000  0.84056000  0.23908000  1.0
  H  H15  1  0.89414000  0.65944000  0.26092000  1.0
  H  H16  1  0.72275000  0.29414000  0.91318000  1.0
  H  H17  1  0.22275000  0.20586000  0.58682000  1.0
  H  H18  1  0.27725000  0.70586000  0.08682000  1.0
  H  H19  1  0.77725000  0.79414000  0.41318000  1.0
  H  H20  1  0.36668000  0.06981000  0.87804000  1.0
  H  H21  1  0.86668000  0.43019000  0.62195000  1.0
  H  H22  1  0.63332000  0.93019000  0.12196000  1.0
  H  H23  1  0.13332000  0.56980000  0.37803000  1.0
  H  H24  1  0.29550000  0.17241000  0.78644000  1.0
  H  H25  1  0.79550000  0.32759000  0.71356000  1.0
  H  H26  1  0.70450000  0.82758000  0.21356000  1.0
  H  H27  1  0.20450000  0.67242000  0.28644000  1.0
  C  C28  1  0.44312000  0.43533000  0.94909000  1.0
  C  C29  1  0.94312000  0.06467000  0.55091000  1.0
  C  C30  1  0.55688000  0.56467000  0.05091000  1.0
  C  C31  1  0.05688000  0.93533000  0.44909000  1.0
  C  C32  1  0.62038000  0.21102000  0.88111000  1.0
  C  C33  1  0.12037000  0.28898000  0.61889000  1.0
  C  C34  1  0.37963000  0.78897000  0.11889000  1.0
  C  C35  1  0.87963000  0.71103000  0.38111000  1.0
  C  C36  1  0.67468000  0.08608000  0.92314000  1.0
  C  C37  1  0.17468000  0.41392000  0.57686000  1.0
  C  C38  1  0.32532000  0.91392000  0.07687000  1.0
  C  C39  1  0.82532000  0.58608000  0.42314000  1.0
  C  C40  1  0.33068000  0.18586000  0.89556000  1.0
  C  C41  1  0.83068000  0.31414000  0.60444000  1.0
  C  C42  1  0.66932000  0.81413000  0.10444000  1.0
  C  C43  1  0.16932000  0.68587000  0.39556000  1.0
  C  C44  1  0.17820000  0.22456000  0.99194000  1.0
  C  C45  1  0.67820000  0.27545000  0.50807000  1.0
  C  C46  1  0.82180000  0.77546000  0.00807000  1.0
  C  C47  1  0.32180000  0.72454000  0.49193000  1.0
  N  N48  1  0.47030000  0.29086000  0.95860000  1.0
  N  N49  1  0.97030000  0.20914000  0.54140000  1.0
  N  N50  1  0.52970000  0.70914000  0.04141000  1.0
  N  N51  1  0.02970000  0.79086000  0.45859000  1.0
  O  O52  1  0.67571000  0.12283000  0.05908000  1.0
  O  O53  1  0.17571000  0.37717000  0.44092000  1.0
  O  O54  1  0.32430000  0.87716000  0.94092000  1.0
  O  O55  1  0.82430000  0.62284000  0.55908000  1.0
  O  O56  1  0.71859000  0.95563000  0.82137000  1.0
  O  O57  1  0.21859000  0.54436000  0.67862000  1.0
  O  O58  1  0.28141000  0.04435000  0.17862000  1.0
  O  O59  1  0.78142000  0.45564000  0.32138000  1.0
  O  O60  1  0.05325000  0.13770000  0.93673000  1.0
  O  O61  1  0.55325000  0.36230000  0.56327000  1.0
  O  O62  1  0.94675000  0.86230000  0.06327000  1.0
  O  O63  1  0.44675000  0.63770000  0.43673000  1.0
  O  O64  1  0.18345000  0.33217000  0.12297000  1.0
  O  O65  1  0.68345000  0.16782000  0.37702000  1.0
  O  O66  1  0.81654000  0.66784000  0.87702000  1.0
  O  O67  1  0.31655000  0.83216000  0.62298000  1.0
