# generated using pymatgen
data_NaDyH16(C3O2)6
_symmetry_space_group_name_H-M   'P 1'
_cell_length_a   6.79135000
_cell_length_b   7.47797000
_cell_length_c   19.86367148
_cell_angle_alpha   90.00016581
_cell_angle_beta   80.15296178
_cell_angle_gamma   89.99990000
_symmetry_Int_Tables_number   1
_chemical_formula_structural   NaDyH16(C3O2)6
_chemical_formula_sum   'Na2 Dy2 H32 C36 O24'
_cell_volume   993.92509925
_cell_formula_units_Z   2
loop_
 _symmetry_equiv_pos_site_id
 _symmetry_equiv_pos_as_xyz
  1  'x, y, z'
loop_
 _atom_site_type_symbol
 _atom_site_label
 _atom_site_symmetry_multiplicity
 _atom_site_fract_x
 _atom_site_fract_y
 _atom_site_fract_z
 _atom_site_occupancy
  Na  Na0  1  0.16403000  0.75008000  0.67280000  1.0
  Na  Na1  1  0.83597000  0.25008000  0.32720000  1.0
  Dy  Dy2  1  0.29261000  0.25018000  0.41447000  1.0
  Dy  Dy3  1  0.70740000  0.75018000  0.58553000  1.0
  H  H4  1  0.89346000  0.65076000  0.81072000  1.0
  H  H5  1  0.10652000  0.15075000  0.18928000  1.0
  H  H6  1  0.70289000  0.34868000  0.18934000  1.0
  H  H7  1  0.29710000  0.84871000  0.81066000  1.0
  H  H8  1  0.82815000  0.64643000  0.93757000  1.0
  H  H9  1  0.17184000  0.14643000  0.06243000  1.0
  H  H10  1  0.76486000  0.35278000  0.06251000  1.0
  H  H11  1  0.23513000  0.85280000  0.93749000  1.0
  H  H12  1  0.18843000  0.64695000  0.03112000  1.0
  H  H13  1  0.81157000  0.14695000  0.96888000  1.0
  H  H14  1  0.21896000  0.35278000  0.96891000  1.0
  H  H15  1  0.78105000  0.85277000  0.03108000  1.0
  H  H16  1  0.12608000  0.64483000  0.15746000  1.0
  H  H17  1  0.87392000  0.14482000  0.84255000  1.0
  H  H18  1  0.28303000  0.35514000  0.84257000  1.0
  H  H19  1  0.71697000  0.85514000  0.15743000  1.0
  H  H20  1  0.05813000  0.76860000  0.43616000  1.0
  H  H21  1  0.94188000  0.26860000  0.56384000  1.0
  H  H22  1  0.49393000  0.23192000  0.56382000  1.0
  H  H23  1  0.50609000  0.73193000  0.43618000  1.0
  H  H24  1  0.21949000  0.61660000  0.34462000  1.0
  H  H25  1  0.78052000  0.11659000  0.65538000  1.0
  H  H26  1  0.56423000  0.38388000  0.65535000  1.0
  H  H27  1  0.43578000  0.88388000  0.34465000  1.0
  H  H28  1  0.01889000  0.39789000  0.72730000  1.0
  H  H29  1  0.98112000  0.89790000  0.27269000  1.0
  H  H30  1  0.74596000  0.60224000  0.27263000  1.0
  H  H31  1  0.25404000  0.10225000  0.72737000  1.0
  H  H32  1  0.24566000  0.40939000  0.73552000  1.0
  H  H33  1  0.75434000  0.90939000  0.26448000  1.0
  H  H34  1  0.98091000  0.59046000  0.26439000  1.0
  H  H35  1  0.01908000  0.09047000  0.73562000  1.0
  C  C36  1  0.63700000  0.74988000  0.72720000  1.0
  C  C37  1  0.36300000  0.24988000  0.27279000  1.0
  C  C38  1  0.59919000  0.74976000  0.80290000  1.0
  C  C39  1  0.40079000  0.24974000  0.19709000  1.0
  C  C40  1  0.52712000  0.74967000  0.94653000  1.0
  C  C41  1  0.47287000  0.24967000  0.05347000  1.0
  C  C42  1  0.48933000  0.74977000  0.02188000  1.0
  C  C43  1  0.51067000  0.24977000  0.97812000  1.0
  C  C44  1  0.74991000  0.69585000  0.83883000  1.0
  C  C45  1  0.25007000  0.19584000  0.16116000  1.0
  C  C46  1  0.58756000  0.30356000  0.16121000  1.0
  C  C47  1  0.41243000  0.80358000  0.83879000  1.0
  C  C48  1  0.71317000  0.69496000  0.90985000  1.0
  C  C49  1  0.28682000  0.19495000  0.09015000  1.0
  C  C50  1  0.62203000  0.30446000  0.09020000  1.0
  C  C51  1  0.37796000  0.80447000  0.90980000  1.0
  C  C52  1  0.41721000  0.74995000  0.16611000  1.0
  C  C53  1  0.58279000  0.24995000  0.83389000  1.0
  C  C54  1  0.30395000  0.69434000  0.05878000  1.0
  C  C55  1  0.69605000  0.19434000  0.94122000  1.0
  C  C56  1  0.36215000  0.30533000  0.94123000  1.0
  C  C57  1  0.63784000  0.80533000  0.05877000  1.0
  C  C58  1  0.37891000  0.75009000  0.24219000  1.0
  C  C59  1  0.62109000  0.25007000  0.75781000  1.0
  C  C60  1  0.18770000  0.68703000  0.44341000  1.0
  C  C61  1  0.81231000  0.18702000  0.55660000  1.0
  C  C62  1  0.63075000  0.31346000  0.55657000  1.0
  C  C63  1  0.36927000  0.81346000  0.44343000  1.0
  C  C64  1  0.13582000  0.58656000  0.51074000  1.0
  C  C65  1  0.86419000  0.08655000  0.48926000  1.0
  C  C66  1  0.64631000  0.41395000  0.48923000  1.0
  C  C67  1  0.35369000  0.91397000  0.51077000  1.0
  C  C68  1  0.26867000  0.69285000  0.12977000  1.0
  C  C69  1  0.73132000  0.19285000  0.87024000  1.0
  C  C70  1  0.39791000  0.30704000  0.87023000  1.0
  C  C71  1  0.60209000  0.80704000  0.12977000  1.0
  O  O72  1  0.81543000  0.73568000  0.69390000  1.0
  O  O73  1  0.18455000  0.23567000  0.30611000  1.0
  O  O74  1  0.50831000  0.26427000  0.30602000  1.0
  O  O75  1  0.49168000  0.76427000  0.69397000  1.0
  O  O76  1  0.20487000  0.70727000  0.27415000  1.0
  O  O77  1  0.79513000  0.20723000  0.72585000  1.0
  O  O78  1  0.47924000  0.29306000  0.72578000  1.0
  O  O79  1  0.52076000  0.79305000  0.27422000  1.0
  O  O80  1  0.12451000  0.48114000  0.73443000  1.0
  O  O81  1  0.87549000  0.98114000  0.26557000  1.0
  O  O82  1  0.85859000  0.51889000  0.26541000  1.0
  O  O83  1  0.14141000  0.01889000  0.73459000  1.0
  O  O84  1  0.19561000  0.42713000  0.51225000  1.0
  O  O85  1  0.80440000  0.92713000  0.48775000  1.0
  O  O86  1  0.70784000  0.57331000  0.48774000  1.0
  O  O87  1  0.29216000  0.07331000  0.51226000  1.0
  O  O88  1  0.22967000  0.55693000  0.39015000  1.0
  O  O89  1  0.77036000  0.05692000  0.60985000  1.0
  O  O90  1  0.61958000  0.44359000  0.60980000  1.0
  O  O91  1  0.38042000  0.94359000  0.39020000  1.0
  O  O92  1  0.03593000  0.66759000  0.56192000  1.0
  O  O93  1  0.96407000  0.16758000  0.43808000  1.0
  O  O94  1  0.59753000  0.33307000  0.43803000  1.0
  O  O95  1  0.40248000  0.83308000  0.56197000  1.0
