# generated using pymatgen
data_CuH2C3SN
_symmetry_space_group_name_H-M   'P 1'
_cell_length_a   7.18874000
_cell_length_b   7.70736000
_cell_length_c   7.70741000
_cell_angle_alpha   114.09100000
_cell_angle_beta   89.99940000
_cell_angle_gamma   89.99930000
_symmetry_Int_Tables_number   1
_chemical_formula_structural   CuH2C3SN
_chemical_formula_sum   'Cu4 H8 C12 S4 N4'
_cell_volume   389.84259083
_cell_formula_units_Z   4
loop_
 _symmetry_equiv_pos_site_id
 _symmetry_equiv_pos_as_xyz
  1  'x, y, z'
loop_
 _atom_site_type_symbol
 _atom_site_label
 _atom_site_symmetry_multiplicity
 _atom_site_fract_x
 _atom_site_fract_y
 _atom_site_fract_z
 _atom_site_occupancy
  Cu  Cu0  1  0.25000000  0.70207000  0.56345000  1.0
  Cu  Cu1  1  0.74999000  0.43655000  0.29793000  1.0
  Cu  Cu2  1  0.00000000  0.00451000  0.99548000  1.0
  Cu  Cu3  1  0.50000000  0.00453000  0.99547000  1.0
  H  H4  1  0.25000000  0.65845000  0.92245000  1.0
  H  H5  1  0.75000000  0.07756000  0.34155000  1.0
  H  H6  1  0.24998000  0.39958000  0.03357000  1.0
  H  H7  1  0.75001000  0.96643000  0.60041000  1.0
  H  H8  1  0.25000000  0.00127000  0.44341000  1.0
  H  H9  1  0.75001000  0.55659000  0.99872000  1.0
  H  H10  1  0.25002000  0.27729000  0.35543000  1.0
  H  H11  1  0.74999000  0.64458000  0.72271000  1.0
  C  C12  1  0.25000000  0.51106000  0.82031000  1.0
  C  C13  1  0.75000000  0.17969000  0.48894000  1.0
  C  C14  1  0.24999000  0.36533000  0.88179000  1.0
  C  C15  1  0.75001000  0.11822000  0.63466000  1.0
  C  C16  1  0.25000000  0.17701000  0.74619000  1.0
  C  C17  1  0.75001000  0.25382000  0.82299000  1.0
  C  C18  1  0.25000000  0.14494000  0.55386000  1.0
  C  C19  1  0.75000000  0.44615000  0.85506000  1.0
  C  C20  1  0.25001000  0.29893000  0.50454000  1.0
  C  C21  1  0.74999000  0.49548000  0.70107000  1.0
  C  C22  1  0.00000000  0.76783000  0.23216000  1.0
  C  C23  1  0.50000000  0.76785000  0.23214000  1.0
  S  S24  1  0.25000000  0.98580000  0.81735000  1.0
  S  S25  1  0.75001000  0.18266000  0.01419000  1.0
  S  S26  1  0.00000000  0.64148000  0.35852000  1.0
  S  S27  1  0.49999000  0.64149000  0.35850000  1.0
  N  N28  1  0.25001000  0.48098000  0.63483000  1.0
  N  N29  1  0.74999000  0.36518000  0.51902000  1.0
  N  N30  1  0.00000000  0.85935000  0.14064000  1.0
  N  N31  1  0.50000000  0.85936000  0.14063000  1.0
