# generated using pymatgen
data_CoH19C23(NO3)2
_symmetry_space_group_name_H-M   'P 1'
_cell_length_a   13.56280000
_cell_length_b   16.77810000
_cell_length_c   25.39790000
_cell_angle_alpha   90.00020000
_cell_angle_beta   90.00000000
_cell_angle_gamma   105.84400000
_symmetry_Int_Tables_number   1
_chemical_formula_structural   CoH19C23(NO3)2
_chemical_formula_sum   'Co8 H152 C184 N16 O48'
_cell_volume   5559.92464664
_cell_formula_units_Z   8
loop_
 _symmetry_equiv_pos_site_id
 _symmetry_equiv_pos_as_xyz
  1  'x, y, z'
loop_
 _atom_site_type_symbol
 _atom_site_label
 _atom_site_symmetry_multiplicity
 _atom_site_fract_x
 _atom_site_fract_y
 _atom_site_fract_z
 _atom_site_occupancy
  Co  Co0  1  0.89356000  0.90812000  0.71830000  1.0
  Co  Co1  1  0.74974000  0.73947000  0.75343000  1.0
  Co  Co2  1  0.10644000  0.59188000  0.21830000  1.0
  Co  Co3  1  0.25027000  0.76053000  0.25343000  1.0
  Co  Co4  1  0.10644000  0.09188000  0.28171000  1.0
  Co  Co5  1  0.25026000  0.26052000  0.24657000  1.0
  Co  Co6  1  0.89356000  0.40812000  0.78171000  1.0
  Co  Co7  1  0.74973000  0.23947000  0.74657000  1.0
  H  H8  1  0.08725000  0.31458000  0.71938000  1.0
  H  H9  1  0.57320000  0.83335000  0.79404000  1.0
  H  H10  1  0.07536000  0.00269000  0.77966000  1.0
  H  H11  1  0.17357000  0.15062000  0.79075000  1.0
  H  H12  1  0.97439000  0.21122000  0.67331000  1.0
  H  H13  1  0.88634000  0.06170000  0.66644000  1.0
  H  H14  1  0.14053000  0.41918000  0.77800000  1.0
  H  H15  1  0.24301000  0.43568000  0.73310000  1.0
  H  H16  1  0.36752000  0.45204000  0.80868000  1.0
  H  H17  1  0.26507000  0.42959000  0.85362000  1.0
  H  H18  1  0.21002000  0.55289000  0.81908000  1.0
  H  H19  1  0.31668000  0.57636000  0.77688000  1.0
  H  H20  1  0.43349000  0.59633000  0.85650000  1.0
  H  H21  1  0.32478000  0.57258000  0.89774000  1.0
  H  H22  1  0.27431000  0.69678000  0.86193000  1.0
  H  H23  1  0.39509000  0.72345000  0.89285000  1.0
  H  H24  1  0.47427000  0.71801000  0.80058000  1.0
  H  H25  1  0.35193000  0.71473000  0.77398000  1.0
  H  H26  1  0.42926000  0.99596000  0.79257000  1.0
  H  H27  1  0.52392000  0.14270000  0.77165000  1.0
  H  H28  1  0.80140000  0.08563000  0.76365000  1.0
  H  H29  1  0.72036000  0.93766000  0.78427000  1.0
  H  H30  1  0.04304000  0.85215000  0.89648000  1.0
  H  H31  1  0.02042000  0.86141000  0.99343000  1.0
  H  H32  1  0.73037000  0.91390000  0.96793000  1.0
  H  H33  1  0.75100000  0.89991000  0.87071000  1.0
  H  H34  1  0.02251000  0.97143000  0.09478000  1.0
  H  H35  1  0.11467000  0.89836000  0.15570000  1.0
  H  H36  1  0.89925000  0.66543000  0.11791000  1.0
  H  H37  1  0.80767000  0.73844000  0.05674000  1.0
  H  H38  1  0.82763000  0.63674000  0.90952000  1.0
  H  H39  1  0.79301000  0.58405000  0.00190000  1.0
  H  H40  1  0.52056000  0.66896000  0.00531000  1.0
  H  H41  1  0.55468000  0.71916000  0.91280000  1.0
  H  H42  1  0.64552000  0.72549000  0.11299000  1.0
  H  H43  1  0.50195000  0.74551000  0.16873000  1.0
  H  H44  1  0.31946000  0.50089000  0.12794000  1.0
  H  H45  1  0.46311000  0.48056000  0.07223000  1.0
  H  H46  1  0.91275000  0.18542000  0.21938000  1.0
  H  H47  1  0.42679000  0.66666667  0.29404000  1.0
  H  H48  1  0.92464000  0.49731000  0.27966000  1.0
  H  H49  1  0.82643000  0.34938000  0.29075000  1.0
  H  H50  1  0.02561000  0.28878000  0.17331000  1.0
  H  H51  1  0.11366000  0.43830000  0.16644000  1.0
  H  H52  1  0.85946000  0.08082000  0.27800000  1.0
  H  H53  1  0.75699000  0.06432000  0.23310000  1.0
  H  H54  1  0.63248000  0.04796000  0.30868000  1.0
  H  H55  1  0.73493000  0.07041000  0.35362000  1.0
  H  H56  1  0.78999000  0.94711000  0.31908000  1.0
  H  H57  1  0.68332000  0.92364000  0.27688000  1.0
  H  H58  1  0.56651000  0.90367000  0.35650000  1.0
  H  H59  1  0.67522000  0.92742000  0.39774000  1.0
  H  H60  1  0.72569000  0.80322000  0.36193000  1.0
  H  H61  1  0.60491000  0.77655000  0.39285000  1.0
  H  H62  1  0.52573000  0.78199000  0.30058000  1.0
  H  H63  1  0.64807000  0.78527000  0.27398000  1.0
  H  H64  1  0.57074000  0.50404000  0.29257000  1.0
  H  H65  1  0.47608000  0.35730000  0.27165000  1.0
  H  H66  1  0.19860000  0.41437000  0.26365000  1.0
  H  H67  1  0.27964000  0.56234000  0.28427000  1.0
  H  H68  1  0.95696000  0.64785000  0.39648000  1.0
  H  H69  1  0.97958000  0.63859000  0.49343000  1.0
  H  H70  1  0.26963000  0.58611000  0.46793000  1.0
  H  H71  1  0.24900000  0.60009000  0.37071000  1.0
  H  H72  1  0.97749000  0.52857000  0.59478000  1.0
  H  H73  1  0.88533000  0.60164000  0.65570000  1.0
  H  H74  1  0.10075000  0.83457000  0.61791000  1.0
  H  H75  1  0.19233000  0.76156000  0.55674000  1.0
  H  H76  1  0.17237000  0.86326000  0.40952000  1.0
  H  H77  1  0.20699000  0.91595000  0.50190000  1.0
  H  H78  1  0.47944000  0.83104000  0.50531000  1.0
  H  H79  1  0.44532000  0.78084000  0.41280000  1.0
  H  H80  1  0.35448000  0.77452000  0.61299000  1.0
  H  H81  1  0.49805000  0.75449000  0.66873000  1.0
  H  H82  1  0.68054000  0.99911000  0.62794000  1.0
  H  H83  1  0.53690000  0.01944000  0.57223000  1.0
  H  H84  1  0.91275000  0.68542000  0.28061000  1.0
  H  H85  1  0.42680000  0.16665000  0.20596000  1.0
  H  H86  1  0.92464000  0.99731000  0.22034000  1.0
  H  H87  1  0.82643000  0.84938000  0.20925000  1.0
  H  H88  1  0.02562000  0.78879000  0.32669000  1.0
  H  H89  1  0.11366000  0.93830000  0.33355000  1.0
  H  H90  1  0.85946000  0.58082000  0.22200000  1.0
  H  H91  1  0.75699000  0.56432000  0.26690000  1.0
  H  H92  1  0.63248000  0.54796000  0.19132000  1.0
  H  H93  1  0.73493000  0.57041000  0.14638000  1.0
  H  H94  1  0.78998000  0.44711000  0.18092000  1.0
  H  H95  1  0.68332000  0.42364000  0.22312000  1.0
  H  H96  1  0.56651000  0.40368000  0.14350000  1.0
  H  H97  1  0.67522000  0.42742000  0.10226000  1.0
  H  H98  1  0.72569000  0.30322000  0.13807000  1.0
  H  H99  1  0.60491000  0.27655000  0.10715000  1.0
  H  H100  1  0.52573000  0.28199000  0.19942000  1.0
  H  H101  1  0.64807000  0.28527000  0.22602000  1.0
  H  H102  1  0.57074000  0.00404000  0.20743000  1.0
  H  H103  1  0.47608000  0.85730000  0.22835000  1.0
  H  H104  1  0.19861000  0.91437000  0.23636000  1.0
  H  H105  1  0.27964000  0.06234000  0.21573000  1.0
  H  H106  1  0.95696000  0.14784000  0.10352000  1.0
  H  H107  1  0.97958000  0.13859000  0.00657000  1.0
  H  H108  1  0.26963000  0.08610000  0.03207000  1.0
  H  H109  1  0.24900000  0.10009000  0.12929000  1.0
  H  H110  1  0.97749000  0.02857000  0.90522000  1.0
  H  H111  1  0.88533000  0.10164000  0.84430000  1.0
  H  H112  1  0.10075000  0.33457000  0.88209000  1.0
  H  H113  1  0.19233000  0.26156000  0.94326000  1.0
  H  H114  1  0.17237000  0.36326000  0.09048000  1.0
  H  H115  1  0.20699000  0.41595000  0.99810000  1.0
  H  H116  1  0.47944000  0.33104000  0.99469000  1.0
  H  H117  1  0.44531000  0.28084000  0.08720000  1.0
  H  H118  1  0.35448000  0.27451000  0.88701000  1.0
  H  H119  1  0.49805000  0.25449000  0.83127000  1.0
  H  H120  1  0.68054000  0.49911000  0.87206000  1.0
  H  H121  1  0.53689000  0.51943000  0.92777000  1.0
  H  H122  1  0.08725000  0.81458000  0.78062000  1.0
  H  H123  1  0.57321000  0.33333333  0.70596000  1.0
  H  H124  1  0.07536000  0.50269000  0.72034000  1.0
  H  H125  1  0.17357000  0.65062000  0.70925000  1.0
  H  H126  1  0.97439000  0.71122000  0.82669000  1.0
  H  H127  1  0.88634000  0.56170000  0.83356000  1.0
  H  H128  1  0.14053000  0.91918000  0.72200000  1.0
  H  H129  1  0.24301000  0.93568000  0.76690000  1.0
  H  H130  1  0.36752000  0.95204000  0.69132000  1.0
  H  H131  1  0.26507000  0.92959000  0.64638000  1.0
  H  H132  1  0.21001000  0.05289000  0.68092000  1.0
  H  H133  1  0.31668000  0.07636000  0.72312000  1.0
  H  H134  1  0.43349000  0.09632000  0.64350000  1.0
  H  H135  1  0.32478000  0.07258000  0.60226000  1.0
  H  H136  1  0.27431000  0.19678000  0.63807000  1.0
  H  H137  1  0.39509000  0.22345000  0.60715000  1.0
  H  H138  1  0.47427000  0.21801000  0.69942000  1.0
  H  H139  1  0.35193000  0.21473000  0.72602000  1.0
  H  H140  1  0.42926000  0.49597000  0.70743000  1.0
  H  H141  1  0.52392000  0.64270000  0.72835000  1.0
  H  H142  1  0.80140000  0.58563000  0.73636000  1.0
  H  H143  1  0.72036000  0.43766000  0.71573000  1.0
  H  H144  1  0.04304000  0.35215000  0.60352000  1.0
  H  H145  1  0.02042000  0.36141000  0.50657000  1.0
  H  H146  1  0.73037000  0.41390000  0.53207000  1.0
  H  H147  1  0.75100000  0.39991000  0.62929000  1.0
  H  H148  1  0.02251000  0.47143000  0.40522000  1.0
  H  H149  1  0.11467000  0.39836000  0.34430000  1.0
  H  H150  1  0.89925000  0.16543000  0.38209000  1.0
  H  H151  1  0.80767000  0.23844000  0.44326000  1.0
  H  H152  1  0.82763000  0.13674000  0.59048000  1.0
  H  H153  1  0.79301000  0.08405000  0.49810000  1.0
  H  H154  1  0.52055000  0.16896000  0.49469000  1.0
  H  H155  1  0.55469000  0.21916000  0.58720000  1.0
  H  H156  1  0.64552000  0.22548000  0.38701000  1.0
  H  H157  1  0.50195000  0.24551000  0.33127000  1.0
  H  H158  1  0.31946000  0.00089000  0.37206000  1.0
  H  H159  1  0.46310000  0.98056000  0.42777000  1.0
  C  C160  1  0.05720000  0.05106000  0.75613000  1.0
  C  C161  1  0.11176000  0.13305000  0.76227000  1.0
  C  C162  1  0.08329000  0.19388000  0.73240000  1.0
  C  C163  1  0.00179000  0.16694000  0.69639000  1.0
  C  C164  1  0.95171000  0.08372000  0.69269000  1.0
  C  C165  1  0.20609000  0.31861000  0.77060000  1.0
  C  C166  1  0.21765000  0.41082000  0.77254000  1.0
  C  C167  1  0.28948000  0.45778000  0.81497000  1.0
  C  C168  1  0.28957000  0.54881000  0.81549000  1.0
  C  C169  1  0.35367000  0.60003000  0.85941000  1.0
  C  C170  1  0.35309000  0.69125000  0.85842000  1.0
  C  C171  1  0.40280000  0.73493000  0.80808000  1.0
  C  C172  1  0.42365000  0.82811000  0.81003000  1.0
  C  C173  1  0.56691000  0.95372000  0.78937000  1.0
  C  C174  1  0.51153000  0.01345000  0.78624000  1.0
  C  C175  1  0.56438000  0.09496000  0.77484000  1.0
  C  C176  1  0.71917000  0.06333000  0.77039000  1.0
  C  C177  1  0.67356000  0.98103000  0.78171000  1.0
  C  C178  1  0.91671000  0.87193000  0.82032000  1.0
  C  C179  1  0.89837000  0.87480000  0.87747000  1.0
  C  C180  1  0.97383000  0.86409000  0.91245000  1.0
  C  C181  1  0.96173000  0.86987000  0.96645000  1.0
  C  C182  1  0.87376000  0.88841000  0.98598000  1.0
  C  C183  1  0.79810000  0.89999000  0.95164000  1.0
  C  C184  1  0.81010000  0.89228000  0.89772000  1.0
  C  C185  1  0.91074000  0.85827000  0.07303000  1.0
  C  C186  1  0.99610000  0.90467000  0.10051000  1.0
  C  C187  1  0.04695000  0.86374000  0.13427000  1.0
  C  C188  1  0.01262000  0.77748000  0.14041000  1.0
  C  C189  1  0.92583000  0.73230000  0.11263000  1.0
  C  C190  1  0.87459000  0.77254000  0.07895000  1.0
  C  C191  1  0.06718000  0.73336000  0.17592000  1.0
  C  C192  1  0.70905000  0.70691000  0.84927000  1.0
  C  C193  1  0.69225000  0.68016000  0.90498000  1.0
  C  C194  1  0.76020000  0.64306000  0.93062000  1.0
  C  C195  1  0.74169000  0.61406000  0.98188000  1.0
  C  C196  1  0.65471000  0.62279000  0.00860000  1.0
  C  C197  1  0.58756000  0.66180000  0.98424000  1.0
  C  C198  1  0.60683000  0.68979000  0.93263000  1.0
  C  C199  1  0.55970000  0.60309000  0.08859000  1.0
  C  C200  1  0.57302000  0.67763000  0.11558000  1.0
  C  C201  1  0.49349000  0.68818000  0.14693000  1.0
  C  C202  1  0.40129000  0.62516000  0.15087000  1.0
  C  C203  1  0.39044000  0.55012000  0.12410000  1.0
  C  C204  1  0.46995000  0.53865000  0.09296000  1.0
  C  C205  1  0.31562000  0.63857000  0.18305000  1.0
  C  C206  1  0.94280000  0.44894000  0.25613000  1.0
  C  C207  1  0.88824000  0.36695000  0.26227000  1.0
  C  C208  1  0.91671000  0.30611000  0.23240000  1.0
  C  C209  1  0.99821000  0.33306000  0.19639000  1.0
  C  C210  1  0.04829000  0.41628000  0.19269000  1.0
  C  C211  1  0.79391000  0.18139000  0.27060000  1.0
  C  C212  1  0.78235000  0.08918000  0.27254000  1.0
  C  C213  1  0.71052000  0.04222000  0.31497000  1.0
  C  C214  1  0.71043000  0.95119000  0.31549000  1.0
  C  C215  1  0.64633000  0.89997000  0.35941000  1.0
  C  C216  1  0.64692000  0.80875000  0.35842000  1.0
  C  C217  1  0.59720000  0.76507000  0.30808000  1.0
  C  C218  1  0.57634000  0.67188000  0.31003000  1.0
  C  C219  1  0.43309000  0.54628000  0.28937000  1.0
  C  C220  1  0.48847000  0.48656000  0.28624000  1.0
  C  C221  1  0.43562000  0.40505000  0.27484000  1.0
  C  C222  1  0.28083000  0.43667000  0.27039000  1.0
  C  C223  1  0.32644000  0.51897000  0.28171000  1.0
  C  C224  1  0.08329000  0.62807000  0.32032000  1.0
  C  C225  1  0.10163000  0.62520000  0.37747000  1.0
  C  C226  1  0.02617000  0.63591000  0.41245000  1.0
  C  C227  1  0.03827000  0.63013000  0.46645000  1.0
  C  C228  1  0.12624000  0.61159000  0.48598000  1.0
  C  C229  1  0.20190000  0.60001000  0.45164000  1.0
  C  C230  1  0.18990000  0.60772000  0.39772000  1.0
  C  C231  1  0.08926000  0.64173000  0.57303000  1.0
  C  C232  1  0.00390000  0.59533000  0.60051000  1.0
  C  C233  1  0.95305000  0.63627000  0.63427000  1.0
  C  C234  1  0.98739000  0.72252000  0.64041000  1.0
  C  C235  1  0.07417000  0.76770000  0.61263000  1.0
  C  C236  1  0.12542000  0.72746000  0.57895000  1.0
  C  C237  1  0.93283000  0.76665000  0.67592000  1.0
  C  C238  1  0.29095000  0.79309000  0.34926000  1.0
  C  C239  1  0.30775000  0.81984000  0.40498000  1.0
  C  C240  1  0.23980000  0.85694000  0.43062000  1.0
  C  C241  1  0.25831000  0.88594000  0.48188000  1.0
  C  C242  1  0.34529000  0.87721000  0.50860000  1.0
  C  C243  1  0.41244000  0.83820000  0.48424000  1.0
  C  C244  1  0.39317000  0.81021000  0.43263000  1.0
  C  C245  1  0.44030000  0.89691000  0.58859000  1.0
  C  C246  1  0.42698000  0.82237000  0.61558000  1.0
  C  C247  1  0.50651000  0.81182000  0.64693000  1.0
  C  C248  1  0.59871000  0.87484000  0.65087000  1.0
  C  C249  1  0.60956000  0.94988000  0.62410000  1.0
  C  C250  1  0.53006000  0.96135000  0.59296000  1.0
  C  C251  1  0.68439000  0.86144000  0.68305000  1.0
  C  C252  1  0.94280000  0.94895000  0.24387000  1.0
  C  C253  1  0.88825000  0.86695000  0.23773000  1.0
  C  C254  1  0.91671000  0.80612000  0.26760000  1.0
  C  C255  1  0.99821000  0.83307000  0.30361000  1.0
  C  C256  1  0.04830000  0.91628000  0.30731000  1.0
  C  C257  1  0.79391000  0.68139000  0.22940000  1.0
  C  C258  1  0.78235000  0.58918000  0.22746000  1.0
  C  C259  1  0.71052000  0.54222000  0.18503000  1.0
  C  C260  1  0.71043000  0.45119000  0.18451000  1.0
  C  C261  1  0.64633000  0.39997000  0.14059000  1.0
  C  C262  1  0.64691000  0.30875000  0.14158000  1.0
  C  C263  1  0.59720000  0.26507000  0.19192000  1.0
  C  C264  1  0.57634000  0.17188000  0.18998000  1.0
  C  C265  1  0.43309000  0.04628000  0.21063000  1.0
  C  C266  1  0.48847000  0.98655000  0.21376000  1.0
  C  C267  1  0.43562000  0.90504000  0.22516000  1.0
  C  C268  1  0.28083000  0.93667000  0.22961000  1.0
  C  C269  1  0.32644000  0.01897000  0.21829000  1.0
  C  C270  1  0.08329000  0.12807000  0.17968000  1.0
  C  C271  1  0.10163000  0.12520000  0.12253000  1.0
  C  C272  1  0.02617000  0.13591000  0.08755000  1.0
  C  C273  1  0.03828000  0.13013000  0.03355000  1.0
  C  C274  1  0.12624000  0.11159000  0.01402000  1.0
  C  C275  1  0.20191000  0.10001000  0.04836000  1.0
  C  C276  1  0.18990000  0.10772000  0.10228000  1.0
  C  C277  1  0.08926000  0.14173000  0.92697000  1.0
  C  C278  1  0.00390000  0.09533000  0.89949000  1.0
  C  C279  1  0.95305000  0.13626000  0.86573000  1.0
  C  C280  1  0.98738000  0.22252000  0.85959000  1.0
  C  C281  1  0.07417000  0.26770000  0.88737000  1.0
  C  C282  1  0.12542000  0.22746000  0.92105000  1.0
  C  C283  1  0.93282000  0.26664000  0.82408000  1.0
  C  C284  1  0.29095000  0.29309000  0.15073000  1.0
  C  C285  1  0.30775000  0.31984000  0.09502000  1.0
  C  C286  1  0.23980000  0.35694000  0.06938000  1.0
  C  C287  1  0.25831000  0.38594000  0.01812000  1.0
  C  C288  1  0.34529000  0.37721000  0.99140000  1.0
  C  C289  1  0.41244000  0.33820000  0.01576000  1.0
  C  C290  1  0.39317000  0.31021000  0.06737000  1.0
  C  C291  1  0.44030000  0.39691000  0.91141000  1.0
  C  C292  1  0.42698000  0.32237000  0.88442000  1.0
  C  C293  1  0.50651000  0.31182000  0.85307000  1.0
  C  C294  1  0.59871000  0.37484000  0.84913000  1.0
  C  C295  1  0.60956000  0.44988000  0.87590000  1.0
  C  C296  1  0.53005000  0.46135000  0.90704000  1.0
  C  C297  1  0.68438000  0.36143000  0.81695000  1.0
  C  C298  1  0.05720000  0.55106000  0.74387000  1.0
  C  C299  1  0.11176000  0.63305000  0.73773000  1.0
  C  C300  1  0.08329000  0.69389000  0.76760000  1.0
  C  C301  1  0.00180000  0.66694000  0.80361000  1.0
  C  C302  1  0.95171000  0.58372000  0.80731000  1.0
  C  C303  1  0.20609000  0.81861000  0.72940000  1.0
  C  C304  1  0.21765000  0.91082000  0.72746000  1.0
  C  C305  1  0.28948000  0.95778000  0.68503000  1.0
  C  C306  1  0.28957000  0.04881000  0.68451000  1.0
  C  C307  1  0.35367000  0.10003000  0.64059000  1.0
  C  C308  1  0.35309000  0.19125000  0.64158000  1.0
  C  C309  1  0.40280000  0.23493000  0.69192000  1.0
  C  C310  1  0.42366000  0.32812000  0.68997000  1.0
  C  C311  1  0.56691000  0.45372000  0.71063000  1.0
  C  C312  1  0.51153000  0.51344000  0.71376000  1.0
  C  C313  1  0.56438000  0.59496000  0.72516000  1.0
  C  C314  1  0.71917000  0.56333000  0.72961000  1.0
  C  C315  1  0.67356000  0.48103000  0.71829000  1.0
  C  C316  1  0.91671000  0.37193000  0.67968000  1.0
  C  C317  1  0.89837000  0.37480000  0.62253000  1.0
  C  C318  1  0.97383000  0.36409000  0.58755000  1.0
  C  C319  1  0.96173000  0.36987000  0.53355000  1.0
  C  C320  1  0.87376000  0.38841000  0.51402000  1.0
  C  C321  1  0.79810000  0.39999000  0.54836000  1.0
  C  C322  1  0.81010000  0.39228000  0.60228000  1.0
  C  C323  1  0.91074000  0.35827000  0.42697000  1.0
  C  C324  1  0.99610000  0.40467000  0.39949000  1.0
  C  C325  1  0.04695000  0.36373000  0.36573000  1.0
  C  C326  1  0.01261000  0.27748000  0.35959000  1.0
  C  C327  1  0.92583000  0.23230000  0.38737000  1.0
  C  C328  1  0.87458000  0.27254000  0.42105000  1.0
  C  C329  1  0.06717000  0.23335000  0.32408000  1.0
  C  C330  1  0.70905000  0.20691000  0.65074000  1.0
  C  C331  1  0.69225000  0.18016000  0.59502000  1.0
  C  C332  1  0.76020000  0.14306000  0.56938000  1.0
  C  C333  1  0.74169000  0.11406000  0.51812000  1.0
  C  C334  1  0.65471000  0.12279000  0.49140000  1.0
  C  C335  1  0.58756000  0.16180000  0.51576000  1.0
  C  C336  1  0.60683000  0.18979000  0.56737000  1.0
  C  C337  1  0.55970000  0.10309000  0.41141000  1.0
  C  C338  1  0.57302000  0.17763000  0.38442000  1.0
  C  C339  1  0.49349000  0.18818000  0.35307000  1.0
  C  C340  1  0.40128000  0.12516000  0.34913000  1.0
  C  C341  1  0.39044000  0.05012000  0.37590000  1.0
  C  C342  1  0.46994000  0.03865000  0.40704000  1.0
  C  C343  1  0.31561000  0.13856000  0.31695000  1.0
  N  N344  1  0.97771000  0.02525000  0.72228000  1.0
  N  N345  1  0.12592000  0.27776000  0.73815000  1.0
  N  N346  1  0.52427000  0.86977000  0.79787000  1.0
  N  N347  1  0.66640000  0.12073000  0.76687000  1.0
  N  N348  1  0.02228000  0.47475000  0.22228000  1.0
  N  N349  1  0.87408000  0.22224000  0.23815000  1.0
  N  N350  1  0.47573000  0.63023000  0.29787000  1.0
  N  N351  1  0.33360000  0.37928000  0.26687000  1.0
  N  N352  1  0.02229000  0.97475000  0.27772000  1.0
  N  N353  1  0.87408000  0.72224000  0.26185000  1.0
  N  N354  1  0.47573000  0.13023000  0.20213000  1.0
  N  N355  1  0.33360000  0.87927000  0.23313000  1.0
  N  N356  1  0.97772000  0.52525000  0.77772000  1.0
  N  N357  1  0.12592000  0.77776000  0.76185000  1.0
  N  N358  1  0.52427000  0.36977000  0.70213000  1.0
  N  N359  1  0.66640000  0.62073000  0.73313000  1.0
  O  O360  1  0.26002000  0.28315000  0.79530000  1.0
  O  O361  1  0.35798000  0.86394000  0.82077000  1.0
  O  O362  1  0.84014000  0.87164000  0.78844000  1.0
  O  O363  1  0.00375000  0.87368000  0.80263000  1.0
  O  O364  1  0.85874000  0.89809000  0.03895000  1.0
  O  O365  1  0.03791000  0.65380000  0.17494000  1.0
  O  O366  1  0.13910000  0.77583000  0.20483000  1.0
  O  O367  1  0.64458000  0.73585000  0.82459000  1.0
  O  O368  1  0.78993000  0.69970000  0.82525000  1.0
  O  O369  1  0.64052000  0.59036000  0.05861000  1.0
  O  O370  1  0.22760000  0.58615000  0.17818000  1.0
  O  O371  1  0.33558000  0.70175000  0.21349000  1.0
  O  O372  1  0.73998000  0.21685000  0.29530000  1.0
  O  O373  1  0.64202000  0.63606000  0.32077000  1.0
  O  O374  1  0.15987000  0.62837000  0.28844000  1.0
  O  O375  1  0.99625000  0.62632000  0.30263000  1.0
  O  O376  1  0.14125000  0.60191000  0.53895000  1.0
  O  O377  1  0.96210000  0.84620000  0.67494000  1.0
  O  O378  1  0.86091000  0.72418000  0.70483000  1.0
  O  O379  1  0.35541000  0.76415000  0.32459000  1.0
  O  O380  1  0.21007000  0.80030000  0.32524000  1.0
  O  O381  1  0.35948000  0.90964000  0.55861000  1.0
  O  O382  1  0.77241000  0.91385000  0.67818000  1.0
  O  O383  1  0.66442000  0.79826000  0.71349000  1.0
  O  O384  1  0.73998000  0.71685000  0.20470000  1.0
  O  O385  1  0.64202000  0.13606000  0.17923000  1.0
  O  O386  1  0.15986000  0.12836000  0.21156000  1.0
  O  O387  1  0.99625000  0.12632000  0.19737000  1.0
  O  O388  1  0.14126000  0.10191000  0.96105000  1.0
  O  O389  1  0.96210000  0.34620000  0.82506000  1.0
  O  O390  1  0.86090000  0.22417000  0.79517000  1.0
  O  O391  1  0.35541000  0.26415000  0.17541000  1.0
  O  O392  1  0.21006000  0.30030000  0.17475000  1.0
  O  O393  1  0.35948000  0.40964000  0.94139000  1.0
  O  O394  1  0.77240000  0.41385000  0.82182000  1.0
  O  O395  1  0.66442000  0.29825000  0.78651000  1.0
  O  O396  1  0.26002000  0.78315000  0.70470000  1.0
  O  O397  1  0.35798000  0.36394000  0.67923000  1.0
  O  O398  1  0.84013000  0.37163000  0.71156000  1.0
  O  O399  1  0.00375000  0.37367000  0.69737000  1.0
  O  O400  1  0.85875000  0.39809000  0.46105000  1.0
  O  O401  1  0.03790000  0.15380000  0.32506000  1.0
  O  O402  1  0.13909000  0.27582000  0.29517000  1.0
  O  O403  1  0.64459000  0.23585000  0.67541000  1.0
  O  O404  1  0.78993000  0.19970000  0.67476000  1.0
  O  O405  1  0.64052000  0.09036000  0.44139000  1.0
  O  O406  1  0.22759000  0.08615000  0.32182000  1.0
  O  O407  1  0.33558000  0.20174000  0.28652000  1.0
