# generated using pymatgen
data_MnH14C16N10O
_symmetry_space_group_name_H-M   'P 1'
_cell_length_a   7.56643000
_cell_length_b   10.98500000
_cell_length_c   11.50720000
_cell_angle_alpha   116.61000000
_cell_angle_beta   94.41600000
_cell_angle_gamma   92.03940000
_symmetry_Int_Tables_number   1
_chemical_formula_structural   MnH14C16N10O
_chemical_formula_sum   'Mn2 H28 C32 N20 O2'
_cell_volume   849.95895894
_cell_formula_units_Z   2
loop_
 _symmetry_equiv_pos_site_id
 _symmetry_equiv_pos_as_xyz
  1  'x, y, z'
loop_
 _atom_site_type_symbol
 _atom_site_label
 _atom_site_symmetry_multiplicity
 _atom_site_fract_x
 _atom_site_fract_y
 _atom_site_fract_z
 _atom_site_occupancy
  Mn  Mn0  1  0.76773000  0.51103000  0.71966000  1.0
  Mn  Mn1  1  0.23228000  0.48898000  0.28034000  1.0
  H  H2  1  0.91291000  0.71062000  0.01099000  1.0
  H  H3  1  0.08710000  0.28938000  0.98901000  1.0
  H  H4  1  0.86248000  0.17643000  0.24168000  1.0
  H  H5  1  0.13752000  0.82358000  0.75833000  1.0
  H  H6  1  0.71875000  0.34657000  0.18731000  1.0
  H  H7  1  0.28124000  0.65343000  0.81270000  1.0
  H  H8  1  0.56699000  0.27824000  0.96503000  1.0
  H  H9  1  0.43300000  0.72176000  0.03497000  1.0
  H  H10  1  0.54628000  0.03338000  0.79603000  1.0
  H  H11  1  0.45372000  0.96661000  0.20396000  1.0
  H  H12  1  0.62409000  0.79071000  0.73584000  1.0
  H  H13  1  0.37592000  0.20930000  0.26417000  1.0
  H  H14  1  0.63578000  0.27771000  0.42269000  1.0
  H  H15  1  0.36421000  0.72229000  0.57731000  1.0
  H  H16  1  0.61800000  0.80905000  0.27794000  1.0
  H  H17  1  0.38199000  0.19095000  0.72205000  1.0
  H  H18  1  0.72509000  0.66359000  0.37911000  1.0
  H  H19  1  0.27490000  0.33641000  0.62089000  1.0
  H  H20  1  0.88760000  0.76573000  0.59988000  1.0
  H  H21  1  0.11238000  0.23426000  0.40012000  1.0
  H  H22  1  0.94168000  0.01954000  0.72953000  1.0
  H  H23  1  0.05832000  0.98046000  0.27047000  1.0
  H  H24  1  0.88235000  0.25365000  0.74546000  1.0
  H  H25  1  0.11765000  0.74635000  0.25453000  1.0
  H  H26  1  0.66328000  0.49554000  0.93705000  1.0
  H  H27  1  0.33673000  0.50445000  0.06295000  1.0
  H  H28  1  0.48090000  0.45421000  0.84696000  1.0
  H  H29  1  0.51911000  0.54578000  0.15304000  1.0
  C  C30  1  0.85136000  0.78710000  0.98896000  1.0
  C  C31  1  0.14864000  0.21290000  0.01103000  1.0
  C  C32  1  0.78732000  0.00843000  0.05047000  1.0
  C  C33  1  0.21268000  0.99158000  0.94952000  1.0
  C  C34  1  0.79460000  0.14662000  0.14491000  1.0
  C  C35  1  0.20541000  0.85339000  0.85510000  1.0
  C  C36  1  0.71567000  0.24070000  0.11319000  1.0
  C  C37  1  0.28432000  0.75931000  0.88681000  1.0
  C  C38  1  0.62828000  0.20146000  0.98680000  1.0
  C  C39  1  0.37172000  0.79854000  0.01320000  1.0
  C  C40  1  0.61808000  0.06713000  0.89277000  1.0
  C  C41  1  0.38192000  0.93287000  0.10722000  1.0
  C  C42  1  0.69761000  0.96882000  0.92341000  1.0
  C  C43  1  0.30239000  0.03118000  0.07659000  1.0
  C  C44  1  0.69226000  0.82897000  0.83417000  1.0
  C  C45  1  0.30775000  0.17104000  0.16583000  1.0
  C  C46  1  0.68070000  0.21251000  0.46626000  1.0
  C  C47  1  0.31931000  0.78750000  0.53374000  1.0
  C  C48  1  0.71175000  0.99828000  0.44825000  1.0
  C  C49  1  0.28826000  0.00172000  0.55175000  1.0
  C  C50  1  0.68552000  0.85456000  0.37669000  1.0
  C  C51  1  0.31446000  0.14544000  0.62330000  1.0
  C  C52  1  0.74750000  0.77443000  0.43306000  1.0
  C  C53  1  0.25250000  0.22556000  0.56693000  1.0
  C  C54  1  0.83955000  0.83334000  0.56015000  1.0
  C  C55  1  0.16044000  0.16665000  0.43983000  1.0
  C  C56  1  0.86796000  0.97316000  0.63217000  1.0
  C  C57  1  0.13204000  0.02684000  0.36782000  1.0
  C  C58  1  0.80222000  0.05740000  0.57749000  1.0
  C  C59  1  0.19779000  0.94260000  0.42250000  1.0
  C  C60  1  0.82016000  0.20113000  0.64493000  1.0
  C  C61  1  0.17985000  0.79887000  0.35507000  1.0
  N  N62  1  0.76778000  0.73862000  0.86490000  1.0
  N  N63  1  0.23223000  0.26137000  0.13510000  1.0
  N  N64  1  0.86417000  0.91402000  0.08089000  1.0
  N  N65  1  0.13583000  0.08598000  0.91911000  1.0
  N  N66  1  0.76176000  0.27892000  0.59126000  1.0
  N  N67  1  0.23825000  0.72108000  0.40874000  1.0
  N  N68  1  0.65177000  0.07976000  0.39450000  1.0
  N  N69  1  0.34822000  0.92023000  0.60550000  1.0
  N  N70  1  0.93186000  0.55727000  0.59761000  1.0
  N  N71  1  0.06814000  0.44273000  0.40239000  1.0
  N  N72  1  0.99999000  0.50000000  0.50000000  1.0
  N  N73  1  0.98390000  0.49780000  0.84496000  1.0
  N  N74  1  0.01611000  0.50220000  0.15504000  1.0
  N  N75  1  0.12644000  0.46899000  0.86789000  1.0
  N  N76  1  0.87356000  0.53102000  0.13212000  1.0
  N  N77  1  0.26839000  0.43981000  0.89354000  1.0
  N  N78  1  0.73162000  0.56020000  0.10647000  1.0
  N  N79  1  0.52363000  0.52346000  0.61145000  1.0
  N  N80  1  0.47637000  0.47654000  0.38855000  1.0
  N  N81  1  0.50000000  0.50000000  0.50002000  1.0
  O  O82  1  0.61195000  0.45727000  0.84399000  1.0
  O  O83  1  0.38806000  0.54274000  0.15601000  1.0
