# generated using pymatgen
data_Cd2H5C6S(NO)5
_symmetry_space_group_name_H-M   'P 1'
_cell_length_a   6.96176000
_cell_length_b   7.15277000
_cell_length_c   11.48390000
_cell_angle_alpha   82.31490000
_cell_angle_beta   86.57480000
_cell_angle_gamma   86.30250000
_symmetry_Int_Tables_number   1
_chemical_formula_structural   Cd2H5C6S(NO)5
_chemical_formula_sum   'Cd4 H10 C12 S2 N10 O10'
_cell_volume   564.77866906
_cell_formula_units_Z   2
loop_
 _symmetry_equiv_pos_site_id
 _symmetry_equiv_pos_as_xyz
  1  'x, y, z'
loop_
 _atom_site_type_symbol
 _atom_site_label
 _atom_site_symmetry_multiplicity
 _atom_site_fract_x
 _atom_site_fract_y
 _atom_site_fract_z
 _atom_site_occupancy
  Cd  Cd0  1  0.20567000  0.21179000  0.24846000  1.0
  Cd  Cd1  1  0.79433000  0.78821000  0.75154000  1.0
  Cd  Cd2  1  0.50000000  0.50000000  0.00000000  1.0
  Cd  Cd3  1  0.50000000  0.00000000  0.00000000  1.0
  H  H4  1  0.91734000  0.19612000  0.48565000  1.0
  H  H5  1  0.08266000  0.80387000  0.51435000  1.0
  H  H6  1  0.50300000  0.25989000  0.43299000  1.0
  H  H7  1  0.49700000  0.74012000  0.56701000  1.0
  H  H8  1  0.22254000  0.38559000  0.76205000  1.0
  H  H9  1  0.77745000  0.61441000  0.23795000  1.0
  H  H10  1  0.52313000  0.36826000  0.63081000  1.0
  H  H11  1  0.47687000  0.63175000  0.36919000  1.0
  H  H12  1  0.19820000  0.26480000  0.00360000  1.0
  H  H13  1  0.80180000  0.73520000  0.99640000  1.0
  C  C14  1  0.04858000  0.23210000  0.52286000  1.0
  C  C15  1  0.95142000  0.76790000  0.47715000  1.0
  C  C16  1  0.37693000  0.27054000  0.49329000  1.0
  C  C17  1  0.62307000  0.72947000  0.50671000  1.0
  C  C18  1  0.04816000  0.28497000  0.63578000  1.0
  C  C19  1  0.95184000  0.71503000  0.36421000  1.0
  C  C20  1  0.87620000  0.28258000  0.71592000  1.0
  C  C21  1  0.12380000  0.71742000  0.28408000  1.0
  C  C22  1  0.22013000  0.33839000  0.67577000  1.0
  C  C23  1  0.77987000  0.66162000  0.32423000  1.0
  C  C24  1  0.38638000  0.32913000  0.60320000  1.0
  C  C25  1  0.61362000  0.67088000  0.39680000  1.0
  S  S26  1  0.73262000  0.20030000  0.19346000  1.0
  S  S27  1  0.26738000  0.79971000  0.80653000  1.0
  N  N28  1  0.21000000  0.22682000  0.45263000  1.0
  N  N29  1  0.79000000  0.77318000  0.54737000  1.0
  N  N30  1  0.77905000  0.12798000  0.75697000  1.0
  N  N31  1  0.22095000  0.87202000  0.24303000  1.0
  N  N32  1  0.80461000  0.43170000  0.76921000  1.0
  N  N33  1  0.19539000  0.56830000  0.23079000  1.0
  N  N34  1  0.66291000  0.36432000  0.84342000  1.0
  N  N35  1  0.33709000  0.63568000  0.15658000  1.0
  N  N36  1  0.64781000  0.18455000  0.83641000  1.0
  N  N37  1  0.35219000  0.81545000  0.16359000  1.0
  O  O38  1  0.30677000  0.24763000  0.05457000  1.0
  O  O39  1  0.69323000  0.75237000  0.94542000  1.0
  O  O40  1  0.88551000  0.17771000  0.28097000  1.0
  O  O41  1  0.11449000  0.82229000  0.71902000  1.0
  O  O42  1  0.54341000  0.19643000  0.26056000  1.0
  O  O43  1  0.45660000  0.80358000  0.73944000  1.0
  O  O44  1  0.75558000  0.04444000  0.11864000  1.0
  O  O45  1  0.24442000  0.95556000  0.88136000  1.0
  O  O46  1  0.75166000  0.38642000  0.11738000  1.0
  O  O47  1  0.24834000  0.61358000  0.88261000  1.0
