# generated using pymatgen
data_HgH14C14N4Cl2O
_symmetry_space_group_name_H-M   'P 1'
_cell_length_a   8.00544000
_cell_length_b   13.66580000
_cell_length_c   14.61100000
_cell_angle_alpha   90.00000000
_cell_angle_beta   90.00000000
_cell_angle_gamma   93.77030000
_symmetry_Int_Tables_number   1
_chemical_formula_structural   HgH14C14N4Cl2O
_chemical_formula_sum   'Hg4 H56 C56 N16 Cl8 O4'
_cell_volume   1594.99468722
_cell_formula_units_Z   4
loop_
 _symmetry_equiv_pos_site_id
 _symmetry_equiv_pos_as_xyz
  1  'x, y, z'
loop_
 _atom_site_type_symbol
 _atom_site_label
 _atom_site_symmetry_multiplicity
 _atom_site_fract_x
 _atom_site_fract_y
 _atom_site_fract_z
 _atom_site_occupancy
  Hg  Hg0  1  0.71444000  0.26196000  0.46903000  1.0
  Hg  Hg1  1  0.78556000  0.23804000  0.96903000  1.0
  Hg  Hg2  1  0.28555000  0.73804000  0.53097000  1.0
  Hg  Hg3  1  0.21444000  0.76197000  0.03097000  1.0
  H  H4  1  0.59694000  0.04172000  0.91507000  1.0
  H  H5  1  0.90308000  0.45828000  0.41508000  1.0
  H  H6  1  0.40307000  0.95827000  0.08492000  1.0
  H  H7  1  0.09695000  0.54171000  0.58492000  1.0
  H  H8  1  0.73291000  0.88496000  0.93018000  1.0
  H  H9  1  0.76710000  0.61504000  0.43019000  1.0
  H  H10  1  0.26709000  0.11503000  0.06982000  1.0
  H  H11  1  0.23292000  0.38496000  0.56982000  1.0
  H  H12  1  0.84613000  0.80467000  0.79136000  1.0
  H  H13  1  0.65385000  0.69533000  0.29136000  1.0
  H  H14  1  0.15386000  0.19533000  0.20864000  1.0
  H  H15  1  0.34616000  0.30467000  0.70865000  1.0
  H  H16  1  0.82361000  0.87973000  0.64186000  1.0
  H  H17  1  0.67638000  0.62026000  0.14186000  1.0
  H  H18  1  0.17640000  0.12026000  0.35813000  1.0
  H  H19  1  0.32362000  0.37974000  0.85815000  1.0
  H  H20  1  0.72615000  0.84230000  0.41730000  1.0
  H  H21  1  0.77384000  0.65770000  0.91730000  1.0
  H  H22  1  0.27384000  0.15770000  0.58270000  1.0
  H  H23  1  0.22616000  0.34230000  0.08270000  1.0
  H  H24  1  0.93692000  0.88728000  0.40432000  1.0
  H  H25  1  0.56307000  0.61272000  0.90432000  1.0
  H  H26  1  0.06308000  0.11272000  0.59568000  1.0
  H  H27  1  0.43692000  0.38729000  0.09568000  1.0
  H  H28  1  0.81396000  0.85326000  0.30655000  1.0
  H  H29  1  0.68603000  0.64674000  0.80656000  1.0
  H  H30  1  0.18603000  0.14675000  0.69344000  1.0
  H  H31  1  0.31398000  0.35326000  0.19344000  1.0
  H  H32  1  0.91258000  0.94335000  0.20622000  1.0
  H  H33  1  0.58742000  0.55665000  0.70622000  1.0
  H  H34  1  0.08742000  0.05666000  0.79378000  1.0
  H  H35  1  0.41258000  0.44335000  0.29378000  1.0
  H  H36  1  0.90775000  0.03492000  0.06171000  1.0
  H  H37  1  0.59224000  0.46508000  0.56171000  1.0
  H  H38  1  0.09223000  0.96508000  0.93829000  1.0
  H  H39  1  0.40777000  0.53492000  0.43829000  1.0
  H  H40  1  0.59896000  0.23741000  0.17013000  1.0
  H  H41  1  0.90104000  0.26259000  0.67013000  1.0
  H  H42  1  0.40102000  0.76259000  0.82986000  1.0
  H  H43  1  0.09896000  0.73741000  0.32987000  1.0
  H  H44  1  0.58604000  0.15292000  0.32039000  1.0
  H  H45  1  0.91397000  0.34708000  0.82039000  1.0
  H  H46  1  0.41396000  0.84708000  0.67961000  1.0
  H  H47  1  0.08604000  0.65292000  0.17962000  1.0
  H  H48  1  0.51726000  0.17157000  0.82227000  1.0
  H  H49  1  0.98275000  0.32843000  0.32227000  1.0
  H  H50  1  0.48274000  0.82843000  0.17772000  1.0
  H  H51  1  0.01726000  0.67157000  0.67773000  1.0
  H  H52  1  0.55532000  0.17300000  0.70257000  1.0
  H  H53  1  0.94469000  0.32700000  0.20258000  1.0
  H  H54  1  0.44468000  0.82700000  0.29743000  1.0
  H  H55  1  0.05532000  0.67300000  0.79742000  1.0
  H  H56  1  0.75598000  0.92941000  0.52908000  1.0
  H  H57  1  0.74403000  0.57058000  0.02908000  1.0
  H  H58  1  0.24403000  0.07058000  0.47092000  1.0
  H  H59  1  0.25598000  0.42943000  0.97092000  1.0
  C  C60  1  0.63137000  0.05324000  0.76875000  1.0
  C  C61  1  0.86865000  0.44675000  0.26875000  1.0
  C  C62  1  0.36864000  0.94676000  0.23125000  1.0
  C  C63  1  0.13136000  0.55325000  0.73125000  1.0
  C  C64  1  0.64863000  0.00709000  0.85501000  1.0
  C  C65  1  0.85139000  0.49291000  0.35501000  1.0
  C  C66  1  0.35138000  0.99291000  0.14499000  1.0
  C  C67  1  0.14861000  0.50709000  0.64500000  1.0
  C  C68  1  0.72319000  0.91917000  0.86306000  1.0
  C  C69  1  0.77683000  0.58082000  0.36307000  1.0
  C  C70  1  0.27683000  0.08083000  0.13694000  1.0
  C  C71  1  0.22315000  0.41917000  0.63694000  1.0
  C  C72  1  0.78527000  0.87324000  0.78512000  1.0
  C  C73  1  0.71474000  0.62676000  0.28512000  1.0
  C  C74  1  0.21472000  0.12677000  0.21488000  1.0
  C  C75  1  0.28525000  0.37323000  0.71489000  1.0
  C  C76  1  0.77080000  0.91659000  0.70026000  1.0
  C  C77  1  0.72919000  0.58340000  0.20027000  1.0
  C  C78  1  0.22919000  0.08341000  0.29973000  1.0
  C  C79  1  0.27081000  0.41660000  0.79974000  1.0
  C  C80  1  0.69390000  0.00605000  0.68885000  1.0
  C  C81  1  0.80611000  0.49394000  0.18886000  1.0
  C  C82  1  0.30610000  0.99394000  0.31114000  1.0
  C  C83  1  0.19391000  0.50607000  0.81114000  1.0
  C  C84  1  0.67577000  0.05125000  0.59880000  1.0
  C  C85  1  0.82423000  0.44875000  0.09881000  1.0
  C  C86  1  0.32421000  0.94875000  0.40120000  1.0
  C  C87  1  0.17578000  0.55126000  0.90119000  1.0
  C  C88  1  0.81144000  0.88836000  0.37373000  1.0
  C  C89  1  0.68855000  0.61163000  0.87373000  1.0
  C  C90  1  0.18855000  0.11164000  0.62627000  1.0
  C  C91  1  0.31144000  0.38837000  0.12627000  1.0
  C  C92  1  0.75646000  0.99079000  0.36771000  1.0
  C  C93  1  0.74355000  0.50920000  0.86771000  1.0
  C  C94  1  0.24354000  0.00921000  0.63229000  1.0
  C  C95  1  0.25645000  0.49080000  0.13229000  1.0
  C  C96  1  0.75269000  0.04144000  0.27877000  1.0
  C  C97  1  0.74731000  0.45855000  0.77877000  1.0
  C  C98  1  0.24730000  0.95856000  0.72123000  1.0
  C  C99  1  0.25269000  0.54145000  0.22124000  1.0
  C  C100  1  0.83980000  0.00770000  0.20293000  1.0
  C  C101  1  0.66020000  0.49230000  0.70294000  1.0
  C  C102  1  0.16019000  0.99230000  0.79707000  1.0
  C  C103  1  0.33980000  0.50770000  0.29707000  1.0
  C  C104  1  0.83820000  0.05905000  0.12088000  1.0
  C  C105  1  0.66181000  0.44095000  0.62089000  1.0
  C  C106  1  0.16180000  0.94095000  0.87912000  1.0
  C  C107  1  0.33819000  0.55905000  0.37912000  1.0
  C  C108  1  0.66819000  0.17242000  0.18179000  1.0
  C  C109  1  0.83181000  0.32757000  0.68179000  1.0
  C  C110  1  0.33179000  0.82758000  0.81821000  1.0
  C  C111  1  0.16819000  0.67243000  0.31822000  1.0
  C  C112  1  0.66288000  0.12546000  0.26595000  1.0
  C  C113  1  0.83711000  0.37453000  0.76595000  1.0
  C  C114  1  0.33710000  0.87454000  0.73405000  1.0
  C  C115  1  0.16289000  0.62547000  0.23406000  1.0
  N  N116  1  0.55333000  0.13794000  0.76397000  1.0
  N  N117  1  0.94669000  0.36206000  0.26397000  1.0
  N  N118  1  0.44668000  0.86205000  0.23603000  1.0
  N  N119  1  0.05333000  0.63794000  0.73602000  1.0
  N  N120  1  0.72188000  0.99974000  0.52219000  1.0
  N  N121  1  0.77813000  0.50026000  0.02220000  1.0
  N  N122  1  0.27812000  0.00026000  0.47780000  1.0
  N  N123  1  0.22187000  0.49974000  0.97780000  1.0
  N  N124  1  0.71404000  0.04138000  0.43866000  1.0
  N  N125  1  0.78596000  0.45862000  0.93867000  1.0
  N  N126  1  0.28595000  0.95862000  0.56133000  1.0
  N  N127  1  0.21404000  0.54138000  0.06133000  1.0
  N  N128  1  0.75560000  0.14056000  0.11025000  1.0
  N  N129  1  0.74439000  0.35944000  0.61026000  1.0
  N  N130  1  0.24439000  0.85944000  0.88974000  1.0
  N  N131  1  0.25561000  0.64056000  0.38975000  1.0
  Cl  Cl132  1  0.43916000  0.29357000  0.42173000  1.0
  Cl  Cl133  1  0.06085000  0.20643000  0.92173000  1.0
  Cl  Cl134  1  0.56084000  0.70643000  0.57827000  1.0
  Cl  Cl135  1  0.93916000  0.79357000  0.07827000  1.0
  Cl  Cl136  1  0.00915000  0.24271000  0.45455000  1.0
  Cl  Cl137  1  0.49085000  0.25729000  0.95454000  1.0
  Cl  Cl138  1  0.99084000  0.75729000  0.54545000  1.0
  Cl  Cl139  1  0.50914000  0.74271000  0.04545000  1.0
  O  O140  1  0.62070000  0.13479000  0.58898000  1.0
  O  O141  1  0.87931000  0.36521000  0.08897000  1.0
  O  O142  1  0.37929000  0.86521000  0.41102000  1.0
  O  O143  1  0.12069000  0.63479000  0.91102000  1.0
