# generated using pymatgen
data_ErCuH22C18IN5O9
_symmetry_space_group_name_H-M   'P 1'
_cell_length_a   10.90910000
_cell_length_b   11.86529241
_cell_length_c   14.54370000
_cell_angle_alpha   81.95792472
_cell_angle_beta   83.55070000
_cell_angle_gamma   67.51319063
_symmetry_Int_Tables_number   1
_chemical_formula_structural   ErCuH22C18IN5O9
_chemical_formula_sum   'Er2 Cu2 H44 C36 I2 N10 O18'
_cell_volume   1718.72948798
_cell_formula_units_Z   2
loop_
 _symmetry_equiv_pos_site_id
 _symmetry_equiv_pos_as_xyz
  1  'x, y, z'
loop_
 _atom_site_type_symbol
 _atom_site_label
 _atom_site_symmetry_multiplicity
 _atom_site_fract_x
 _atom_site_fract_y
 _atom_site_fract_z
 _atom_site_occupancy
  Er  Er0  1  0.90295000  0.87595000  0.53723000  1.0
  Er  Er1  1  0.09704000  0.12403000  0.46278000  1.0
  Cu  Cu2  1  0.48502000  0.50311000  0.08782000  1.0
  Cu  Cu3  1  0.51498000  0.49689000  0.91219000  1.0
  H  H4  1  0.44842000  0.29147000  0.20564000  1.0
  H  H5  1  0.55159000  0.70852000  0.79434000  1.0
  H  H6  1  0.55819000  0.14505000  0.34039000  1.0
  H  H7  1  0.44181000  0.85493000  0.65959000  1.0
  H  H8  1  0.86613000  0.29538000  0.29931000  1.0
  H  H9  1  0.13388000  0.70458000  0.70070000  1.0
  H  H10  1  0.74020000  0.44011000  0.16866000  1.0
  H  H11  1  0.25981000  0.55988000  0.83136000  1.0
  H  H12  1  0.20495000  0.57256000  0.16023000  1.0
  H  H13  1  0.79505000  0.42744000  0.83976000  1.0
  H  H14  1  0.05955000  0.71125000  0.27862000  1.0
  H  H15  1  0.94044000  0.28874000  0.72136000  1.0
  H  H16  1  0.34735000  0.88089000  0.25861000  1.0
  H  H17  1  0.65264000  0.11910000  0.74140000  1.0
  H  H18  1  0.48445000  0.73222000  0.14265000  1.0
  H  H19  1  0.51554000  0.26778000  0.85736000  1.0
  H  H20  1  0.56603000  0.82889000  0.48355000  1.0
  H  H21  1  0.43396000  0.17113000  0.51645000  1.0
  H  H22  1  0.49909000  0.77575000  0.39869000  1.0
  H  H23  1  0.50091000  0.22427000  0.60131000  1.0
  H  H24  1  0.44073000  0.93533000  0.41083000  1.0
  H  H25  1  0.55928000  0.06469000  0.58917000  1.0
  H  H26  1  0.67813000  0.93482000  0.21242000  1.0
  H  H27  1  0.32189000  0.06521000  0.78759000  1.0
  H  H28  1  0.50676000  0.99810000  0.25170000  1.0
  H  H29  1  0.49327000  0.00191000  0.74830000  1.0
  H  H30  1  0.57693000  0.84647000  0.21606000  1.0
  H  H31  1  0.42309000  0.15356000  0.78393000  1.0
  H  H32  1  0.82208000  0.85992000  0.31559000  1.0
  H  H33  1  0.17794000  0.14007000  0.68441000  1.0
  H  H34  1  0.27344000  0.57973000  0.56041000  1.0
  H  H35  1  0.72656000  0.42030000  0.43960000  1.0
  H  H36  1  0.39021000  0.51141000  0.46747000  1.0
  H  H37  1  0.60979000  0.48864000  0.53252000  1.0
  H  H38  1  0.34124000  0.41651000  0.55840000  1.0
  H  H39  1  0.65878000  0.58352000  0.44160000  1.0
  H  H40  1  0.13741000  0.45103000  0.35492000  1.0
  H  H41  1  0.86260000  0.54903000  0.64506000  1.0
  H  H42  1  0.26494000  0.33811000  0.42103000  1.0
  H  H43  1  0.73507000  0.66193000  0.57894000  1.0
  H  H44  1  0.30335000  0.44891000  0.33814000  1.0
  H  H45  1  0.69666000  0.55115000  0.66185000  1.0
  H  H46  1  0.00262000  0.60047000  0.42983000  1.0
  H  H47  1  0.99739000  0.39954000  0.57017000  1.0
  C  C48  1  0.53927000  0.29150000  0.23047000  1.0
  C  C49  1  0.46074000  0.70849000  0.76953000  1.0
  C  C50  1  0.60164000  0.20924000  0.30441000  1.0
  C  C51  1  0.39836000  0.79074000  0.69559000  1.0
  C  C52  1  0.72104000  0.20938000  0.33118000  1.0
  C  C53  1  0.27895000  0.79060000  0.66882000  1.0
  C  C54  1  0.77234000  0.29372000  0.28201000  1.0
  C  C55  1  0.22766000  0.70626000  0.71800000  1.0
  C  C56  1  0.70329000  0.37381000  0.20968000  1.0
  C  C57  1  0.29672000  0.62618000  0.79033000  1.0
  C  C58  1  0.79576000  0.11906000  0.40729000  1.0
  C  C59  1  0.20424000  0.88090000  0.59271000  1.0
  C  C60  1  0.23342000  0.64100000  0.18560000  1.0
  C  C61  1  0.76657000  0.35900000  0.81440000  1.0
  C  C62  1  0.15350000  0.71805000  0.25032000  1.0
  C  C63  1  0.84648000  0.28194000  0.74968000  1.0
  C  C64  1  0.19530000  0.80414000  0.27990000  1.0
  C  C65  1  0.80468000  0.19585000  0.72012000  1.0
  C  C66  1  0.31479000  0.81192000  0.23941000  1.0
  C  C67  1  0.68521000  0.18807000  0.76061000  1.0
  C  C68  1  0.38990000  0.73088000  0.17583000  1.0
  C  C69  1  0.61010000  0.26911000  0.82418000  1.0
  C  C70  1  0.11730000  0.88318000  0.35465000  1.0
  C  C71  1  0.88270000  0.11679000  0.64536000  1.0
  C  C72  1  0.52841000  0.84983000  0.41404000  1.0
  C  C73  1  0.47159000  0.15019000  0.58596000  1.0
  C  C74  1  0.59613000  0.91367000  0.25125000  1.0
  C  C75  1  0.40388000  0.08636000  0.74875000  1.0
  C  C76  1  0.75476000  0.83699000  0.37088000  1.0
  C  C77  1  0.24526000  0.16300000  0.62912000  1.0
  C  C78  1  0.30701000  0.50545000  0.51552000  1.0
  C  C79  1  0.69299000  0.49459000  0.48447000  1.0
  C  C80  1  0.22796000  0.43373000  0.38966000  1.0
  C  C81  1  0.77205000  0.56631000  0.61032000  1.0
  C  C82  1  0.07533000  0.59746000  0.47802000  1.0
  C  C83  1  0.92468000  0.40254000  0.52198000  1.0
  I  I84  1  0.34468000  0.40686000  0.00975000  1.0
  I  I85  1  0.65533000  0.59313000  0.99027000  1.0
  N  N86  1  0.58814000  0.37381000  0.18367000  1.0
  N  N87  1  0.41186000  0.62620000  0.81633000  1.0
  N  N88  1  0.35213000  0.64433000  0.15030000  1.0
  N  N89  1  0.64787000  0.35566000  0.84969000  1.0
  N  N90  1  0.76373000  0.82685000  0.70604000  1.0
  N  N91  1  0.23623000  0.17313000  0.29396000  1.0
  N  N92  1  0.63208000  0.86401000  0.34623000  1.0
  N  N93  1  0.36793000  0.13600000  0.65376000  1.0
  N  N94  1  0.19785000  0.51587000  0.46173000  1.0
  N  N95  1  0.80216000  0.48415000  0.53826000  1.0
  O  O96  1  0.75094000  0.03865000  0.44676000  1.0
  O  O97  1  0.24905000  0.96133000  0.55322000  1.0
  O  O98  1  0.90322000  0.12501000  0.42787000  1.0
  O  O99  1  0.09676000  0.87495000  0.57214000  1.0
  O  O100  1  0.01567000  0.86311000  0.39318000  1.0
  O  O101  1  0.98434000  0.13686000  0.60685000  1.0
  O  O102  1  0.16007000  0.96141000  0.37494000  1.0
  O  O103  1  0.83992000  0.03858000  0.62506000  1.0
  O  O104  1  0.79462000  0.78957000  0.45036000  1.0
  O  O105  1  0.20539000  0.21041000  0.54963000  1.0
  O  O106  1  0.04188000  0.66586000  0.54223000  1.0
  O  O107  1  0.95811000  0.33413000  0.45779000  1.0
  O  O108  1  0.89099000  0.78980000  0.69823000  1.0
  O  O109  1  0.10898000  0.21015000  0.30177000  1.0
  O  O110  1  0.70512000  0.86991000  0.62856000  1.0
  O  O111  1  0.29486000  0.13008000  0.37145000  1.0
  O  O112  1  0.70027000  0.82243000  0.78109000  1.0
  O  O113  1  0.29971000  0.17755000  0.21891000  1.0
