# generated using pymatgen
data_FeH18PdC30(N2O)4
_symmetry_space_group_name_H-M   'P 1'
_cell_length_a   7.48491000
_cell_length_b   13.98010000
_cell_length_c   14.88300000
_cell_angle_alpha   87.37990000
_cell_angle_beta   83.15370000
_cell_angle_gamma   89.60700000
_symmetry_Int_Tables_number   1
_chemical_formula_structural   FeH18PdC30(N2O)4
_chemical_formula_sum   'Fe2 H36 Pd2 C60 N16 O8'
_cell_volume   1544.63127326
_cell_formula_units_Z   2
loop_
 _symmetry_equiv_pos_site_id
 _symmetry_equiv_pos_as_xyz
  1  'x, y, z'
loop_
 _atom_site_type_symbol
 _atom_site_label
 _atom_site_symmetry_multiplicity
 _atom_site_fract_x
 _atom_site_fract_y
 _atom_site_fract_z
 _atom_site_occupancy
  Fe  Fe0  1  0.50000000  0.50000000  0.50000000  1.0
  Fe  Fe1  1  0.50000000  0.00000000  0.50000000  1.0
  H  H2  1  0.53301000  0.47623000  0.29823000  1.0
  H  H3  1  0.46699000  0.52377000  0.70176000  1.0
  H  H4  1  0.53776000  0.57427000  0.15334000  1.0
  H  H5  1  0.46223000  0.42573000  0.84665000  1.0
  H  H6  1  0.50231000  0.82649000  0.31344000  1.0
  H  H7  1  0.49770000  0.17351000  0.68655000  1.0
  H  H8  1  0.50297000  0.71841000  0.45008000  1.0
  H  H9  1  0.49704000  0.28159000  0.54992000  1.0
  H  H10  1  0.77458000  0.00365000  0.63928000  1.0
  H  H11  1  0.22542000  0.99635000  0.36072000  1.0
  H  H12  1  0.78292000  0.96017000  0.80301000  1.0
  H  H13  1  0.21708000  0.03983000  0.19699000  1.0
  H  H14  1  0.20002000  0.95323000  0.83292000  1.0
  H  H15  1  0.79997000  0.04677000  0.16707000  1.0
  H  H16  1  0.21684000  0.99648000  0.66770000  1.0
  H  H17  1  0.78317000  0.00353000  0.33230000  1.0
  H  H18  1  0.01598000  0.71869000  0.06865000  1.0
  H  H19  1  0.98402000  0.28131000  0.93135000  1.0
  H  H20  1  0.02555000  0.54014000  0.08354000  1.0
  H  H21  1  0.97446000  0.45986000  0.91646000  1.0
  H  H22  1  0.03630000  0.45848000  0.23584000  1.0
  H  H23  1  0.96370000  0.54152000  0.76416000  1.0
  H  H24  1  0.03579000  0.55429000  0.37217000  1.0
  H  H25  1  0.96421000  0.44570000  0.62783000  1.0
  H  H26  1  0.02668000  0.73338000  0.35647000  1.0
  H  H27  1  0.97331000  0.26662000  0.64353000  1.0
  H  H28  1  0.23730000  0.26393000  0.24255000  1.0
  H  H29  1  0.76271000  0.73608000  0.75746000  1.0
  H  H30  1  0.48960000  0.23495000  0.33689000  1.0
  H  H31  1  0.51042000  0.76506000  0.66312000  1.0
  H  H32  1  0.79844000  0.28889000  0.27745000  1.0
  H  H33  1  0.20158000  0.71111000  0.72254000  1.0
  H  H34  1  0.85588000  0.37560000  0.12708000  1.0
  H  H35  1  0.14413000  0.62439000  0.87292000  1.0
  H  H36  1  0.60154000  0.41020000  0.03583000  1.0
  H  H37  1  0.39846000  0.58979000  0.96417000  1.0
  Pd  Pd38  1  0.00898000  0.25917000  0.46000000  1.0
  Pd  Pd39  1  0.99102000  0.74083000  0.54000000  1.0
  C  C40  1  0.52645000  0.55414000  0.29810000  1.0
  C  C41  1  0.47355000  0.44586000  0.70190000  1.0
  C  C42  1  0.52820000  0.60859000  0.21791000  1.0
  C  C43  1  0.47179000  0.39141000  0.78209000  1.0
  C  C44  1  0.51746000  0.70920000  0.22129000  1.0
  C  C45  1  0.48254000  0.29080000  0.77871000  1.0
  C  C46  1  0.50936000  0.74938000  0.30684000  1.0
  C  C47  1  0.49065000  0.25062000  0.69316000  1.0
  C  C48  1  0.50932000  0.68906000  0.38329000  1.0
  C  C49  1  0.49069000  0.31094000  0.61671000  1.0
  C  C50  1  0.51267000  0.76708000  0.14174000  1.0
  C  C51  1  0.48733000  0.23291000  0.85826000  1.0
  C  C52  1  0.50509000  0.81614000  0.07181000  1.0
  C  C53  1  0.49489000  0.18387000  0.92819000  1.0
  C  C54  1  0.17421000  0.64174000  0.55617000  1.0
  C  C55  1  0.82578000  0.35826000  0.44383000  1.0
  C  C56  1  0.19059000  0.16176000  0.48534000  1.0
  C  C57  1  0.80942000  0.83824000  0.51465000  1.0
  C  C58  1  0.81804000  0.16111000  0.47479000  1.0
  C  C59  1  0.18196000  0.83889000  0.52520000  1.0
  C  C60  1  0.19835000  0.35735000  0.44928000  1.0
  C  C61  1  0.80165000  0.64265000  0.55071000  1.0
  C  C62  1  0.65065000  0.99019000  0.68429000  1.0
  C  C63  1  0.34934000  0.00981000  0.31571000  1.0
  C  C64  1  0.65492000  0.96598000  0.77531000  1.0
  C  C65  1  0.34507000  0.03402000  0.22468000  1.0
  C  C66  1  0.49144000  0.94729000  0.83071000  1.0
  C  C67  1  0.50855000  0.05272000  0.16930000  1.0
  C  C68  1  0.32987000  0.96219000  0.79204000  1.0
  C  C69  1  0.67013000  0.03781000  0.20796000  1.0
  C  C70  1  0.33888000  0.98623000  0.70023000  1.0
  C  C71  1  0.66112000  0.01378000  0.29976000  1.0
  C  C72  1  0.49174000  0.90875000  0.91961000  1.0
  C  C73  1  0.50826000  0.09125000  0.08040000  1.0
  C  C74  1  0.49758000  0.86625000  0.99310000  1.0
  C  C75  1  0.50241000  0.13375000  0.00690000  1.0
  C  C76  1  0.02244000  0.73385000  0.21195000  1.0
  C  C77  1  0.97756000  0.26614000  0.78805000  1.0
  C  C78  1  0.02205000  0.68166000  0.13419000  1.0
  C  C79  1  0.97795000  0.31833000  0.86581000  1.0
  C  C80  1  0.02749000  0.58201000  0.14340000  1.0
  C  C81  1  0.97251000  0.41798000  0.85660000  1.0
  C  C82  1  0.03315000  0.53645000  0.22870000  1.0
  C  C83  1  0.96685000  0.46354000  0.77130000  1.0
  C  C84  1  0.03260000  0.59008000  0.30580000  1.0
  C  C85  1  0.96740000  0.40992000  0.69420000  1.0
  C  C86  1  0.02742000  0.68964000  0.29771000  1.0
  C  C87  1  0.97258000  0.31036000  0.70229000  1.0
  C  C88  1  0.40875000  0.33795000  0.13489000  1.0
  C  C89  1  0.59125000  0.66206000  0.86511000  1.0
  C  C90  1  0.37313000  0.28851000  0.21887000  1.0
  C  C91  1  0.62687000  0.71150000  0.78114000  1.0
  C  C92  1  0.51451000  0.27209000  0.27061000  1.0
  C  C93  1  0.48551000  0.72792000  0.72939000  1.0
  C  C94  1  0.68798000  0.30302000  0.23717000  1.0
  C  C95  1  0.31204000  0.69698000  0.76282000  1.0
  C  C96  1  0.72028000  0.35281000  0.15318000  1.0
  C  C97  1  0.27973000  0.64719000  0.84681000  1.0
  C  C98  1  0.58007000  0.37158000  0.10141000  1.0
  C  C99  1  0.41994000  0.62842000  0.89860000  1.0
  N  N100  1  0.51596000  0.59291000  0.37988000  1.0
  N  N101  1  0.48404000  0.40709000  0.62012000  1.0
  N  N102  1  0.28793000  0.58402000  0.55818000  1.0
  N  N103  1  0.71206000  0.41598000  0.44182000  1.0
  N  N104  1  0.29993000  0.10590000  0.50268000  1.0
  N  N105  1  0.70007000  0.89410000  0.49732000  1.0
  N  N106  1  0.70223000  0.10445000  0.48509000  1.0
  N  N107  1  0.29776000  0.89555000  0.51491000  1.0
  N  N108  1  0.49608000  0.99715000  0.64604000  1.0
  N  N109  1  0.50392000  0.00285000  0.35396000  1.0
  N  N110  1  0.31281000  0.41409000  0.44846000  1.0
  N  N111  1  0.68719000  0.58591000  0.55154000  1.0
  N  N112  1  0.01697000  0.83894000  0.20383000  1.0
  N  N113  1  0.98302000  0.16106000  0.79617000  1.0
  N  N114  1  0.26278000  0.35366000  0.07895000  1.0
  N  N115  1  0.73722000  0.64634000  0.92105000  1.0
  O  O116  1  0.01673000  0.88357000  0.27447000  1.0
  O  O117  1  0.98325000  0.11643000  0.72553000  1.0
  O  O118  1  0.01296000  0.87823000  0.12757000  1.0
  O  O119  1  0.98704000  0.12176000  0.87243000  1.0
  O  O120  1  0.12349000  0.30511000  0.09802000  1.0
  O  O121  1  0.87651000  0.69488000  0.90199000  1.0
  O  O122  1  0.28411000  0.41451000  0.01484000  1.0
  O  O123  1  0.71589000  0.58549000  0.98517000  1.0
