# generated using pymatgen
data_PrH11C9NO9
_symmetry_space_group_name_H-M   'P 1'
_cell_length_a   6.29825000
_cell_length_b   13.70700000
_cell_length_c   15.98610000
_cell_angle_alpha   89.99930000
_cell_angle_beta   96.08390000
_cell_angle_gamma   89.99950000
_symmetry_Int_Tables_number   1
_chemical_formula_structural   PrH11C9NO9
_chemical_formula_sum   'Pr4 H44 C36 N4 O36'
_cell_volume   1372.30886998
_cell_formula_units_Z   4
loop_
 _symmetry_equiv_pos_site_id
 _symmetry_equiv_pos_as_xyz
  1  'x, y, z'
loop_
 _atom_site_type_symbol
 _atom_site_label
 _atom_site_symmetry_multiplicity
 _atom_site_fract_x
 _atom_site_fract_y
 _atom_site_fract_z
 _atom_site_occupancy
  Pr  Pr0  1  0.03511000  0.06401000  0.75150000  1.0
  Pr  Pr1  1  0.46489000  0.56402000  0.24850000  1.0
  Pr  Pr2  1  0.96489000  0.93599000  0.24850000  1.0
  Pr  Pr3  1  0.53511000  0.43599000  0.75150000  1.0
  H  H4  1  0.65216000  0.05862000  0.53220000  1.0
  H  H5  1  0.84785000  0.55863000  0.46780000  1.0
  H  H6  1  0.34785000  0.94138000  0.46780000  1.0
  H  H7  1  0.15215000  0.44138000  0.53219000  1.0
  H  H8  1  0.54035000  0.20073000  0.30195000  1.0
  H  H9  1  0.95966000  0.70073000  0.69805000  1.0
  H  H10  1  0.45965000  0.79927000  0.69805000  1.0
  H  H11  1  0.04034000  0.29926000  0.30195000  1.0
  H  H12  1  0.60328000  0.37297000  0.52813000  1.0
  H  H13  1  0.89673000  0.87297000  0.47187000  1.0
  H  H14  1  0.39672000  0.62703000  0.47187000  1.0
  H  H15  1  0.10328000  0.12703000  0.52813000  1.0
  H  H16  1  0.65407000  0.07770000  0.97106000  1.0
  H  H17  1  0.84592000  0.57770000  0.02895000  1.0
  H  H18  1  0.34591000  0.92231000  0.02896000  1.0
  H  H19  1  0.15408000  0.42231000  0.97105000  1.0
  H  H20  1  0.43345000  0.10278000  0.02624000  1.0
  H  H21  1  0.06654000  0.60278000  0.97376000  1.0
  H  H22  1  0.56652000  0.89722000  0.97376000  1.0
  H  H23  1  0.93348000  0.39723000  0.02624000  1.0
  H  H24  1  0.48064000  0.06819000  0.68730000  1.0
  H  H25  1  0.01935000  0.56819000  0.31270000  1.0
  H  H26  1  0.51935000  0.93181000  0.31270000  1.0
  H  H27  1  0.98065000  0.43181000  0.68730000  1.0
  H  H28  1  0.38901000  0.96588000  0.64988000  1.0
  H  H29  1  0.11098000  0.46588000  0.35011000  1.0
  H  H30  1  0.61099000  0.03412000  0.35012000  1.0
  H  H31  1  0.88902000  0.53412000  0.64989000  1.0
  H  H32  1  0.77857000  0.90568000  0.80638000  1.0
  H  H33  1  0.72142000  0.40568000  0.19362000  1.0
  H  H34  1  0.22142000  0.09432000  0.19362000  1.0
  H  H35  1  0.27858000  0.59432000  0.80638000  1.0
  H  H36  1  0.58619000  0.97617000  0.77487000  1.0
  H  H37  1  0.91380000  0.47618000  0.22513000  1.0
  H  H38  1  0.41381000  0.02382000  0.22513000  1.0
  H  H39  1  0.08620000  0.52382000  0.77487000  1.0
  H  H40  1  0.87708000  0.24554000  0.85806000  1.0
  H  H41  1  0.62292000  0.74555000  0.14194000  1.0
  H  H42  1  0.12292000  0.75446000  0.14194000  1.0
  H  H43  1  0.37708000  0.25445000  0.85806000  1.0
  H  H44  1  0.71494000  0.15804000  0.85400000  1.0
  H  H45  1  0.78505000  0.65804000  0.14600000  1.0
  H  H46  1  0.28506000  0.84196000  0.14600000  1.0
  H  H47  1  0.21494000  0.34196000  0.85400000  1.0
  C  C48  1  0.65800000  0.21758000  0.63650000  1.0
  C  C49  1  0.84201000  0.71759000  0.36351000  1.0
  C  C50  1  0.34200000  0.78242000  0.36350000  1.0
  C  C51  1  0.15798000  0.28241000  0.63650000  1.0
  C  C52  1  0.62498000  0.21565000  0.54204000  1.0
  C  C53  1  0.87503000  0.71565000  0.45796000  1.0
  C  C54  1  0.37503000  0.78435000  0.45796000  1.0
  C  C55  1  0.12498000  0.28435000  0.54204000  1.0
  C  C56  1  0.62231000  0.12724000  0.49834000  1.0
  C  C57  1  0.87770000  0.62725000  0.50167000  1.0
  C  C58  1  0.37769000  0.87276000  0.50166000  1.0
  C  C59  1  0.12230000  0.37275000  0.49833000  1.0
  C  C60  1  0.56352000  0.20631000  0.37041000  1.0
  C  C61  1  0.93650000  0.70631000  0.62959000  1.0
  C  C62  1  0.43648000  0.79369000  0.62959000  1.0
  C  C63  1  0.06350000  0.29369000  0.37040000  1.0
  C  C64  1  0.56903000  0.29831000  0.40856000  1.0
  C  C65  1  0.93097000  0.79831000  0.59144000  1.0
  C  C66  1  0.43098000  0.70169000  0.59144000  1.0
  C  C67  1  0.06904000  0.20169000  0.40856000  1.0
  C  C68  1  0.60004000  0.30267000  0.49605000  1.0
  C  C69  1  0.89997000  0.80267000  0.50395000  1.0
  C  C70  1  0.39996000  0.69733000  0.50395000  1.0
  C  C71  1  0.10003000  0.19733000  0.49605000  1.0
  C  C72  1  0.53696000  0.38821000  0.35506000  1.0
  C  C73  1  0.96304000  0.88821000  0.64494000  1.0
  C  C74  1  0.46304000  0.61179000  0.64494000  1.0
  C  C75  1  0.03696000  0.11179000  0.35507000  1.0
  C  C76  1  0.34825000  0.05822000  0.90073000  1.0
  C  C77  1  0.15176000  0.55822000  0.09927000  1.0
  C  C78  1  0.65174000  0.94178000  0.09928000  1.0
  C  C79  1  0.84825000  0.44178000  0.90073000  1.0
  C  C80  1  0.49448000  0.05129000  0.98146000  1.0
  C  C81  1  0.00551000  0.55129000  0.01854000  1.0
  C  C82  1  0.50549000  0.94872000  0.01855000  1.0
  C  C83  1  0.99450000  0.44872000  0.98145000  1.0
  N  N84  1  0.59085000  0.12303000  0.41394000  1.0
  N  N85  1  0.90916000  0.62303000  0.58606000  1.0
  N  N86  1  0.40916000  0.87697000  0.58606000  1.0
  N  N87  1  0.09085000  0.37697000  0.41394000  1.0
  O  O88  1  0.69501000  0.13685000  0.67508000  1.0
  O  O89  1  0.80498000  0.63685000  0.32492000  1.0
  O  O90  1  0.30499000  0.86315000  0.32492000  1.0
  O  O91  1  0.19502000  0.36315000  0.67508000  1.0
  O  O92  1  0.64771000  0.29948000  0.67207000  1.0
  O  O93  1  0.85231000  0.79947000  0.32794000  1.0
  O  O94  1  0.35228000  0.70052000  0.32793000  1.0
  O  O95  1  0.14770000  0.20053000  0.67206000  1.0
  O  O96  1  0.48092000  0.37709000  0.27642000  1.0
  O  O97  1  0.01909000  0.87709000  0.72358000  1.0
  O  O98  1  0.51909000  0.62291000  0.72358000  1.0
  O  O99  1  0.98093000  0.12291000  0.27642000  1.0
  O  O100  1  0.56324000  0.47180000  0.38927000  1.0
  O  O101  1  0.93676000  0.97180000  0.61073000  1.0
  O  O102  1  0.43677000  0.52820000  0.61073000  1.0
  O  O103  1  0.06323000  0.02820000  0.38927000  1.0
  O  O104  1  0.20913000  0.99251000  0.88191000  1.0
  O  O105  1  0.29088000  0.49252000  0.11809000  1.0
  O  O106  1  0.79086000  0.00749000  0.11810000  1.0
  O  O107  1  0.70913000  0.50749000  0.88190000  1.0
  O  O108  1  0.36495000  0.13146000  0.85052000  1.0
  O  O109  1  0.13505000  0.63147000  0.14948000  1.0
  O  O110  1  0.63505000  0.86854000  0.14949000  1.0
  O  O111  1  0.86495000  0.36854000  0.85052000  1.0
  O  O112  1  0.38456000  0.01351000  0.69970000  1.0
  O  O113  1  0.11543000  0.51351000  0.30030000  1.0
  O  O114  1  0.61544000  0.98649000  0.30030000  1.0
  O  O115  1  0.88456000  0.48649000  0.69970000  1.0
  O  O116  1  0.72606000  0.97234000  0.81074000  1.0
  O  O117  1  0.77393000  0.47234000  0.18926000  1.0
  O  O118  1  0.27394000  0.02766000  0.18926000  1.0
  O  O119  1  0.22607000  0.52766000  0.81074000  1.0
  O  O120  1  0.86774000  0.17281000  0.85570000  1.0
  O  O121  1  0.63225000  0.67282000  0.14430000  1.0
  O  O122  1  0.13226000  0.82719000  0.14430000  1.0
  O  O123  1  0.36774000  0.32718000  0.85570000  1.0
