# generated using pymatgen
data_ZnH11C14N5O6
_symmetry_space_group_name_H-M   'P 1'
_cell_length_a   8.66400000
_cell_length_b   9.57586000
_cell_length_c   19.07690000
_cell_angle_alpha   100.56400000
_cell_angle_beta   89.99990000
_cell_angle_gamma   89.99990000
_symmetry_Int_Tables_number   1
_chemical_formula_structural   ZnH11C14N5O6
_chemical_formula_sum   'Zn4 H44 C56 N20 O24'
_cell_volume   1555.89386054
_cell_formula_units_Z   4
loop_
 _symmetry_equiv_pos_site_id
 _symmetry_equiv_pos_as_xyz
  1  'x, y, z'
loop_
 _atom_site_type_symbol
 _atom_site_label
 _atom_site_symmetry_multiplicity
 _atom_site_fract_x
 _atom_site_fract_y
 _atom_site_fract_z
 _atom_site_occupancy
  Zn  Zn0  1  0.37962000  0.99963000  0.12609000  1.0
  Zn  Zn1  1  0.87962000  0.50036000  0.37391000  1.0
  Zn  Zn2  1  0.62039000  0.00037000  0.87391000  1.0
  Zn  Zn3  1  0.12038000  0.49963000  0.62609000  1.0
  H  H4  1  0.36563000  0.44484000  0.10207000  1.0
  H  H5  1  0.86563000  0.05516000  0.39794000  1.0
  H  H6  1  0.63437000  0.55516000  0.89794000  1.0
  H  H7  1  0.13438000  0.94484000  0.60206000  1.0
  H  H8  1  0.07146000  0.24019000  0.93258000  1.0
  H  H9  1  0.57146000  0.25981000  0.56742000  1.0
  H  H10  1  0.92854000  0.75981000  0.06742000  1.0
  H  H11  1  0.42854000  0.74019000  0.43258000  1.0
  H  H12  1  0.18688000  0.68281000  0.94917000  1.0
  H  H13  1  0.68688000  0.81719000  0.55083000  1.0
  H  H14  1  0.81312000  0.31719000  0.05083000  1.0
  H  H15  1  0.31312000  0.18281000  0.44917000  1.0
  H  H16  1  0.23410000  0.80050000  0.23068000  1.0
  H  H17  1  0.73410000  0.69950000  0.26932000  1.0
  H  H18  1  0.76590000  0.19950000  0.76932000  1.0
  H  H19  1  0.26590000  0.30050000  0.73068000  1.0
  H  H20  1  0.03358000  0.17751000  0.34684000  1.0
  H  H21  1  0.53358000  0.32249000  0.15316000  1.0
  H  H22  1  0.96643000  0.82249000  0.65316000  1.0
  H  H23  1  0.46643000  0.67751000  0.84684000  1.0
  H  H24  1  0.21178000  0.24314000  0.23611000  1.0
  H  H25  1  0.71178000  0.25686000  0.26389000  1.0
  H  H26  1  0.78822000  0.75686000  0.76389000  1.0
  H  H27  1  0.28822000  0.74314000  0.73611000  1.0
  H  H28  1  0.64411000  0.92268000  0.23235000  1.0
  H  H29  1  0.14411000  0.57732000  0.26765000  1.0
  H  H30  1  0.35589000  0.07732000  0.76765000  1.0
  H  H31  1  0.85589000  0.42268000  0.73235000  1.0
  H  H32  1  0.95390000  0.95498000  0.19843000  1.0
  H  H33  1  0.45390000  0.54502000  0.30157000  1.0
  H  H34  1  0.04610000  0.04502000  0.80157000  1.0
  H  H35  1  0.54610000  0.45498000  0.69843000  1.0
  H  H36  1  0.67371000  0.09953000  0.04511000  1.0
  H  H37  1  0.17371000  0.40046000  0.45489000  1.0
  H  H38  1  0.32629000  0.90047000  0.95488000  1.0
  H  H39  1  0.82629000  0.59954000  0.54511000  1.0
  H  H40  1  0.05123000  0.90529000  0.33365000  1.0
  H  H41  1  0.55124000  0.59471000  0.16635000  1.0
  H  H42  1  0.94877000  0.09471000  0.66635000  1.0
  H  H43  1  0.44876000  0.40529000  0.83365000  1.0
  H  H44  1  0.94998000  0.06460000  0.08579000  1.0
  H  H45  1  0.44999000  0.43540000  0.41421000  1.0
  H  H46  1  0.05002000  0.93540000  0.91421000  1.0
  H  H47  1  0.55001000  0.56460000  0.58579000  1.0
  C  C48  1  0.28758000  0.57827000  0.02998000  1.0
  C  C49  1  0.78758000  0.92173000  0.47002000  1.0
  C  C50  1  0.71241000  0.42173000  0.97003000  1.0
  C  C51  1  0.21242000  0.07827000  0.52998000  1.0
  C  C52  1  0.30082000  0.44906000  0.05376000  1.0
  C  C53  1  0.80082000  0.05094000  0.44624000  1.0
  C  C54  1  0.69918000  0.55094000  0.94624000  1.0
  C  C55  1  0.19919000  0.94906000  0.55376000  1.0
  C  C56  1  0.22344000  0.32736000  0.01976000  1.0
  C  C57  1  0.72344000  0.17264000  0.48024000  1.0
  C  C58  1  0.77655000  0.67264000  0.98024000  1.0
  C  C59  1  0.27656000  0.82736000  0.51976000  1.0
  C  C60  1  0.13612000  0.33243000  0.95872000  1.0
  C  C61  1  0.63611000  0.16757000  0.54128000  1.0
  C  C62  1  0.86388000  0.66756000  0.04128000  1.0
  C  C63  1  0.36388000  0.83243000  0.45872000  1.0
  C  C64  1  0.13073000  0.45985000  0.93321000  1.0
  C  C65  1  0.63073000  0.04014000  0.56679000  1.0
  C  C66  1  0.86927000  0.54015000  0.06679000  1.0
  C  C67  1  0.36927000  0.95985000  0.43321000  1.0
  C  C68  1  0.20203000  0.58371000  0.96839000  1.0
  C  C69  1  0.70204000  0.91629000  0.53161000  1.0
  C  C70  1  0.79796000  0.41629000  0.03161000  1.0
  C  C71  1  0.29797000  0.08371000  0.46839000  1.0
  C  C72  1  0.35318000  0.71071000  0.07482000  1.0
  C  C73  1  0.85317000  0.78929000  0.42518000  1.0
  C  C74  1  0.64682000  0.28929000  0.92518000  1.0
  C  C75  1  0.14683000  0.21071000  0.57482000  1.0
  C  C76  1  0.22555000  0.19521000  0.05206000  1.0
  C  C77  1  0.72555000  0.30479000  0.44795000  1.0
  C  C78  1  0.77444000  0.80479000  0.94794000  1.0
  C  C79  1  0.27445000  0.69521000  0.55205000  1.0
  C  C80  1  0.20539000  0.91181000  0.24702000  1.0
  C  C81  1  0.70540000  0.58819000  0.25298000  1.0
  C  C82  1  0.79461000  0.08820000  0.75298000  1.0
  C  C83  1  0.29460000  0.41181000  0.74702000  1.0
  C  C84  1  0.10287000  0.11030000  0.30684000  1.0
  C  C85  1  0.60288000  0.38970000  0.19317000  1.0
  C  C86  1  0.89713000  0.88970000  0.69316000  1.0
  C  C87  1  0.39713000  0.61030000  0.80683000  1.0
  C  C88  1  0.19059000  0.14157000  0.25174000  1.0
  C  C89  1  0.69058000  0.35843000  0.24826000  1.0
  C  C90  1  0.80942000  0.85843000  0.74826000  1.0
  C  C91  1  0.30942000  0.64157000  0.75174000  1.0
  C  C92  1  0.69661000  0.96350000  0.18861000  1.0
  C  C93  1  0.19661000  0.53650000  0.31139000  1.0
  C  C94  1  0.30339000  0.03650000  0.81139000  1.0
  C  C95  1  0.80339000  0.46350000  0.68861000  1.0
  C  C96  1  0.84935000  0.98133000  0.17306000  1.0
  C  C97  1  0.34935000  0.51867000  0.32694000  1.0
  C  C98  1  0.15065000  0.01867000  0.82694000  1.0
  C  C99  1  0.65065000  0.48133000  0.67306000  1.0
  C  C100  1  0.70529000  0.05650000  0.09200000  1.0
  C  C101  1  0.20529000  0.44350000  0.40800000  1.0
  C  C102  1  0.29471000  0.94350000  0.90800000  1.0
  C  C103  1  0.79471000  0.55650000  0.59200000  1.0
  N  N104  1  0.03750000  0.46677000  0.86957000  1.0
  N  N105  1  0.53750000  0.03323000  0.63043000  1.0
  N  N106  1  0.96250000  0.53323000  0.13043000  1.0
  N  N107  1  0.46250000  0.96677000  0.36957000  1.0
  N  N108  1  0.25372000  0.01670000  0.21477000  1.0
  N  N109  1  0.75372000  0.48330000  0.28524000  1.0
  N  N110  1  0.74628000  0.98330000  0.78523000  1.0
  N  N111  1  0.24628000  0.51670000  0.71476000  1.0
  N  N112  1  0.11416000  0.96523000  0.30301000  1.0
  N  N113  1  0.61416000  0.53477000  0.19699000  1.0
  N  N114  1  0.88585000  0.03477000  0.69699000  1.0
  N  N115  1  0.38584000  0.46523000  0.80301000  1.0
  N  N116  1  0.60789000  0.01120000  0.13750000  1.0
  N  N117  1  0.10789000  0.48881000  0.36250000  1.0
  N  N118  1  0.39211000  0.98881000  0.86250000  1.0
  N  N119  1  0.89211000  0.51120000  0.63750000  1.0
  N  N120  1  0.85200000  0.03977000  0.11235000  1.0
  N  N121  1  0.35201000  0.46023000  0.38765000  1.0
  N  N122  1  0.14800000  0.96023000  0.88765000  1.0
  N  N123  1  0.64799000  0.53977000  0.61235000  1.0
  O  O124  1  0.31804000  0.82847000  0.05511000  1.0
  O  O125  1  0.81803000  0.67153000  0.44489000  1.0
  O  O126  1  0.68196000  0.17153000  0.94489000  1.0
  O  O127  1  0.18197000  0.32847000  0.55511000  1.0
  O  O128  1  0.43047000  0.70292000  0.12988000  1.0
  O  O129  1  0.93047000  0.79708000  0.37012000  1.0
  O  O130  1  0.56953000  0.29708000  0.87012000  1.0
  O  O131  1  0.06953000  0.20292000  0.62988000  1.0
  O  O132  1  0.35014000  0.17694000  0.08657000  1.0
  O  O133  1  0.85014000  0.32306000  0.41343000  1.0
  O  O134  1  0.64986000  0.82306000  0.91343000  1.0
  O  O135  1  0.14986000  0.67694000  0.58657000  1.0
  O  O136  1  0.11110000  0.11457000  0.04389000  1.0
  O  O137  1  0.61110000  0.38543000  0.45611000  1.0
  O  O138  1  0.88890000  0.88543000  0.95611000  1.0
  O  O139  1  0.38890000  0.61457000  0.54389000  1.0
  O  O140  1  0.97685000  0.35472000  0.83794000  1.0
  O  O141  1  0.47685000  0.14528000  0.66206000  1.0
  O  O142  1  0.02315000  0.64528000  0.16206000  1.0
  O  O143  1  0.52315000  0.85471000  0.33794000  1.0
  O  O144  1  0.02263000  0.58350000  0.85099000  1.0
  O  O145  1  0.52263000  0.91650000  0.64901000  1.0
  O  O146  1  0.97737000  0.41650000  0.14901000  1.0
  O  O147  1  0.47737000  0.08350000  0.35099000  1.0
