# generated using pymatgen
data_NiH5C5N5O3
_symmetry_space_group_name_H-M   'P 1'
_cell_length_a   8.01904000
_cell_length_b   8.01903000
_cell_length_c   13.99870000
_cell_angle_alpha   97.40320000
_cell_angle_beta   97.40320000
_cell_angle_gamma   116.71600000
_symmetry_Int_Tables_number   1
_chemical_formula_structural   NiH5C5N5O3
_chemical_formula_sum   'Ni4 H20 C20 N20 O12'
_cell_volume   779.45604215
_cell_formula_units_Z   4
loop_
 _symmetry_equiv_pos_site_id
 _symmetry_equiv_pos_as_xyz
  1  'x, y, z'
loop_
 _atom_site_type_symbol
 _atom_site_label
 _atom_site_symmetry_multiplicity
 _atom_site_fract_x
 _atom_site_fract_y
 _atom_site_fract_z
 _atom_site_occupancy
  Ni  Ni0  1  0.30304000  0.08953000  0.26445000  1.0
  Ni  Ni1  1  0.91047000  0.69696000  0.23555000  1.0
  Ni  Ni2  1  0.69696000  0.91048000  0.73555000  1.0
  Ni  Ni3  1  0.08953000  0.30304000  0.76445000  1.0
  H  H4  1  0.47519000  0.28822000  0.44746000  1.0
  H  H5  1  0.71178000  0.52481000  0.05254000  1.0
  H  H6  1  0.52481000  0.71178000  0.55254000  1.0
  H  H7  1  0.28822000  0.47519000  0.94746000  1.0
  H  H8  1  0.61473000  0.37500000  0.37547000  1.0
  H  H9  1  0.62499000  0.38527000  0.12452000  1.0
  H  H10  1  0.38527000  0.62499000  0.62452000  1.0
  H  H11  1  0.37500000  0.61473000  0.87548000  1.0
  H  H12  1  0.44570000  0.86356000  0.37425000  1.0
  H  H13  1  0.13644000  0.55429000  0.12575000  1.0
  H  H14  1  0.55430000  0.13644000  0.62575000  1.0
  H  H15  1  0.86357000  0.44571000  0.87425000  1.0
  H  H16  1  0.77643000  0.92934000  0.10193000  1.0
  H  H17  1  0.07066000  0.22357000  0.39807000  1.0
  H  H18  1  0.22357000  0.07066000  0.89807000  1.0
  H  H19  1  0.92934000  0.77643000  0.60193000  1.0
  H  H20  1  0.53864000  0.05171000  0.11255000  1.0
  H  H21  1  0.94829000  0.46136000  0.38745000  1.0
  H  H22  1  0.46136000  0.94830000  0.88745000  1.0
  H  H23  1  0.05170000  0.53864000  0.61255000  1.0
  C  C24  1  0.66862000  0.68237000  0.37269000  1.0
  C  C25  1  0.31763000  0.33138000  0.12731000  1.0
  C  C26  1  0.33139000  0.31763000  0.62732000  1.0
  C  C27  1  0.68238000  0.66862000  0.87269000  1.0
  C  C28  1  0.64019000  0.80014000  0.30360000  1.0
  C  C29  1  0.19986000  0.35981000  0.19640000  1.0
  C  C30  1  0.35982000  0.19986000  0.69640000  1.0
  C  C31  1  0.80014000  0.64018000  0.80360000  1.0
  C  C32  1  0.51543000  0.87561000  0.31191000  1.0
  C  C33  1  0.12440000  0.48457000  0.18809000  1.0
  C  C34  1  0.48457000  0.12440000  0.68809000  1.0
  C  C35  1  0.87560000  0.51543000  0.81191000  1.0
  C  C36  1  0.69914000  0.91062000  0.16151000  1.0
  C  C37  1  0.08938000  0.30086000  0.33849000  1.0
  C  C38  1  0.30086000  0.08939000  0.83849000  1.0
  C  C39  1  0.91062000  0.69914000  0.66152000  1.0
  C  C40  1  0.56851000  0.97979000  0.16788000  1.0
  C  C41  1  0.02021000  0.43148000  0.33212000  1.0
  C  C42  1  0.43148000  0.02021000  0.83211000  1.0
  C  C43  1  0.97979000  0.56852000  0.66789000  1.0
  N  N44  1  0.73365000  0.81975000  0.22909000  1.0
  N  N45  1  0.18025000  0.26635000  0.27091000  1.0
  N  N46  1  0.26634000  0.18025000  0.77091000  1.0
  N  N47  1  0.81975000  0.73366000  0.72909000  1.0
  N  N48  1  0.47717000  0.96332000  0.24337000  1.0
  N  N49  1  0.03668000  0.52282000  0.25663000  1.0
  N  N50  1  0.52283000  0.03668000  0.75663000  1.0
  N  N51  1  0.96332000  0.47717000  0.74337000  1.0
  N  N52  1  0.12558000  0.91975000  0.34721000  1.0
  N  N53  1  0.08025000  0.87442000  0.15279000  1.0
  N  N54  1  0.87442000  0.08024000  0.65279000  1.0
  N  N55  1  0.91976000  0.12559000  0.84721000  1.0
  N  N56  1  0.15420000  0.88943000  0.42857000  1.0
  N  N57  1  0.11057000  0.84580000  0.07142000  1.0
  N  N58  1  0.84579000  0.11057000  0.57142000  1.0
  N  N59  1  0.88943000  0.15421000  0.92858000  1.0
  N  N60  1  0.17481000  0.85584000  0.50650000  1.0
  N  N61  1  0.14416000  0.82519000  0.99349000  1.0
  N  N62  1  0.82519000  0.14416000  0.49350000  1.0
  N  N63  1  0.85584000  0.17481000  0.00651000  1.0
  O  O64  1  0.75419000  0.58831000  0.34262000  1.0
  O  O65  1  0.41169000  0.24580000  0.15737000  1.0
  O  O66  1  0.24581000  0.41168000  0.65737000  1.0
  O  O67  1  0.58832000  0.75419000  0.84263000  1.0
  O  O68  1  0.60297000  0.67223000  0.44881000  1.0
  O  O69  1  0.32776000  0.39702000  0.05119000  1.0
  O  O70  1  0.39703000  0.32776000  0.55118000  1.0
  O  O71  1  0.67223000  0.60297000  0.94882000  1.0
  O  O72  1  0.51643000  0.25363000  0.38768000  1.0
  O  O73  1  0.74637000  0.48358000  0.11232000  1.0
  O  O74  1  0.48358000  0.74637000  0.61232000  1.0
  O  O75  1  0.25363000  0.51642000  0.88768000  1.0
