# generated using pymatgen
data_MnH26(C3O4)4
_symmetry_space_group_name_H-M   'P 1'
_cell_length_a   5.60974000
_cell_length_b   7.09735000
_cell_length_c   11.14310000
_cell_angle_alpha   86.28810000
_cell_angle_beta   83.02840000
_cell_angle_gamma   79.06690000
_symmetry_Int_Tables_number   1
_chemical_formula_structural   MnH26(C3O4)4
_chemical_formula_sum   'Mn1 H26 C12 O16'
_cell_volume   431.98497703
_cell_formula_units_Z   1
loop_
 _symmetry_equiv_pos_site_id
 _symmetry_equiv_pos_as_xyz
  1  'x, y, z'
loop_
 _atom_site_type_symbol
 _atom_site_label
 _atom_site_symmetry_multiplicity
 _atom_site_fract_x
 _atom_site_fract_y
 _atom_site_fract_z
 _atom_site_occupancy
  Mn  Mn0  1  0.49006000  0.99102000  0.49384000  1.0
  H  H1  1  0.15052000  0.33548000  0.40427000  1.0
  H  H2  1  0.54001000  0.16867000  0.15787000  1.0
  H  H3  1  0.21400000  0.41657000  0.01335000  1.0
  H  H4  1  0.99206000  0.84364000  0.06226000  1.0
  H  H5  1  0.23102000  0.10395000  0.06561000  1.0
  H  H6  1  0.43194000  0.54477000  0.68044000  1.0
  H  H7  1  0.60045000  0.54892000  0.93354000  1.0
  H  H8  1  0.86626000  0.24882000  0.07462000  1.0
  H  H9  1  0.88445000  0.79013000  0.88525000  1.0
  H  H10  1  0.39309000  0.24097000  0.68839000  1.0
  H  H11  1  0.02417000  0.01435000  0.46097000  1.0
  H  H12  1  0.09866000  0.81249000  0.53088000  1.0
  H  H13  1  0.76681000  0.68696000  0.37141000  1.0
  H  H14  1  0.79518000  0.85474000  0.27470000  1.0
  H  H15  1  0.39338000  0.54746000  0.39872000  1.0
  H  H16  1  0.67402000  0.52498000  0.20587000  1.0
  H  H17  1  0.15370000  0.45510000  0.20245000  1.0
  H  H18  1  0.25499000  0.76950000  0.26863000  1.0
  H  H19  1  0.40478000  0.81503000  0.99716000  1.0
  H  H20  1  0.60938000  0.78533000  0.10954000  1.0
  H  H21  1  0.86933000  0.32018000  0.64374000  1.0
  H  H22  1  0.06968000  0.44137000  0.80060000  1.0
  H  H23  1  0.68754000  0.21932000  0.92728000  1.0
  H  H24  1  0.89498000  0.03744000  0.75173000  1.0
  H  H25  1  0.33799000  0.87140000  0.77147000  1.0
  H  H26  1  0.36671000  0.06949000  0.85524000  1.0
  C  C27  1  0.72043000  0.33940000  0.41531000  1.0
  C  C28  1  0.47916000  0.40706000  0.36184000  1.0
  C  C29  1  0.53912000  0.42955000  0.22265000  1.0
  C  C30  1  0.30977000  0.51816000  0.15980000  1.0
  C  C31  1  0.24552000  0.73679000  0.17427000  1.0
  C  C32  1  0.42066000  0.84047000  0.09181000  1.0
  C  C33  1  0.80587000  0.62762000  0.63800000  1.0
  C  C34  1  0.76994000  0.43550000  0.70215000  1.0
  C  C35  1  0.87988000  0.42041000  0.82223000  1.0
  C  C36  1  0.87853000  0.23113000  0.89601000  1.0
  C  C37  1  0.99366000  0.04602000  0.83035000  1.0
  C  C38  1  0.26788000  0.02429000  0.78581000  1.0
  O  O39  1  0.75448000  0.17680000  0.47236000  1.0
  O  O40  1  0.32767000  0.26865000  0.39482000  1.0
  O  O41  1  0.66025000  0.24800000  0.17862000  1.0
  O  O42  1  0.34833000  0.47675000  0.03325000  1.0
  O  O43  1  0.99883000  0.81011000  0.15029000  1.0
  O  O44  1  0.37236000  0.04221000  0.10905000  1.0
  O  O45  1  0.87833000  0.44756000  0.39840000  1.0
  O  O46  1  0.16327000  0.90638000  0.46772000  1.0
  O  O47  1  0.69375000  0.82212000  0.35004000  1.0
  O  O48  1  0.61275000  0.73573000  0.60621000  1.0
  O  O49  1  0.51452000  0.42551000  0.72038000  1.0
  O  O50  1  0.75916000  0.57770000  0.89472000  1.0
  O  O51  1  0.99848000  0.24272000  0.00233000  1.0
  O  O52  1  0.96223000  0.88926000  0.91545000  1.0
  O  O53  1  0.31592000  0.12965000  0.67333000  1.0
  O  O54  1  0.02043000  0.66135000  0.62449000  1.0
