# generated using pymatgen
data_LiH5C7O3
_symmetry_space_group_name_H-M   'P 1'
_cell_length_a   7.13906000
_cell_length_b   10.48670000
_cell_length_c   16.17140000
_cell_angle_alpha   90.00010000
_cell_angle_beta   90.00010000
_cell_angle_gamma   90.00000000
_symmetry_Int_Tables_number   1
_chemical_formula_structural   LiH5C7O3
_chemical_formula_sum   'Li8 H40 C56 O24'
_cell_volume   1210.67477997
_cell_formula_units_Z   8
loop_
 _symmetry_equiv_pos_site_id
 _symmetry_equiv_pos_as_xyz
  1  'x, y, z'
loop_
 _atom_site_type_symbol
 _atom_site_label
 _atom_site_symmetry_multiplicity
 _atom_site_fract_x
 _atom_site_fract_y
 _atom_site_fract_z
 _atom_site_occupancy
  Li  Li0  1  0.18863000  0.51989000  0.49121000  1.0
  Li  Li1  1  0.68863000  0.98011000  0.00879000  1.0
  Li  Li2  1  0.81137000  0.48011000  0.99121000  1.0
  Li  Li3  1  0.31137000  0.01989000  0.50879000  1.0
  Li  Li4  1  0.81137000  0.48011000  0.50879000  1.0
  Li  Li5  1  0.31137000  0.01989000  0.99121000  1.0
  Li  Li6  1  0.18863000  0.51989000  0.00879000  1.0
  Li  Li7  1  0.68863000  0.98011000  0.49121000  1.0
  H  H8  1  0.30876000  0.74209000  0.53638000  1.0
  H  H9  1  0.80876000  0.75792000  0.96362000  1.0
  H  H10  1  0.69124000  0.25791000  0.03638000  1.0
  H  H11  1  0.19124000  0.24209000  0.46362000  1.0
  H  H12  1  0.69124000  0.25791000  0.46362000  1.0
  H  H13  1  0.19124000  0.24209000  0.03638000  1.0
  H  H14  1  0.30876000  0.74209000  0.96362000  1.0
  H  H15  1  0.80876000  0.75791000  0.53638000  1.0
  H  H16  1  0.48123000  0.64616000  0.54170000  1.0
  H  H17  1  0.98123000  0.85384000  0.95830000  1.0
  H  H18  1  0.51877000  0.35384000  0.04170000  1.0
  H  H19  1  0.01877000  0.14616000  0.45830000  1.0
  H  H20  1  0.51877000  0.35384000  0.45830000  1.0
  H  H21  1  0.01877000  0.14616000  0.04170000  1.0
  H  H22  1  0.48123000  0.64616000  0.95830000  1.0
  H  H23  1  0.98123000  0.85384000  0.54170000  1.0
  H  H24  1  0.65710000  0.61010000  0.40336000  1.0
  H  H25  1  0.15710000  0.88990000  0.09664000  1.0
  H  H26  1  0.34290000  0.38990000  0.90336000  1.0
  H  H27  1  0.84290000  0.11010000  0.59664000  1.0
  H  H28  1  0.34290000  0.38990000  0.59664000  1.0
  H  H29  1  0.84290000  0.11010000  0.90337000  1.0
  H  H30  1  0.65710000  0.61010000  0.09664000  1.0
  H  H31  1  0.15710000  0.88990000  0.40336000  1.0
  H  H32  1  0.38077000  0.68712000  0.32761000  1.0
  H  H33  1  0.88077000  0.81288000  0.17239000  1.0
  H  H34  1  0.61923000  0.31288000  0.82761000  1.0
  H  H35  1  0.11923000  0.18711000  0.67239000  1.0
  H  H36  1  0.61923000  0.31288000  0.67239000  1.0
  H  H37  1  0.11923000  0.18712000  0.82761000  1.0
  H  H38  1  0.38077000  0.68712000  0.17239000  1.0
  H  H39  1  0.88078000  0.81288000  0.32761000  1.0
  H  H40  1  0.53095000  0.28322000  0.32596000  1.0
  H  H41  1  0.03095000  0.21678000  0.17403000  1.0
  H  H42  1  0.46905000  0.71678000  0.82597000  1.0
  H  H43  1  0.96905000  0.78321000  0.67403000  1.0
  H  H44  1  0.46905000  0.71678000  0.67404000  1.0
  H  H45  1  0.96905000  0.78322000  0.82596000  1.0
  H  H46  1  0.53095000  0.28322000  0.17403000  1.0
  H  H47  1  0.03095000  0.21678000  0.32597000  1.0
  C  C48  1  0.28060000  0.39704000  0.33976000  1.0
  C  C49  1  0.78060000  0.10296000  0.16024000  1.0
  C  C50  1  0.71940000  0.60296000  0.83976000  1.0
  C  C51  1  0.21940000  0.89704000  0.66024000  1.0
  C  C52  1  0.71940000  0.60296000  0.66024000  1.0
  C  C53  1  0.21940000  0.89704000  0.83976000  1.0
  C  C54  1  0.28060000  0.39704000  0.16024000  1.0
  C  C55  1  0.78060000  0.10296000  0.33976000  1.0
  C  C56  1  0.97788000  0.51537000  0.33953000  1.0
  C  C57  1  0.47788000  0.98463000  0.16047000  1.0
  C  C58  1  0.02212000  0.48463000  0.83953000  1.0
  C  C59  1  0.52212000  0.01537000  0.66047000  1.0
  C  C60  1  0.02212000  0.48463000  0.66047000  1.0
  C  C61  1  0.52212000  0.01538000  0.83953000  1.0
  C  C62  1  0.97788000  0.51537000  0.16047000  1.0
  C  C63  1  0.47788000  0.98463000  0.33953000  1.0
  C  C64  1  0.13281000  0.45961000  0.29499000  1.0
  C  C65  1  0.63281000  0.04038000  0.20502000  1.0
  C  C66  1  0.86719000  0.54038000  0.79498000  1.0
  C  C67  1  0.36719000  0.95962000  0.70502000  1.0
  C  C68  1  0.86719000  0.54039000  0.70502000  1.0
  C  C69  1  0.36719000  0.95962000  0.79498000  1.0
  C  C70  1  0.13281000  0.45961000  0.20502000  1.0
  C  C71  1  0.63281000  0.04038000  0.29499000  1.0
  C  C72  1  0.81160000  0.55773000  0.29357000  1.0
  C  C73  1  0.31160000  0.94227000  0.20643000  1.0
  C  C74  1  0.18840000  0.44227000  0.79357000  1.0
  C  C75  1  0.68840000  0.05772000  0.70643000  1.0
  C  C76  1  0.18840000  0.44227000  0.70643000  1.0
  C  C77  1  0.68840000  0.05773000  0.79357000  1.0
  C  C78  1  0.81160000  0.55773000  0.20643000  1.0
  C  C79  1  0.31160000  0.94227000  0.29357000  1.0
  C  C80  1  0.65565000  0.60623000  0.33618000  1.0
  C  C81  1  0.15565000  0.89377000  0.16382000  1.0
  C  C82  1  0.34435000  0.39377000  0.83618000  1.0
  C  C83  1  0.84435000  0.10623000  0.66382000  1.0
  C  C84  1  0.34435000  0.39377000  0.66382000  1.0
  C  C85  1  0.84435000  0.10623000  0.83618000  1.0
  C  C86  1  0.65565000  0.60623000  0.16382000  1.0
  C  C87  1  0.15565000  0.89377000  0.33618000  1.0
  C  C88  1  0.50116000  0.65182000  0.29336000  1.0
  C  C89  1  0.00116000  0.84818000  0.20665000  1.0
  C  C90  1  0.49884000  0.34818000  0.79335000  1.0
  C  C91  1  0.99884000  0.15182000  0.70664000  1.0
  C  C92  1  0.49884000  0.34818000  0.70664000  1.0
  C  C93  1  0.99884000  0.15182000  0.79336000  1.0
  C  C94  1  0.50116000  0.65182000  0.20664000  1.0
  C  C95  1  0.00116000  0.84818000  0.29336000  1.0
  C  C96  1  0.42016000  0.33146000  0.29202000  1.0
  C  C97  1  0.92016000  0.16854000  0.20798000  1.0
  C  C98  1  0.57984000  0.66854000  0.79202000  1.0
  C  C99  1  0.07984000  0.83146000  0.70798000  1.0
  C  C100  1  0.57983000  0.66854000  0.70798000  1.0
  C  C101  1  0.07983000  0.83146000  0.79202000  1.0
  C  C102  1  0.42016000  0.33146000  0.20798000  1.0
  C  C103  1  0.92017000  0.16854000  0.29202000  1.0
  O  O104  1  0.29623000  0.39261000  0.42024000  1.0
  O  O105  1  0.79623000  0.10739000  0.07976000  1.0
  O  O106  1  0.70377000  0.60739000  0.92024000  1.0
  O  O107  1  0.20377000  0.89261000  0.57976000  1.0
  O  O108  1  0.70377000  0.60739000  0.57976000  1.0
  O  O109  1  0.20377000  0.89261000  0.92024000  1.0
  O  O110  1  0.29623000  0.39261000  0.07976000  1.0
  O  O111  1  0.79623000  0.10739000  0.42024000  1.0
  O  O112  1  0.97723000  0.52900000  0.41784000  1.0
  O  O113  1  0.47723000  0.97100000  0.08217000  1.0
  O  O114  1  0.02277000  0.47100000  0.91783000  1.0
  O  O115  1  0.52277000  0.02900000  0.58217000  1.0
  O  O116  1  0.02277000  0.47100000  0.58217000  1.0
  O  O117  1  0.52277000  0.02900000  0.91783000  1.0
  O  O118  1  0.97723000  0.52900000  0.08217000  1.0
  O  O119  1  0.47723000  0.97100000  0.41784000  1.0
  O  O120  1  0.35456000  0.65867000  0.51690000  1.0
  O  O121  1  0.85456000  0.84133000  0.98310000  1.0
  O  O122  1  0.64544000  0.34133000  0.01690000  1.0
  O  O123  1  0.14544000  0.15867000  0.48310000  1.0
  O  O124  1  0.64544000  0.34133000  0.48310000  1.0
  O  O125  1  0.14544000  0.15867000  0.01690000  1.0
  O  O126  1  0.35456000  0.65867000  0.98310000  1.0
  O  O127  1  0.85457000  0.84133000  0.51690000  1.0
