# generated using pymatgen
data_CdH15C19(NO2)2
_symmetry_space_group_name_H-M   'P 1'
_cell_length_a   13.93530000
_cell_length_b   14.97400000
_cell_length_c   17.81240000
_cell_angle_alpha   90.00010000
_cell_angle_beta   90.00010000
_cell_angle_gamma   89.99990000
_symmetry_Int_Tables_number   1
_chemical_formula_structural   CdH15C19(NO2)2
_chemical_formula_sum   'Cd8 H120 C152 N16 O32'
_cell_volume   3716.86331620
_cell_formula_units_Z   8
loop_
 _symmetry_equiv_pos_site_id
 _symmetry_equiv_pos_as_xyz
  1  'x, y, z'
loop_
 _atom_site_type_symbol
 _atom_site_label
 _atom_site_symmetry_multiplicity
 _atom_site_fract_x
 _atom_site_fract_y
 _atom_site_fract_z
 _atom_site_occupancy
  Cd  Cd0  1  0.75000000  0.83930000  0.75000000  1.0
  Cd  Cd1  1  0.25000000  0.66070000  0.25000000  1.0
  Cd  Cd2  1  0.25000000  0.16069000  0.25000000  1.0
  Cd  Cd3  1  0.75000000  0.33931000  0.75000000  1.0
  Cd  Cd4  1  0.75000000  0.58599000  0.75000000  1.0
  Cd  Cd5  1  0.25000000  0.91401000  0.25000000  1.0
  Cd  Cd6  1  0.25000000  0.41401000  0.25000000  1.0
  Cd  Cd7  1  0.75001000  0.08599000  0.75000000  1.0
  H  H8  1  0.71974000  0.95860000  0.59747000  1.0
  H  H9  1  0.78026000  0.95860000  0.90253000  1.0
  H  H10  1  0.21974000  0.54140000  0.40253000  1.0
  H  H11  1  0.28026000  0.54140000  0.09747000  1.0
  H  H12  1  0.28026000  0.04140000  0.40253000  1.0
  H  H13  1  0.21974000  0.04140000  0.09747000  1.0
  H  H14  1  0.78026000  0.45860000  0.59747000  1.0
  H  H15  1  0.71974000  0.45860000  0.90253000  1.0
  H  H16  1  0.58480000  0.71238000  0.64755000  1.0
  H  H17  1  0.91520000  0.71238000  0.85246000  1.0
  H  H18  1  0.08480000  0.78762000  0.35245000  1.0
  H  H19  1  0.41520000  0.78762000  0.14755000  1.0
  H  H20  1  0.41520000  0.28762000  0.35245000  1.0
  H  H21  1  0.08480000  0.28762000  0.14755000  1.0
  H  H22  1  0.91520000  0.21238000  0.64755000  1.0
  H  H23  1  0.58480000  0.21238000  0.85245000  1.0
  H  H24  1  0.53299000  0.76564000  0.50338000  1.0
  H  H25  1  0.96701000  0.76565000  0.99662000  1.0
  H  H26  1  0.03299000  0.73435000  0.49662000  1.0
  H  H27  1  0.46701000  0.73435000  0.00338000  1.0
  H  H28  1  0.46701000  0.23435000  0.49662000  1.0
  H  H29  1  0.03298000  0.23435000  0.00338000  1.0
  H  H30  1  0.96701000  0.26565000  0.50338000  1.0
  H  H31  1  0.53299000  0.26565000  0.99662000  1.0
  H  H32  1  0.77729000  0.68658000  0.49788000  1.0
  H  H33  1  0.72271000  0.68657000  0.00212000  1.0
  H  H34  1  0.27729000  0.81343000  0.50212000  1.0
  H  H35  1  0.22271000  0.81342000  0.99788000  1.0
  H  H36  1  0.22271000  0.31343000  0.50212000  1.0
  H  H37  1  0.27729000  0.31343000  0.99788000  1.0
  H  H38  1  0.72271000  0.18658000  0.49788000  1.0
  H  H39  1  0.77729000  0.18657000  0.00212000  1.0
  H  H40  1  0.06944000  0.98258000  0.79125000  1.0
  H  H41  1  0.43056000  0.98258000  0.70876000  1.0
  H  H42  1  0.56945000  0.51742000  0.20875000  1.0
  H  H43  1  0.93055000  0.51742000  0.29124000  1.0
  H  H44  1  0.93056000  0.01742000  0.20876000  1.0
  H  H45  1  0.56944000  0.01742000  0.29125000  1.0
  H  H46  1  0.43056000  0.48258000  0.79125000  1.0
  H  H47  1  0.06944000  0.48258000  0.70876000  1.0
  H  H48  1  0.62915000  0.89751000  0.41463000  1.0
  H  H49  1  0.87085000  0.89752000  0.08537000  1.0
  H  H50  1  0.12915000  0.60248000  0.58537000  1.0
  H  H51  1  0.37085000  0.60248000  0.91463000  1.0
  H  H52  1  0.37085000  0.10248000  0.58537000  1.0
  H  H53  1  0.12915000  0.10248000  0.91463000  1.0
  H  H54  1  0.87085000  0.39752000  0.41463000  1.0
  H  H55  1  0.62915000  0.39752000  0.08537000  1.0
  H  H56  1  0.66787000  0.98811000  0.47139000  1.0
  H  H57  1  0.83213000  0.98811000  0.02861000  1.0
  H  H58  1  0.16787000  0.51189000  0.52861000  1.0
  H  H59  1  0.33213000  0.51189000  0.97139000  1.0
  H  H60  1  0.33213000  0.01189000  0.52861000  1.0
  H  H61  1  0.16787000  0.01189000  0.97139000  1.0
  H  H62  1  0.83213000  0.48811000  0.47139000  1.0
  H  H63  1  0.66787000  0.48811000  0.02861000  1.0
  H  H64  1  0.99034000  0.94480000  0.54733000  1.0
  H  H65  1  0.50966000  0.94480000  0.95266000  1.0
  H  H66  1  0.49034000  0.55520000  0.45267000  1.0
  H  H67  1  0.00966000  0.55520000  0.04734000  1.0
  H  H68  1  0.00966000  0.05520000  0.45267000  1.0
  H  H69  1  0.49034000  0.05520000  0.04733000  1.0
  H  H70  1  0.50966000  0.44480000  0.54734000  1.0
  H  H71  1  0.99034000  0.44480000  0.95267000  1.0
  H  H72  1  0.80582000  0.79942000  0.39674000  1.0
  H  H73  1  0.69419000  0.79942000  0.10326000  1.0
  H  H74  1  0.30582000  0.70059000  0.60326000  1.0
  H  H75  1  0.19418000  0.70058000  0.89674000  1.0
  H  H76  1  0.19418000  0.20059000  0.60326000  1.0
  H  H77  1  0.30582000  0.20059000  0.89674000  1.0
  H  H78  1  0.69418000  0.29941000  0.39674000  1.0
  H  H79  1  0.80582000  0.29941000  0.10326000  1.0
  H  H80  1  0.17552000  0.85410000  0.82516000  1.0
  H  H81  1  0.32448000  0.85410000  0.67484000  1.0
  H  H82  1  0.67552000  0.64590000  0.17484000  1.0
  H  H83  1  0.82448000  0.64589000  0.32516000  1.0
  H  H84  1  0.82448000  0.14589000  0.17484000  1.0
  H  H85  1  0.67552000  0.14589000  0.32516000  1.0
  H  H86  1  0.32448000  0.35411000  0.82516000  1.0
  H  H87  1  0.17552000  0.35410000  0.67484000  1.0
  H  H88  1  0.04259000  0.69846000  0.65059000  1.0
  H  H89  1  0.45740000  0.69846000  0.84940000  1.0
  H  H90  1  0.54260000  0.80154000  0.34940000  1.0
  H  H91  1  0.95740000  0.80154000  0.15060000  1.0
  H  H92  1  0.95741000  0.30154000  0.34940000  1.0
  H  H93  1  0.54260000  0.30153000  0.15059000  1.0
  H  H94  1  0.45740000  0.19846000  0.65060000  1.0
  H  H95  1  0.04259000  0.19846000  0.84941000  1.0
  H  H96  1  0.50975000  0.02155000  0.41580000  1.0
  H  H97  1  0.99025000  0.02155000  0.08420000  1.0
  H  H98  1  0.00975000  0.47845000  0.58420000  1.0
  H  H99  1  0.49025000  0.47845000  0.91580000  1.0
  H  H100  1  0.49025000  0.97845000  0.58420000  1.0
  H  H101  1  0.00975000  0.97845000  0.91580000  1.0
  H  H102  1  0.99025000  0.52155000  0.41580000  1.0
  H  H103  1  0.50975000  0.52155000  0.08420000  1.0
  H  H104  1  0.45939000  0.92304000  0.45246000  1.0
  H  H105  1  0.04060000  0.92304000  0.04754000  1.0
  H  H106  1  0.95940000  0.57696000  0.54754000  1.0
  H  H107  1  0.54060000  0.57695000  0.95246000  1.0
  H  H108  1  0.54060000  0.07696000  0.54754000  1.0
  H  H109  1  0.95939000  0.07695000  0.95246000  1.0
  H  H110  1  0.04060000  0.42305000  0.45246000  1.0
  H  H111  1  0.45940000  0.42304000  0.04754000  1.0
  H  H112  1  0.91188000  0.92983000  0.42243000  1.0
  H  H113  1  0.58813000  0.92984000  0.07756000  1.0
  H  H114  1  0.41187000  0.57017000  0.57757000  1.0
  H  H115  1  0.08812000  0.57016000  0.92244000  1.0
  H  H116  1  0.08813000  0.07017000  0.57757000  1.0
  H  H117  1  0.41188000  0.07017000  0.92243000  1.0
  H  H118  1  0.58812000  0.42983000  0.42243000  1.0
  H  H119  1  0.91187000  0.42984000  0.07757000  1.0
  H  H120  1  0.15747000  0.70952000  0.75585000  1.0
  H  H121  1  0.34253000  0.70952000  0.74415000  1.0
  H  H122  1  0.65748000  0.79048000  0.24415000  1.0
  H  H123  1  0.84252000  0.79048000  0.25585000  1.0
  H  H124  1  0.84253000  0.29048000  0.24415000  1.0
  H  H125  1  0.65748000  0.29048000  0.25585000  1.0
  H  H126  1  0.34253000  0.20952000  0.75585000  1.0
  H  H127  1  0.15747000  0.20952000  0.74415000  1.0
  C  C128  1  0.83795000  0.68529000  0.63653000  1.0
  C  C129  1  0.66206000  0.68528000  0.86347000  1.0
  C  C130  1  0.33795000  0.81471000  0.36347000  1.0
  C  C131  1  0.16205000  0.81471000  0.13653000  1.0
  C  C132  1  0.16206000  0.31471000  0.36346000  1.0
  C  C133  1  0.33795000  0.31471000  0.13654000  1.0
  C  C134  1  0.66205000  0.18529000  0.63654000  1.0
  C  C135  1  0.83794000  0.18530000  0.86346000  1.0
  C  C136  1  0.92699000  0.98925000  0.69711000  1.0
  C  C137  1  0.57302000  0.98925000  0.80289000  1.0
  C  C138  1  0.42699000  0.51075000  0.30289000  1.0
  C  C139  1  0.07301000  0.51075000  0.19711000  1.0
  C  C140  1  0.07301000  0.01075000  0.30289000  1.0
  C  C141  1  0.42699000  0.01075000  0.19711000  1.0
  C  C142  1  0.57301000  0.48925000  0.69711000  1.0
  C  C143  1  0.92699000  0.48925000  0.80289000  1.0
  C  C144  1  0.67738000  0.89820000  0.59236000  1.0
  C  C145  1  0.82262000  0.89820000  0.90764000  1.0
  C  C146  1  0.17738000  0.60180000  0.40764000  1.0
  C  C147  1  0.32262000  0.60180000  0.09236000  1.0
  C  C148  1  0.32262000  0.10180000  0.40764000  1.0
  C  C149  1  0.17738000  0.10180000  0.09236000  1.0
  C  C150  1  0.82262000  0.39820000  0.59236000  1.0
  C  C151  1  0.67738000  0.39820000  0.90764000  1.0
  C  C152  1  0.60536000  0.77135000  0.61583000  1.0
  C  C153  1  0.89464000  0.77135000  0.88417000  1.0
  C  C154  1  0.10536000  0.72865000  0.38417000  1.0
  C  C155  1  0.39464000  0.72865000  0.11583000  1.0
  C  C156  1  0.39464000  0.22865000  0.38417000  1.0
  C  C157  1  0.10536000  0.22865000  0.11583000  1.0
  C  C158  1  0.89464000  0.27135000  0.61583000  1.0
  C  C159  1  0.60536000  0.27135000  0.88417000  1.0
  C  C160  1  0.86742000  0.75189000  0.57816000  1.0
  C  C161  1  0.63258000  0.75189000  0.92184000  1.0
  C  C162  1  0.36742000  0.74811000  0.42184000  1.0
  C  C163  1  0.13258000  0.74811000  0.07816000  1.0
  C  C164  1  0.13258000  0.24810000  0.42184000  1.0
  C  C165  1  0.36742000  0.24810000  0.07816000  1.0
  C  C166  1  0.63258000  0.25190000  0.57816000  1.0
  C  C167  1  0.86742000  0.25190000  0.92184000  1.0
  C  C168  1  0.99562000  0.91202000  0.70402000  1.0
  C  C169  1  0.50438000  0.91202000  0.79598000  1.0
  C  C170  1  0.49563000  0.58798000  0.29598000  1.0
  C  C171  1  0.00438000  0.58798000  0.20402000  1.0
  C  C172  1  0.00438000  0.08798000  0.29598000  1.0
  C  C173  1  0.49562000  0.08798000  0.20402000  1.0
  C  C174  1  0.50438000  0.41202000  0.70402000  1.0
  C  C175  1  0.99562000  0.41202000  0.79598000  1.0
  C  C176  1  0.57952000  0.79668000  0.54445000  1.0
  C  C177  1  0.92048000  0.79668000  0.95555000  1.0
  C  C178  1  0.07951000  0.70332000  0.45555000  1.0
  C  C179  1  0.42048000  0.70332000  0.04445000  1.0
  C  C180  1  0.42048000  0.20332000  0.45555000  1.0
  C  C181  1  0.07951000  0.20332000  0.04445000  1.0
  C  C182  1  0.92048000  0.29668000  0.54445000  1.0
  C  C183  1  0.57952000  0.29668000  0.95555000  1.0
  C  C184  1  0.92874000  0.82509000  0.59330000  1.0
  C  C185  1  0.57126000  0.82508000  0.90669000  1.0
  C  C186  1  0.42874000  0.67492000  0.40670000  1.0
  C  C187  1  0.07125000  0.67492000  0.09331000  1.0
  C  C188  1  0.07126000  0.17491000  0.40669000  1.0
  C  C189  1  0.42874000  0.17491000  0.09330000  1.0
  C  C190  1  0.57126000  0.32508000  0.59330000  1.0
  C  C191  1  0.92874000  0.32509000  0.90670000  1.0
  C  C192  1  0.82444000  0.74356000  0.50725000  1.0
  C  C193  1  0.67556000  0.74356000  0.99275000  1.0
  C  C194  1  0.32444000  0.75644000  0.49275000  1.0
  C  C195  1  0.17556000  0.75643000  0.00725000  1.0
  C  C196  1  0.17557000  0.25644000  0.49275000  1.0
  C  C197  1  0.32444000  0.25644000  0.00725000  1.0
  C  C198  1  0.67556000  0.24356000  0.50725000  1.0
  C  C199  1  0.82444000  0.24357000  0.99275000  1.0
  C  C200  1  0.06449000  0.91935000  0.76109000  1.0
  C  C201  1  0.43551000  0.91935000  0.73891000  1.0
  C  C202  1  0.56450000  0.58065000  0.23891000  1.0
  C  C203  1  0.93550000  0.58065000  0.26109000  1.0
  C  C204  1  0.93551000  0.08065000  0.23891000  1.0
  C  C205  1  0.56450000  0.08065000  0.26109000  1.0
  C  C206  1  0.43551000  0.41935000  0.76109000  1.0
  C  C207  1  0.06450000  0.41935000  0.73891000  1.0
  C  C208  1  0.98866000  0.83241000  0.66209000  1.0
  C  C209  1  0.51134000  0.83241000  0.83790000  1.0
  C  C210  1  0.48866000  0.66760000  0.33791000  1.0
  C  C211  1  0.01134000  0.66760000  0.16210000  1.0
  C  C212  1  0.01134000  0.16759000  0.33791000  1.0
  C  C213  1  0.48866000  0.16759000  0.16209000  1.0
  C  C214  1  0.51134000  0.33241000  0.66209000  1.0
  C  C215  1  0.98866000  0.33241000  0.83791000  1.0
  C  C216  1  0.61346000  0.93540000  0.46606000  1.0
  C  C217  1  0.88653000  0.93540000  0.03395000  1.0
  C  C218  1  0.11346000  0.56460000  0.53395000  1.0
  C  C219  1  0.38654000  0.56460000  0.96605000  1.0
  C  C220  1  0.38654000  0.06460000  0.53395000  1.0
  C  C221  1  0.11346000  0.06460000  0.96606000  1.0
  C  C222  1  0.88654000  0.43540000  0.46606000  1.0
  C  C223  1  0.61347000  0.43540000  0.03394000  1.0
  C  C224  1  0.94183000  0.88916000  0.53651000  1.0
  C  C225  1  0.55818000  0.88916000  0.96349000  1.0
  C  C226  1  0.44182000  0.61084000  0.46349000  1.0
  C  C227  1  0.05817000  0.61084000  0.03651000  1.0
  C  C228  1  0.05817000  0.11084000  0.46349000  1.0
  C  C229  1  0.44183000  0.11084000  0.03651000  1.0
  C  C230  1  0.55817000  0.38916000  0.53651000  1.0
  C  C231  1  0.94183000  0.38916000  0.96349000  1.0
  C  C232  1  0.83932000  0.80731000  0.45163000  1.0
  C  C233  1  0.66068000  0.80731000  0.04836000  1.0
  C  C234  1  0.33932000  0.69269000  0.54836000  1.0
  C  C235  1  0.16067000  0.69269000  0.95164000  1.0
  C  C236  1  0.16068000  0.19269000  0.54836000  1.0
  C  C237  1  0.33932000  0.19269000  0.95164000  1.0
  C  C238  1  0.66068000  0.30731000  0.45164000  1.0
  C  C239  1  0.83932000  0.30731000  0.04836000  1.0
  C  C240  1  0.12320000  0.84756000  0.77995000  1.0
  C  C241  1  0.37680000  0.84756000  0.72005000  1.0
  C  C242  1  0.62320000  0.65244000  0.22005000  1.0
  C  C243  1  0.87680000  0.65244000  0.27995000  1.0
  C  C244  1  0.87680000  0.15244000  0.22005000  1.0
  C  C245  1  0.62320000  0.15244000  0.27995000  1.0
  C  C246  1  0.37680000  0.34756000  0.77995000  1.0
  C  C247  1  0.12320000  0.34756000  0.72005000  1.0
  C  C248  1  0.04836000  0.76065000  0.68204000  1.0
  C  C249  1  0.45164000  0.76065000  0.81796000  1.0
  C  C250  1  0.54836000  0.73935000  0.31796000  1.0
  C  C251  1  0.95164000  0.73935000  0.18204000  1.0
  C  C252  1  0.95164000  0.23934000  0.31796000  1.0
  C  C253  1  0.54837000  0.23934000  0.18204000  1.0
  C  C254  1  0.45164000  0.26065000  0.68204000  1.0
  C  C255  1  0.04836000  0.26066000  0.81796000  1.0
  C  C256  1  0.51279000  0.97541000  0.46380000  1.0
  C  C257  1  0.98720000  0.97541000  0.03621000  1.0
  C  C258  1  0.01280000  0.52459000  0.53621000  1.0
  C  C259  1  0.48720000  0.52459000  0.96380000  1.0
  C  C260  1  0.48720000  0.02459000  0.53621000  1.0
  C  C261  1  0.01279000  0.02459000  0.96380000  1.0
  C  C262  1  0.98720000  0.47541000  0.46380000  1.0
  C  C263  1  0.51280000  0.47541000  0.03621000  1.0
  C  C264  1  0.89780000  0.88095000  0.46650000  1.0
  C  C265  1  0.60221000  0.88095000  0.03350000  1.0
  C  C266  1  0.39779000  0.61905000  0.53350000  1.0
  C  C267  1  0.10220000  0.61905000  0.96650000  1.0
  C  C268  1  0.10221000  0.11905000  0.53350000  1.0
  C  C269  1  0.39780000  0.11905000  0.96650000  1.0
  C  C270  1  0.60220000  0.38095000  0.46650000  1.0
  C  C271  1  0.89779000  0.38095000  0.03350000  1.0
  C  C272  1  0.11380000  0.76719000  0.74079000  1.0
  C  C273  1  0.38620000  0.76719000  0.75921000  1.0
  C  C274  1  0.61380000  0.73281000  0.25921000  1.0
  C  C275  1  0.88619000  0.73281000  0.24079000  1.0
  C  C276  1  0.88620000  0.23281000  0.25921000  1.0
  C  C277  1  0.61381000  0.23280000  0.24079000  1.0
  C  C278  1  0.38620000  0.26719000  0.74079000  1.0
  C  C279  1  0.11380000  0.26719000  0.75921000  1.0
  N  N280  1  0.66630000  0.83564000  0.64472000  1.0
  N  N281  1  0.83370000  0.83564000  0.85528000  1.0
  N  N282  1  0.16630000  0.66436000  0.35528000  1.0
  N  N283  1  0.33370000  0.66436000  0.14472000  1.0
  N  N284  1  0.33370000  0.16436000  0.35528000  1.0
  N  N285  1  0.16630000  0.16436000  0.14472000  1.0
  N  N286  1  0.83370000  0.33564000  0.64472000  1.0
  N  N287  1  0.66630000  0.33564000  0.85528000  1.0
  N  N288  1  0.62598000  0.87673000  0.53061000  1.0
  N  N289  1  0.87402000  0.87673000  0.96939000  1.0
  N  N290  1  0.12598000  0.62327000  0.46939000  1.0
  N  N291  1  0.37402000  0.62327000  0.03062000  1.0
  N  N292  1  0.37402000  0.12327000  0.46939000  1.0
  N  N293  1  0.12598000  0.12327000  0.03062000  1.0
  N  N294  1  0.87402000  0.37673000  0.53061000  1.0
  N  N295  1  0.62598000  0.37673000  0.96939000  1.0
  O  O296  1  0.83603000  0.71056000  0.70581000  1.0
  O  O297  1  0.66397000  0.71055000  0.79419000  1.0
  O  O298  1  0.33604000  0.78944000  0.29419000  1.0
  O  O299  1  0.16396000  0.78945000  0.20581000  1.0
  O  O300  1  0.16397000  0.28944000  0.29419000  1.0
  O  O301  1  0.33604000  0.28943000  0.20581000  1.0
  O  O302  1  0.66396000  0.21056000  0.70582000  1.0
  O  O303  1  0.83604000  0.21057000  0.79419000  1.0
  O  O304  1  0.83625000  0.96867000  0.70471000  1.0
  O  O305  1  0.66376000  0.96867000  0.79529000  1.0
  O  O306  1  0.33625000  0.53133000  0.29529000  1.0
  O  O307  1  0.16375000  0.53133000  0.20471000  1.0
  O  O308  1  0.16375000  0.03133000  0.29529000  1.0
  O  O309  1  0.33625000  0.03133000  0.20471000  1.0
  O  O310  1  0.66375000  0.46867000  0.70471000  1.0
  O  O311  1  0.83625000  0.46867000  0.79529000  1.0
  O  O312  1  0.81097000  0.60818000  0.61695000  1.0
  O  O313  1  0.68903000  0.60817000  0.88305000  1.0
  O  O314  1  0.31097000  0.89182000  0.38304000  1.0
  O  O315  1  0.18903000  0.89182000  0.11696000  1.0
  O  O316  1  0.18904000  0.39181000  0.38304000  1.0
  O  O317  1  0.31097000  0.39181000  0.11696000  1.0
  O  O318  1  0.68903000  0.10818000  0.61696000  1.0
  O  O319  1  0.81096000  0.10819000  0.88304000  1.0
  O  O320  1  0.95738000  0.06696000  0.69067000  1.0
  O  O321  1  0.54262000  0.06695000  0.80933000  1.0
  O  O322  1  0.45738000  0.43304000  0.30932000  1.0
  O  O323  1  0.04262000  0.43304000  0.19066000  1.0
  O  O324  1  0.04262000  0.93305000  0.30934000  1.0
  O  O325  1  0.45738000  0.93304000  0.19067000  1.0
  O  O326  1  0.54262000  0.56696000  0.69066000  1.0
  O  O327  1  0.95738000  0.56696000  0.80933000  1.0
