# generated using pymatgen
data_NdH8C10NO9
_symmetry_space_group_name_H-M   'P 1'
_cell_length_a   9.63675000
_cell_length_b   11.13190000
_cell_length_c   13.52430000
_cell_angle_alpha   65.80350000
_cell_angle_beta   69.12610000
_cell_angle_gamma   64.34900000
_symmetry_Int_Tables_number   1
_chemical_formula_structural   NdH8C10NO9
_chemical_formula_sum   'Nd4 H32 C40 N4 O36'
_cell_volume   1164.36787654
_cell_formula_units_Z   4
loop_
 _symmetry_equiv_pos_site_id
 _symmetry_equiv_pos_as_xyz
  1  'x, y, z'
loop_
 _atom_site_type_symbol
 _atom_site_label
 _atom_site_symmetry_multiplicity
 _atom_site_fract_x
 _atom_site_fract_y
 _atom_site_fract_z
 _atom_site_occupancy
  Nd  Nd0  1  0.06615000  0.92625000  0.81257000  1.0
  Nd  Nd1  1  0.80501000  0.57371000  0.68745000  1.0
  Nd  Nd2  1  0.93385000  0.07375000  0.18743000  1.0
  Nd  Nd3  1  0.19499000  0.42629000  0.31256000  1.0
  H  H4  1  0.58581000  0.30369000  0.92045000  1.0
  H  H5  1  0.81009000  0.19620000  0.57959000  1.0
  H  H6  1  0.41419000  0.69631000  0.07955000  1.0
  H  H7  1  0.18991000  0.80380000  0.42041000  1.0
  H  H8  1  0.10411000  0.35004000  0.96074000  1.0
  H  H9  1  0.41504000  0.14985000  0.53926000  1.0
  H  H10  1  0.89590000  0.64996000  0.03926000  1.0
  H  H11  1  0.58496000  0.85015000  0.46075000  1.0
  H  H12  1  0.48047000  0.01161000  0.84954000  1.0
  H  H13  1  0.34168000  0.48826000  0.65049000  1.0
  H  H14  1  0.51953000  0.98840000  0.15046000  1.0
  H  H15  1  0.65832000  0.51174000  0.34951000  1.0
  H  H16  1  0.37102000  0.48487000  0.98406000  1.0
  H  H17  1  0.84005000  0.01504000  0.51592000  1.0
  H  H18  1  0.62898000  0.51513000  0.01594000  1.0
  H  H19  1  0.15995000  0.98496000  0.48409000  1.0
  H  H20  1  0.20157000  0.45156000  0.05013000  1.0
  H  H21  1  0.70328000  0.04843000  0.44988000  1.0
  H  H22  1  0.79843000  0.54844000  0.94987000  1.0
  H  H23  1  0.29672000  0.95157000  0.55012000  1.0
  H  H24  1  0.22078000  0.55456000  0.91767000  1.0
  H  H25  1  0.69312000  0.94533000  0.58231000  1.0
  H  H26  1  0.77923000  0.44544000  0.08233000  1.0
  H  H27  1  0.30688000  0.05467000  0.41769000  1.0
  H  H28  1  0.11019000  0.18847000  0.59592000  1.0
  H  H29  1  0.89453000  0.31153000  0.90409000  1.0
  H  H30  1  0.88981000  0.81153000  0.40408000  1.0
  H  H31  1  0.10548000  0.68847000  0.09591000  1.0
  H  H32  1  0.93693000  0.22316000  0.65710000  1.0
  H  H33  1  0.81715000  0.27678000  0.84294000  1.0
  H  H34  1  0.06307000  0.77683000  0.34290000  1.0
  H  H35  1  0.18285000  0.72322000  0.15706000  1.0
  C  C36  1  0.72372000  0.07252000  0.85206000  1.0
  C  C37  1  0.64829000  0.42738000  0.64801000  1.0
  C  C38  1  0.27629000  0.92748000  0.14794000  1.0
  C  C39  1  0.35171000  0.57262000  0.35199000  1.0
  C  C40  1  0.55114000  0.15077000  0.87948000  1.0
  C  C41  1  0.58146000  0.34906000  0.62058000  1.0
  C  C42  1  0.44887000  0.84923000  0.12052000  1.0
  C  C43  1  0.41854000  0.65094000  0.37942000  1.0
  C  C44  1  0.50082000  0.26943000  0.91310000  1.0
  C  C45  1  0.68351000  0.23041000  0.58699000  1.0
  C  C46  1  0.49918000  0.73057000  0.08690000  1.0
  C  C47  1  0.31649000  0.76959000  0.41301000  1.0
  C  C48  1  0.34054000  0.34185000  0.93801000  1.0
  C  C49  1  0.62049000  0.15801000  0.56212000  1.0
  C  C50  1  0.65947000  0.65815000  0.06199000  1.0
  C  C51  1  0.37951000  0.84198000  0.43789000  1.0
  C  C52  1  0.22942000  0.29605000  0.93548000  1.0
  C  C53  1  0.46106000  0.20383000  0.56456000  1.0
  C  C54  1  0.77058000  0.70395000  0.06452000  1.0
  C  C55  1  0.53893000  0.79618000  0.43544000  1.0
  C  C56  1  0.27935000  0.17572000  0.90488000  1.0
  C  C57  1  0.35997000  0.32413000  0.59518000  1.0
  C  C58  1  0.72066000  0.82428000  0.09512000  1.0
  C  C59  1  0.64003000  0.67587000  0.40482000  1.0
  C  C60  1  0.44039000  0.10511000  0.87406000  1.0
  C  C61  1  0.41961000  0.39470000  0.62604000  1.0
  C  C62  1  0.55961000  0.89490000  0.12594000  1.0
  C  C63  1  0.58039000  0.60530000  0.37396000  1.0
  C  C64  1  0.15637000  0.12062000  0.91442000  1.0
  C  C65  1  0.19147000  0.37929000  0.58556000  1.0
  C  C66  1  0.84363000  0.87938000  0.08558000  1.0
  C  C67  1  0.80853000  0.62071000  0.41444000  1.0
  C  C68  1  0.44071000  0.72261000  0.82567000  1.0
  C  C69  1  0.98900000  0.77737000  0.67432000  1.0
  C  C70  1  0.55929000  0.27739000  0.17433000  1.0
  C  C71  1  0.01100000  0.22263000  0.32568000  1.0
  C  C72  1  0.45740000  0.82575000  0.70644000  1.0
  C  C73  1  0.98975000  0.67422000  0.79352000  1.0
  C  C74  1  0.54260000  0.17425000  0.29356000  1.0
  C  C75  1  0.01025000  0.32578000  0.20648000  1.0
  N  N76  1  0.28285000  0.46610000  0.97283000  1.0
  N  N77  1  0.72185000  0.03382000  0.52719000  1.0
  N  N78  1  0.71716000  0.53390000  0.02717000  1.0
  N  N79  1  0.27815000  0.96618000  0.47281000  1.0
  O  O80  1  0.82050000  0.12044000  0.85686000  1.0
  O  O81  1  0.79783000  0.37956000  0.64310000  1.0
  O  O82  1  0.17950000  0.87956000  0.14314000  1.0
  O  O83  1  0.20217000  0.62044000  0.35690000  1.0
  O  O84  1  0.77431000  0.96092000  0.82643000  1.0
  O  O85  1  0.56158000  0.53894000  0.67369000  1.0
  O  O86  1  0.22570000  0.03908000  0.17357000  1.0
  O  O87  1  0.43842000  0.46106000  0.32630000  1.0
  O  O88  1  0.02636000  0.15310000  0.98533000  1.0
  O  O89  1  0.16487000  0.34680000  0.51465000  1.0
  O  O90  1  0.97364000  0.84690000  0.01467000  1.0
  O  O91  1  0.83512000  0.65320000  0.48536000  1.0
  O  O92  1  0.18695000  0.04774000  0.85366000  1.0
  O  O93  1  0.08837000  0.45220000  0.64629000  1.0
  O  O94  1  0.81306000  0.95226000  0.14634000  1.0
  O  O95  1  0.91163000  0.54780000  0.35371000  1.0
  O  O96  1  0.33034000  0.90947000  0.67446000  1.0
  O  O97  1  0.91450000  0.59045000  0.82552000  1.0
  O  O98  1  0.66966000  0.09052000  0.32555000  1.0
  O  O99  1  0.08550000  0.40956000  0.17448000  1.0
  O  O100  1  0.30296000  0.74127000  0.88593000  1.0
  O  O101  1  0.93015000  0.75861000  0.61413000  1.0
  O  O102  1  0.69703000  0.25873000  0.11407000  1.0
  O  O103  1  0.06986000  0.24139000  0.38587000  1.0
  O  O104  1  0.56598000  0.62660000  0.85199000  1.0
  O  O105  1  0.04441000  0.87347000  0.64797000  1.0
  O  O106  1  0.43402000  0.37340000  0.14802000  1.0
  O  O107  1  0.95559000  0.12653000  0.35203000  1.0
  O  O108  1  0.59600000  0.81742000  0.64948000  1.0
  O  O109  1  0.06308000  0.68254000  0.85047000  1.0
  O  O110  1  0.40400000  0.18258000  0.35053000  1.0
  O  O111  1  0.93692000  0.31746000  0.14953000  1.0
  O  O112  1  0.03634000  0.14125000  0.65196000  1.0
  O  O113  1  0.82948000  0.35870000  0.84806000  1.0
  O  O114  1  0.96366000  0.85875000  0.34804000  1.0
  O  O115  1  0.17052000  0.64130000  0.15194000  1.0
