# generated using pymatgen
data_CuPH19C23BrN
_symmetry_space_group_name_H-M   'P 1'
_cell_length_a   9.01669000
_cell_length_b   9.21121000
_cell_length_c   12.87840000
_cell_angle_alpha   107.02700000
_cell_angle_beta   106.14100000
_cell_angle_gamma   93.39190000
_symmetry_Int_Tables_number   1
_chemical_formula_structural   CuPH19C23BrN
_chemical_formula_sum   'Cu2 P2 H38 C46 Br2 N2'
_cell_volume   970.83693966
_cell_formula_units_Z   2
loop_
 _symmetry_equiv_pos_site_id
 _symmetry_equiv_pos_as_xyz
  1  'x, y, z'
loop_
 _atom_site_type_symbol
 _atom_site_label
 _atom_site_symmetry_multiplicity
 _atom_site_fract_x
 _atom_site_fract_y
 _atom_site_fract_z
 _atom_site_occupancy
  Cu  Cu0  1  0.94373000  0.00981000  0.09614000  1.0
  Cu  Cu1  1  0.05627000  0.99019000  0.90386000  1.0
  P  P2  1  0.98446000  0.20580000  0.25175000  1.0
  P  P3  1  0.01555000  0.79420000  0.74825000  1.0
  H  H4  1  0.94756000  0.70932000  0.13947000  1.0
  H  H5  1  0.05245000  0.29068000  0.86053000  1.0
  H  H6  1  0.75924000  0.48170000  0.10315000  1.0
  H  H7  1  0.24076000  0.51830000  0.89685000  1.0
  H  H8  1  0.39865000  0.70367000  0.93667000  1.0
  H  H9  1  0.60136000  0.29633000  0.06334000  1.0
  H  H10  1  0.60392000  0.91943000  0.97890000  1.0
  H  H11  1  0.39608000  0.08056000  0.02110000  1.0
  H  H12  1  0.25158000  0.06025000  0.32005000  1.0
  H  H13  1  0.74842000  0.93976000  0.67995000  1.0
  H  H14  1  0.39336000  0.01991000  0.50289000  1.0
  H  H15  1  0.60664000  0.98009000  0.49711000  1.0
  H  H16  1  0.29584000  0.10183000  0.67007000  1.0
  H  H17  1  0.70416000  0.89817000  0.32994000  1.0
  H  H18  1  0.05048000  0.21745000  0.65281000  1.0
  H  H19  1  0.94951000  0.78254000  0.34719000  1.0
  H  H20  1  0.91367000  0.26402000  0.47342000  1.0
  H  H21  1  0.08633000  0.73598000  0.52658000  1.0
  H  H22  1  0.87241000  0.50971000  0.32695000  1.0
  H  H23  1  0.12759000  0.49028000  0.67305000  1.0
  H  H24  1  0.61924000  0.57282000  0.35324000  1.0
  H  H25  1  0.38076000  0.42717000  0.64675000  1.0
  H  H26  1  0.40362000  0.36343000  0.31417000  1.0
  H  H27  1  0.59638000  0.63656000  0.68583000  1.0
  H  H28  1  0.44021000  0.08981000  0.24211000  1.0
  H  H29  1  0.55979000  0.91019000  0.75789000  1.0
  H  H30  1  0.69267000  0.02731000  0.21317000  1.0
  H  H31  1  0.30733000  0.97268000  0.78683000  1.0
  H  H32  1  0.04283000  0.34160000  0.08823000  1.0
  H  H33  1  0.95717000  0.65840000  0.91177000  1.0
  H  H34  1  0.19501000  0.58915000  0.10779000  1.0
  H  H35  1  0.80498000  0.41085000  0.89220000  1.0
  H  H36  1  0.34139000  0.76964000  0.29865000  1.0
  H  H37  1  0.65861000  0.23036000  0.70134000  1.0
  H  H38  1  0.33729000  0.70469000  0.47393000  1.0
  H  H39  1  0.66270000  0.29530000  0.52606000  1.0
  H  H40  1  0.18311000  0.46253000  0.45506000  1.0
  H  H41  1  0.81689000  0.53748000  0.54494000  1.0
  C  C42  1  0.82392000  0.70339000  0.09553000  1.0
  C  C43  1  0.17608000  0.29661000  0.90447000  1.0
  C  C44  1  0.71684000  0.57544000  0.07386000  1.0
  C  C45  1  0.28316000  0.42456000  0.92614000  1.0
  C  C46  1  0.55844000  0.56795000  0.01405000  1.0
  C  C47  1  0.44157000  0.43206000  0.98596000  1.0
  C  C48  1  0.51816000  0.69705000  0.98178000  1.0
  C  C49  1  0.48185000  0.30296000  0.01822000  1.0
  C  C50  1  0.63232000  0.82041000  0.00621000  1.0
  C  C51  1  0.36768000  0.17959000  0.99379000  1.0
  C  C52  1  0.07631000  0.16978000  0.38587000  1.0
  C  C53  1  0.92369000  0.83022000  0.61413000  1.0
  C  C54  1  0.21072000  0.09861000  0.39444000  1.0
  C  C55  1  0.78928000  0.90139000  0.60556000  1.0
  C  C56  1  0.28926000  0.07539000  0.49662000  1.0
  C  C57  1  0.71074000  0.92461000  0.50338000  1.0
  C  C58  1  0.23386000  0.12046000  0.59060000  1.0
  C  C59  1  0.76613000  0.87954000  0.40940000  1.0
  C  C60  1  0.09738000  0.18623000  0.58119000  1.0
  C  C61  1  0.90262000  0.81377000  0.41881000  1.0
  C  C62  1  0.01942000  0.21153000  0.47960000  1.0
  C  C63  1  0.98058000  0.78848000  0.52039000  1.0
  C  C64  1  0.80062000  0.26398000  0.27018000  1.0
  C  C65  1  0.19938000  0.73601000  0.72983000  1.0
  C  C66  1  0.77804000  0.41738000  0.30837000  1.0
  C  C67  1  0.22196000  0.58261000  0.69163000  1.0
  C  C68  1  0.63539000  0.45292000  0.32380000  1.0
  C  C69  1  0.36461000  0.54708000  0.67620000  1.0
  C  C70  1  0.51472000  0.33561000  0.30235000  1.0
  C  C71  1  0.48528000  0.66438000  0.69765000  1.0
  C  C72  1  0.53607000  0.18222000  0.26356000  1.0
  C  C73  1  0.46393000  0.81778000  0.73644000  1.0
  C  C74  1  0.67723000  0.14670000  0.24634000  1.0
  C  C75  1  0.32278000  0.85330000  0.75366000  1.0
  C  C76  1  0.10085000  0.38672000  0.27021000  1.0
  C  C77  1  0.89915000  0.61328000  0.72979000  1.0
  C  C78  1  0.10626000  0.42257000  0.17250000  1.0
  C  C79  1  0.89374000  0.57743000  0.82749000  1.0
  C  C80  1  0.19218000  0.56031000  0.18347000  1.0
  C  C81  1  0.80781000  0.43970000  0.81653000  1.0
  C  C82  1  0.27478000  0.66255000  0.29150000  1.0
  C  C83  1  0.72521000  0.33745000  0.70850000  1.0
  C  C84  1  0.27164000  0.62680000  0.38909000  1.0
  C  C85  1  0.72836000  0.37320000  0.61091000  1.0
  C  C86  1  0.18448000  0.48976000  0.37851000  1.0
  C  C87  1  0.81552000  0.51024000  0.62149000  1.0
  Br  Br88  1  0.81860000  0.10640000  0.92815000  1.0
  Br  Br89  1  0.18139000  0.89361000  0.07184000  1.0
  N  N90  1  0.78441000  0.82529000  0.06163000  1.0
  N  N91  1  0.21559000  0.17471000  0.93837000  1.0
