# generated using pymatgen
data_ZnH10C21Br2NO4
_symmetry_space_group_name_H-M   'P 1'
_cell_length_a   14.01230000
_cell_length_b   21.40840000
_cell_length_c   28.51800000
_cell_angle_alpha   90.00000000
_cell_angle_beta   89.99970000
_cell_angle_gamma   93.58290000
_symmetry_Int_Tables_number   1
_chemical_formula_structural   ZnH10C21Br2NO4
_chemical_formula_sum   'Zn12 H120 C252 Br24 N12 O48'
_cell_volume   8538.13485403
_cell_formula_units_Z   12
loop_
 _symmetry_equiv_pos_site_id
 _symmetry_equiv_pos_as_xyz
  1  'x, y, z'
loop_
 _atom_site_type_symbol
 _atom_site_label
 _atom_site_symmetry_multiplicity
 _atom_site_fract_x
 _atom_site_fract_y
 _atom_site_fract_z
 _atom_site_occupancy
  Zn  Zn0  1  0.89439000  0.74593000  0.30803000  1.0
  Zn  Zn1  1  0.10070000  0.75417000  0.30895000  1.0
  Zn  Zn2  1  0.10561000  0.25407000  0.80803000  1.0
  Zn  Zn3  1  0.89930000  0.24583000  0.80895000  1.0
  Zn  Zn4  1  0.20732000  0.11447000  0.48493000  1.0
  Zn  Zn5  1  0.41403000  0.12191000  0.48646000  1.0
  Zn  Zn6  1  0.20234000  0.61025000  0.98718000  1.0
  Zn  Zn7  1  0.40814000  0.62346000  0.98519000  1.0
  Zn  Zn8  1  0.79268000  0.88552000  0.98493000  1.0
  Zn  Zn9  1  0.58597000  0.87809000  0.98646000  1.0
  Zn  Zn10  1  0.79767000  0.38974000  0.48718000  1.0
  Zn  Zn11  1  0.59186000  0.37655000  0.48519000  1.0
  H  H12  1  0.14575000  0.64773000  0.42461000  1.0
  H  H13  1  0.84073000  0.61238000  0.42767000  1.0
  H  H14  1  0.85445000  0.54942000  0.50112000  1.0
  H  H15  1  0.86131000  0.43207000  0.61372000  1.0
  H  H16  1  0.85166000  0.36234000  0.68429000  1.0
  H  H17  1  0.15293000  0.39972000  0.70793000  1.0
  H  H18  1  0.15171000  0.89017000  0.42717000  1.0
  H  H19  1  0.84690000  0.85348000  0.42349000  1.0
  H  H20  1  0.13647000  0.95499000  0.49936000  1.0
  H  H21  1  0.13084000  0.07718000  0.60713000  1.0
  H  H22  1  0.85076000  0.09492000  0.71255000  1.0
  H  H23  1  0.14481000  0.14452000  0.67890000  1.0
  H  H24  1  0.74855000  0.79657000  0.24544000  1.0
  H  H25  1  0.73919000  0.70691000  0.37387000  1.0
  H  H26  1  0.57006000  0.80216000  0.24334000  1.0
  H  H27  1  0.56045000  0.71051000  0.37860000  1.0
  H  H28  1  0.42943000  0.71301000  0.24228000  1.0
  H  H29  1  0.43301000  0.79994000  0.37929000  1.0
  H  H30  1  0.25359000  0.79737000  0.37498000  1.0
  H  H31  1  0.25040000  0.71155000  0.24511000  1.0
  H  H32  1  0.85425000  0.35227000  0.92461000  1.0
  H  H33  1  0.15927000  0.38763000  0.92767000  1.0
  H  H34  1  0.14555000  0.45058000  0.00112000  1.0
  H  H35  1  0.13869000  0.56793000  0.11372000  1.0
  H  H36  1  0.14833000  0.63766000  0.18429000  1.0
  H  H37  1  0.84706000  0.60028000  0.20792000  1.0
  H  H38  1  0.84829000  0.10983000  0.92717000  1.0
  H  H39  1  0.15310000  0.14652000  0.92349000  1.0
  H  H40  1  0.86353000  0.04501000  0.99936000  1.0
  H  H41  1  0.86916000  0.92282000  0.10713000  1.0
  H  H42  1  0.14924000  0.90508000  0.21255000  1.0
  H  H43  1  0.85519000  0.85548000  0.17890000  1.0
  H  H44  1  0.25145000  0.20343000  0.74544000  1.0
  H  H45  1  0.26081000  0.29309000  0.87387000  1.0
  H  H46  1  0.42995000  0.19784000  0.74334000  1.0
  H  H47  1  0.43954000  0.28949000  0.87860000  1.0
  H  H48  1  0.57057000  0.28699000  0.74228000  1.0
  H  H49  1  0.56699000  0.20006000  0.87929000  1.0
  H  H50  1  0.74641000  0.20264000  0.87498000  1.0
  H  H51  1  0.74960000  0.28846000  0.74511000  1.0
  H  H52  1  0.55406000  0.04316000  0.53160000  1.0
  H  H53  1  0.73337000  0.03906000  0.53597000  1.0
  H  H54  1  0.86373000  0.05476000  0.43413000  1.0
  H  H55  1  0.89047000  0.18583000  0.54927000  1.0
  H  H56  1  0.06920000  0.17999000  0.54295000  1.0
  H  H57  1  0.04317000  0.05557000  0.43225000  1.0
  H  H58  1  0.45846000  0.99185000  0.60056000  1.0
  H  H59  1  0.15257000  0.96929000  0.58705000  1.0
  H  H60  1  0.45024000  0.92527000  0.67271000  1.0
  H  H61  1  0.14814000  0.78077000  0.78786000  1.0
  H  H62  1  0.15065000  0.71546000  0.86081000  1.0
  H  H63  1  0.45257000  0.76128000  0.87452000  1.0
  H  H64  1  0.46077000  0.27407000  0.58530000  1.0
  H  H65  1  0.16515000  0.22229000  0.61506000  1.0
  H  H66  1  0.17406000  0.29001000  0.68654000  1.0
  H  H67  1  0.16728000  0.41798000  0.79442000  1.0
  H  H68  1  0.15433000  0.48159000  0.86763000  1.0
  H  H69  1  0.45990000  0.49122000  0.88240000  1.0
  H  H70  1  0.44638000  0.79471000  0.07218000  1.0
  H  H71  1  0.16835000  0.71764000  0.11433000  1.0
  H  H72  1  0.17589000  0.78531000  0.18584000  1.0
  H  H73  1  0.16825000  0.90886000  0.29832000  1.0
  H  H74  1  0.15731000  0.97477000  0.37032000  1.0
  H  H75  1  0.45935000  0.02262000  0.36358000  1.0
  H  H76  1  0.46920000  0.51496000  0.10418000  1.0
  H  H77  1  0.17174000  0.45569000  0.08995000  1.0
  H  H78  1  0.18535000  0.38339000  0.15793000  1.0
  H  H79  1  0.21144000  0.24776000  0.26986000  1.0
  H  H80  1  0.20117000  0.18955000  0.34597000  1.0
  H  H81  1  0.44527000  0.30171000  0.39701000  1.0
  H  H82  1  0.54418000  0.52730000  0.96420000  1.0
  H  H83  1  0.57455000  0.71530000  0.99881000  1.0
  H  H84  1  0.75240000  0.71507000  0.99835000  1.0
  H  H85  1  0.72163000  0.51804000  0.96379000  1.0
  H  H86  1  0.87621000  0.67673000  0.04267000  1.0
  H  H87  1  0.86795000  0.54929000  0.92479000  1.0
  H  H88  1  0.04635000  0.54929000  0.93051000  1.0
  H  H89  1  0.05470000  0.67141000  0.04285000  1.0
  H  H90  1  0.57547000  0.20471000  0.45181000  1.0
  H  H91  1  0.75515000  0.20760000  0.45257000  1.0
  H  H92  1  0.44594000  0.95684000  0.03160000  1.0
  H  H93  1  0.26663000  0.96094000  0.03597000  1.0
  H  H94  1  0.13627000  0.94524000  0.93413000  1.0
  H  H95  1  0.10953000  0.81417000  0.04927000  1.0
  H  H96  1  0.93080000  0.82001000  0.04295000  1.0
  H  H97  1  0.95683000  0.94443000  0.93225000  1.0
  H  H98  1  0.54153000  0.00815000  0.10056000  1.0
  H  H99  1  0.84743000  0.03071000  0.08705000  1.0
  H  H100  1  0.54975000  0.07472000  0.17271000  1.0
  H  H101  1  0.85185000  0.21923000  0.28786000  1.0
  H  H102  1  0.84935000  0.28454000  0.36081000  1.0
  H  H103  1  0.54743000  0.23872000  0.37453000  1.0
  H  H104  1  0.53924000  0.72593000  0.08530000  1.0
  H  H105  1  0.83485000  0.77770000  0.11506000  1.0
  H  H106  1  0.82594000  0.70999000  0.18654000  1.0
  H  H107  1  0.83273000  0.58201000  0.29441000  1.0
  H  H108  1  0.84567000  0.51841000  0.36763000  1.0
  H  H109  1  0.54010000  0.50878000  0.38240000  1.0
  H  H110  1  0.55362000  0.20529000  0.57218000  1.0
  H  H111  1  0.83166000  0.28236000  0.61433000  1.0
  H  H112  1  0.82411000  0.21469000  0.68584000  1.0
  H  H113  1  0.83175000  0.09114000  0.79832000  1.0
  H  H114  1  0.84269000  0.02522000  0.87032000  1.0
  H  H115  1  0.54065000  0.97739000  0.86358000  1.0
  H  H116  1  0.53081000  0.48504000  0.60418000  1.0
  H  H117  1  0.82826000  0.54431000  0.58994000  1.0
  H  H118  1  0.81465000  0.61661000  0.65792000  1.0
  H  H119  1  0.78856000  0.75224000  0.76986000  1.0
  H  H120  1  0.79883000  0.81045000  0.84597000  1.0
  H  H121  1  0.55472000  0.69829000  0.89701000  1.0
  H  H122  1  0.45582000  0.47270000  0.46420000  1.0
  H  H123  1  0.42545000  0.28470000  0.49882000  1.0
  H  H124  1  0.24760000  0.28493000  0.49836000  1.0
  H  H125  1  0.27837000  0.48196000  0.46379000  1.0
  H  H126  1  0.12379000  0.32327000  0.54268000  1.0
  H  H127  1  0.13205000  0.45071000  0.42479000  1.0
  H  H128  1  0.95365000  0.45071000  0.43051000  1.0
  H  H129  1  0.94530000  0.32859000  0.54285000  1.0
  H  H130  1  0.42452000  0.79529000  0.95182000  1.0
  H  H131  1  0.24484000  0.79240000  0.95258000  1.0
  C  C132  1  0.00369000  0.16707000  0.74138000  1.0
  C  C133  1  0.98649000  0.66988000  0.37703000  1.0
  C  C134  1  0.99259000  0.63310000  0.42159000  1.0
  C  C135  1  0.08250000  0.62660000  0.44194000  1.0
  C  C136  1  0.91022000  0.60663000  0.44364000  1.0
  C  C137  1  0.08934000  0.59420000  0.48381000  1.0
  C  C138  1  0.91750000  0.57256000  0.48476000  1.0
  C  C139  1  0.00752000  0.56546000  0.50597000  1.0
  C  C140  1  0.01342000  0.52916000  0.54700000  1.0
  C  C141  1  0.01510000  0.49559000  0.58155000  1.0
  C  C142  1  0.01227000  0.45606000  0.62113000  1.0
  C  C143  1  0.09453000  0.44574000  0.64819000  1.0
  C  C144  1  0.92448000  0.42494000  0.63490000  1.0
  C  C145  1  0.91937000  0.38614000  0.67392000  1.0
  C  C146  1  0.08919000  0.40719000  0.68738000  1.0
  C  C147  1  0.00169000  0.37691000  0.70047000  1.0
  C  C148  1  0.99847000  0.33315000  0.74163000  1.0
  C  C149  1  0.00704000  0.83093000  0.37679000  1.0
  C  C150  1  0.00000000  0.86875000  0.42077000  1.0
  C  C151  1  0.08188000  0.89615000  0.44268000  1.0
  C  C152  1  0.90979000  0.87532000  0.44071000  1.0
  C  C153  1  0.90214000  0.90857000  0.48214000  1.0
  C  C154  1  0.07370000  0.93127000  0.48320000  1.0
  C  C155  1  0.98337000  0.93823000  0.50413000  1.0
  C  C156  1  0.97745000  0.97479000  0.54498000  1.0
  C  C157  1  0.97800000  0.00795000  0.57980000  1.0
  C  C158  1  0.98359000  0.04639000  0.61992000  1.0
  C  C159  1  0.07035000  0.08083000  0.63085000  1.0
  C  C160  1  0.90507000  0.05199000  0.65045000  1.0
  C  C161  1  0.91212000  0.09017000  0.68975000  1.0
  C  C162  1  0.07780000  0.11841000  0.67049000  1.0
  C  C163  1  0.99859000  0.12379000  0.69999000  1.0
  C  C164  1  0.70327000  0.77782000  0.27382000  1.0
  C  C165  1  0.69819000  0.72826000  0.34631000  1.0
  C  C166  1  0.60459000  0.78071000  0.27301000  1.0
  C  C167  1  0.59950000  0.73065000  0.34860000  1.0
  C  C168  1  0.55089000  0.75647000  0.31102000  1.0
  C  C169  1  0.44568000  0.75656000  0.31088000  1.0
  C  C170  1  0.39346000  0.73225000  0.27242000  1.0
  C  C171  1  0.39536000  0.77970000  0.34892000  1.0
  C  C172  1  0.29620000  0.77844000  0.34698000  1.0
  C  C173  1  0.29440000  0.73120000  0.27364000  1.0
  C  C174  1  0.99631000  0.83293000  0.24138000  1.0
  C  C175  1  0.01351000  0.33012000  0.87703000  1.0
  C  C176  1  0.00741000  0.36690000  0.92159000  1.0
  C  C177  1  0.91750000  0.37340000  0.94194000  1.0
  C  C178  1  0.08978000  0.39337000  0.94364000  1.0
  C  C179  1  0.91066000  0.40580000  0.98381000  1.0
  C  C180  1  0.08250000  0.42744000  0.98476000  1.0
  C  C181  1  0.99248000  0.43454000  0.00597000  1.0
  C  C182  1  0.98659000  0.47083000  0.04700000  1.0
  C  C183  1  0.98490000  0.50441000  0.08155000  1.0
  C  C184  1  0.98773000  0.54394000  0.12113000  1.0
  C  C185  1  0.90547000  0.55426000  0.14819000  1.0
  C  C186  1  0.07551000  0.57506000  0.13490000  1.0
  C  C187  1  0.08063000  0.61386000  0.17392000  1.0
  C  C188  1  0.91081000  0.59281000  0.18738000  1.0
  C  C189  1  0.99831000  0.62309000  0.20047000  1.0
  C  C190  1  0.00153000  0.66685000  0.24163000  1.0
  C  C191  1  0.99296000  0.16907000  0.87679000  1.0
  C  C192  1  0.00000000  0.13125000  0.92077000  1.0
  C  C193  1  0.91812000  0.10385000  0.94268000  1.0
  C  C194  1  0.09021000  0.12469000  0.94071000  1.0
  C  C195  1  0.09786000  0.09144000  0.98215000  1.0
  C  C196  1  0.92630000  0.06873000  0.98320000  1.0
  C  C197  1  0.01663000  0.06177000  0.00413000  1.0
  C  C198  1  0.02255000  0.02521000  0.04498000  1.0
  C  C199  1  0.02200000  0.99205000  0.07979000  1.0
  C  C200  1  0.01641000  0.95361000  0.11991000  1.0
  C  C201  1  0.92965000  0.91916000  0.13084000  1.0
  C  C202  1  0.09493000  0.94801000  0.15045000  1.0
  C  C203  1  0.08788000  0.90982000  0.18975000  1.0
  C  C204  1  0.92220000  0.88159000  0.17048000  1.0
  C  C205  1  0.00140000  0.87621000  0.19999000  1.0
  C  C206  1  0.29673000  0.22218000  0.77382000  1.0
  C  C207  1  0.30181000  0.27174000  0.84631000  1.0
  C  C208  1  0.39542000  0.21929000  0.77302000  1.0
  C  C209  1  0.40050000  0.26935000  0.84861000  1.0
  C  C210  1  0.44911000  0.24353000  0.81102000  1.0
  C  C211  1  0.55432000  0.24344000  0.81089000  1.0
  C  C212  1  0.60654000  0.26775000  0.77243000  1.0
  C  C213  1  0.60464000  0.22030000  0.84892000  1.0
  C  C214  1  0.70379000  0.22157000  0.84698000  1.0
  C  C215  1  0.70560000  0.26880000  0.77364000  1.0
  C  C216  1  0.60216000  0.07804000  0.51446000  1.0
  C  C217  1  0.70091000  0.07613000  0.51663000  1.0
  C  C218  1  0.75770000  0.12239000  0.49331000  1.0
  C  C219  1  0.86320000  0.12068000  0.49190000  1.0
  C  C220  1  0.90667000  0.08357000  0.45868000  1.0
  C  C221  1  0.92162000  0.15653000  0.52278000  1.0
  C  C222  1  0.02015000  0.15368000  0.51954000  1.0
  C  C223  1  0.00579000  0.08370000  0.45738000  1.0
  C  C224  1  0.30897000  0.02990000  0.54928000  1.0
  C  C225  1  0.30602000  0.98506000  0.58967000  1.0
  C  C226  1  0.39014000  0.97165000  0.61334000  1.0
  C  C227  1  0.21760000  0.95919000  0.60568000  1.0
  C  C228  1  0.21329000  0.92181000  0.64548000  1.0
  C  C229  1  0.38562000  0.93476000  0.65335000  1.0
  C  C230  1  0.29689000  0.90927000  0.67075000  1.0
  C  C231  1  0.29423000  0.87354000  0.71222000  1.0
  C  C232  1  0.29655000  0.84369000  0.74859000  1.0
  C  C233  1  0.29862000  0.80821000  0.79011000  1.0
  C  C234  1  0.21426000  0.77635000  0.80737000  1.0
  C  C235  1  0.38427000  0.80243000  0.81565000  1.0
  C  C236  1  0.21563000  0.74006000  0.84765000  1.0
  C  C237  1  0.38599000  0.76553000  0.85558000  1.0
  C  C238  1  0.30187000  0.73381000  0.87171000  1.0
  C  C239  1  0.30515000  0.69330000  0.91448000  1.0
  C  C240  1  0.31039000  0.19935000  0.55538000  1.0
  C  C241  1  0.31263000  0.24333000  0.59621000  1.0
  C  C242  1  0.39811000  0.27750000  0.60743000  1.0
  C  C243  1  0.23124000  0.24909000  0.62411000  1.0
  C  C244  1  0.23590000  0.28690000  0.66367000  1.0
  C  C245  1  0.40246000  0.31569000  0.64672000  1.0
  C  C246  1  0.32197000  0.32108000  0.67605000  1.0
  C  C247  1  0.32597000  0.35784000  0.71698000  1.0
  C  C248  1  0.32638000  0.38760000  0.75344000  1.0
  C  C249  1  0.32127000  0.42142000  0.79560000  1.0
  C  C250  1  0.40368000  0.44177000  0.82141000  1.0
  C  C251  1  0.23089000  0.43551000  0.81342000  1.0
  C  C252  1  0.22380000  0.46987000  0.85434000  1.0
  C  C253  1  0.39643000  0.47513000  0.86283000  1.0
  C  C254  1  0.30631000  0.48998000  0.87926000  1.0
  C  C255  1  0.30014000  0.52965000  0.92230000  1.0
  C  C256  1  0.30622000  0.70678000  0.04852000  1.0
  C  C257  1  0.30688000  0.75155000  0.08903000  1.0
  C  C258  1  0.38722000  0.79250000  0.09701000  1.0
  C  C259  1  0.23017000  0.74993000  0.12077000  1.0
  C  C260  1  0.23451000  0.78726000  0.16062000  1.0
  C  C261  1  0.39174000  0.82937000  0.13709000  1.0
  C  C262  1  0.31619000  0.82759000  0.17010000  1.0
  C  C263  1  0.32120000  0.86381000  0.21138000  1.0
  C  C264  1  0.32310000  0.89437000  0.24754000  1.0
  C  C265  1  0.31964000  0.93006000  0.28898000  1.0
  C  C266  1  0.40164000  0.96246000  0.30826000  1.0
  C  C267  1  0.23135000  0.93468000  0.31246000  1.0
  C  C268  1  0.22556000  0.97065000  0.35272000  1.0
  C  C269  1  0.39619000  0.99759000  0.34897000  1.0
  C  C270  1  0.30781000  0.00196000  0.37145000  1.0
  C  C271  1  0.30283000  0.04089000  0.41506000  1.0
  C  C272  1  0.31252000  0.53663000  0.05437000  1.0
  C  C273  1  0.31967000  0.49019000  0.09334000  1.0
  C  C274  1  0.40758000  0.48591000  0.11624000  1.0
  C  C275  1  0.23974000  0.45251000  0.10807000  1.0
  C  C276  1  0.24728000  0.41238000  0.14592000  1.0
  C  C277  1  0.41472000  0.44616000  0.15438000  1.0
  C  C278  1  0.33431000  0.40904000  0.17075000  1.0
  C  C279  1  0.33761000  0.37158000  0.21134000  1.0
  C  C280  1  0.33620000  0.34166000  0.24781000  1.0
  C  C281  1  0.33253000  0.30852000  0.29059000  1.0
  C  C282  1  0.39772000  0.32310000  0.32751000  1.0
  C  C283  1  0.26148000  0.25968000  0.29822000  1.0
  C  C284  1  0.25580000  0.22731000  0.34040000  1.0
  C  C285  1  0.39311000  0.29022000  0.36954000  1.0
  C  C286  1  0.32241000  0.24186000  0.37611000  1.0
  C  C287  1  0.32115000  0.20340000  0.41999000  1.0
  C  C288  1  0.59378000  0.56730000  0.97177000  1.0
  C  C289  1  0.61015000  0.67257000  0.99157000  1.0
  C  C290  1  0.70924000  0.67195000  0.99156000  1.0
  C  C291  1  0.69219000  0.56296000  0.97098000  1.0
  C  C292  1  0.75206000  0.61603000  0.98170000  1.0
  C  C293  1  0.85698000  0.61362000  0.98325000  1.0
  C  C294  1  0.91104000  0.64849000  0.01671000  1.0
  C  C295  1  0.90607000  0.57691000  0.95175000  1.0
  C  C296  1  0.00503000  0.57677000  0.95441000  1.0
  C  C297  1  0.00968000  0.64553000  0.01738000  1.0
  C  C298  1  0.61372000  0.16880000  0.46955000  1.0
  C  C299  1  0.71302000  0.17009000  0.47012000  1.0
  C  C300  1  0.39784000  0.92195000  0.01446000  1.0
  C  C301  1  0.29909000  0.92387000  0.01663000  1.0
  C  C302  1  0.24230000  0.87761000  0.99331000  1.0
  C  C303  1  0.13680000  0.87932000  0.99190000  1.0
  C  C304  1  0.09333000  0.91643000  0.95869000  1.0
  C  C305  1  0.07838000  0.84347000  0.02278000  1.0
  C  C306  1  0.97985000  0.84633000  0.01954000  1.0
  C  C307  1  0.99421000  0.91630000  0.95738000  1.0
  C  C308  1  0.69103000  0.97011000  0.04928000  1.0
  C  C309  1  0.69398000  0.01494000  0.08967000  1.0
  C  C310  1  0.60986000  0.02835000  0.11334000  1.0
  C  C311  1  0.78239000  0.04081000  0.10568000  1.0
  C  C312  1  0.78671000  0.07819000  0.14548000  1.0
  C  C313  1  0.61438000  0.06524000  0.15335000  1.0
  C  C314  1  0.70311000  0.09073000  0.17075000  1.0
  C  C315  1  0.70576000  0.12646000  0.21222000  1.0
  C  C316  1  0.70345000  0.15631000  0.24860000  1.0
  C  C317  1  0.70138000  0.19179000  0.29011000  1.0
  C  C318  1  0.78574000  0.22365000  0.30737000  1.0
  C  C319  1  0.61573000  0.19758000  0.31565000  1.0
  C  C320  1  0.78437000  0.25994000  0.34765000  1.0
  C  C321  1  0.61401000  0.23447000  0.35558000  1.0
  C  C322  1  0.69813000  0.26620000  0.37171000  1.0
  C  C323  1  0.69485000  0.30670000  0.41448000  1.0
  C  C324  1  0.68961000  0.80065000  0.05538000  1.0
  C  C325  1  0.68737000  0.75667000  0.09621000  1.0
  C  C326  1  0.60189000  0.72250000  0.10744000  1.0
  C  C327  1  0.76876000  0.75091000  0.12411000  1.0
  C  C328  1  0.76410000  0.71310000  0.16367000  1.0
  C  C329  1  0.59754000  0.68431000  0.14672000  1.0
  C  C330  1  0.67803000  0.67892000  0.17605000  1.0
  C  C331  1  0.67403000  0.64216000  0.21697000  1.0
  C  C332  1  0.67362000  0.61240000  0.25344000  1.0
  C  C333  1  0.67873000  0.57858000  0.29560000  1.0
  C  C334  1  0.59632000  0.55823000  0.32141000  1.0
  C  C335  1  0.76911000  0.56449000  0.31342000  1.0
  C  C336  1  0.77620000  0.53013000  0.35434000  1.0
  C  C337  1  0.60357000  0.52487000  0.36283000  1.0
  C  C338  1  0.69369000  0.51002000  0.37926000  1.0
  C  C339  1  0.69986000  0.47035000  0.42230000  1.0
  C  C340  1  0.69379000  0.29322000  0.54852000  1.0
  C  C341  1  0.69313000  0.24845000  0.58903000  1.0
  C  C342  1  0.61278000  0.20750000  0.59701000  1.0
  C  C343  1  0.76983000  0.25007000  0.62077000  1.0
  C  C344  1  0.76549000  0.21274000  0.66062000  1.0
  C  C345  1  0.60826000  0.17063000  0.63709000  1.0
  C  C346  1  0.68381000  0.17241000  0.67010000  1.0
  C  C347  1  0.67881000  0.13619000  0.71138000  1.0
  C  C348  1  0.67690000  0.10563000  0.74754000  1.0
  C  C349  1  0.68036000  0.06994000  0.78899000  1.0
  C  C350  1  0.59836000  0.03754000  0.80826000  1.0
  C  C351  1  0.76865000  0.06532000  0.81246000  1.0
  C  C352  1  0.77444000  0.02935000  0.85272000  1.0
  C  C353  1  0.60381000  0.00241000  0.84898000  1.0
  C  C354  1  0.69219000  0.99804000  0.87145000  1.0
  C  C355  1  0.69717000  0.95911000  0.91506000  1.0
  C  C356  1  0.68749000  0.46337000  0.55437000  1.0
  C  C357  1  0.68033000  0.50981000  0.59335000  1.0
  C  C358  1  0.59243000  0.51409000  0.61624000  1.0
  C  C359  1  0.76027000  0.54749000  0.60807000  1.0
  C  C360  1  0.75272000  0.58761000  0.64592000  1.0
  C  C361  1  0.58528000  0.55383000  0.65438000  1.0
  C  C362  1  0.66570000  0.59096000  0.67075000  1.0
  C  C363  1  0.66240000  0.62842000  0.71134000  1.0
  C  C364  1  0.66380000  0.65834000  0.74781000  1.0
  C  C365  1  0.66747000  0.69148000  0.79059000  1.0
  C  C366  1  0.60228000  0.67690000  0.82751000  1.0
  C  C367  1  0.73852000  0.74032000  0.79822000  1.0
  C  C368  1  0.74419000  0.77269000  0.84040000  1.0
  C  C369  1  0.60689000  0.70978000  0.86954000  1.0
  C  C370  1  0.67759000  0.75814000  0.87611000  1.0
  C  C371  1  0.67885000  0.79660000  0.91999000  1.0
  C  C372  1  0.40622000  0.43271000  0.47177000  1.0
  C  C373  1  0.38986000  0.32743000  0.49157000  1.0
  C  C374  1  0.29077000  0.32805000  0.49156000  1.0
  C  C375  1  0.30781000  0.43704000  0.47098000  1.0
  C  C376  1  0.24795000  0.38397000  0.48171000  1.0
  C  C377  1  0.14302000  0.38638000  0.48325000  1.0
  C  C378  1  0.08896000  0.35151000  0.51671000  1.0
  C  C379  1  0.09393000  0.42309000  0.45175000  1.0
  C  C380  1  0.99497000  0.42323000  0.45441000  1.0
  C  C381  1  0.99032000  0.35447000  0.51738000  1.0
  C  C382  1  0.38628000  0.83119000  0.96955000  1.0
  C  C383  1  0.28698000  0.82991000  0.97012000  1.0
  Br  Br384  1  0.21165000  0.58839000  0.51188000  1.0
  Br  Br385  1  0.21539000  0.48391000  0.63089000  1.0
  Br  Br386  1  0.77914000  0.91358000  0.50958000  1.0
  Br  Br387  1  0.78684000  0.00673000  0.63769000  1.0
  Br  Br388  1  0.78836000  0.41162000  0.01188000  1.0
  Br  Br389  1  0.78461000  0.51609000  0.13089000  1.0
  Br  Br390  1  0.22086000  0.08642000  0.00958000  1.0
  Br  Br391  1  0.21316000  0.99327000  0.13769000  1.0
  Br  Br392  1  0.09192000  0.88886000  0.66678000  1.0
  Br  Br393  1  0.49978000  0.84513000  0.79526000  1.0
  Br  Br394  1  0.51981000  0.36058000  0.66148000  1.0
  Br  Br395  1  0.52665000  0.42308000  0.79942000  1.0
  Br  Br396  1  0.50299000  0.88253000  0.14833000  1.0
  Br  Br397  1  0.52203000  0.95821000  0.27796000  1.0
  Br  Br398  1  0.53449000  0.44308000  0.18515000  1.0
  Br  Br399  1  0.49453000  0.38824000  0.31995000  1.0
  Br  Br400  1  0.90808000  0.11114000  0.16678000  1.0
  Br  Br401  1  0.50022000  0.15487000  0.29526000  1.0
  Br  Br402  1  0.48019000  0.63942000  0.16148000  1.0
  Br  Br403  1  0.47336000  0.57692000  0.29942000  1.0
  Br  Br404  1  0.49702000  0.11747000  0.64833000  1.0
  Br  Br405  1  0.47798000  0.04179000  0.77797000  1.0
  Br  Br406  1  0.46551000  0.55691000  0.68515000  1.0
  Br  Br407  1  0.50547000  0.61176000  0.81994000  1.0
  N  N408  1  0.74913000  0.75134000  0.30946000  1.0
  N  N409  1  0.24660000  0.75424000  0.31007000  1.0
  N  N410  1  0.25087000  0.24866000  0.80946000  1.0
  N  N411  1  0.75340000  0.24576000  0.81007000  1.0
  N  N412  1  0.06156000  0.11804000  0.48738000  1.0
  N  N413  1  0.55940000  0.12309000  0.49077000  1.0
  N  N414  1  0.55346000  0.62109000  0.98221000  1.0
  N  N415  1  0.05604000  0.61043000  0.98668000  1.0
  N  N416  1  0.93844000  0.88196000  0.98738000  1.0
  N  N417  1  0.44059000  0.87690000  0.99077000  1.0
  N  N418  1  0.44655000  0.37891000  0.48221000  1.0
  N  N419  1  0.94396000  0.38957000  0.48668000  1.0
  O  O420  1  0.90418000  0.68626000  0.36488000  1.0
  O  O421  1  0.06453000  0.68261000  0.35515000  1.0
  O  O422  1  0.91818000  0.30499000  0.75146000  1.0
  O  O423  1  0.07705000  0.32654000  0.76309000  1.0
  O  O424  1  0.92966000  0.81768000  0.35459000  1.0
  O  O425  1  0.08971000  0.81434000  0.36545000  1.0
  O  O426  1  0.92615000  0.17335000  0.76381000  1.0
  O  O427  1  0.08425000  0.19531000  0.75043000  1.0
  O  O428  1  0.09582000  0.31374000  0.86488000  1.0
  O  O429  1  0.93547000  0.31739000  0.85515000  1.0
  O  O430  1  0.08181000  0.69501000  0.25146000  1.0
  O  O431  1  0.92294000  0.67346000  0.26309000  1.0
  O  O432  1  0.07034000  0.18232000  0.85459000  1.0
  O  O433  1  0.91029000  0.18566000  0.86545000  1.0
  O  O434  1  0.07384000  0.82665000  0.26381000  1.0
  O  O435  1  0.91574000  0.80469000  0.25043000  1.0
  O  O436  1  0.22873000  0.04854000  0.53555000  1.0
  O  O437  1  0.39038000  0.04733000  0.53255000  1.0
  O  O438  1  0.22615000  0.67797000  0.93473000  1.0
  O  O439  1  0.38755000  0.67801000  0.92761000  1.0
  O  O440  1  0.22889000  0.18217000  0.53827000  1.0
  O  O441  1  0.39072000  0.18271000  0.54073000  1.0
  O  O442  1  0.21754000  0.54623000  0.93383000  1.0
  O  O443  1  0.37801000  0.54479000  0.94354000  1.0
  O  O444  1  0.22638000  0.67778000  0.03869000  1.0
  O  O445  1  0.38549000  0.70020000  0.02787000  1.0
  O  O446  1  0.22063000  0.04724000  0.43299000  1.0
  O  O447  1  0.38209000  0.06495000  0.43052000  1.0
  O  O448  1  0.23012000  0.54227000  0.03622000  1.0
  O  O449  1  0.38925000  0.56778000  0.04296000  1.0
  O  O450  1  0.24009000  0.17945000  0.43332000  1.0
  O  O451  1  0.40109000  0.19684000  0.44017000  1.0
  O  O452  1  0.77127000  0.95146000  0.03555000  1.0
  O  O453  1  0.60962000  0.95267000  0.03255000  1.0
  O  O454  1  0.77386000  0.32203000  0.43473000  1.0
  O  O455  1  0.61246000  0.32199000  0.42761000  1.0
  O  O456  1  0.77111000  0.81783000  0.03827000  1.0
  O  O457  1  0.60929000  0.81729000  0.04074000  1.0
  O  O458  1  0.78246000  0.45377000  0.43383000  1.0
  O  O459  1  0.62199000  0.45521000  0.44354000  1.0
  O  O460  1  0.77363000  0.32222000  0.53869000  1.0
  O  O461  1  0.61451000  0.29980000  0.52786000  1.0
  O  O462  1  0.77937000  0.95275000  0.93299000  1.0
  O  O463  1  0.61791000  0.93505000  0.93052000  1.0
  O  O464  1  0.76988000  0.45773000  0.53622000  1.0
  O  O465  1  0.61075000  0.43222000  0.54296000  1.0
  O  O466  1  0.75991000  0.82055000  0.93332000  1.0
  O  O467  1  0.59891000  0.80316000  0.94017000  1.0
