# generated using pymatgen
data_ZrH22C18(NO2)4
_symmetry_space_group_name_H-M   'P 1'
_cell_length_a   8.01760000
_cell_length_b   9.59588000
_cell_length_c   15.29190000
_cell_angle_alpha   81.24660000
_cell_angle_beta   89.99080000
_cell_angle_gamma   65.32900000
_symmetry_Int_Tables_number   1
_chemical_formula_structural   ZrH22C18(NO2)4
_chemical_formula_sum   'Zr2 H44 C36 N8 O16'
_cell_volume   1054.02022555
_cell_formula_units_Z   2
loop_
 _symmetry_equiv_pos_site_id
 _symmetry_equiv_pos_as_xyz
  1  'x, y, z'
loop_
 _atom_site_type_symbol
 _atom_site_label
 _atom_site_symmetry_multiplicity
 _atom_site_fract_x
 _atom_site_fract_y
 _atom_site_fract_z
 _atom_site_occupancy
  Zr  Zr0  1  0.28405000  0.00021000  0.24995000  1.0
  Zr  Zr1  1  0.71596000  0.99978000  0.75005000  1.0
  H  H2  1  0.91705000  0.77832000  0.50281000  1.0
  H  H3  1  0.69527000  0.22139000  0.99718000  1.0
  H  H4  1  0.08294000  0.22168000  0.49719000  1.0
  H  H5  1  0.30473000  0.77861000  0.00282000  1.0
  H  H6  1  0.08749000  0.56193000  0.24275000  1.0
  H  H7  1  0.64921000  0.43885000  0.25701000  1.0
  H  H8  1  0.91251000  0.43807000  0.75725000  1.0
  H  H9  1  0.35079000  0.56114000  0.74299000  1.0
  H  H10  1  0.99190000  0.44831000  0.19387000  1.0
  H  H11  1  0.44010000  0.55196000  0.30613000  1.0
  H  H12  1  0.00811000  0.55170000  0.80613000  1.0
  H  H13  1  0.55991000  0.44804000  0.69387000  1.0
  H  H14  1  0.05309000  0.43567000  0.38071000  1.0
  H  H15  1  0.48821000  0.56504000  0.11917000  1.0
  H  H16  1  0.94691000  0.56433000  0.61929000  1.0
  H  H17  1  0.51179000  0.43495000  0.88083000  1.0
  H  H18  1  0.90441000  0.36584000  0.33366000  1.0
  H  H19  1  0.26998000  0.63477000  0.16644000  1.0
  H  H20  1  0.09560000  0.63416000  0.66634000  1.0
  H  H21  1  0.73002000  0.36523000  0.83356000  1.0
  H  H22  1  0.82213000  0.71883000  0.07614000  1.0
  H  H23  1  0.54114000  0.28121000  0.42368000  1.0
  H  H24  1  0.17787000  0.28118000  0.92386000  1.0
  H  H25  1  0.45886000  0.71878000  0.57632000  1.0
  H  H26  1  0.87729000  0.83944000  0.13793000  1.0
  H  H27  1  0.71679000  0.16070000  0.36187000  1.0
  H  H28  1  0.12270000  0.16056000  0.86207000  1.0
  H  H29  1  0.28321000  0.83930000  0.63814000  1.0
  H  H30  1  0.64277000  0.86908000  0.12017000  1.0
  H  H31  1  0.51186000  0.13109000  0.37957000  1.0
  H  H32  1  0.35723000  0.13092000  0.87983000  1.0
  H  H33  1  0.48814000  0.86891000  0.62043000  1.0
  H  H34  1  0.78673000  0.51161000  0.48937000  1.0
  H  H35  1  0.29751000  0.48895000  0.01063000  1.0
  H  H36  1  0.21328000  0.48839000  0.51062000  1.0
  H  H37  1  0.70250000  0.51105000  0.98937000  1.0
  H  H38  1  0.56530000  0.58164000  0.43315000  1.0
  H  H39  1  0.14606000  0.41906000  0.06702000  1.0
  H  H40  1  0.43471000  0.41836000  0.56685000  1.0
  H  H41  1  0.85394000  0.58094000  0.93298000  1.0
  H  H42  1  0.65000000  0.71674000  0.45858000  1.0
  H  H43  1  0.36563000  0.28386000  0.04151000  1.0
  H  H44  1  0.35001000  0.28326000  0.54142000  1.0
  H  H45  1  0.63437000  0.71614000  0.95849000  1.0
  C  C46  1  0.13111000  0.78784000  0.37284000  1.0
  C  C47  1  0.91857000  0.21222000  0.12718000  1.0
  C  C48  1  0.86888000  0.21215000  0.62717000  1.0
  C  C49  1  0.08143000  0.78778000  0.87282000  1.0
  C  C50  1  0.06475000  0.90045000  0.43644000  1.0
  C  C51  1  0.96495000  0.09960000  0.06358000  1.0
  C  C52  1  0.93523000  0.09956000  0.56356000  1.0
  C  C53  1  0.03504000  0.90040000  0.93642000  1.0
  C  C54  1  0.11309000  0.02795000  0.43377000  1.0
  C  C55  1  0.14086000  0.97230000  0.06621000  1.0
  C  C56  1  0.88690000  0.97206000  0.56623000  1.0
  C  C57  1  0.85913000  0.02770000  0.93379000  1.0
  C  C58  1  0.95355000  0.87585000  0.50204000  1.0
  C  C59  1  0.82932000  0.12396000  0.99799000  1.0
  C  C60  1  0.04644000  0.12415000  0.49796000  1.0
  C  C61  1  0.17067000  0.87605000  0.00201000  1.0
  C  C62  1  0.70371000  0.71133000  0.28356000  1.0
  C  C63  1  0.41489000  0.28911000  0.21633000  1.0
  C  C64  1  0.29630000  0.28866000  0.71643000  1.0
  C  C65  1  0.58511000  0.71090000  0.78367000  1.0
  C  C66  1  0.97086000  0.53056000  0.23978000  1.0
  C  C67  1  0.50133000  0.46989000  0.26013000  1.0
  C  C68  1  0.02915000  0.46943000  0.76022000  1.0
  C  C69  1  0.49868000  0.53011000  0.73987000  1.0
  C  C70  1  0.93570000  0.46722000  0.33333333  1.0
  C  C71  1  0.40251000  0.53338000  0.16666000  1.0
  C  C72  1  0.06431000  0.53277000  0.66666667  1.0
  C  C73  1  0.59749000  0.46662000  0.83334000  1.0
  C  C74  1  0.78545000  0.78136000  0.13262000  1.0
  C  C75  1  0.56694000  0.21879000  0.36716000  1.0
  C  C76  1  0.21455000  0.21864000  0.86738000  1.0
  C  C77  1  0.43306000  0.78121000  0.63284000  1.0
  C  C78  1  0.68985000  0.60274000  0.43835000  1.0
  C  C79  1  0.29167000  0.39790000  0.06172000  1.0
  C  C80  1  0.31016000  0.39726000  0.56165000  1.0
  C  C81  1  0.70834000  0.60210000  0.93828000  1.0
  N  N82  1  0.80154000  0.67214000  0.21231000  1.0
  N  N83  1  0.47395000  0.32808000  0.28753000  1.0
  N  N84  1  0.19846000  0.32785000  0.78769000  1.0
  N  N85  1  0.52605000  0.67192000  0.71247000  1.0
  N  N86  1  0.77635000  0.60011000  0.35527000  1.0
  N  N87  1  0.37579000  0.40056000  0.14470000  1.0
  N  N88  1  0.22365000  0.39988000  0.64472000  1.0
  N  N89  1  0.62422000  0.59943000  0.85530000  1.0
  O  O90  1  0.19226000  0.83147000  0.29848000  1.0
  O  O91  1  0.02357000  0.16884000  0.20142000  1.0
  O  O92  1  0.80773000  0.16854000  0.70152000  1.0
  O  O93  1  0.97642000  0.83116000  0.79858000  1.0
  O  O94  1  0.22070000  0.05703000  0.37323000  1.0
  O  O95  1  0.27746000  0.94336000  0.12672000  1.0
  O  O96  1  0.77929000  0.94297000  0.62677000  1.0
  O  O97  1  0.72253000  0.05664000  0.87328000  1.0
  O  O98  1  0.55981000  0.83687000  0.28373000  1.0
  O  O99  1  0.39659000  0.16352000  0.21612000  1.0
  O  O100  1  0.44019000  0.16313000  0.71627000  1.0
  O  O101  1  0.60341000  0.83647000  0.78388000  1.0
  O  O102  1  0.12779000  0.65814000  0.38968000  1.0
  O  O103  1  0.78532000  0.34172000  0.11042000  1.0
  O  O104  1  0.87220000  0.34187000  0.61032000  1.0
  O  O105  1  0.21469000  0.65828000  0.88958000  1.0
