# generated using pymatgen
data_Co3H15C17(NO)7
_symmetry_space_group_name_H-M   'P 1'
_cell_length_a   10.69650000
_cell_length_b   10.82550000
_cell_length_c   10.93590000
_cell_angle_alpha   93.56160000
_cell_angle_beta   116.56580000
_cell_angle_gamma   90.08760000
_symmetry_Int_Tables_number   1
_chemical_formula_structural   Co3H15C17(NO)7
_chemical_formula_sum   'Co6 H30 C34 N14 O14'
_cell_volume   1129.82842553
_cell_formula_units_Z   2
loop_
 _symmetry_equiv_pos_site_id
 _symmetry_equiv_pos_as_xyz
  1  'x, y, z'
loop_
 _atom_site_type_symbol
 _atom_site_label
 _atom_site_symmetry_multiplicity
 _atom_site_fract_x
 _atom_site_fract_y
 _atom_site_fract_z
 _atom_site_occupancy
  Co  Co0  1  0.08976000  0.25080000  0.10392000  1.0
  Co  Co1  1  0.98265000  0.00154000  0.14959000  1.0
  Co  Co2  1  0.83565000  0.48400000  0.97485000  1.0
  Co  Co3  1  0.91025000  0.74919000  0.89609000  1.0
  Co  Co4  1  0.01734000  0.99846000  0.85042000  1.0
  Co  Co5  1  0.16438000  0.51599000  0.02516000  1.0
  H  H6  1  0.21114000  0.05428000  0.13060000  1.0
  H  H7  1  0.08973000  0.46832000  0.19974000  1.0
  H  H8  1  0.45401000  0.09638000  0.18038000  1.0
  H  H9  1  0.65119000  0.98804000  0.15879000  1.0
  H  H10  1  0.56509000  0.44072000  0.07067000  1.0
  H  H11  1  0.16027000  0.52161000  0.69404000  1.0
  H  H12  1  0.15081000  0.42182000  0.47620000  1.0
  H  H13  1  0.06041000  0.06214000  0.57247000  1.0
  H  H14  1  0.72829000  0.18965000  0.76789000  1.0
  H  H15  1  0.67794000  0.29219000  0.38970000  1.0
  H  H16  1  0.66689000  0.41204000  0.50448000  1.0
  H  H17  1  0.83351000  0.35589000  0.53120000  1.0
  H  H18  1  0.73920000  0.07396000  0.47909000  1.0
  H  H19  1  0.67293000  0.04895000  0.59829000  1.0
  H  H20  1  0.56062000  0.10672000  0.43586000  1.0
  H  H21  1  0.78886000  0.94571000  0.86942000  1.0
  H  H22  1  0.91026000  0.53166000  0.80026000  1.0
  H  H23  1  0.54599000  0.90360000  0.81959000  1.0
  H  H24  1  0.34882000  0.01195000  0.84118000  1.0
  H  H25  1  0.43493000  0.55927000  0.92935000  1.0
  H  H26  1  0.83976000  0.47838000  0.30597000  1.0
  H  H27  1  0.84921000  0.57819000  0.52381000  1.0
  H  H28  1  0.93959000  0.93787000  0.42754000  1.0
  H  H29  1  0.27168000  0.81031000  0.23207000  1.0
  H  H30  1  0.32206000  0.70783000  0.61029000  1.0
  H  H31  1  0.33309000  0.58796000  0.49551000  1.0
  H  H32  1  0.16647000  0.64413000  0.46880000  1.0
  H  H33  1  0.26073000  0.92604000  0.52087000  1.0
  H  H34  1  0.32702000  0.95107000  0.40169000  1.0
  H  H35  1  0.43931000  0.89332000  0.56412000  1.0
  C  C36  1  0.69311000  0.28294000  0.07474000  1.0
  C  C37  1  0.71875000  0.15628000  0.10240000  1.0
  C  C38  1  0.52471000  0.14598000  0.15201000  1.0
  C  C39  1  0.63321000  0.08569000  0.14062000  1.0
  C  C40  1  0.50000000  0.27353000  0.12787000  1.0
  C  C41  1  0.58372000  0.34322000  0.08834000  1.0
  C  C42  1  0.37944000  0.33102000  0.14222000  1.0
  C  C43  1  0.08593000  0.21635000  0.71907000  1.0
  C  C44  1  0.11523000  0.34524000  0.75406000  1.0
  C  C45  1  0.13959000  0.42253000  0.66773000  1.0
  C  C46  1  0.13445000  0.36699000  0.54816000  1.0
  C  C47  1  0.10628000  0.23771000  0.51292000  1.0
  C  C48  1  0.08240000  0.16086000  0.59848000  1.0
  C  C49  1  0.09757000  0.18623000  0.37897000  1.0
  C  C50  1  0.73898000  0.26665000  0.71082000  1.0
  C  C51  1  0.72284000  0.32942000  0.49650000  1.0
  C  C52  1  0.66782000  0.10938000  0.51947000  1.0
  C  C53  1  0.30690000  0.71706000  0.92527000  1.0
  C  C54  1  0.28126000  0.84372000  0.89760000  1.0
  C  C55  1  0.47529000  0.85402000  0.84796000  1.0
  C  C56  1  0.36680000  0.91431000  0.85937000  1.0
  C  C57  1  0.50001000  0.72647000  0.87214000  1.0
  C  C58  1  0.41630000  0.65678000  0.91168000  1.0
  C  C59  1  0.62058000  0.66898000  0.85780000  1.0
  C  C60  1  0.91408000  0.78366000  0.28094000  1.0
  C  C61  1  0.88479000  0.65477000  0.24595000  1.0
  C  C62  1  0.86044000  0.57747000  0.33228000  1.0
  C  C63  1  0.86557000  0.63301000  0.45184000  1.0
  C  C64  1  0.89372000  0.76229000  0.48707000  1.0
  C  C65  1  0.91761000  0.83915000  0.40153000  1.0
  C  C66  1  0.90242000  0.81376000  0.62103000  1.0
  C  C67  1  0.26101000  0.73334000  0.28917000  1.0
  C  C68  1  0.27714000  0.67060000  0.50349000  1.0
  C  C69  1  0.33212000  0.89063000  0.48049000  1.0
  N  N70  1  0.83368000  0.12722000  0.08469000  1.0
  N  N71  1  0.87613000  0.22932000  0.04880000  1.0
  N  N72  1  0.79416000  0.32436000  0.04094000  1.0
  N  N73  1  0.06555000  0.16861000  0.82276000  1.0
  N  N74  1  0.08235000  0.26333000  0.91388000  1.0
  N  N75  1  0.11202000  0.36978000  0.87647000  1.0
  N  N76  1  0.70972000  0.23500000  0.58007000  1.0
  N  N77  1  0.16632000  0.87279000  0.91531000  1.0
  N  N78  1  0.12389000  0.77069000  0.95123000  1.0
  N  N79  1  0.20586000  0.67565000  0.95908000  1.0
  N  N80  1  0.93446000  0.83139000  0.17725000  1.0
  N  N81  1  0.91767000  0.73667000  0.08613000  1.0
  N  N82  1  0.88800000  0.63022000  0.12354000  1.0
  N  N83  1  0.29026000  0.76500000  0.41991000  1.0
  O  O84  1  0.11055000  0.06363000  0.08092000  1.0
  O  O85  1  0.05722000  0.43226000  0.10620000  1.0
  O  O86  1  0.35530000  0.44412000  0.11351000  1.0
  O  O87  1  0.30806000  0.26249000  0.18018000  1.0
  O  O88  1  0.06715000  0.06983000  0.34655000  1.0
  O  O89  1  0.11904000  0.26133000  0.30538000  1.0
  O  O90  1  0.77611000  0.37367000  0.76496000  1.0
  O  O91  1  0.88945000  0.93638000  0.91911000  1.0
  O  O92  1  0.94279000  0.56774000  0.89380000  1.0
  O  O93  1  0.64472000  0.55588000  0.88651000  1.0
  O  O94  1  0.69195000  0.73752000  0.81982000  1.0
  O  O95  1  0.93283000  0.93017000  0.65345000  1.0
  O  O96  1  0.88094000  0.73866000  0.69461000  1.0
  O  O97  1  0.22391000  0.62628000  0.23505000  1.0
