# generated using pymatgen
data_ZnH2C10NClO4
_symmetry_space_group_name_H-M   'P 1'
_cell_length_a   12.72300000
_cell_length_b   14.01010000
_cell_length_c   14.00990000
_cell_angle_alpha   89.36580000
_cell_angle_beta   87.35800000
_cell_angle_gamma   87.35600000
_symmetry_Int_Tables_number   1
_chemical_formula_structural   ZnH2C10NClO4
_chemical_formula_sum   'Zn2 H4 C20 N2 Cl2 O8'
_cell_volume   2491.86150038
_cell_formula_units_Z   2
loop_
 _symmetry_equiv_pos_site_id
 _symmetry_equiv_pos_as_xyz
  1  'x, y, z'
loop_
 _atom_site_type_symbol
 _atom_site_label
 _atom_site_symmetry_multiplicity
 _atom_site_fract_x
 _atom_site_fract_y
 _atom_site_fract_z
 _atom_site_occupancy
  Zn  Zn0  1  0.39186000  0.49273000  0.49274000  1.0
  Zn  Zn1  1  0.60813000  0.50726000  0.50727000  1.0
  H  H2  1  0.37961000  0.49355000  0.01561000  1.0
  H  H3  1  0.62039000  0.50644000  0.98439000  1.0
  H  H4  1  0.62039000  0.98440000  0.50645000  1.0
  H  H5  1  0.37962000  0.01560000  0.49355000  1.0
  C  C6  1  0.46657000  0.68496000  0.49790000  1.0
  C  C7  1  0.14240000  0.47253000  0.47251000  1.0
  C  C8  1  0.85760000  0.52749000  0.52748000  1.0
  C  C9  1  0.54318000  0.50256000  0.21190000  1.0
  C  C10  1  0.45680000  0.49745000  0.78809000  1.0
  C  C11  1  0.45682000  0.78808000  0.49743000  1.0
  C  C12  1  0.54319000  0.21190000  0.50256000  1.0
  C  C13  1  0.53345000  0.31504000  0.50211000  1.0
  C  C14  1  0.54491000  0.50247000  0.02455000  1.0
  C  C15  1  0.45511000  0.49751000  0.97547000  1.0
  C  C16  1  0.45511000  0.97548000  0.49752000  1.0
  C  C17  1  0.54491000  0.02453000  0.50248000  1.0
  C  C18  1  0.45542000  0.49737000  0.87530000  1.0
  C  C19  1  0.53344000  0.50208000  0.31506000  1.0
  C  C20  1  0.54458000  0.50263000  0.12470000  1.0
  C  C21  1  0.54458000  0.12470000  0.50264000  1.0
  C  C22  1  0.45544000  0.87529000  0.49736000  1.0
  C  C23  1  0.03139000  0.47076000  0.47074000  1.0
  C  C24  1  0.96859000  0.52927000  0.52924000  1.0
  C  C25  1  0.46654000  0.49791000  0.68496000  1.0
  N  N26  1  0.23350000  0.47377000  0.47376000  1.0
  N  N27  1  0.76650000  0.52624000  0.52625000  1.0
  Cl  Cl28  1  0.01846000  0.60649000  0.60645000  1.0
  Cl  Cl29  1  0.98153000  0.39354000  0.39353000  1.0
  O  O30  1  0.38230000  0.63966000  0.49364000  1.0
  O  O31  1  0.43977000  0.35088000  0.49739000  1.0
  O  O32  1  0.43978000  0.49735000  0.35089000  1.0
  O  O33  1  0.56021000  0.50264000  0.64912000  1.0
  O  O34  1  0.56025000  0.64911000  0.50262000  1.0
  O  O35  1  0.61772000  0.36033000  0.50636000  1.0
  O  O36  1  0.61771000  0.50632000  0.36033000  1.0
  O  O37  1  0.38226000  0.49365000  0.63967000  1.0
