# generated using pymatgen
data_ZnH5C6(N2O)2
_symmetry_space_group_name_H-M   'P 1'
_cell_length_a   12.62130000
_cell_length_b   12.62130000
_cell_length_c   25.63160000
_cell_angle_alpha   90.00000000
_cell_angle_beta   90.00000000
_cell_angle_gamma   90.00000000
_symmetry_Int_Tables_number   1
_chemical_formula_structural   ZnH5C6(N2O)2
_chemical_formula_sum   'Zn16 H80 C96 N64 O32'
_cell_volume   4083.04246242
_cell_formula_units_Z   16
loop_
 _symmetry_equiv_pos_site_id
 _symmetry_equiv_pos_as_xyz
  1  'x, y, z'
loop_
 _atom_site_type_symbol
 _atom_site_label
 _atom_site_symmetry_multiplicity
 _atom_site_fract_x
 _atom_site_fract_y
 _atom_site_fract_z
 _atom_site_occupancy
  Zn  Zn0  1  0.96096000  0.06634000  0.56156000  1.0
  Zn  Zn1  1  0.53904000  0.43366000  0.56156000  1.0
  Zn  Zn2  1  0.43366000  0.96096000  0.56156000  1.0
  Zn  Zn3  1  0.06634000  0.53904000  0.56156000  1.0
  Zn  Zn4  1  0.53904000  0.06634000  0.93844000  1.0
  Zn  Zn5  1  0.96096000  0.43366000  0.93844000  1.0
  Zn  Zn6  1  0.06634000  0.96096000  0.93844000  1.0
  Zn  Zn7  1  0.43366000  0.53904000  0.93844000  1.0
  Zn  Zn8  1  0.03904000  0.93366000  0.43844000  1.0
  Zn  Zn9  1  0.46096000  0.56634000  0.43844000  1.0
  Zn  Zn10  1  0.56634000  0.03904000  0.43844000  1.0
  Zn  Zn11  1  0.93366000  0.46096000  0.43844000  1.0
  Zn  Zn12  1  0.46096000  0.93366000  0.06156000  1.0
  Zn  Zn13  1  0.03904000  0.56634000  0.06156000  1.0
  Zn  Zn14  1  0.93366000  0.03904000  0.06156000  1.0
  Zn  Zn15  1  0.56634000  0.46096000  0.06156000  1.0
  H  H16  1  0.71972000  0.05916000  0.53366000  1.0
  H  H17  1  0.78028000  0.44084000  0.53366000  1.0
  H  H18  1  0.44084000  0.71972000  0.53366000  1.0
  H  H19  1  0.05916000  0.78028000  0.53366000  1.0
  H  H20  1  0.78028000  0.05916000  0.96634000  1.0
  H  H21  1  0.71972000  0.44084000  0.96634000  1.0
  H  H22  1  0.05916000  0.71972000  0.96634000  1.0
  H  H23  1  0.44084000  0.78028000  0.96634000  1.0
  H  H24  1  0.28028000  0.94084000  0.46634000  1.0
  H  H25  1  0.21972000  0.55916000  0.46634000  1.0
  H  H26  1  0.55916000  0.28028000  0.46634000  1.0
  H  H27  1  0.94084000  0.21972000  0.46634000  1.0
  H  H28  1  0.21972000  0.94084000  0.03366000  1.0
  H  H29  1  0.28028000  0.55916000  0.03366000  1.0
  H  H30  1  0.94084000  0.28028000  0.03366000  1.0
  H  H31  1  0.55916000  0.21972000  0.03366000  1.0
  H  H32  1  0.94442000  0.07219000  0.76604000  1.0
  H  H33  1  0.55558000  0.42781000  0.76604000  1.0
  H  H34  1  0.42781000  0.94442000  0.76604000  1.0
  H  H35  1  0.07219000  0.55558000  0.76604000  1.0
  H  H36  1  0.55558000  0.07220000  0.73396000  1.0
  H  H37  1  0.94442000  0.42781000  0.73396000  1.0
  H  H38  1  0.07220000  0.94442000  0.73396000  1.0
  H  H39  1  0.42781000  0.55558000  0.73396000  1.0
  H  H40  1  0.05558000  0.92780000  0.23396000  1.0
  H  H41  1  0.44442000  0.57220000  0.23396000  1.0
  H  H42  1  0.57220000  0.05558000  0.23396000  1.0
  H  H43  1  0.92781000  0.44442000  0.23396000  1.0
  H  H44  1  0.44442000  0.92781000  0.26604000  1.0
  H  H45  1  0.05558000  0.57219000  0.26604000  1.0
  H  H46  1  0.92780000  0.05558000  0.26604000  1.0
  H  H47  1  0.57219000  0.44442000  0.26604000  1.0
  H  H48  1  0.81791000  0.06817000  0.84113000  1.0
  H  H49  1  0.68209000  0.43183000  0.84113000  1.0
  H  H50  1  0.43183000  0.81791000  0.84113000  1.0
  H  H51  1  0.06817000  0.68209000  0.84113000  1.0
  H  H52  1  0.68209000  0.06817000  0.65887000  1.0
  H  H53  1  0.81791000  0.43183000  0.65887000  1.0
  H  H54  1  0.06817000  0.81791000  0.65887000  1.0
  H  H55  1  0.43183000  0.68209000  0.65887000  1.0
  H  H56  1  0.18209000  0.93183000  0.15887000  1.0
  H  H57  1  0.31791000  0.56817000  0.15887000  1.0
  H  H58  1  0.56817000  0.18209000  0.15887000  1.0
  H  H59  1  0.93183000  0.31791000  0.15887000  1.0
  H  H60  1  0.31791000  0.93183000  0.34113000  1.0
  H  H61  1  0.18209000  0.56817000  0.34113000  1.0
  H  H62  1  0.93183000  0.18209000  0.34113000  1.0
  H  H63  1  0.56817000  0.31791000  0.34113000  1.0
  H  H64  1  0.73326000  0.97677000  0.35076000  1.0
  H  H65  1  0.76674000  0.52323000  0.35076000  1.0
  H  H66  1  0.52323000  0.73326000  0.35076000  1.0
  H  H67  1  0.97677000  0.76674000  0.35076000  1.0
  H  H68  1  0.76674000  0.97677000  0.14924000  1.0
  H  H69  1  0.73326000  0.52323000  0.14924000  1.0
  H  H70  1  0.97677000  0.73326000  0.14924000  1.0
  H  H71  1  0.52323000  0.76674000  0.14924000  1.0
  H  H72  1  0.26674000  0.02323000  0.64924000  1.0
  H  H73  1  0.23326000  0.47677000  0.64924000  1.0
  H  H74  1  0.47677000  0.26674000  0.64924000  1.0
  H  H75  1  0.02323000  0.23327000  0.64924000  1.0
  H  H76  1  0.23326000  0.02323000  0.85076000  1.0
  H  H77  1  0.26674000  0.47677000  0.85076000  1.0
  H  H78  1  0.02323000  0.26674000  0.85076000  1.0
  H  H79  1  0.47677000  0.23326000  0.85076000  1.0
  H  H80  1  0.87261000  0.95155000  0.35100000  1.0
  H  H81  1  0.62739000  0.54845000  0.35100000  1.0
  H  H82  1  0.54845000  0.87261000  0.35100000  1.0
  H  H83  1  0.95155000  0.62739000  0.35100000  1.0
  H  H84  1  0.62739000  0.95155000  0.14900000  1.0
  H  H85  1  0.87261000  0.54845000  0.14900000  1.0
  H  H86  1  0.95155000  0.87261000  0.14900000  1.0
  H  H87  1  0.54845000  0.62739000  0.14900000  1.0
  H  H88  1  0.12739000  0.04845000  0.64900000  1.0
  H  H89  1  0.37261000  0.45155000  0.64900000  1.0
  H  H90  1  0.45155000  0.12739000  0.64900000  1.0
  H  H91  1  0.04845000  0.37261000  0.64900000  1.0
  H  H92  1  0.37261000  0.04845000  0.85100000  1.0
  H  H93  1  0.12739000  0.45155000  0.85100000  1.0
  H  H94  1  0.04845000  0.12739000  0.85100000  1.0
  H  H95  1  0.45155000  0.37261000  0.85100000  1.0
  C  C96  1  0.80882000  0.99691000  0.42065000  1.0
  C  C97  1  0.69118000  0.50309000  0.42065000  1.0
  C  C98  1  0.50309000  0.80882000  0.42065000  1.0
  C  C99  1  0.99691000  0.69118000  0.42065000  1.0
  C  C100  1  0.69118000  0.99691000  0.07935000  1.0
  C  C101  1  0.80882000  0.50309000  0.07935000  1.0
  C  C102  1  0.99691000  0.80882000  0.07935000  1.0
  C  C103  1  0.50309000  0.69118000  0.07935000  1.0
  C  C104  1  0.19118000  0.00308000  0.57935000  1.0
  C  C105  1  0.30882000  0.49691000  0.57935000  1.0
  C  C106  1  0.49692000  0.19118000  0.57935000  1.0
  C  C107  1  0.00309000  0.30882000  0.57935000  1.0
  C  C108  1  0.30882000  0.00308000  0.92065000  1.0
  C  C109  1  0.19118000  0.49691000  0.92065000  1.0
  C  C110  1  0.00308000  0.19118000  0.92065000  1.0
  C  C111  1  0.49691000  0.30882000  0.92065000  1.0
  C  C112  1  0.76527000  0.03807000  0.49929000  1.0
  C  C113  1  0.73473000  0.46193000  0.49929000  1.0
  C  C114  1  0.46193000  0.76527000  0.49929000  1.0
  C  C115  1  0.03807000  0.73473000  0.49929000  1.0
  C  C116  1  0.73473000  0.03807000  0.00071000  1.0
  C  C117  1  0.76527000  0.46193000  0.00071000  1.0
  C  C118  1  0.03808000  0.76527000  0.00071000  1.0
  C  C119  1  0.46193000  0.73473000  0.00071000  1.0
  C  C120  1  0.23473000  0.96193000  0.50071000  1.0
  C  C121  1  0.26527000  0.53807000  0.50071000  1.0
  C  C122  1  0.53807000  0.23473000  0.50071000  1.0
  C  C123  1  0.96193000  0.26527000  0.50071000  1.0
  C  C124  1  0.26527000  0.96193000  0.99929000  1.0
  C  C125  1  0.23473000  0.53807000  0.99929000  1.0
  C  C126  1  0.96193000  0.23473000  0.99929000  1.0
  C  C127  1  0.53807000  0.26527000  0.99929000  1.0
  C  C128  1  0.82085000  0.06961000  0.70804000  1.0
  C  C129  1  0.67915000  0.43039000  0.70804000  1.0
  C  C130  1  0.43039000  0.82085000  0.70804000  1.0
  C  C131  1  0.06961000  0.67915000  0.70804000  1.0
  C  C132  1  0.67915000  0.06961000  0.79196000  1.0
  C  C133  1  0.82085000  0.43039000  0.79196000  1.0
  C  C134  1  0.06961000  0.82085000  0.79196000  1.0
  C  C135  1  0.43039000  0.67915000  0.79196000  1.0
  C  C136  1  0.17915000  0.93039000  0.29196000  1.0
  C  C137  1  0.32085000  0.56961000  0.29196000  1.0
  C  C138  1  0.56961000  0.17915000  0.29196000  1.0
  C  C139  1  0.93039000  0.32085000  0.29196000  1.0
  C  C140  1  0.32085000  0.93039000  0.20804000  1.0
  C  C141  1  0.17915000  0.56961000  0.20804000  1.0
  C  C142  1  0.93039000  0.17915000  0.20804000  1.0
  C  C143  1  0.56961000  0.32085000  0.20804000  1.0
  C  C144  1  0.85918000  0.07096000  0.75940000  1.0
  C  C145  1  0.64081000  0.42904000  0.75940000  1.0
  C  C146  1  0.42903000  0.85918000  0.75940000  1.0
  C  C147  1  0.07096000  0.64082000  0.75940000  1.0
  C  C148  1  0.64081000  0.07097000  0.74060000  1.0
  C  C149  1  0.85918000  0.42904000  0.74060000  1.0
  C  C150  1  0.07097000  0.85919000  0.74060000  1.0
  C  C151  1  0.42903000  0.64081000  0.74060000  1.0
  C  C152  1  0.14081000  0.92904000  0.24060000  1.0
  C  C153  1  0.35918000  0.57096000  0.24060000  1.0
  C  C154  1  0.57096000  0.14081000  0.24060000  1.0
  C  C155  1  0.92904000  0.35919000  0.24060000  1.0
  C  C156  1  0.35918000  0.92904000  0.25940000  1.0
  C  C157  1  0.14082000  0.57096000  0.25940000  1.0
  C  C158  1  0.92904000  0.14082000  0.25940000  1.0
  C  C159  1  0.57096000  0.35918000  0.25940000  1.0
  C  C160  1  0.78879000  0.06911000  0.80112000  1.0
  C  C161  1  0.71121000  0.43089000  0.80112000  1.0
  C  C162  1  0.43089000  0.78879000  0.80112000  1.0
  C  C163  1  0.06911000  0.71121000  0.80112000  1.0
  C  C164  1  0.71121000  0.06911000  0.69888000  1.0
  C  C165  1  0.78879000  0.43089000  0.69888000  1.0
  C  C166  1  0.06911000  0.78879000  0.69888000  1.0
  C  C167  1  0.43089000  0.71121000  0.69888000  1.0
  C  C168  1  0.21121000  0.93089000  0.19888000  1.0
  C  C169  1  0.28879000  0.56911000  0.19888000  1.0
  C  C170  1  0.56911000  0.21121000  0.19888000  1.0
  C  C171  1  0.93089000  0.28879000  0.19888000  1.0
  C  C172  1  0.28879000  0.93089000  0.30112000  1.0
  C  C173  1  0.21121000  0.56911000  0.30112000  1.0
  C  C174  1  0.93089000  0.21121000  0.30112000  1.0
  C  C175  1  0.56911000  0.28879000  0.30112000  1.0
  C  C176  1  0.89711000  0.06963000  0.66354000  1.0
  C  C177  1  0.60289000  0.43038000  0.66354000  1.0
  C  C178  1  0.43037000  0.89711000  0.66354000  1.0
  C  C179  1  0.06962000  0.60290000  0.66354000  1.0
  C  C180  1  0.60289000  0.06962000  0.83646000  1.0
  C  C181  1  0.89710000  0.43037000  0.83646000  1.0
  C  C182  1  0.06962000  0.89711000  0.83646000  1.0
  C  C183  1  0.43037000  0.60289000  0.83646000  1.0
  C  C184  1  0.10289000  0.93037000  0.33646000  1.0
  C  C185  1  0.39711000  0.56963000  0.33646000  1.0
  C  C186  1  0.56963000  0.10289000  0.33646000  1.0
  C  C187  1  0.93038000  0.39711000  0.33646000  1.0
  C  C188  1  0.39711000  0.93037000  0.16354000  1.0
  C  C189  1  0.10289000  0.56963000  0.16354000  1.0
  C  C190  1  0.93037000  0.10289000  0.16354000  1.0
  C  C191  1  0.56962000  0.39711000  0.16354000  1.0
  N  N192  1  0.89894000  0.00006000  0.44927000  1.0
  N  N193  1  0.60106000  0.49994000  0.44927000  1.0
  N  N194  1  0.49994000  0.89894000  0.44927000  1.0
  N  N195  1  0.00006000  0.60106000  0.44927000  1.0
  N  N196  1  0.60106000  0.00006000  0.05073000  1.0
  N  N197  1  0.89894000  0.49994000  0.05073000  1.0
  N  N198  1  0.00006000  0.89894000  0.05073000  1.0
  N  N199  1  0.49994000  0.60106000  0.05073000  1.0
  N  N200  1  0.10106000  0.99994000  0.55073000  1.0
  N  N201  1  0.39894000  0.50006000  0.55073000  1.0
  N  N202  1  0.50006000  0.10106000  0.55073000  1.0
  N  N203  1  0.99994000  0.39894000  0.55073000  1.0
  N  N204  1  0.39894000  0.99994000  0.94927000  1.0
  N  N205  1  0.10106000  0.50006000  0.94927000  1.0
  N  N206  1  0.99994000  0.10106000  0.94927000  1.0
  N  N207  1  0.50006000  0.39894000  0.94927000  1.0
  N  N208  1  0.86897000  0.02511000  0.50004000  1.0
  N  N209  1  0.63103000  0.47489000  0.50004000  1.0
  N  N210  1  0.47489000  0.86897000  0.50004000  1.0
  N  N211  1  0.02511000  0.63103000  0.50004000  1.0
  N  N212  1  0.63103000  0.02511000  0.99996000  1.0
  N  N213  1  0.86897000  0.47489000  0.99996000  1.0
  N  N214  1  0.02511000  0.86897000  0.99996000  1.0
  N  N215  1  0.47489000  0.63103000  0.99996000  1.0
  N  N216  1  0.13103000  0.97489000  0.49996000  1.0
  N  N217  1  0.36897000  0.52511000  0.49996000  1.0
  N  N218  1  0.52511000  0.13103000  0.49996000  1.0
  N  N219  1  0.97489000  0.36897000  0.49996000  1.0
  N  N220  1  0.36897000  0.97489000  0.00004000  1.0
  N  N221  1  0.13103000  0.52511000  0.00004000  1.0
  N  N222  1  0.97489000  0.13103000  0.00004000  1.0
  N  N223  1  0.52511000  0.36897000  0.00004000  1.0
  N  N224  1  0.72348000  0.02205000  0.45128000  1.0
  N  N225  1  0.77652000  0.47795000  0.45128000  1.0
  N  N226  1  0.47795000  0.72348000  0.45128000  1.0
  N  N227  1  0.02205000  0.77652000  0.45128000  1.0
  N  N228  1  0.77652000  0.02205000  0.04872000  1.0
  N  N229  1  0.72348000  0.47795000  0.04872000  1.0
  N  N230  1  0.02205000  0.72348000  0.04872000  1.0
  N  N231  1  0.47795000  0.77652000  0.04872000  1.0
  N  N232  1  0.27652000  0.97795000  0.54872000  1.0
  N  N233  1  0.22348000  0.52205000  0.54872000  1.0
  N  N234  1  0.52205000  0.27652000  0.54872000  1.0
  N  N235  1  0.97795000  0.22348000  0.54872000  1.0
  N  N236  1  0.22348000  0.97795000  0.95128000  1.0
  N  N237  1  0.27652000  0.52205000  0.95128000  1.0
  N  N238  1  0.97795000  0.27652000  0.95128000  1.0
  N  N239  1  0.52205000  0.22348000  0.95128000  1.0
  N  N240  1  0.80418000  0.97206000  0.36997000  1.0
  N  N241  1  0.69582000  0.52794000  0.36997000  1.0
  N  N242  1  0.52794000  0.80418000  0.36997000  1.0
  N  N243  1  0.97206000  0.69582000  0.36997000  1.0
  N  N244  1  0.69582000  0.97206000  0.13003000  1.0
  N  N245  1  0.80418000  0.52794000  0.13003000  1.0
  N  N246  1  0.97206000  0.80418000  0.13003000  1.0
  N  N247  1  0.52794000  0.69582000  0.13003000  1.0
  N  N248  1  0.19582000  0.02794000  0.63003000  1.0
  N  N249  1  0.30418000  0.47206000  0.63003000  1.0
  N  N250  1  0.47206000  0.19582000  0.63003000  1.0
  N  N251  1  0.02794000  0.30418000  0.63003000  1.0
  N  N252  1  0.30418000  0.02794000  0.86997000  1.0
  N  N253  1  0.19582000  0.47206000  0.86997000  1.0
  N  N254  1  0.02794000  0.19582000  0.86997000  1.0
  N  N255  1  0.47206000  0.30418000  0.86997000  1.0
  O  O256  1  0.85897000  0.04623000  0.61813000  1.0
  O  O257  1  0.64103000  0.45377000  0.61813000  1.0
  O  O258  1  0.45377000  0.85897000  0.61813000  1.0
  O  O259  1  0.04624000  0.64103000  0.61813000  1.0
  O  O260  1  0.64103000  0.04623000  0.88187000  1.0
  O  O261  1  0.85897000  0.45377000  0.88187000  1.0
  O  O262  1  0.04623000  0.85897000  0.88187000  1.0
  O  O263  1  0.45377000  0.64103000  0.88187000  1.0
  O  O264  1  0.14103000  0.95377000  0.38187000  1.0
  O  O265  1  0.35897000  0.54623000  0.38187000  1.0
  O  O266  1  0.54624000  0.14103000  0.38187000  1.0
  O  O267  1  0.95377000  0.35897000  0.38187000  1.0
  O  O268  1  0.35897000  0.95377000  0.11813000  1.0
  O  O269  1  0.14103000  0.54623000  0.11813000  1.0
  O  O270  1  0.95377000  0.14103000  0.11813000  1.0
  O  O271  1  0.54623000  0.35897000  0.11813000  1.0
  O  O272  1  0.99349000  0.09315000  0.67096000  1.0
  O  O273  1  0.50651000  0.40685000  0.67096000  1.0
  O  O274  1  0.40685000  0.99349000  0.67096000  1.0
  O  O275  1  0.09315000  0.50651000  0.67096000  1.0
  O  O276  1  0.50651000  0.09315000  0.82904000  1.0
  O  O277  1  0.99349000  0.40685000  0.82904000  1.0
  O  O278  1  0.09315000  0.99349000  0.82904000  1.0
  O  O279  1  0.40685000  0.50651000  0.82904000  1.0
  O  O280  1  0.00651000  0.90685000  0.32904000  1.0
  O  O281  1  0.49349000  0.59315000  0.32904000  1.0
  O  O282  1  0.59315000  0.00651000  0.32904000  1.0
  O  O283  1  0.90685000  0.49348000  0.32904000  1.0
  O  O284  1  0.49349000  0.90685000  0.17096000  1.0
  O  O285  1  0.00651000  0.59315000  0.17096000  1.0
  O  O286  1  0.90685000  0.00651000  0.17096000  1.0
  O  O287  1  0.59315000  0.49348000  0.17096000  1.0
