# generated using pymatgen
data_Cd3H26C20(S2N3)4
_symmetry_space_group_name_H-M   'P 1'
_cell_length_a   9.66016000
_cell_length_b   12.10610000
_cell_length_c   14.51010000
_cell_angle_alpha   89.99980000
_cell_angle_beta   98.83430000
_cell_angle_gamma   89.99980000
_symmetry_Int_Tables_number   1
_chemical_formula_structural   Cd3H26C20(S2N3)4
_chemical_formula_sum   'Cd6 H52 C40 S16 N24'
_cell_volume   1676.77957978
_cell_formula_units_Z   2
loop_
 _symmetry_equiv_pos_site_id
 _symmetry_equiv_pos_as_xyz
  1  'x, y, z'
loop_
 _atom_site_type_symbol
 _atom_site_label
 _atom_site_symmetry_multiplicity
 _atom_site_fract_x
 _atom_site_fract_y
 _atom_site_fract_z
 _atom_site_occupancy
  Cd  Cd0  1  0.63087000  0.63299000  0.13156000  1.0
  Cd  Cd1  1  0.86913000  0.13298000  0.36844000  1.0
  Cd  Cd2  1  0.36914000  0.36702000  0.86844000  1.0
  Cd  Cd3  1  0.13087000  0.86702000  0.63156000  1.0
  Cd  Cd4  1  0.50000000  0.50000000  0.50000000  1.0
  Cd  Cd5  1  0.00000000  0.00000000  0.00000000  1.0
  H  H6  1  0.83410000  0.66047000  0.33278000  1.0
  H  H7  1  0.66590000  0.16047000  0.16722000  1.0
  H  H8  1  0.16590000  0.33954000  0.66722000  1.0
  H  H9  1  0.33410000  0.83953000  0.83278000  1.0
  H  H10  1  0.88924000  0.75969000  0.25654000  1.0
  H  H11  1  0.61075000  0.25968000  0.24347000  1.0
  H  H12  1  0.11076000  0.24031000  0.74346000  1.0
  H  H13  1  0.38925000  0.74031000  0.75654000  1.0
  H  H14  1  0.12776000  0.72948000  0.31911000  1.0
  H  H15  1  0.37224000  0.22948000  0.18089000  1.0
  H  H16  1  0.87224000  0.27052000  0.68089000  1.0
  H  H17  1  0.62776000  0.77052000  0.81911000  1.0
  H  H18  1  0.06786000  0.64478000  0.40526000  1.0
  H  H19  1  0.43214000  0.14478000  0.09474000  1.0
  H  H20  1  0.93214000  0.35522000  0.59474000  1.0
  H  H21  1  0.56786000  0.85522000  0.90526000  1.0
  H  H22  1  0.86244000  0.42723000  0.17827000  1.0
  H  H23  1  0.63756000  0.92723000  0.32173000  1.0
  H  H24  1  0.13756000  0.57277000  0.82173000  1.0
  H  H25  1  0.36244000  0.07277000  0.67827000  1.0
  H  H26  1  0.79745000  0.46841000  0.28018000  1.0
  H  H27  1  0.70255000  0.96840000  0.21982000  1.0
  H  H28  1  0.20255000  0.53160000  0.71982000  1.0
  H  H29  1  0.29745000  0.03159000  0.78018000  1.0
  H  H30  1  0.02076000  0.45235000  0.37190000  1.0
  H  H31  1  0.47925000  0.95235000  0.12810000  1.0
  H  H32  1  0.97925000  0.54765000  0.62810000  1.0
  H  H33  1  0.52075000  0.04765000  0.87190000  1.0
  H  H34  1  0.07844000  0.38868000  0.27392000  1.0
  H  H35  1  0.42156000  0.88868000  0.22608000  1.0
  H  H36  1  0.92156000  0.61132000  0.72608000  1.0
  H  H37  1  0.57844000  0.11132000  0.77392000  1.0
  H  H38  1  0.96961000  0.69837000  0.11580000  1.0
  H  H39  1  0.53039000  0.19837000  0.38420000  1.0
  H  H40  1  0.03039000  0.30163000  0.88420000  1.0
  H  H41  1  0.46961000  0.80163000  0.61580000  1.0
  H  H42  1  0.93932000  0.56007000  0.07718000  1.0
  H  H43  1  0.56068000  0.06007000  0.42282000  1.0
  H  H44  1  0.06068000  0.43993000  0.92282000  1.0
  H  H45  1  0.43932000  0.93993000  0.57718000  1.0
  H  H46  1  0.16180000  0.50454000  0.15772000  1.0
  H  H47  1  0.33820000  0.00454000  0.34228000  1.0
  H  H48  1  0.83820000  0.49546000  0.84228000  1.0
  H  H49  1  0.66180000  0.99546000  0.65773000  1.0
  H  H50  1  0.19826000  0.64703000  0.18160000  1.0
  H  H51  1  0.30174000  0.14703000  0.31840000  1.0
  H  H52  1  0.80174000  0.35297000  0.81840000  1.0
  H  H53  1  0.69826000  0.85297000  0.68160000  1.0
  H  H54  1  0.21695000  0.54156000  0.32098000  1.0
  H  H55  1  0.28306000  0.04156000  0.17902000  1.0
  H  H56  1  0.78305000  0.45844000  0.67902000  1.0
  H  H57  1  0.71695000  0.95844000  0.82098000  1.0
  C  C58  1  0.72466000  0.89309000  0.06298000  1.0
  C  C59  1  0.77534000  0.39308000  0.43702000  1.0
  C  C60  1  0.27534000  0.10691000  0.93702000  1.0
  C  C61  1  0.22466000  0.60691000  0.56298000  1.0
  C  C62  1  0.51952000  0.70657000  0.33544000  1.0
  C  C63  1  0.98048000  0.20657000  0.16456000  1.0
  C  C64  1  0.48048000  0.29343000  0.66456000  1.0
  C  C65  1  0.01952000  0.79343000  0.83544000  1.0
  C  C66  1  0.33775000  0.57260000  0.00693000  1.0
  C  C67  1  0.16225000  0.07260000  0.49307000  1.0
  C  C68  1  0.66225000  0.42740000  0.99307000  1.0
  C  C69  1  0.83775000  0.92741000  0.50693000  1.0
  C  C70  1  0.47762000  0.44381000  0.25661000  1.0
  C  C71  1  0.02238000  0.94381000  0.24339000  1.0
  C  C72  1  0.52238000  0.55619000  0.74339000  1.0
  C  C73  1  0.97762000  0.05619000  0.75661000  1.0
  C  C74  1  0.90667000  0.67541000  0.28312000  1.0
  C  C75  1  0.59333000  0.17541000  0.21689000  1.0
  C  C76  1  0.09333000  0.32459000  0.71689000  1.0
  C  C77  1  0.40667000  0.82459000  0.78311000  1.0
  C  C78  1  0.05964000  0.65990000  0.33023000  1.0
  C  C79  1  0.44035000  0.15990000  0.16977000  1.0
  C  C80  1  0.94036000  0.34009000  0.66977000  1.0
  C  C81  1  0.55964000  0.84009000  0.83023000  1.0
  C  C82  1  0.88111000  0.48250000  0.23867000  1.0
  C  C83  1  0.61889000  0.98250000  0.26133000  1.0
  C  C84  1  0.11889000  0.51750000  0.76133000  1.0
  C  C85  1  0.38111000  0.01750000  0.73867000  1.0
  C  C86  1  0.02548000  0.46111000  0.29728000  1.0
  C  C87  1  0.47452000  0.96111000  0.20272000  1.0
  C  C88  1  0.97452000  0.53889000  0.70272000  1.0
  C  C89  1  0.52548000  0.03889000  0.79728000  1.0
  C  C90  1  0.97322000  0.61194000  0.13838000  1.0
  C  C91  1  0.52678000  0.11193000  0.36162000  1.0
  C  C92  1  0.02678000  0.38807000  0.86162000  1.0
  C  C93  1  0.47322000  0.88807000  0.63838000  1.0
  C  C94  1  0.12248000  0.58048000  0.18591000  1.0
  C  C95  1  0.37752000  0.08048000  0.31409000  1.0
  C  C96  1  0.87752000  0.41952000  0.81409000  1.0
  C  C97  1  0.62248000  0.91952000  0.68591000  1.0
  S  S98  1  0.73463000  0.02208000  0.03102000  1.0
  S  S99  1  0.76537000  0.52207000  0.46898000  1.0
  S  S100  1  0.26537000  0.97792000  0.96898000  1.0
  S  S101  1  0.23463000  0.47792000  0.53102000  1.0
  S  S102  1  0.42810000  0.70551000  0.42162000  1.0
  S  S103  1  0.07189000  0.20551000  0.07838000  1.0
  S  S104  1  0.57190000  0.29449000  0.57838000  1.0
  S  S105  1  0.92811000  0.79449000  0.92162000  1.0
  S  S106  1  0.37985000  0.69869000  0.03994000  1.0
  S  S107  1  0.12014000  0.19869000  0.46006000  1.0
  S  S108  1  0.62014000  0.30131000  0.96006000  1.0
  S  S109  1  0.87985000  0.80131000  0.53994000  1.0
  S  S110  1  0.38793000  0.39447000  0.33470000  1.0
  S  S111  1  0.11208000  0.89448000  0.16530000  1.0
  S  S112  1  0.61208000  0.60552000  0.66531000  1.0
  S  S113  1  0.88792000  0.10552000  0.83469000  1.0
  N  N114  1  0.71731000  0.80047000  0.08703000  1.0
  N  N115  1  0.78268000  0.30046000  0.41297000  1.0
  N  N116  1  0.28269000  0.19953000  0.91297000  1.0
  N  N117  1  0.21731000  0.69953000  0.58703000  1.0
  N  N118  1  0.58384000  0.71222000  0.27252000  1.0
  N  N119  1  0.91615000  0.21222000  0.22748000  1.0
  N  N120  1  0.41616000  0.28778000  0.72748000  1.0
  N  N121  1  0.08385000  0.78778000  0.77252000  1.0
  N  N122  1  0.30700000  0.48066000  0.98438000  1.0
  N  N123  1  0.19299000  0.98066000  0.51562000  1.0
  N  N124  1  0.69299000  0.51934000  0.01562000  1.0
  N  N125  1  0.80701000  0.01934000  0.48438000  1.0
  N  N126  1  0.54223000  0.47590000  0.19926000  1.0
  N  N127  1  0.95777000  0.97590000  0.30074000  1.0
  N  N128  1  0.45777000  0.52410000  0.80074000  1.0
  N  N129  1  0.04223000  0.02410000  0.69926000  1.0
  N  N130  1  0.87178000  0.59761000  0.20422000  1.0
  N  N131  1  0.62822000  0.09761000  0.29578000  1.0
  N  N132  1  0.12822000  0.40239000  0.79578000  1.0
  N  N133  1  0.37178000  0.90239000  0.70422000  1.0
  N  N134  1  0.11651000  0.55986000  0.28743000  1.0
  N  N135  1  0.38349000  0.05986000  0.21257000  1.0
  N  N136  1  0.88349000  0.44014000  0.71257000  1.0
  N  N137  1  0.61651000  0.94014000  0.78743000  1.0
