# generated using pymatgen
data_Zn4H8C40Br4O13F8
_symmetry_space_group_name_H-M   'P 1'
_cell_length_a   23.95564277
_cell_length_b   23.95600000
_cell_length_c   23.95430000
_cell_angle_alpha   66.65830000
_cell_angle_beta   72.42597592
_cell_angle_gamma   107.57077925
_symmetry_Int_Tables_number   1
_chemical_formula_structural   Zn4H8C40Br4O13F8
_chemical_formula_sum   'Zn8 H16 C80 Br8 O26 F16'
_cell_volume   10545.64523996
_cell_formula_units_Z   2
loop_
 _symmetry_equiv_pos_site_id
 _symmetry_equiv_pos_as_xyz
  1  'x, y, z'
loop_
 _atom_site_type_symbol
 _atom_site_label
 _atom_site_symmetry_multiplicity
 _atom_site_fract_x
 _atom_site_fract_y
 _atom_site_fract_z
 _atom_site_occupancy
  Zn  Zn0  1  0.05717000  0.09941000  0.45775000  1.0
  Zn  Zn1  1  0.05717000  0.95776000  0.48507000  1.0
  Zn  Zn2  1  0.94282000  0.95774000  0.59943000  1.0
  Zn  Zn3  1  0.94284000  0.98509000  0.45774000  1.0
  Zn  Zn4  1  0.94283000  0.40059000  0.04225000  1.0
  Zn  Zn5  1  0.05718000  0.54226000  0.90057000  1.0
  Zn  Zn6  1  0.94283000  0.54224000  0.01492000  1.0
  Zn  Zn7  1  0.05716000  0.51492000  0.04225000  1.0
  H  H8  1  0.92330000  0.20869000  0.90191000  1.0
  H  H9  1  0.07669000  0.40192000  0.70865000  1.0
  H  H10  1  0.92330000  0.09808000  0.79135000  1.0
  H  H11  1  0.07664000  0.29133000  0.59807000  1.0
  H  H12  1  0.07671000  0.67482000  0.21460000  1.0
  H  H13  1  0.92331000  0.71465000  0.17476000  1.0
  H  H14  1  0.07665000  0.78532000  0.32527000  1.0
  H  H15  1  0.92331000  0.82523000  0.28536000  1.0
  H  H16  1  0.61059000  0.20868000  0.21466000  1.0
  H  H17  1  0.61058000  0.40192000  0.17476000  1.0
  H  H18  1  0.38942000  0.09808000  0.32524000  1.0
  H  H19  1  0.38941000  0.29130000  0.28542000  1.0
  H  H20  1  0.38942000  0.71469000  0.70867000  1.0
  H  H21  1  0.38940000  0.67476000  0.90194000  1.0
  H  H22  1  0.61060000  0.82525000  0.59805000  1.0
  H  H23  1  0.61058000  0.78539000  0.79131000  1.0
  C  C24  1  0.18125000  0.09062000  0.40938000  1.0
  C  C25  1  0.00000000  0.86324000  0.63676000  1.0
  C  C26  1  0.99999000  0.09061000  0.59063000  1.0
  C  C27  1  0.81875000  0.90938000  0.59061000  1.0
  C  C28  1  1.00000000  0.13677000  0.36324000  1.0
  C  C29  1  1.00000000  0.90938000  0.40937000  1.0
  C  C30  1  1.00000000  0.40938000  0.90937000  1.0
  C  C31  1  1.00000000  0.63676000  0.86324000  1.0
  C  C32  1  0.81875000  0.40938000  0.09063000  1.0
  C  C33  1  1.00000000  0.59064000  0.09061000  1.0
  C  C34  1  1.00000000  0.36324000  0.13676000  1.0
  C  C35  1  0.18125000  0.59063000  0.90939000  1.0
  C  C36  1  1.00000000  0.19490000  0.30510000  1.0
  C  C37  1  0.00000000  0.30510000  0.19490000  1.0
  C  C38  1  0.95710000  0.18019000  0.27691000  1.0
  C  C39  1  0.04290000  0.31981000  0.22308000  1.0
  C  C40  1  0.95710000  0.23401000  0.22309000  1.0
  C  C41  1  0.04290000  0.26599000  0.27691000  1.0
  C  C42  1  1.00000000  0.80510000  0.69490000  1.0
  C  C43  1  0.00000000  0.69490000  0.80510000  1.0
  C  C44  1  0.95710000  0.77691000  0.76599000  1.0
  C  C45  1  0.04290000  0.72309000  0.73401000  1.0
  C  C46  1  0.95710000  0.72308000  0.81982000  1.0
  C  C47  1  0.04290000  0.77692000  0.68018000  1.0
  C  C48  1  1.00000000  0.37198000  0.87196000  1.0
  C  C49  1  0.95789000  0.29982000  0.90587000  1.0
  C  C50  1  0.95711000  0.26422000  0.87227000  1.0
  C  C51  1  0.99999000  0.30049000  0.80049000  1.0
  C  C52  1  0.04288000  0.37228000  0.76421000  1.0
  C  C53  1  0.04210000  0.40588000  0.79980000  1.0
  C  C54  1  0.99999000  0.26523000  0.76522000  1.0
  C  C55  1  0.99998000  0.23477000  0.73478000  1.0
  C  C56  1  0.99998000  0.19951000  0.69950000  1.0
  C  C57  1  0.95710000  0.12772000  0.73579000  1.0
  C  C58  1  0.95788000  0.09413000  0.70020000  1.0
  C  C59  1  0.99998000  0.12803000  0.62803000  1.0
  C  C60  1  0.04206000  0.20019000  0.59412000  1.0
  C  C61  1  0.04285000  0.23579000  0.62771000  1.0
  C  C62  1  0.00001000  0.62805000  0.12800000  1.0
  C  C63  1  0.04212000  0.63627000  0.15805000  1.0
  C  C64  1  0.04290000  0.67065000  0.19287000  1.0
  C  C65  1  1.00000000  0.69952000  0.19949000  1.0
  C  C66  1  0.95712000  0.69292000  0.17059000  1.0
  C  C67  1  0.95791000  0.65812000  0.13620000  1.0
  C  C68  1  0.99999000  0.73478000  0.23477000  1.0
  C  C69  1  0.99999000  0.76522000  0.26523000  1.0
  C  C70  1  0.99999000  0.80049000  0.30050000  1.0
  C  C71  1  0.04285000  0.80706000  0.32943000  1.0
  C  C72  1  0.04207000  0.84188000  0.36381000  1.0
  C  C73  1  0.99998000  0.87195000  0.37199000  1.0
  C  C74  1  0.95788000  0.86375000  0.34193000  1.0
  C  C75  1  0.95711000  0.82939000  0.30710000  1.0
  C  C76  1  0.74394000  0.37198000  0.12803000  1.0
  C  C77  1  0.70568000  0.29981000  0.15810000  1.0
  C  C78  1  0.63649000  0.26422000  0.19292000  1.0
  C  C79  1  0.60099000  0.30050000  0.19951000  1.0
  C  C80  1  0.63649000  0.37228000  0.17060000  1.0
  C  C81  1  0.70568000  0.40588000  0.13622000  1.0
  C  C82  1  0.53045000  0.26523000  0.23479000  1.0
  C  C83  1  0.46955000  0.23477000  0.26525000  1.0
  C  C84  1  0.39901000  0.19949000  0.30052000  1.0
  C  C85  1  0.36351000  0.12771000  0.32942000  1.0
  C  C86  1  0.29432000  0.09411000  0.36380000  1.0
  C  C87  1  0.25606000  0.12802000  0.37200000  1.0
  C  C88  1  0.29432000  0.20018000  0.34196000  1.0
  C  C89  1  0.36351000  0.23577000  0.30714000  1.0
  C  C90  1  0.25606000  0.62804000  0.87198000  1.0
  C  C91  1  0.29432000  0.65812000  0.79981000  1.0
  C  C92  1  0.36351000  0.69293000  0.76422000  1.0
  C  C93  1  0.39901000  0.69952000  0.80051000  1.0
  C  C94  1  0.36351000  0.67061000  0.87229000  1.0
  C  C95  1  0.29432000  0.63623000  0.90589000  1.0
  C  C96  1  0.46955000  0.73479000  0.76523000  1.0
  C  C97  1  0.53045000  0.76525000  0.73476000  1.0
  C  C98  1  0.60099000  0.80051000  0.69949000  1.0
  C  C99  1  0.63650000  0.82942000  0.62770000  1.0
  C  C100  1  0.70569000  0.86380000  0.59410000  1.0
  C  C101  1  0.74394000  0.87199000  0.62802000  1.0
  C  C102  1  0.70567000  0.84193000  0.70018000  1.0
  C  C103  1  0.63648000  0.80712000  0.73578000  1.0
  Br  Br104  1  0.89676000  0.08791000  0.30886000  1.0
  Br  Br105  1  0.10324000  0.41210000  0.19114000  1.0
  Br  Br106  1  0.89676000  0.20562000  0.19114000  1.0
  Br  Br107  1  0.10324000  0.29438000  0.30886000  1.0
  Br  Br108  1  0.89676000  0.80886000  0.79440000  1.0
  Br  Br109  1  0.10324000  0.69114000  0.70561000  1.0
  Br  Br110  1  0.89676000  0.69113000  0.91212000  1.0
  Br  Br111  1  0.10324000  0.80886000  0.58788000  1.0
  O  O112  1  0.00000000  0.00000000  0.50000000  1.0
  O  O113  1  0.15241000  0.12669000  0.41365000  1.0
  O  O114  1  0.03958000  0.88575000  0.57467000  1.0
  O  O115  1  0.95963000  0.02571000  0.62671000  1.0
  O  O116  1  0.15241000  0.02571000  0.43392000  1.0
  O  O117  1  0.04037000  0.12669000  0.52571000  1.0
  O  O118  1  0.96041000  0.88574000  0.65384000  1.0
  O  O119  1  0.84759000  0.91367000  0.62668000  1.0
  O  O120  1  0.96043000  0.07468000  0.38574000  1.0
  O  O121  1  0.84760000  0.93394000  0.52569000  1.0
  O  O122  1  0.03958000  0.15384000  0.38575000  1.0
  O  O123  1  0.04036000  0.91367000  0.43392000  1.0
  O  O124  1  0.95964000  0.93393000  0.41366000  1.0
  O  O125  1  1.00000000  0.50000000  0.00000000  1.0
  O  O126  1  0.95964000  0.37332000  0.97428000  1.0
  O  O127  1  0.03959000  0.61426000  0.84616000  1.0
  O  O128  1  0.84759000  0.47429000  0.06609000  1.0
  O  O129  1  0.04037000  0.47430000  0.87329000  1.0
  O  O130  1  0.84759000  0.37331000  0.08634000  1.0
  O  O131  1  0.96042000  0.61425000  0.92533000  1.0
  O  O132  1  0.95963000  0.58633000  0.06608000  1.0
  O  O133  1  0.03958000  0.42533000  0.11425000  1.0
  O  O134  1  0.04035000  0.56607000  0.08634000  1.0
  O  O135  1  0.96042000  0.34617000  0.11425000  1.0
  O  O136  1  0.15241000  0.58633000  0.87332000  1.0
  O  O137  1  0.15240000  0.56607000  0.97431000  1.0
  F  F138  1  0.91525000  0.26131000  0.97477000  1.0
  F  F139  1  0.08474000  0.47477000  0.76128000  1.0
  F  F140  1  0.91525000  0.02522000  0.73872000  1.0
  F  F141  1  0.08469000  0.23871000  0.52520000  1.0
  F  F142  1  0.08477000  0.61002000  0.15391000  1.0
  F  F143  1  0.91527000  0.65399000  0.10994000  1.0
  F  F144  1  0.08469000  0.84598000  0.39009000  1.0
  F  F145  1  0.91525000  0.89002000  0.34605000  1.0
  F  F146  1  0.73607000  0.26130000  0.15398000  1.0
  F  F147  1  0.73606000  0.47478000  0.10995000  1.0
  F  F148  1  0.26393000  0.02521000  0.39007000  1.0
  F  F149  1  0.26393000  0.23868000  0.34610000  1.0
  F  F150  1  0.26394000  0.65402000  0.76129000  1.0
  F  F151  1  0.26392000  0.60994000  0.97480000  1.0
  F  F152  1  0.73608000  0.89006000  0.52520000  1.0
  F  F153  1  0.73606000  0.84606000  0.73869000  1.0
