# generated using pymatgen
data_Zn2H19C29N9
_symmetry_space_group_name_H-M   'P 1'
_cell_length_a   14.91540000
_cell_length_b   14.95130000
_cell_length_c   14.96480954
_cell_angle_alpha   111.56564010
_cell_angle_beta   104.93831456
_cell_angle_gamma   111.69700000
_symmetry_Int_Tables_number   1
_chemical_formula_structural   Zn2H19C29N9
_chemical_formula_sum   'Zn4 H38 C58 N18'
_cell_volume   2567.07919445
_cell_formula_units_Z   2
loop_
 _symmetry_equiv_pos_site_id
 _symmetry_equiv_pos_as_xyz
  1  'x, y, z'
loop_
 _atom_site_type_symbol
 _atom_site_label
 _atom_site_symmetry_multiplicity
 _atom_site_fract_x
 _atom_site_fract_y
 _atom_site_fract_z
 _atom_site_occupancy
  Zn  Zn0  1  0.50069000  0.86089000  0.35896000  1.0
  Zn  Zn1  1  0.62769000  0.13171000  0.48889000  1.0
  Zn  Zn2  1  0.49593000  0.13667000  0.63353000  1.0
  Zn  Zn3  1  0.36207000  0.86166000  0.49533000  1.0
  H  H4  1  0.31641000  0.80306000  0.14395000  1.0
  H  H5  1  0.84620000  0.18169000  0.44150000  1.0
  H  H6  1  0.95822000  0.46228000  0.14147000  1.0
  H  H7  1  0.89879000  0.23411000  0.02571000  1.0
  H  H8  1  0.04825000  0.30095000  0.85159000  1.0
  H  H9  1  0.10885000  0.53023000  0.96799000  1.0
  H  H10  1  0.98649000  0.82354000  0.24909000  1.0
  H  H11  1  0.36772000  0.15150000  0.97781000  1.0
  H  H12  1  0.82136000  0.82327000  0.23479000  1.0
  H  H13  1  0.37925000  0.14832000  0.14137000  1.0
  H  H14  1  0.04963000  0.25492000  0.54172000  1.0
  H  H15  1  0.21985000  0.70042000  0.92685000  1.0
  H  H16  1  0.03787000  0.27501000  0.42947000  1.0
  H  H17  1  0.36324000  0.75922000  0.97905000  1.0
  H  H18  1  0.21964000  0.25531000  0.55726000  1.0
  H  H19  1  0.21121000  0.70451000  0.75925000  1.0
  H  H20  1  0.20957000  0.27551000  0.44519000  1.0
  H  H21  1  0.35469000  0.76400000  0.81252000  1.0
  H  H22  1  0.64245000  0.78327000  0.78489000  1.0
  H  H23  1  0.64956000  0.62610000  0.79287000  1.0
  H  H24  1  0.33219000  0.18260000  0.49833000  1.0
  H  H25  1  0.27185000  0.81000000  0.66177000  1.0
  H  H26  1  0.73721000  0.52690000  0.45056000  1.0
  H  H27  1  0.57303000  0.59701000  0.38608000  1.0
  H  H28  1  0.71309000  0.38783000  0.52485000  1.0
  H  H29  1  0.69138000  0.84949000  0.50062000  1.0
  H  H30  1  0.13965000  0.61055000  0.31635000  1.0
  H  H31  1  0.67323000  0.19131000  0.85080000  1.0
  H  H32  1  0.54491000  0.40603000  0.72155000  1.0
  H  H33  1  0.49790000  0.82375000  0.67288000  1.0
  H  H34  1  0.33089000  0.60455000  0.14303000  1.0
  H  H35  1  0.85441000  0.19560000  0.66620000  1.0
  H  H36  1  0.14665000  0.81840000  0.32052000  1.0
  H  H37  1  0.44750000  0.17312000  0.85054000  1.0
  H  H38  1  0.48752000  0.16685000  0.31164000  1.0
  H  H39  1  0.67723000  0.81881000  0.27567000  1.0
  H  H40  1  0.89427000  0.45948000  0.94377000  1.0
  H  H41  1  0.11137000  0.30346000  0.04818000  1.0
  C  C42  1  0.36760000  0.89304000  0.20036000  1.0
  C  C43  1  0.79014000  0.09233000  0.40360000  1.0
  C  C44  1  0.19592000  0.00118000  0.38807000  1.0
  C  C45  1  0.34889000  0.98934000  0.79451000  1.0
  C  C46  1  0.64064000  0.44674000  0.63281000  1.0
  C  C47  1  0.61737000  0.81490000  0.60749000  1.0
  C  C48  1  0.19416000  0.56218000  0.18834000  1.0
  C  C49  1  0.80801000  0.22045000  0.80191000  1.0
  C  C50  1  0.97808000  0.42636000  0.07661000  1.0
  C  C51  1  0.94516000  0.30030000  0.01277000  1.0
  C  C52  1  0.94431000  0.42668000  0.96882000  1.0
  C  C53  1  0.06269000  0.33805000  0.02454000  1.0
  C  C54  1  0.90965000  0.29889000  0.90289000  1.0
  C  C55  1  0.09644000  0.46585000  0.08972000  1.0
  C  C56  1  0.02806000  0.33740000  0.91595000  1.0
  C  C57  1  0.06087000  0.46334000  0.97944000  1.0
  C  C58  1  0.09269000  0.10166000  0.39881000  1.0
  C  C59  1  0.30794000  0.88545000  0.89046000  1.0
  C  C60  1  0.09628000  0.00349000  0.35480000  1.0
  C  C61  1  0.33294000  0.98201000  0.88411000  1.0
  C  C62  1  0.99242000  0.90435000  0.28973000  1.0
  C  C63  1  0.35267000  0.07405000  0.97737000  1.0
  C  C64  1  0.30139000  0.09326000  0.46323000  1.0
  C  C65  1  0.31874000  0.89979000  0.69425000  1.0
  C  C66  1  0.89707000  0.90419000  0.28121000  1.0
  C  C67  1  0.35855000  0.07213000  0.07126000  1.0
  C  C68  1  0.89593000  0.00333667  0.33667000  1.0
  C  C69  1  0.34505000  0.97744000  0.08043000  1.0
  C  C70  1  0.99721000  0.10147000  0.39020000  1.0
  C  C71  1  0.31324000  0.88311000  0.98390000  1.0
  C  C72  1  0.05591000  0.22775000  0.46566000  1.0
  C  C73  1  0.29500000  0.76523000  0.93756000  1.0
  C  C74  1  0.16398000  0.22805000  0.47549000  1.0
  C  C75  1  0.28936000  0.76801000  0.83187000  1.0
  C  C76  1  0.66636000  0.66870000  0.56028000  1.0
  C  C77  1  0.66936000  0.57860000  0.56431000  1.0
  C  C78  1  0.65057000  0.74390000  0.63380000  1.0
  C  C79  1  0.65748000  0.55290000  0.64283000  1.0
  C  C80  1  0.64978000  0.72608000  0.72040000  1.0
  C  C81  1  0.65325000  0.63535000  0.72465000  1.0
  C  C82  1  0.66331000  0.52515000  0.45233000  1.0
  C  C83  1  0.65415000  0.62634000  0.44557000  1.0
  C  C84  1  0.66746000  0.37468000  0.56949000  1.0
  C  C85  1  0.63424000  0.84807000  0.53357000  1.0
  C  C86  1  0.20186000  0.62531000  0.28932000  1.0
  C  C87  1  0.70206000  0.18401000  0.79021000  1.0
  C  C88  1  0.58332000  0.38451000  0.67117000  1.0
  C  C89  1  0.53703000  0.83739000  0.62325000  1.0
  C  C90  1  0.29913000  0.62194000  0.20103000  1.0
  C  C91  1  0.79431000  0.18635000  0.69599000  1.0
  C  C92  1  0.20686000  0.90749000  0.37202000  1.0
  C  C93  1  0.40732000  0.08476000  0.79000000  1.0
  C  C94  1  0.45481000  0.07884000  0.28666000  1.0
  C  C95  1  0.70351000  0.90732000  0.31790000  1.0
  C  C96  1  0.38011000  0.98270000  0.18359000  1.0
  C  C97  1  0.80121000  0.00106000  0.34806000  1.0
  C  C98  1  0.56847000  0.41560000  0.37096000  1.0
  C  C99  1  0.73545000  0.69279000  0.42419000  1.0
  N  N100  1  0.43173000  0.93351000  0.30437000  1.0
  N  N101  1  0.69419000  0.05570000  0.40623000  1.0
  N  N102  1  0.36778000  0.05635000  0.49101000  1.0
  N  N103  1  0.35585000  0.93872000  0.63550000  1.0
  N  N104  1  0.62955000  0.27867000  0.57041000  1.0
  N  N105  1  0.56708000  0.88410000  0.50626000  1.0
  N  N106  1  0.30303000  0.71537000  0.35653000  1.0
  N  N107  1  0.63183000  0.13425000  0.68551000  1.0
  N  N108  1  0.57682000  0.28437000  0.63346000  1.0
  N  N109  1  0.50722000  0.87717000  0.56087000  1.0
  N  N110  1  0.36372000  0.71309000  0.30139000  1.0
  N  N111  1  0.68843000  0.13561000  0.62751000  1.0
  N  N112  1  0.30964000  0.94219000  0.43481000  1.0
  N  N113  1  0.41140000  0.05407000  0.69504000  1.0
  N  N114  1  0.48566000  0.04767000  0.35729000  1.0
  N  N115  1  0.64030000  0.94035000  0.35256000  1.0
  N  N116  1  0.48960000  0.32955000  0.30558000  1.0
  N  N117  1  0.80017000  0.74445000  0.40517000  1.0
