# generated using pymatgen
data_ZnH8C9SN2
_symmetry_space_group_name_H-M   'P 1'
_cell_length_a   7.33052000
_cell_length_b   9.72681000
_cell_length_c   12.59990000
_cell_angle_alpha   89.99990000
_cell_angle_beta   89.99970000
_cell_angle_gamma   89.99910000
_symmetry_Int_Tables_number   1
_chemical_formula_structural   ZnH8C9SN2
_chemical_formula_sum   'Zn4 H32 C36 S4 N8'
_cell_volume   898.40531766
_cell_formula_units_Z   4
loop_
 _symmetry_equiv_pos_site_id
 _symmetry_equiv_pos_as_xyz
  1  'x, y, z'
loop_
 _atom_site_type_symbol
 _atom_site_label
 _atom_site_symmetry_multiplicity
 _atom_site_fract_x
 _atom_site_fract_y
 _atom_site_fract_z
 _atom_site_occupancy
  Zn  Zn0  1  0.72250000  0.78420000  0.86168000  1.0
  Zn  Zn1  1  0.22251000  0.21580000  0.13832000  1.0
  Zn  Zn2  1  0.72251000  0.28420000  0.13832000  1.0
  Zn  Zn3  1  0.22251000  0.71580000  0.86168000  1.0
  H  H4  1  0.19596000  0.98156000  0.78175000  1.0
  H  H5  1  0.69597000  0.01844000  0.21824000  1.0
  H  H6  1  0.19597000  0.48156000  0.21825000  1.0
  H  H7  1  0.69596000  0.51845000  0.78176000  1.0
  H  H8  1  0.20669000  0.20332000  0.68608000  1.0
  H  H9  1  0.70670000  0.79666000  0.31391000  1.0
  H  H10  1  0.20670000  0.70333000  0.31392000  1.0
  H  H11  1  0.70670000  0.29667000  0.68609000  1.0
  H  H12  1  0.99067000  0.24951000  0.53743000  1.0
  H  H13  1  0.49068000  0.75048000  0.46256000  1.0
  H  H14  1  0.99068000  0.74951000  0.46257000  1.0
  H  H15  1  0.49068000  0.25048000  0.53745000  1.0
  H  H16  1  0.76537000  0.06908000  0.48456000  1.0
  H  H17  1  0.26539000  0.93092000  0.51543000  1.0
  H  H18  1  0.76538000  0.56908000  0.51544000  1.0
  H  H19  1  0.26538000  0.43092000  0.48457000  1.0
  H  H20  1  0.75529000  0.84730000  0.58059000  1.0
  H  H21  1  0.25530000  0.15270000  0.41941000  1.0
  H  H22  1  0.75529000  0.34731000  0.41941000  1.0
  H  H23  1  0.25529000  0.65269000  0.58059000  1.0
  H  H24  1  0.57873000  0.07390000  0.76790000  1.0
  H  H25  1  0.07874000  0.92612000  0.23210000  1.0
  H  H26  1  0.57872000  0.57389000  0.23210000  1.0
  H  H27  1  0.07874000  0.42612000  0.76790000  1.0
  H  H28  1  0.56658000  0.30273000  0.89985000  1.0
  H  H29  1  0.06659000  0.69728000  0.10015000  1.0
  H  H30  1  0.56657000  0.80273000  0.10015000  1.0
  H  H31  1  0.06658000  0.19728000  0.89985000  1.0
  H  H32  1  0.83154000  0.97671000  0.05861000  1.0
  H  H33  1  0.33154000  0.02329000  0.94139000  1.0
  H  H34  1  0.83154000  0.47671000  0.94139000  1.0
  H  H35  1  0.33154000  0.52329000  0.05861000  1.0
  C  C36  1  0.97679000  0.89871000  0.68676000  1.0
  C  C37  1  0.47680000  0.10129000  0.31324000  1.0
  C  C38  1  0.97680000  0.39871000  0.31324000  1.0
  C  C39  1  0.47679000  0.60129000  0.68676000  1.0
  C  C40  1  0.10170000  0.00060000  0.71668000  1.0
  C  C41  1  0.60171000  0.99940000  0.28331000  1.0
  C  C42  1  0.10172000  0.50061000  0.28332000  1.0
  C  C43  1  0.60171000  0.49940000  0.71669000  1.0
  C  C44  1  0.10681000  0.12588000  0.66286000  1.0
  C  C45  1  0.60682000  0.87411000  0.33713000  1.0
  C  C46  1  0.10682000  0.62588000  0.33714000  1.0
  C  C47  1  0.60681000  0.37412000  0.66286000  1.0
  C  C48  1  0.98620000  0.15159000  0.57941000  1.0
  C  C49  1  0.48621000  0.84840000  0.42059000  1.0
  C  C50  1  0.98621000  0.65160000  0.42059000  1.0
  C  C51  1  0.48621000  0.34840000  0.57942000  1.0
  C  C52  1  0.85971000  0.05102000  0.55002000  1.0
  C  C53  1  0.35972000  0.94898000  0.44998000  1.0
  C  C54  1  0.85972000  0.55102000  0.44998000  1.0
  C  C55  1  0.35973000  0.44898000  0.55003000  1.0
  C  C56  1  0.85485000  0.92520000  0.60324000  1.0
  C  C57  1  0.35486000  0.07480000  0.39675000  1.0
  C  C58  1  0.85485000  0.42520000  0.39676000  1.0
  C  C59  1  0.35485000  0.57480000  0.60324000  1.0
  C  C60  1  0.62801000  0.08773000  0.84837000  1.0
  C  C61  1  0.12802000  0.91228000  0.15163000  1.0
  C  C62  1  0.62800000  0.58772000  0.15163000  1.0
  C  C63  1  0.12802000  0.41228000  0.84837000  1.0
  C  C64  1  0.62382000  0.20152000  0.91355000  1.0
  C  C65  1  0.12382000  0.79849000  0.08645000  1.0
  C  C66  1  0.62382000  0.70151000  0.08645000  1.0
  C  C67  1  0.12382000  0.29849000  0.91355000  1.0
  C  C68  1  0.75867000  0.03458000  0.99828000  1.0
  C  C69  1  0.25868000  0.96543000  0.00172000  1.0
  C  C70  1  0.75867000  0.53458000  0.00172000  1.0
  C  C71  1  0.25867000  0.46542000  0.99828000  1.0
  S  S72  1  0.96710000  0.73508000  0.74944000  1.0
  S  S73  1  0.46711000  0.26492000  0.25056000  1.0
  S  S74  1  0.96711000  0.23508000  0.25056000  1.0
  S  S75  1  0.46710000  0.76492000  0.74944000  1.0
  N  N76  1  0.71293000  0.98225000  0.90305000  1.0
  N  N77  1  0.21294000  0.01776000  0.09695000  1.0
  N  N78  1  0.71293000  0.48224000  0.09695000  1.0
  N  N79  1  0.21294000  0.51776000  0.90306000  1.0
  N  N80  1  0.70722000  0.16709000  0.00844000  1.0
  N  N81  1  0.20722000  0.83292000  0.99156000  1.0
  N  N82  1  0.70721000  0.66708000  0.99156000  1.0
  N  N83  1  0.20721000  0.33292000  0.00844000  1.0
