# generated using pymatgen
data_CdH20C20(NO)4
_symmetry_space_group_name_H-M   'P 1'
_cell_length_a   8.38481000
_cell_length_b   8.87111000
_cell_length_c   14.80790000
_cell_angle_alpha   82.81090000
_cell_angle_beta   77.38770000
_cell_angle_gamma   68.85230000
_symmetry_Int_Tables_number   1
_chemical_formula_structural   CdH20C20(NO)4
_chemical_formula_sum   'Cd2 H40 C40 N8 O8'
_cell_volume   1001.18094471
_cell_formula_units_Z   2
loop_
 _symmetry_equiv_pos_site_id
 _symmetry_equiv_pos_as_xyz
  1  'x, y, z'
loop_
 _atom_site_type_symbol
 _atom_site_label
 _atom_site_symmetry_multiplicity
 _atom_site_fract_x
 _atom_site_fract_y
 _atom_site_fract_z
 _atom_site_occupancy
  Cd  Cd0  1  0.00167000  0.94432000  0.24467000  1.0
  Cd  Cd1  1  0.99833000  0.05568000  0.75533000  1.0
  H  H2  1  0.53464000  0.96910000  0.19583000  1.0
  H  H3  1  0.46536000  0.03090000  0.80417000  1.0
  H  H4  1  0.05807000  0.35398000  0.28775000  1.0
  H  H5  1  0.94193000  0.64602000  0.71225000  1.0
  H  H6  1  0.10817000  0.51433000  0.14075000  1.0
  H  H7  1  0.89183000  0.48567000  0.85925000  1.0
  H  H8  1  0.36837000  0.40152000  0.02014000  1.0
  H  H9  1  0.63163000  0.59848000  0.97986000  1.0
  H  H10  1  0.99313000  0.82953000  0.95087000  1.0
  H  H11  1  0.00686000  0.17047000  0.04913000  1.0
  H  H12  1  0.60398000  0.27194000  0.90036000  1.0
  H  H13  1  0.39601000  0.72806000  0.09964000  1.0
  H  H14  1  0.09959000  0.79168000  0.45689000  1.0
  H  H15  1  0.90040000  0.20833000  0.54311000  1.0
  H  H16  1  0.39827000  0.09494000  0.43959000  1.0
  H  H17  1  0.60173000  0.90506000  0.56041000  1.0
  H  H18  1  0.55693000  0.75227000  0.30825000  1.0
  H  H19  1  0.44308000  0.24773000  0.69175000  1.0
  H  H20  1  0.80979000  0.48917000  0.17909000  1.0
  H  H21  1  0.19021000  0.51083000  0.82091000  1.0
  H  H22  1  0.66495000  0.67780000  0.14600000  1.0
  H  H23  1  0.33506000  0.32220000  0.85400000  1.0
  H  H24  1  0.41130000  0.60001000  0.22742000  1.0
  H  H25  1  0.58870000  0.39999000  0.77259000  1.0
  H  H26  1  0.55113000  0.45022000  0.14914000  1.0
  H  H27  1  0.44887000  0.54979000  0.85086000  1.0
  H  H28  1  0.43838000  0.33953000  0.30385000  1.0
  H  H29  1  0.56161000  0.66047000  0.69615000  1.0
  H  H30  1  0.41666000  0.55190000  0.39966000  1.0
  H  H31  1  0.58335000  0.44810000  0.60034000  1.0
  H  H32  1  0.55083000  0.36498000  0.44216000  1.0
  H  H33  1  0.44917000  0.63502000  0.55784000  1.0
  H  H34  1  0.68268000  0.58047000  0.43691000  1.0
  H  H35  1  0.31732000  0.41953000  0.56309000  1.0
  H  H36  1  0.81647000  0.42680000  0.36197000  1.0
  H  H37  1  0.18353000  0.57320000  0.63803000  1.0
  H  H38  1  0.77299000  0.89540000  0.10247000  1.0
  H  H39  1  0.22701000  0.10460000  0.89753000  1.0
  H  H40  1  0.27017000  0.89692000  0.54525000  1.0
  H  H41  1  0.72983000  0.10308000  0.45475000  1.0
  C  C42  1  0.47077000  0.17607000  0.09882000  1.0
  C  C43  1  0.52923000  0.82392000  0.90118000  1.0
  C  C44  1  0.44107000  0.08794000  0.18248000  1.0
  C  C45  1  0.55893000  0.91206000  0.81753000  1.0
  C  C46  1  0.29253000  0.14966000  0.25014000  1.0
  C  C47  1  0.70747000  0.85034000  0.74986000  1.0
  C  C48  1  0.17248000  0.30393000  0.23470000  1.0
  C  C49  1  0.82752000  0.69607000  0.76530000  1.0
  C  C50  1  0.20086000  0.39352000  0.15197000  1.0
  C  C51  1  0.79914000  0.60648000  0.84803000  1.0
  C  C52  1  0.34763000  0.33007000  0.08431000  1.0
  C  C53  1  0.65237000  0.66993000  0.91569000  1.0
  C  C54  1  0.87482000  0.93430000  0.96117000  1.0
  C  C55  1  0.12518000  0.06570000  0.03883000  1.0
  C  C56  1  0.67191000  0.16343000  0.93805000  1.0
  C  C57  1  0.32809000  0.83657000  0.06195000  1.0
  C  C58  1  0.62418000  0.10907000  0.02824000  1.0
  C  C59  1  0.37581000  0.89093000  0.97176000  1.0
  C  C60  1  0.16671000  0.87636000  0.42882000  1.0
  C  C61  1  0.83329000  0.12364000  0.57118000  1.0
  C  C62  1  0.32027000  0.03642000  0.41824000  1.0
  C  C63  1  0.67973000  0.96358000  0.58176000  1.0
  C  C64  1  0.26334000  0.05027000  0.33593000  1.0
  C  C65  1  0.73666000  0.94973000  0.66407000  1.0
  C  C66  1  0.68162000  0.65063000  0.29168000  1.0
  C  C67  1  0.31838000  0.34937000  0.70832000  1.0
  C  C68  1  0.68207000  0.58176000  0.20140000  1.0
  C  C69  1  0.31793000  0.41824000  0.79860000  1.0
  C  C70  1  0.54133000  0.50577000  0.21327000  1.0
  C  C71  1  0.45867000  0.49423000  0.78674000  1.0
  C  C72  1  0.55133000  0.37959000  0.29430000  1.0
  C  C73  1  0.44867000  0.62041000  0.70570000  1.0
  C  C74  1  0.54411000  0.45497000  0.38376000  1.0
  C  C75  1  0.45589000  0.54503000  0.61624000  1.0
  C  C76  1  0.68931000  0.52531000  0.37325000  1.0
  C  C77  1  0.31069000  0.47469000  0.62675000  1.0
  C  C78  1  0.82060000  0.72819000  0.27959000  1.0
  C  C79  1  0.17941000  0.27181000  0.72042000  1.0
  C  C80  1  0.71000000  0.22590000  0.27617000  1.0
  C  C81  1  0.29000000  0.77410000  0.72383000  1.0
  N  N82  1  0.75564000  0.96329000  0.04040000  1.0
  N  N83  1  0.24436000  0.03670000  0.95960000  1.0
  N  N84  1  0.82726000  0.05388000  0.89740000  1.0
  N  N85  1  0.17273000  0.94612000  0.10260000  1.0
  N  N86  1  0.16744000  0.94831000  0.34394000  1.0
  N  N87  1  0.83256000  0.05169000  0.65605000  1.0
  N  N88  1  0.25849000  0.92674000  0.47533000  1.0
  N  N89  1  0.74151000  0.07326000  0.52468000  1.0
  O  O90  1  0.90151000  0.72097000  0.34304000  1.0
  O  O91  1  0.09849000  0.27902000  0.65696000  1.0
  O  O92  1  0.84722000  0.80748000  0.20115000  1.0
  O  O93  1  0.15278000  0.19252000  0.79885000  1.0
  O  O94  1  0.80751000  0.20383000  0.19693000  1.0
  O  O95  1  0.19249000  0.79617000  0.80307000  1.0
  O  O96  1  0.74017000  0.11837000  0.34314000  1.0
  O  O97  1  0.25983000  0.88163000  0.65686000  1.0
