# generated using pymatgen
data_NdH13C3NCl3O5
_symmetry_space_group_name_H-M   'P 1'
_cell_length_a   5.99676000
_cell_length_b   11.10390000
_cell_length_c   16.43100000
_cell_angle_alpha   89.99980000
_cell_angle_beta   89.99990000
_cell_angle_gamma   93.96430000
_symmetry_Int_Tables_number   1
_chemical_formula_structural   NdH13C3NCl3O5
_chemical_formula_sum   'Nd4 H52 C12 N4 Cl12 O20'
_cell_volume   1091.48012771
_cell_formula_units_Z   4
loop_
 _symmetry_equiv_pos_site_id
 _symmetry_equiv_pos_as_xyz
  1  'x, y, z'
loop_
 _atom_site_type_symbol
 _atom_site_label
 _atom_site_symmetry_multiplicity
 _atom_site_fract_x
 _atom_site_fract_y
 _atom_site_fract_z
 _atom_site_occupancy
  Nd  Nd0  1  0.91500000  0.74940000  0.14597000  1.0
  Nd  Nd1  1  0.58499000  0.75061000  0.64597000  1.0
  Nd  Nd2  1  0.08501000  0.25061000  0.85403000  1.0
  Nd  Nd3  1  0.41500000  0.24940000  0.35403000  1.0
  H  H4  1  0.57706000  0.82795000  0.35748000  1.0
  H  H5  1  0.92294000  0.67205000  0.85748000  1.0
  H  H6  1  0.42294000  0.17205000  0.64253000  1.0
  H  H7  1  0.07706000  0.32794000  0.14252000  1.0
  H  H8  1  0.60904000  0.67202000  0.35239000  1.0
  H  H9  1  0.89095000  0.82798000  0.85238000  1.0
  H  H10  1  0.39096000  0.32798000  0.64762000  1.0
  H  H11  1  0.10904000  0.17201000  0.14762000  1.0
  H  H12  1  0.36809000  0.70710000  0.46786000  1.0
  H  H13  1  0.13190000  0.79290000  0.96785000  1.0
  H  H14  1  0.63189000  0.29290000  0.53215000  1.0
  H  H15  1  0.86809000  0.20709000  0.03215000  1.0
  H  H16  1  0.20508000  0.62777000  0.39276000  1.0
  H  H17  1  0.29492000  0.87223000  0.89275000  1.0
  H  H18  1  0.79492000  0.37223000  0.60724000  1.0
  H  H19  1  0.70507000  0.12776000  0.10725000  1.0
  H  H20  1  0.00629000  0.78525000  0.44950000  1.0
  H  H21  1  0.49370000  0.71475000  0.94949000  1.0
  H  H22  1  0.99371000  0.21476000  0.55050000  1.0
  H  H23  1  0.50629000  0.28525000  0.05050000  1.0
  H  H24  1  0.20384000  0.89325000  0.42793000  1.0
  H  H25  1  0.29615000  0.60675000  0.92794000  1.0
  H  H26  1  0.79616000  0.10675000  0.57206000  1.0
  H  H27  1  0.70385000  0.39325000  0.07206000  1.0
  H  H28  1  0.06881000  0.81956000  0.35138000  1.0
  H  H29  1  0.43119000  0.68044000  0.85138000  1.0
  H  H30  1  0.93120000  0.18044000  0.64862000  1.0
  H  H31  1  0.56881000  0.31956000  0.14863000  1.0
  H  H32  1  0.21963000  0.56231000  0.06349000  1.0
  H  H33  1  0.28037000  0.93769000  0.56348000  1.0
  H  H34  1  0.78038000  0.43769000  0.93652000  1.0
  H  H35  1  0.71964000  0.06231000  0.43652000  1.0
  H  H36  1  0.36601000  0.65423000  0.12117000  1.0
  H  H37  1  0.13399000  0.84577000  0.62117000  1.0
  H  H38  1  0.63400000  0.34577000  0.87883000  1.0
  H  H39  1  0.86602000  0.15423000  0.37883000  1.0
  H  H40  1  0.73475000  0.51579000  0.24586000  1.0
  H  H41  1  0.76524000  0.98421000  0.74586000  1.0
  H  H42  1  0.26525000  0.48421000  0.75414000  1.0
  H  H43  1  0.23476000  0.01579000  0.25414000  1.0
  H  H44  1  0.00444000  0.51667000  0.24660000  1.0
  H  H45  1  0.49556000  0.98333000  0.74660000  1.0
  H  H46  1  0.99556000  0.48333000  0.75339000  1.0
  H  H47  1  0.50444000  0.01667000  0.25339000  1.0
  H  H48  1  0.19325000  0.97270000  0.06083000  1.0
  H  H49  1  0.30674000  0.52730000  0.56082000  1.0
  H  H50  1  0.80675000  0.02730000  0.93917000  1.0
  H  H51  1  0.69326000  0.47270000  0.43917000  1.0
  H  H52  1  0.37129000  0.88638000  0.08741000  1.0
  H  H53  1  0.12871000  0.61361000  0.58741000  1.0
  H  H54  1  0.62871000  0.11362000  0.91259000  1.0
  H  H55  1  0.87129000  0.38639000  0.41259000  1.0
  C  C56  1  0.40588000  0.73977000  0.25810000  1.0
  C  C57  1  0.09410000  0.76022000  0.75810000  1.0
  C  C58  1  0.59412000  0.26022000  0.74190000  1.0
  C  C59  1  0.90590000  0.23977000  0.24190000  1.0
  C  C60  1  0.48607000  0.74007000  0.34536000  1.0
  C  C61  1  0.01392000  0.75992000  0.84536000  1.0
  C  C62  1  0.51393000  0.25992000  0.65465000  1.0
  C  C63  1  0.98608000  0.24007000  0.15464000  1.0
  C  C64  1  0.29919000  0.71358000  0.40664000  1.0
  C  C65  1  0.20080000  0.78642000  0.90663000  1.0
  C  C66  1  0.70080000  0.28642000  0.59337000  1.0
  C  C67  1  0.79919000  0.21358000  0.09337000  1.0
  N  N68  1  0.13474000  0.80875000  0.40903000  1.0
  N  N69  1  0.36526000  0.69125000  0.90903000  1.0
  N  N70  1  0.86526000  0.19125000  0.59097000  1.0
  N  N71  1  0.63474000  0.30875000  0.09097000  1.0
  Cl  Cl72  1  0.75037000  0.58010000  0.02733000  1.0
  Cl  Cl73  1  0.74963000  0.91991000  0.52733000  1.0
  Cl  Cl74  1  0.24963000  0.41990000  0.97267000  1.0
  Cl  Cl75  1  0.25037000  0.08010000  0.47267000  1.0
  Cl  Cl76  1  0.70374000  0.88606000  0.02726000  1.0
  Cl  Cl77  1  0.79626000  0.61394000  0.52726000  1.0
  Cl  Cl78  1  0.29626000  0.11394000  0.97274000  1.0
  Cl  Cl79  1  0.20374000  0.38606000  0.47274000  1.0
  Cl  Cl80  1  0.85812000  0.95188000  0.24872000  1.0
  Cl  Cl81  1  0.64188000  0.54812000  0.74872000  1.0
  Cl  Cl82  1  0.14189000  0.04813000  0.75128000  1.0
  Cl  Cl83  1  0.35811000  0.45188000  0.25128000  1.0
  O  O84  1  0.53994000  0.72528000  0.19921000  1.0
  O  O85  1  0.96005000  0.77473000  0.69920000  1.0
  O  O86  1  0.46006000  0.27473000  0.80080000  1.0
  O  O87  1  0.03995000  0.22527000  0.30080000  1.0
  O  O88  1  0.20047000  0.75606000  0.24725000  1.0
  O  O89  1  0.29953000  0.74394000  0.74725000  1.0
  O  O90  1  0.79955000  0.24394000  0.75275000  1.0
  O  O91  1  0.70048000  0.25607000  0.25275000  1.0
  O  O92  1  0.22600000  0.64262000  0.08925000  1.0
  O  O93  1  0.27399000  0.85738000  0.58925000  1.0
  O  O94  1  0.77400000  0.35738000  0.91075000  1.0
  O  O95  1  0.72601000  0.14262000  0.41075000  1.0
  O  O96  1  0.87519000  0.56189000  0.23105000  1.0
  O  O97  1  0.62481000  0.93811000  0.73105000  1.0
  O  O98  1  0.12481000  0.43811000  0.76895000  1.0
  O  O99  1  0.37520000  0.06190000  0.26895000  1.0
  O  O100  1  0.21520000  0.90496000  0.09824000  1.0
  O  O101  1  0.28479000  0.59504000  0.59824000  1.0
  O  O102  1  0.78480000  0.09504000  0.90176000  1.0
  O  O103  1  0.71521000  0.40497000  0.40176000  1.0
