# generated using pymatgen
data_ZnH18C13(NO2)2
_symmetry_space_group_name_H-M   'P 1'
_cell_length_a   10.40100000
_cell_length_b   17.45665000
_cell_length_c   17.45680000
_cell_angle_alpha   120.00085273
_cell_angle_beta   90.00000000
_cell_angle_gamma   90.00000000
_symmetry_Int_Tables_number   1
_chemical_formula_structural   ZnH18C13(NO2)2
_chemical_formula_sum   'Zn6 H108 C78 N12 O24'
_cell_volume   2744.90638305
_cell_formula_units_Z   6
loop_
 _symmetry_equiv_pos_site_id
 _symmetry_equiv_pos_as_xyz
  1  'x, y, z'
loop_
 _atom_site_type_symbol
 _atom_site_label
 _atom_site_symmetry_multiplicity
 _atom_site_fract_x
 _atom_site_fract_y
 _atom_site_fract_z
 _atom_site_occupancy
  Zn  Zn0  1  0.88566000  0.45651000  0.53478000  1.0
  Zn  Zn1  1  0.71904000  0.53483000  0.07830000  1.0
  Zn  Zn2  1  0.55250000  0.07828000  0.54346000  1.0
  Zn  Zn3  1  0.38566000  0.54349000  0.46522000  1.0
  Zn  Zn4  1  0.21904000  0.46517000  0.92170000  1.0
  Zn  Zn5  1  0.05250000  0.92172000  0.45654000  1.0
  H  H6  1  0.77972000  0.52017000  0.44839000  1.0
  H  H7  1  0.61313000  0.44843000  0.92827000  1.0
  H  H8  1  0.44659000  0.92825000  0.47982000  1.0
  H  H9  1  0.27972000  0.47983000  0.55161000  1.0
  H  H10  1  0.11313000  0.55157000  0.07173000  1.0
  H  H11  1  0.94659000  0.07175000  0.52018000  1.0
  H  H12  1  0.00347000  0.38644000  0.20831000  1.0
  H  H13  1  0.83696000  0.20840000  0.82189000  1.0
  H  H14  1  0.67025000  0.82187000  0.61351000  1.0
  H  H15  1  0.50347000  0.61356000  0.79169000  1.0
  H  H16  1  0.33696000  0.79160000  0.17811000  1.0
  H  H17  1  0.17025000  0.17813000  0.38649000  1.0
  H  H18  1  0.00234000  0.52605000  0.36761000  1.0
  H  H19  1  0.83574000  0.36764000  0.84160000  1.0
  H  H20  1  0.66924000  0.84159000  0.47396000  1.0
  H  H21  1  0.50234000  0.47395000  0.63239000  1.0
  H  H22  1  0.33574000  0.63236000  0.15840000  1.0
  H  H23  1  0.16924000  0.15841000  0.52604000  1.0
  H  H24  1  0.94095000  0.44070000  0.10416000  1.0
  H  H25  1  0.77443000  0.10422000  0.66348000  1.0
  H  H26  1  0.60767000  0.66349000  0.55937000  1.0
  H  H27  1  0.44095000  0.55930000  0.89584000  1.0
  H  H28  1  0.27443000  0.89578000  0.33652000  1.0
  H  H29  1  0.10767000  0.33651000  0.44063000  1.0
  H  H30  1  0.78399000  0.36445000  0.35743000  1.0
  H  H31  1  0.61744000  0.35744000  0.99299000  1.0
  H  H32  1  0.45084000  0.99298000  0.63553000  1.0
  H  H33  1  0.28399000  0.63555000  0.64257000  1.0
  H  H34  1  0.11744000  0.64256000  0.00701000  1.0
  H  H35  1  0.95084000  0.00702000  0.36447000  1.0
  H  H36  1  0.95028000  0.37081000  0.33480000  1.0
  H  H37  1  0.78371000  0.33483000  0.96399000  1.0
  H  H38  1  0.61708000  0.96394000  0.62915000  1.0
  H  H39  1  0.45028000  0.62919000  0.66520000  1.0
  H  H40  1  0.28371000  0.66517000  0.03601000  1.0
  H  H41  1  0.11708000  0.03606000  0.37085000  1.0
  H  H42  1  0.62460000  0.46572000  0.32464000  1.0
  H  H43  1  0.45802000  0.32467000  0.85891000  1.0
  H  H44  1  0.29135000  0.85893000  0.53427000  1.0
  H  H45  1  0.12459000  0.53428000  0.67536000  1.0
  H  H46  1  0.95802000  0.67533000  0.14109000  1.0
  H  H47  1  0.79135000  0.14107000  0.46573000  1.0
  H  H48  1  0.58283000  0.52037000  0.21995000  1.0
  H  H49  1  0.41630000  0.21996000  0.69958000  1.0
  H  H50  1  0.24955000  0.69961000  0.47972000  1.0
  H  H51  1  0.08283000  0.47962000  0.78004000  1.0
  H  H52  1  0.91630000  0.78004000  0.30042000  1.0
  H  H53  1  0.74955000  0.30039000  0.52028000  1.0
  H  H54  1  0.80377000  0.64639000  0.57891000  1.0
  H  H55  1  0.63718000  0.57895000  0.93251000  1.0
  H  H56  1  0.47050000  0.93246000  0.35362000  1.0
  H  H57  1  0.30377000  0.35361000  0.42109000  1.0
  H  H58  1  0.13718000  0.42105000  0.06749000  1.0
  H  H59  1  0.97049000  0.06754000  0.64638000  1.0
  H  H60  1  0.86421000  0.75177000  0.60544000  1.0
  H  H61  1  0.69766000  0.60547000  0.85364000  1.0
  H  H62  1  0.53092000  0.85363000  0.24822000  1.0
  H  H63  1  0.36421000  0.24822000  0.39455000  1.0
  H  H64  1  0.19766000  0.39453000  0.14636000  1.0
  H  H65  1  0.03092000  0.14637000  0.75178000  1.0
  H  H66  1  0.96389000  0.67502000  0.61612000  1.0
  H  H67  1  0.79729000  0.61615000  0.94108000  1.0
  H  H68  1  0.63055000  0.94108000  0.32495000  1.0
  H  H69  1  0.46389000  0.32498000  0.38388000  1.0
  H  H70  1  0.29729000  0.38385000  0.05892000  1.0
  H  H71  1  0.13055000  0.05892000  0.67504000  1.0
  H  H72  1  0.02609000  0.67962000  0.48264000  1.0
  H  H73  1  0.85958000  0.48267000  0.80306000  1.0
  H  H74  1  0.69295000  0.80304000  0.32035000  1.0
  H  H75  1  0.52609000  0.32038000  0.51736000  1.0
  H  H76  1  0.35958000  0.51733000  0.19694000  1.0
  H  H77  1  0.19295000  0.19696000  0.67965000  1.0
  H  H78  1  0.87626000  0.63724000  0.35643000  1.0
  H  H79  1  0.70982000  0.35646000  0.71919000  1.0
  H  H80  1  0.54327000  0.71910000  0.36268000  1.0
  H  H81  1  0.37626000  0.36276000  0.64357000  1.0
  H  H82  1  0.20982000  0.64354000  0.28081000  1.0
  H  H83  1  0.04327000  0.28090000  0.63732000  1.0
  H  H84  1  0.82861000  0.73585000  0.45335000  1.0
  H  H85  1  0.66208000  0.45338000  0.71751000  1.0
  H  H86  1  0.49546000  0.71749000  0.26412000  1.0
  H  H87  1  0.32861000  0.26415000  0.54665000  1.0
  H  H88  1  0.16208000  0.54662000  0.28249000  1.0
  H  H89  1  0.99546000  0.28251000  0.73588000  1.0
  H  H90  1  0.74546000  0.63526000  0.42082000  1.0
  H  H91  1  0.57896000  0.42080000  0.78556000  1.0
  H  H92  1  0.41238000  0.78547000  0.36477000  1.0
  H  H93  1  0.24546000  0.36474000  0.57918000  1.0
  H  H94  1  0.07896000  0.57920000  0.21444000  1.0
  H  H95  1  0.91238000  0.21453000  0.63523000  1.0
  H  H96  1  0.82719000  0.72434000  0.84047000  1.0
  H  H97  1  0.66052000  0.84051000  0.11616000  1.0
  H  H98  1  0.49369000  0.11611000  0.27564000  1.0
  H  H99  1  0.32719000  0.27566000  0.15953000  1.0
  H  H100  1  0.16052000  0.15949000  0.88384000  1.0
  H  H101  1  0.99369000  0.88389000  0.72436000  1.0
  H  H102  1  0.96882000  0.70812000  0.77587000  1.0
  H  H103  1  0.80216000  0.77592000  0.06770000  1.0
  H  H104  1  0.63538000  0.06766000  0.29173000  1.0
  H  H105  1  0.46882000  0.29188000  0.22413000  1.0
  H  H106  1  0.30216000  0.22408000  0.93230000  1.0
  H  H107  1  0.13538000  0.93234000  0.70827000  1.0
  H  H108  1  0.94826000  0.64597000  0.82945000  1.0
  H  H109  1  0.78166000  0.82948000  0.18346000  1.0
  H  H110  1  0.61486000  0.18341000  0.35393000  1.0
  H  H111  1  0.44826000  0.35403000  0.17055000  1.0
  H  H112  1  0.28166000  0.17052000  0.81654000  1.0
  H  H113  1  0.11487000  0.81659000  0.64607000  1.0
  C  C114  1  0.09456000  0.53435000  0.47847000  1.0
  C  C115  1  0.92798000  0.47849000  0.94415000  1.0
  C  C116  1  0.76146000  0.94413000  0.46560000  1.0
  C  C117  1  0.59456000  0.46565000  0.52153000  1.0
  C  C118  1  0.42798000  0.52151000  0.05585000  1.0
  C  C119  1  0.26146000  0.05587000  0.53440000  1.0
  C  C120  1  0.90854000  0.41476000  0.21219000  1.0
  C  C121  1  0.74201000  0.21225000  0.79744000  1.0
  C  C122  1  0.57532000  0.79743000  0.58518000  1.0
  C  C123  1  0.40854000  0.58524000  0.78781000  1.0
  C  C124  1  0.24201000  0.78775000  0.20256000  1.0
  C  C125  1  0.07532000  0.20257000  0.41482000  1.0
  C  C126  1  0.97319000  0.54700000  0.43597000  1.0
  C  C127  1  0.80661000  0.43602000  0.88901000  1.0
  C  C128  1  0.64008000  0.88898000  0.45297000  1.0
  C  C129  1  0.47319000  0.45300000  0.56403000  1.0
  C  C130  1  0.30661000  0.56398000  0.11099000  1.0
  C  C131  1  0.14008000  0.11102000  0.54703000  1.0
  C  C132  1  0.87560000  0.44558000  0.15512000  1.0
  C  C133  1  0.70907000  0.15516000  0.70955000  1.0
  C  C134  1  0.54235000  0.70956000  0.55445000  1.0
  C  C135  1  0.37560000  0.55442000  0.84488000  1.0
  C  C136  1  0.20907000  0.84484000  0.29045000  1.0
  C  C137  1  0.04235000  0.29044000  0.44554000  1.0
  C  C138  1  0.82038000  0.42376000  0.27665000  1.0
  C  C139  1  0.65383000  0.27669000  0.85289000  1.0
  C  C140  1  0.48715000  0.85288000  0.57618000  1.0
  C  C141  1  0.32038000  0.57624000  0.72335000  1.0
  C  C142  1  0.15383000  0.72331000  0.14711000  1.0
  C  C143  1  0.98715000  0.14712000  0.42382000  1.0
  C  C144  1  0.85728000  0.40505000  0.34904000  1.0
  C  C145  1  0.69071000  0.34907000  0.94400000  1.0
  C  C146  1  0.52409000  0.94397000  0.59491000  1.0
  C  C147  1  0.35728000  0.59495000  0.65096000  1.0
  C  C148  1  0.19071000  0.65093000  0.05600000  1.0
  C  C149  1  0.02409000  0.05603000  0.40509000  1.0
  C  C150  1  0.69946000  0.45971000  0.27810000  1.0
  C  C151  1  0.53291000  0.27814000  0.81839000  1.0
  C  C152  1  0.36622000  0.81839000  0.54026000  1.0
  C  C153  1  0.19946000  0.54029000  0.72190000  1.0
  C  C154  1  0.03291000  0.72186000  0.18161000  1.0
  C  C155  1  0.86622000  0.18161000  0.45974000  1.0
  C  C156  1  0.67445000  0.49024000  0.22003000  1.0
  C  C157  1  0.50791000  0.22004000  0.72979000  1.0
  C  C158  1  0.34119000  0.72981000  0.50982000  1.0
  C  C159  1  0.17445000  0.50976000  0.77997000  1.0
  C  C160  1  0.00791000  0.77996000  0.27021000  1.0
  C  C161  1  0.84119000  0.27020000  0.49019000  1.0
  C  C162  1  0.88912000  0.68152000  0.57526000  1.0
  C  C163  1  0.72254000  0.57529000  0.89372000  1.0
  C  C164  1  0.55585000  0.89369000  0.31846000  1.0
  C  C165  1  0.38912000  0.31848000  0.42474000  1.0
  C  C166  1  0.22254000  0.42471000  0.10628000  1.0
  C  C167  1  0.05585000  0.10631000  0.68154000  1.0
  C  C168  1  0.93581000  0.64567000  0.48030000  1.0
  C  C169  1  0.76926000  0.48032000  0.83464000  1.0
  C  C170  1  0.60266000  0.83461000  0.35432000  1.0
  C  C171  1  0.43581000  0.35433000  0.51970000  1.0
  C  C172  1  0.26926000  0.51968000  0.16536000  1.0
  C  C173  1  0.10266000  0.16539000  0.64568000  1.0
  C  C174  1  0.84083000  0.66411000  0.42447000  1.0
  C  C175  1  0.67432000  0.42448000  0.76036000  1.0
  C  C176  1  0.50775000  0.76030000  0.33587000  1.0
  C  C177  1  0.34083000  0.33589000  0.57553000  1.0
  C  C178  1  0.17432000  0.57552000  0.23964000  1.0
  C  C179  1  0.00775000  0.23970000  0.66413000  1.0
  C  C180  1  0.83056000  0.60326000  0.71256000  1.0
  C  C181  1  0.66398000  0.71259000  0.10929000  1.0
  C  C182  1  0.49726000  0.10924000  0.39668000  1.0
  C  C183  1  0.33056000  0.39674000  0.28744000  1.0
  C  C184  1  0.16398000  0.28741000  0.89071000  1.0
  C  C185  1  0.99726000  0.89076000  0.60332000  1.0
  C  C186  1  0.89646000  0.67520000  0.79545000  1.0
  C  C187  1  0.72984000  0.79549000  0.12024000  1.0
  C  C188  1  0.56306000  0.12018000  0.32471000  1.0
  C  C189  1  0.39646000  0.32480000  0.20455000  1.0
  C  C190  1  0.22984000  0.20451000  0.87976000  1.0
  C  C191  1  0.06306000  0.87982000  0.67529000  1.0
  N  N192  1  0.76192000  0.48486000  0.16025000  1.0
  N  N193  1  0.59538000  0.16025000  0.67539000  1.0
  N  N194  1  0.42863000  0.67541000  0.51524000  1.0
  N  N195  1  0.26192000  0.51514000  0.83975000  1.0
  N  N196  1  0.09538000  0.83975000  0.32461000  1.0
  N  N197  1  0.92863000  0.32459000  0.48476000  1.0
  N  N198  1  0.86807000  0.48938000  0.43491000  1.0
  N  N199  1  0.70150000  0.43496000  0.94557000  1.0
  N  N200  1  0.53495000  0.94554000  0.51059000  1.0
  N  N201  1  0.36807000  0.51062000  0.56509000  1.0
  N  N202  1  0.20150000  0.56504000  0.05443000  1.0
  N  N203  1  0.03495000  0.05446000  0.48941000  1.0
  O  O204  1  0.19177000  0.57696000  0.47599000  1.0
  O  O205  1  0.02519000  0.47601000  0.89906000  1.0
  O  O206  1  0.85865000  0.89904000  0.42296000  1.0
  O  O207  1  0.69177000  0.42304000  0.52401000  1.0
  O  O208  1  0.52519000  0.52399000  0.10094000  1.0
  O  O209  1  0.35865000  0.10096000  0.57704000  1.0
  O  O210  1  0.09162000  0.48509000  0.51273000  1.0
  O  O211  1  0.92510000  0.51273000  0.02767000  1.0
  O  O212  1  0.75857000  0.02766000  0.51486000  1.0
  O  O213  1  0.59162000  0.51491000  0.48726000  1.0
  O  O214  1  0.42509000  0.48726000  0.97232000  1.0
  O  O215  1  0.25856000  0.97234000  0.48514000  1.0
  O  O216  1  0.90934000  0.54016000  0.66026000  1.0
  O  O217  1  0.74280000  0.66027000  0.12003000  1.0
  O  O218  1  0.57609000  0.12007000  0.45978000  1.0
  O  O219  1  0.40934000  0.45984000  0.33974000  1.0
  O  O220  1  0.24281000  0.33973000  0.87997000  1.0
  O  O221  1  0.07609000  0.87993000  0.54023000  1.0
  O  O222  1  0.71425000  0.60814000  0.69864000  1.0
  O  O223  1  0.54765000  0.69869000  0.09056000  1.0
  O  O224  1  0.38095000  0.09044000  0.39184000  1.0
  O  O225  1  0.21424000  0.39186000  0.30136000  1.0
  O  O226  1  0.04765000  0.30131000  0.90944000  1.0
  O  O227  1  0.88095000  0.90957000  0.60817000  1.0
