# generated using pymatgen
data_MnH24C28S4(N4O)2
_symmetry_space_group_name_H-M   'P 1'
_cell_length_a   8.15807000
_cell_length_b   9.36246000
_cell_length_c   11.46370000
_cell_angle_alpha   96.50210000
_cell_angle_beta   104.21800000
_cell_angle_gamma   103.39600000
_symmetry_Int_Tables_number   1
_chemical_formula_structural   MnH24C28S4(N4O)2
_chemical_formula_sum   'Mn1 H24 C28 S4 N8 O2'
_cell_volume   812.12761263
_cell_formula_units_Z   1
loop_
 _symmetry_equiv_pos_site_id
 _symmetry_equiv_pos_as_xyz
  1  'x, y, z'
loop_
 _atom_site_type_symbol
 _atom_site_label
 _atom_site_symmetry_multiplicity
 _atom_site_fract_x
 _atom_site_fract_y
 _atom_site_fract_z
 _atom_site_occupancy
  Mn  Mn0  1  0.50000000  0.49999000  0.50000000  1.0
  H  H1  1  0.62442000  0.53536000  0.78053000  1.0
  H  H2  1  0.37557000  0.46464000  0.21947000  1.0
  H  H3  1  0.76719000  0.28474000  0.52025000  1.0
  H  H4  1  0.23281000  0.71527000  0.47976000  1.0
  H  H5  1  0.91943000  0.15797000  0.67706000  1.0
  H  H6  1  0.08057000  0.84204000  0.32294000  1.0
  H  H7  1  0.92044000  0.22304000  0.89392000  1.0
  H  H8  1  0.07956000  0.77696000  0.10608000  1.0
  H  H9  1  0.82677000  0.23745000  0.05222000  1.0
  H  H10  1  0.17323000  0.76255000  0.94778000  1.0
  H  H11  1  0.79983000  0.32941000  0.25871000  1.0
  H  H12  1  0.20016000  0.67059000  0.74129000  1.0
  H  H13  1  0.57965000  0.76907000  0.94553000  1.0
  H  H14  1  0.42035000  0.23094000  0.05447000  1.0
  H  H15  1  0.58448000  0.93502000  0.04064000  1.0
  H  H16  1  0.41552000  0.06499000  0.95936000  1.0
  H  H17  1  0.78324000  0.81008000  0.82898000  1.0
  H  H18  1  0.21676000  0.18992000  0.17102000  1.0
  H  H19  1  0.92756000  0.06211000  0.19444000  1.0
  H  H20  1  0.07244000  0.93790000  0.80556000  1.0
  H  H21  1  0.73579000  0.58586000  0.35585000  1.0
  H  H22  1  0.26421000  0.41414000  0.64415000  1.0
  H  H23  1  0.75182000  0.72410000  0.45769000  1.0
  H  H24  1  0.24818000  0.27590000  0.54231000  1.0
  C  C25  1  0.69179000  0.45159000  0.76098000  1.0
  C  C26  1  0.30821000  0.54840000  0.23902000  1.0
  C  C27  1  0.77090000  0.31162000  0.61602000  1.0
  C  C28  1  0.22910000  0.68838000  0.38398000  1.0
  C  C29  1  0.85491000  0.24090000  0.70347000  1.0
  C  C30  1  0.14509000  0.75910000  0.29653000  1.0
  C  C31  1  0.85516000  0.27750000  0.82456000  1.0
  C  C32  1  0.14484000  0.72250000  0.17544000  1.0
  C  C33  1  0.77392000  0.38688000  0.85533000  1.0
  C  C34  1  0.22608000  0.61312000  0.14467000  1.0
  C  C35  1  0.76606000  0.43131000  0.98084000  1.0
  C  C36  1  0.23393000  0.56869000  0.01915000  1.0
  C  C37  1  0.79573000  0.34302000  0.07062000  1.0
  C  C38  1  0.20426000  0.65698000  0.92938000  1.0
  C  C39  1  0.78149000  0.39418000  0.18543000  1.0
  C  C40  1  0.21851000  0.60583000  0.81457000  1.0
  C  C41  1  0.71652000  0.60117000  0.11903000  1.0
  C  C42  1  0.28348000  0.39884000  0.88097000  1.0
  C  C43  1  0.65830000  0.85314000  0.02637000  1.0
  C  C44  1  0.34170000  0.14687000  0.97363000  1.0
  C  C45  1  0.83538000  0.92772000  0.01333000  1.0
  C  C46  1  0.16462000  0.07228000  0.98667000  1.0
  C  C47  1  0.87797000  0.89310000  0.90424000  1.0
  C  C48  1  0.12203000  0.10690000  0.09576000  1.0
  C  C49  1  0.95936000  0.03489000  0.10884000  1.0
  C  C50  1  0.04063000  0.96511000  0.89115000  1.0
  C  C51  1  0.49351000  0.80025000  0.66115000  1.0
  C  C52  1  0.50651000  0.19972000  0.33885000  1.0
  S  S53  1  0.66678000  0.76787000  0.16156000  1.0
  S  S54  1  0.33321000  0.23213000  0.83844000  1.0
  S  S55  1  0.43008000  0.94330000  0.70451000  1.0
  S  S56  1  0.56994000  0.05668000  0.29549000  1.0
  N  N57  1  0.68779000  0.41400000  0.64392000  1.0
  N  N58  1  0.31220000  0.58600000  0.35608000  1.0
  N  N59  1  0.74193000  0.52308000  0.21122000  1.0
  N  N60  1  0.25806000  0.47693000  0.78878000  1.0
  N  N61  1  0.72591000  0.56144000  0.00604000  1.0
  N  N62  1  0.27409000  0.43857000  0.99396000  1.0
  N  N63  1  0.53906000  0.69393000  0.62823000  1.0
  N  N64  1  0.46096000  0.30606000  0.37178000  1.0
  O  O65  1  0.73244000  0.61636000  0.44281000  1.0
  O  O66  1  0.26756000  0.38364000  0.55719000  1.0
