# generated using pymatgen
data_SmH12C12(N3O2)3
_symmetry_space_group_name_H-M   'P 1'
_cell_length_a   8.74247000
_cell_length_b   9.16239000
_cell_length_c   13.80539021
_cell_angle_alpha   90.16754747
_cell_angle_beta   108.45863499
_cell_angle_gamma   118.47970000
_symmetry_Int_Tables_number   1
_chemical_formula_structural   SmH12C12(N3O2)3
_chemical_formula_sum   'Sm2 H24 C24 N18 O12'
_cell_volume   906.16469207
_cell_formula_units_Z   2
loop_
 _symmetry_equiv_pos_site_id
 _symmetry_equiv_pos_as_xyz
  1  'x, y, z'
loop_
 _atom_site_type_symbol
 _atom_site_label
 _atom_site_symmetry_multiplicity
 _atom_site_fract_x
 _atom_site_fract_y
 _atom_site_fract_z
 _atom_site_occupancy
  Sm  Sm0  1  0.48921000  0.38699000  0.14280000  1.0
  Sm  Sm1  1  0.54065000  0.88712000  0.64289000  1.0
  H  H2  1  0.76661000  0.19040000  0.05575000  1.0
  H  H3  1  0.97992000  0.69082000  0.55589000  1.0
  H  H4  1  0.73076000  0.98845000  0.07445000  1.0
  H  H5  1  0.83219000  0.48902000  0.57456000  1.0
  H  H6  1  0.60410000  0.71648000  0.94036000  1.0
  H  H7  1  0.55293000  0.21650000  0.44049000  1.0
  H  H8  1  0.81747000  0.88069000  0.95846000  1.0
  H  H9  1  0.52184000  0.38085000  0.45828000  1.0
  H  H10  1  0.85092000  0.30725000  0.47043000  1.0
  H  H11  1  0.42665000  0.80678000  0.97037000  1.0
  H  H12  1  0.85146000  0.11777000  0.46339000  1.0
  H  H13  1  0.22956000  0.61748000  0.96343000  1.0
  H  H14  1  0.16353000  0.45397000  0.08520000  1.0
  H  H15  1  0.87583000  0.95408000  0.58503000  1.0
  H  H16  1  0.10436000  0.31463000  0.98911000  1.0
  H  H17  1  0.69926000  0.81484000  0.48899000  1.0
  H  H18  1  0.34228000  0.14172000  0.92950000  1.0
  H  H19  1  0.22902000  0.64177000  0.42941000  1.0
  H  H20  1  0.43765000  0.33800000  0.91815000  1.0
  H  H21  1  0.31903000  0.83813000  0.41823000  1.0
  H  H22  1  0.86458000  0.50222000  0.32549000  1.0
  H  H23  1  0.46317000  0.00236000  0.82573000  1.0
  H  H24  1  0.82966000  0.65785000  0.32969000  1.0
  H  H25  1  0.65794000  0.15799000  0.82996000  1.0
  C  C26  1  0.64286000  0.10117000  0.16025000  1.0
  C  C27  1  0.11862000  0.60131000  0.66031000  1.0
  C  C28  1  0.56402000  0.96318000  0.21244000  1.0
  C  C29  1  0.11175000  0.46331000  0.71247000  1.0
  C  C30  1  0.55611000  0.80925000  0.19857000  1.0
  C  C31  1  0.95183000  0.30944000  0.69852000  1.0
  C  C32  1  0.48373000  0.98336000  0.28064000  1.0
  C  C33  1  0.28041000  0.48363000  0.78077000  1.0
  C  C34  1  0.80320000  0.70905000  0.05423000  1.0
  C  C35  1  0.46025000  0.20927000  0.55424000  1.0
  C  C36  1  0.00091000  0.77641000  0.10050000  1.0
  C  C37  1  0.37601000  0.27641000  0.60057000  1.0
  C  C38  1  0.12614000  0.94257000  0.10005000  1.0
  C  C39  1  0.41634000  0.44256000  0.60014000  1.0
  C  C40  1  0.06292000  0.66288000  0.13244000  1.0
  C  C41  1  0.23242000  0.16284000  0.63247000  1.0
  C  C42  1  0.00330000  0.30283000  0.38822000  1.0
  C  C43  1  0.18781000  0.80280000  0.88835000  1.0
  C  C44  1  0.07047000  0.20329000  0.35171000  1.0
  C  C45  1  0.98466000  0.70356000  0.85195000  1.0
  C  C46  1  0.20351000  0.27859000  0.30564000  1.0
  C  C47  1  0.88090000  0.77890000  0.80574000  1.0
  C  C48  1  0.01064000  0.03550000  0.36567000  1.0
  C  C49  1  0.89052000  0.53572000  0.86584000  1.0
  N  N50  1  0.71914000  0.09046000  0.09183000  1.0
  N  N51  1  0.96334000  0.59073000  0.59187000  1.0
  N  N52  1  0.54561000  0.67740000  0.18864000  1.0
  N  N53  1  0.82043000  0.17771000  0.68853000  1.0
  N  N54  1  0.41367000  0.99804000  0.33694000  1.0
  N  N55  1  0.42147000  0.49848000  0.83715000  1.0
  N  N56  1  0.73396000  0.79970000  0.99424000  1.0
  N  N57  1  0.56008000  0.29989000  0.49423000  1.0
  N  N58  1  0.22602000  0.08433000  0.09946000  1.0
  N  N59  1  0.45774000  0.58435000  0.59951000  1.0
  N  N60  1  0.10812000  0.56167000  0.15227000  1.0
  N  N61  1  0.10585000  0.06179000  0.65235000  1.0
  N  N62  1  0.89275000  0.23446000  0.44423000  1.0
  N  N63  1  0.28585000  0.73429000  0.94436000  1.0
  N  N64  1  0.32113000  0.34011000  0.27016000  1.0
  N  N65  1  0.78937000  0.84045000  0.77015000  1.0
  N  N66  1  0.95540000  0.89534000  0.37903000  1.0
  N  N67  1  0.81906000  0.39550000  0.87911000  1.0
  O  O68  1  0.63953000  0.23503000  0.17987000  1.0
  O  O69  1  0.27536000  0.73522000  0.67996000  1.0
  O  O70  1  0.69044000  0.56671000  0.06654000  1.0
  O  O71  1  0.44329000  0.06699000  0.56656000  1.0
  O  O72  1  0.04581000  0.44938000  0.36838000  1.0
  O  O73  1  0.27209000  0.94929000  0.86842000  1.0
  O  O74  1  0.21141000  0.41028000  0.04092000  1.0
  O  O75  1  0.73989000  0.91037000  0.54097000  1.0
  O  O76  1  0.40260000  0.25988000  0.96622000  1.0
  O  O77  1  0.32363000  0.75987000  0.46627000  1.0
  O  O78  1  0.76590000  0.53388000  0.30709000  1.0
  O  O79  1  0.57506000  0.03405000  0.80724000  1.0
