# generated using pymatgen
data_CuH8C10IN4
_symmetry_space_group_name_H-M   'P 1'
_cell_length_a   7.87135000
_cell_length_b   9.46813000
_cell_length_c   15.03840000
_cell_angle_alpha   95.91690000
_cell_angle_beta   89.99960000
_cell_angle_gamma   89.99970000
_symmetry_Int_Tables_number   1
_chemical_formula_structural   CuH8C10IN4
_chemical_formula_sum   'Cu4 H32 C40 I4 N16'
_cell_volume   1114.79537757
_cell_formula_units_Z   4
loop_
 _symmetry_equiv_pos_site_id
 _symmetry_equiv_pos_as_xyz
  1  'x, y, z'
loop_
 _atom_site_type_symbol
 _atom_site_label
 _atom_site_symmetry_multiplicity
 _atom_site_fract_x
 _atom_site_fract_y
 _atom_site_fract_z
 _atom_site_occupancy
  Cu  Cu0  1  0.37020000  0.94974000  0.54696000  1.0
  Cu  Cu1  1  0.37019000  0.05026000  0.95304000  1.0
  Cu  Cu2  1  0.62979000  0.05025000  0.45305000  1.0
  Cu  Cu3  1  0.62979000  0.94976000  0.04696000  1.0
  H  H4  1  0.03490000  0.01418000  0.62057000  1.0
  H  H5  1  0.03491000  0.98581000  0.87943000  1.0
  H  H6  1  0.96508000  0.98582000  0.37943000  1.0
  H  H7  1  0.96509000  0.01417000  0.12057000  1.0
  H  H8  1  0.90085000  0.19281000  0.73021000  1.0
  H  H9  1  0.90086000  0.80719000  0.76979000  1.0
  H  H10  1  0.09914000  0.80719000  0.26980000  1.0
  H  H11  1  0.09915000  0.19279000  0.23021000  1.0
  H  H12  1  0.40376000  0.33864000  0.80834000  1.0
  H  H13  1  0.40378000  0.66135000  0.69166000  1.0
  H  H14  1  0.59624000  0.66135000  0.19166000  1.0
  H  H15  1  0.59624000  0.33866000  0.30834000  1.0
  H  H16  1  0.52145000  0.14964000  0.69540000  1.0
  H  H17  1  0.52146000  0.85036000  0.80460000  1.0
  H  H18  1  0.47854000  0.85035000  0.30460000  1.0
  H  H19  1  0.47855000  0.14965000  0.19540000  1.0
  H  H20  1  0.96616000  0.82955000  0.02118000  1.0
  H  H21  1  0.96616000  0.17045000  0.47881000  1.0
  H  H22  1  0.03383000  0.17046000  0.97881000  1.0
  H  H23  1  0.03384000  0.82954000  0.52118000  1.0
  H  H24  1  0.10248000  0.62565000  0.93325000  1.0
  H  H25  1  0.10249000  0.37435000  0.56674000  1.0
  H  H26  1  0.89752000  0.37436000  0.06675000  1.0
  H  H27  1  0.89752000  0.62564000  0.43325000  1.0
  H  H28  1  0.60236000  0.45869000  0.86986000  1.0
  H  H29  1  0.60237000  0.54132000  0.63015000  1.0
  H  H30  1  0.39764000  0.54132000  0.13015000  1.0
  H  H31  1  0.39764000  0.45868000  0.36985000  1.0
  H  H32  1  0.48181000  0.67122000  0.96450000  1.0
  H  H33  1  0.48181000  0.32880000  0.53550000  1.0
  H  H34  1  0.51819000  0.32879000  0.03550000  1.0
  H  H35  1  0.51819000  0.67121000  0.46449000  1.0
  C  C36  1  0.11413000  0.08831000  0.66252000  1.0
  C  C37  1  0.11413000  0.91169000  0.83748000  1.0
  C  C38  1  0.88586000  0.91169000  0.33748000  1.0
  C  C39  1  0.88587000  0.08830000  0.16252000  1.0
  C  C40  1  0.03836000  0.18860000  0.72311000  1.0
  C  C41  1  0.03837000  0.81140000  0.77689000  1.0
  C  C42  1  0.96162000  0.81140000  0.27690000  1.0
  C  C43  1  0.96163000  0.18858000  0.22311000  1.0
  C  C44  1  0.14272000  0.28472000  0.77548000  1.0
  C  C45  1  0.14273000  0.71528000  0.72452000  1.0
  C  C46  1  0.85728000  0.71528000  0.22453000  1.0
  C  C47  1  0.85728000  0.28472000  0.27548000  1.0
  C  C48  1  0.31944000  0.26923000  0.76646000  1.0
  C  C49  1  0.31945000  0.73077000  0.73354000  1.0
  C  C50  1  0.68055000  0.73077000  0.23354000  1.0
  C  C51  1  0.68056000  0.26923000  0.26646000  1.0
  C  C52  1  0.38490000  0.16501000  0.70415000  1.0
  C  C53  1  0.38491000  0.83498000  0.79585000  1.0
  C  C54  1  0.61509000  0.83498000  0.29585000  1.0
  C  C55  1  0.61510000  0.16502000  0.20415000  1.0
  C  C56  1  0.88772000  0.74557000  0.98742000  1.0
  C  C57  1  0.88773000  0.25444000  0.51258000  1.0
  C  C58  1  0.11227000  0.25445000  0.01258000  1.0
  C  C59  1  0.11227000  0.74555000  0.48741000  1.0
  C  C60  1  0.96473000  0.63192000  0.93816000  1.0
  C  C61  1  0.96474000  0.36809000  0.56184000  1.0
  C  C62  1  0.03527000  0.36810000  0.06185000  1.0
  C  C63  1  0.03527000  0.63190000  0.43816000  1.0
  C  C64  1  0.86171000  0.52679000  0.89281000  1.0
  C  C65  1  0.86172000  0.47322000  0.60719000  1.0
  C  C66  1  0.13829000  0.47322000  0.10719000  1.0
  C  C67  1  0.13829000  0.52677000  0.39281000  1.0
  C  C68  1  0.68487000  0.54025000  0.90290000  1.0
  C  C69  1  0.68488000  0.45976000  0.59710000  1.0
  C  C70  1  0.31513000  0.45976000  0.09711000  1.0
  C  C71  1  0.31513000  0.54024000  0.40289000  1.0
  C  C72  1  0.61841000  0.65687000  0.95489000  1.0
  C  C73  1  0.61841000  0.34314000  0.54512000  1.0
  C  C74  1  0.38159000  0.34314000  0.04512000  1.0
  C  C75  1  0.38159000  0.65686000  0.45488000  1.0
  I  I76  1  0.69363000  0.89461000  0.58823000  1.0
  I  I77  1  0.69364000  0.10539000  0.91177000  1.0
  I  I78  1  0.30636000  0.10538000  0.41177000  1.0
  I  I79  1  0.30636000  0.89462000  0.08823000  1.0
  N  N80  1  0.28454000  0.07619000  0.65110000  1.0
  N  N81  1  0.28455000  0.92380000  0.84890000  1.0
  N  N82  1  0.71544000  0.92380000  0.34890000  1.0
  N  N83  1  0.71545000  0.07619000  0.15110000  1.0
  N  N84  1  0.71722000  0.76105000  0.99575000  1.0
  N  N85  1  0.71723000  0.23896000  0.50425000  1.0
  N  N86  1  0.28277000  0.23897000  0.00425000  1.0
  N  N87  1  0.28277000  0.76103000  0.49574000  1.0
  N  N88  1  0.92199000  0.41126000  0.83531000  1.0
  N  N89  1  0.92201000  0.58874000  0.66469000  1.0
  N  N90  1  0.07801000  0.58874000  0.16470000  1.0
  N  N91  1  0.07801000  0.41125000  0.33531000  1.0
  N  N92  1  0.08313000  0.39648000  0.83635000  1.0
  N  N93  1  0.08314000  0.60352000  0.66365000  1.0
  N  N94  1  0.91687000  0.60352000  0.16366000  1.0
  N  N95  1  0.91687000  0.39647000  0.33635000  1.0
