# generated using pymatgen
data_KH8C12N5O4
_symmetry_space_group_name_H-M   'P 1'
_cell_length_a   7.60055000
_cell_length_b   9.30812000
_cell_length_c   9.78455000
_cell_angle_alpha   82.04050000
_cell_angle_beta   81.21390000
_cell_angle_gamma   81.49150000
_symmetry_Int_Tables_number   1
_chemical_formula_structural   KH8C12N5O4
_chemical_formula_sum   'K2 H16 C24 N10 O8'
_cell_volume   671.80220551
_cell_formula_units_Z   2
loop_
 _symmetry_equiv_pos_site_id
 _symmetry_equiv_pos_as_xyz
  1  'x, y, z'
loop_
 _atom_site_type_symbol
 _atom_site_label
 _atom_site_symmetry_multiplicity
 _atom_site_fract_x
 _atom_site_fract_y
 _atom_site_fract_z
 _atom_site_occupancy
  K  K0  1  0.27012000  0.57635000  0.96366000  1.0
  K  K1  1  0.72986000  0.42363000  0.03633000  1.0
  H  H2  1  0.18344000  0.07791000  0.09993000  1.0
  H  H3  1  0.81657000  0.92209000  0.90007000  1.0
  H  H4  1  0.11332000  0.90396000  0.95198000  1.0
  H  H5  1  0.88669000  0.09604000  0.04802000  1.0
  H  H6  1  0.49794000  0.06368000  0.61500000  1.0
  H  H7  1  0.50205000  0.93632000  0.38500000  1.0
  H  H8  1  0.57542000  0.23352000  0.76671000  1.0
  H  H9  1  0.42457000  0.76648000  0.23328000  1.0
  H  H10  1  0.39922000  0.54222000  0.38978000  1.0
  H  H11  1  0.60079000  0.45778000  0.61022000  1.0
  H  H12  1  0.23433000  0.54946000  0.62956000  1.0
  H  H13  1  0.76568000  0.45055000  0.37044000  1.0
  H  H14  1  0.99450000  0.16837000  0.58601000  1.0
  H  H15  1  0.00550000  0.83163000  0.41399000  1.0
  H  H16  1  0.16004000  0.16101000  0.34710000  1.0
  H  H17  1  0.83996000  0.83899000  0.65290000  1.0
  C  C18  1  0.38189000  0.16961000  0.94226000  1.0
  C  C19  1  0.61811000  0.83038000  0.05774000  1.0
  C  C20  1  0.25156000  0.07416000  0.99417000  1.0
  C  C21  1  0.74844000  0.92584000  0.00583000  1.0
  C  C22  1  0.21273000  0.97742000  0.91190000  1.0
  C  C23  1  0.78727000  0.02257000  0.08810000  1.0
  C  C24  1  0.30033000  0.97534000  0.77495000  1.0
  C  C25  1  0.69966000  0.02467000  0.22505000  1.0
  C  C26  1  0.43011000  0.06817000  0.72076000  1.0
  C  C27  1  0.56989000  0.93184000  0.27924000  1.0
  C  C28  1  0.47103000  0.16343000  0.80476000  1.0
  C  C29  1  0.52897000  0.83657000  0.19524000  1.0
  C  C30  1  0.29251000  0.35067000  0.35226000  1.0
  C  C31  1  0.70749000  0.64933000  0.64774000  1.0
  C  C32  1  0.31349000  0.45894000  0.43475000  1.0
  C  C33  1  0.68652000  0.54106000  0.56524000  1.0
  C  C34  1  0.22326000  0.46268000  0.56839000  1.0
  C  C35  1  0.77675000  0.53732000  0.43161000  1.0
  C  C36  1  0.10930000  0.35643000  0.62211000  1.0
  C  C37  1  0.89070000  0.64358000  0.37789000  1.0
  C  C38  1  0.08608000  0.24748000  0.54250000  1.0
  C  C39  1  0.91393000  0.75252000  0.45750000  1.0
  C  C40  1  0.17775000  0.24374000  0.41007000  1.0
  C  C41  1  0.82225000  0.75626000  0.58993000  1.0
  N  N42  1  0.25766000  0.87346000  0.69140000  1.0
  N  N43  1  0.74235000  0.12654000  0.30860000  1.0
  N  N44  1  0.01336000  0.35912000  0.75875000  1.0
  N  N45  1  0.98664000  0.64088000  0.24125000  1.0
  N  N46  1  0.42678000  0.27152000  0.01809000  1.0
  N  N47  1  0.57322000  0.72847000  0.98191000  1.0
  N  N48  1  0.34686000  0.26035000  0.14691000  1.0
  N  N49  1  0.65314000  0.73965000  0.85309000  1.0
  N  N50  1  0.38206000  0.36047000  0.21713000  1.0
  N  N51  1  0.61794000  0.63952000  0.78288000  1.0
  O  O52  1  0.16309000  0.77606000  0.74994000  1.0
  O  O53  1  0.83692000  0.22393000  0.25006000  1.0
  O  O54  1  0.31366000  0.88360000  0.56420000  1.0
  O  O55  1  0.68634000  0.11640000  0.43580000  1.0
  O  O56  1  0.04502000  0.44814000  0.83535000  1.0
  O  O57  1  0.95497000  0.55186000  0.16465000  1.0
  O  O58  1  0.89758000  0.27377000  0.80068000  1.0
  O  O59  1  0.10242000  0.72623000  0.19932000  1.0
