# generated using pymatgen
data_AgH11C8N3O2
_symmetry_space_group_name_H-M   'P 1'
_cell_length_a   9.06118000
_cell_length_b   11.50670000
_cell_length_c   11.50660000
_cell_angle_alpha   113.10300000
_cell_angle_beta   102.95600000
_cell_angle_gamma   102.95600000
_symmetry_Int_Tables_number   1
_chemical_formula_structural   AgH11C8N3O2
_chemical_formula_sum   'Ag4 H44 C32 N12 O8'
_cell_volume   1008.09380005
_cell_formula_units_Z   4
loop_
 _symmetry_equiv_pos_site_id
 _symmetry_equiv_pos_as_xyz
  1  'x, y, z'
loop_
 _atom_site_type_symbol
 _atom_site_label
 _atom_site_symmetry_multiplicity
 _atom_site_fract_x
 _atom_site_fract_y
 _atom_site_fract_z
 _atom_site_occupancy
  Ag  Ag0  1  0.24999000  0.26591000  0.73408000  1.0
  Ag  Ag1  1  0.75001000  0.73409000  0.26592000  1.0
  Ag  Ag2  1  0.74999000  0.88550000  0.11450000  1.0
  Ag  Ag3  1  0.25002000  0.11450000  0.88550000  1.0
  H  H4  1  0.76387000  0.36204000  0.42313000  1.0
  H  H5  1  0.73613000  0.57686000  0.63797000  1.0
  H  H6  1  0.23614000  0.63796000  0.57687000  1.0
  H  H7  1  0.26387000  0.42314000  0.36203000  1.0
  H  H8  1  0.66317000  0.10800000  0.08690000  1.0
  H  H9  1  0.83683000  0.91310000  0.89201000  1.0
  H  H10  1  0.33684000  0.89201000  0.91310000  1.0
  H  H11  1  0.16317000  0.08691000  0.10799000  1.0
  H  H12  1  0.58398000  0.21534000  0.19489000  1.0
  H  H13  1  0.91601000  0.80510000  0.78466000  1.0
  H  H14  1  0.41603000  0.78466000  0.80511000  1.0
  H  H15  1  0.08398000  0.19490000  0.21534000  1.0
  H  H16  1  0.53607000  0.04302000  0.16089000  1.0
  H  H17  1  0.96393000  0.83910000  0.95698000  1.0
  H  H18  1  0.46394000  0.95698000  0.83911000  1.0
  H  H19  1  0.03607000  0.16090000  0.04301000  1.0
  H  H20  1  0.15236000  0.48070000  0.69877000  1.0
  H  H21  1  0.34764000  0.30123000  0.51930000  1.0
  H  H22  1  0.84765000  0.51930000  0.30123000  1.0
  H  H23  1  0.65236000  0.69877000  0.48070000  1.0
  H  H24  1  0.96850000  0.42661000  0.72244000  1.0
  H  H25  1  0.53150000  0.27756000  0.57339000  1.0
  H  H26  1  0.03151000  0.57339000  0.27756000  1.0
  H  H27  1  0.46850000  0.72244000  0.42661000  1.0
  H  H28  1  0.98456000  0.52426000  0.63572000  1.0
  H  H29  1  0.51544000  0.36428000  0.47575000  1.0
  H  H30  1  0.01544000  0.47574000  0.36428000  1.0
  H  H31  1  0.48456000  0.63572000  0.52426000  1.0
  H  H32  1  0.66685000  0.09370000  0.61126000  1.0
  H  H33  1  0.83314000  0.38875000  0.90629000  1.0
  H  H34  1  0.33316000  0.90630000  0.38874000  1.0
  H  H35  1  0.16684000  0.61124000  0.09369000  1.0
  H  H36  1  0.55487000  0.94033000  0.59465000  1.0
  H  H37  1  0.94512000  0.40535000  0.05966000  1.0
  H  H38  1  0.44513000  0.05967000  0.40535000  1.0
  H  H39  1  0.05486000  0.59465000  0.94033000  1.0
  H  H40  1  0.03925000  0.94537000  0.29055000  1.0
  H  H41  1  0.46075000  0.70945000  0.05463000  1.0
  H  H42  1  0.96076000  0.05463000  0.70946000  1.0
  H  H43  1  0.53925000  0.29055000  0.94537000  1.0
  H  H44  1  0.17191000  0.05590000  0.45884000  1.0
  H  H45  1  0.32808000  0.54116000  0.94410000  1.0
  H  H46  1  0.82810000  0.94410000  0.54117000  1.0
  H  H47  1  0.67191000  0.45884000  0.05590000  1.0
  C  C48  1  0.98891000  0.11631000  0.39230000  1.0
  C  C49  1  0.51109000  0.60770000  0.88369000  1.0
  C  C50  1  0.01110000  0.88368000  0.60770000  1.0
  C  C51  1  0.48891000  0.39230000  0.11631000  1.0
  C  C52  1  0.96220000  0.31803000  0.52149000  1.0
  C  C53  1  0.53779000  0.47851000  0.68198000  1.0
  C  C54  1  0.03780000  0.68197000  0.47851000  1.0
  C  C55  1  0.46221000  0.52149000  0.31803000  1.0
  C  C56  1  0.82653000  0.29046000  0.41481000  1.0
  C  C57  1  0.67347000  0.58518000  0.70955000  1.0
  C  C58  1  0.17349000  0.70955000  0.58519000  1.0
  C  C59  1  0.32653000  0.41482000  0.29045000  1.0
  C  C60  1  0.77512000  0.17020000  0.29659000  1.0
  C  C61  1  0.72486000  0.70340000  0.82981000  1.0
  C  C62  1  0.22488000  0.82980000  0.70341000  1.0
  C  C63  1  0.27513000  0.29659000  0.17019000  1.0
  C  C64  1  0.63137000  0.13292000  0.17845000  1.0
  C  C65  1  0.86863000  0.82155000  0.86709000  1.0
  C  C66  1  0.36864000  0.86708000  0.82155000  1.0
  C  C67  1  0.13136000  0.17846000  0.13291000  1.0
  C  C68  1  0.02070000  0.44525000  0.65125000  1.0
  C  C69  1  0.47930000  0.34875000  0.55475000  1.0
  C  C70  1  0.97931000  0.55475000  0.34875000  1.0
  C  C71  1  0.52070000  0.65125000  0.44525000  1.0
  C  C72  1  0.54200000  0.02435000  0.57496000  1.0
  C  C73  1  0.95799000  0.42504000  0.97564000  1.0
  C  C74  1  0.45800000  0.97565000  0.42505000  1.0
  C  C75  1  0.04199000  0.57495000  0.02435000  1.0
  C  C76  1  0.46042000  0.09733000  0.66817000  1.0
  C  C77  1  0.03955000  0.33183000  0.90266000  1.0
  C  C78  1  0.53958000  0.90267000  0.33183000  1.0
  C  C79  1  0.96043000  0.66817000  0.09733000  1.0
  N  N80  1  0.07284000  0.03322000  0.37867000  1.0
  N  N81  1  0.42716000  0.62133000  0.96678000  1.0
  N  N82  1  0.92717000  0.96678000  0.62133000  1.0
  N  N83  1  0.57284000  0.37867000  0.03322000  1.0
  N  N84  1  0.04283000  0.23210000  0.51086000  1.0
  N  N85  1  0.45716000  0.48913000  0.76789000  1.0
  N  N86  1  0.95717000  0.76790000  0.48914000  1.0
  N  N87  1  0.54284000  0.51087000  0.23211000  1.0
  N  N88  1  0.85525000  0.08277000  0.28534000  1.0
  N  N89  1  0.64475000  0.71466000  0.91723000  1.0
  N  N90  1  0.14476000  0.91722000  0.71467000  1.0
  N  N91  1  0.35525000  0.28534000  0.08277000  1.0
  O  O92  1  0.32976000  0.11061000  0.61155000  1.0
  O  O93  1  0.17023000  0.38844000  0.88938000  1.0
  O  O94  1  0.67025000  0.88939000  0.38845000  1.0
  O  O95  1  0.82976000  0.61156000  0.11061000  1.0
  O  O96  1  0.52477000  0.14136000  0.79317000  1.0
  O  O97  1  0.97519000  0.20682000  0.85862000  1.0
  O  O98  1  0.47523000  0.85864000  0.20683000  1.0
  O  O99  1  0.02480000  0.79317000  0.14138000  1.0
