# generated using pymatgen
data_PH6PbC3NO5
_symmetry_space_group_name_H-M   'P 1'
_cell_length_a   4.61231000
_cell_length_b   7.84497000
_cell_length_c   9.91078000
_cell_angle_alpha   104.76000000
_cell_angle_beta   100.68600000
_cell_angle_gamma   90.19120000
_symmetry_Int_Tables_number   1
_chemical_formula_structural   PH6PbC3NO5
_chemical_formula_sum   'P2 H12 Pb2 C6 N2 O10'
_cell_volume   340.27584732
_cell_formula_units_Z   2
loop_
 _symmetry_equiv_pos_site_id
 _symmetry_equiv_pos_as_xyz
  1  'x, y, z'
loop_
 _atom_site_type_symbol
 _atom_site_label
 _atom_site_symmetry_multiplicity
 _atom_site_fract_x
 _atom_site_fract_y
 _atom_site_fract_z
 _atom_site_occupancy
  P  P0  1  0.96530000  0.17343000  0.38316000  1.0
  P  P1  1  0.03472000  0.82658000  0.61684000  1.0
  H  H2  1  0.94761000  0.39534000  0.24541000  1.0
  H  H3  1  0.05238000  0.60466000  0.75460000  1.0
  H  H4  1  0.28960000  0.40626000  0.36410000  1.0
  H  H5  1  0.71040000  0.59375000  0.63591000  1.0
  H  H6  1  0.44181000  0.14716000  0.21657000  1.0
  H  H7  1  0.55817000  0.85284000  0.78343000  1.0
  H  H8  1  0.10439000  0.09883000  0.11510000  1.0
  H  H9  1  0.89558000  0.90117000  0.88489000  1.0
  H  H10  1  0.38241000  0.43651000  0.11896000  1.0
  H  H11  1  0.61756000  0.56348000  0.88104000  1.0
  H  H12  1  0.52555000  0.23809000  0.03199000  1.0
  H  H13  1  0.47445000  0.76190000  0.96801000  1.0
  Pb  Pb14  1  0.43218000  0.79824000  0.32978000  1.0
  Pb  Pb15  1  0.56795000  0.20180000  0.67022000  1.0
  C  C16  1  0.11670000  0.31562000  0.28895000  1.0
  C  C17  1  0.88328000  0.68438000  0.71106000  1.0
  C  C18  1  0.32742000  0.29611000  0.06813000  1.0
  C  C19  1  0.67256000  0.70389000  0.93186000  1.0
  C  C20  1  0.08386000  0.27221000  0.93724000  1.0
  C  C21  1  0.91615000  0.72777000  0.06276000  1.0
  N  N22  1  0.24916000  0.20539000  0.17206000  1.0
  N  N23  1  0.75080000  0.79462000  0.82794000  1.0
  O  O24  1  0.23225000  0.06700000  0.43139000  1.0
  O  O25  1  0.76775000  0.93300000  0.56862000  1.0
  O  O26  1  0.72699000  0.05037000  0.27067000  1.0
  O  O27  1  0.27301000  0.94962000  0.72932000  1.0
  O  O28  1  0.85991000  0.29588000  0.50802000  1.0
  O  O29  1  0.14006000  0.70413000  0.49196000  1.0
  O  O30  1  0.86609000  0.16434000  0.92378000  1.0
  O  O31  1  0.13392000  0.83566000  0.07621000  1.0
  O  O32  1  0.11767000  0.35668000  0.84788000  1.0
  O  O33  1  0.88234000  0.64330000  0.15213000  1.0
