# generated using pymatgen
data_Zn4H36C34O19
_symmetry_space_group_name_H-M   'P 1'
_cell_length_a   18.96810000
_cell_length_b   19.00090000
_cell_length_c   19.02080000
_cell_angle_alpha   93.46510000
_cell_angle_beta   117.91600000
_cell_angle_gamma   118.02100000
_symmetry_Int_Tables_number   1
_chemical_formula_structural   Zn4H36C34O19
_chemical_formula_sum   'Zn8 H72 C68 O38'
_cell_volume   4990.09087155
_cell_formula_units_Z   2
loop_
 _symmetry_equiv_pos_site_id
 _symmetry_equiv_pos_as_xyz
  1  'x, y, z'
loop_
 _atom_site_type_symbol
 _atom_site_label
 _atom_site_symmetry_multiplicity
 _atom_site_fract_x
 _atom_site_fract_y
 _atom_site_fract_z
 _atom_site_occupancy
  Zn  Zn0  1  0.57675000  0.53545000  0.44617000  1.0
  Zn  Zn1  1  0.42614000  0.95822000  0.86834000  1.0
  Zn  Zn2  1  0.57947000  0.12576000  0.04093000  1.0
  Zn  Zn3  1  0.41858000  0.54641000  0.46127000  1.0
  Zn  Zn4  1  0.58423000  0.54775000  0.61922000  1.0
  Zn  Zn5  1  0.41417000  0.96298000  0.03365000  1.0
  Zn  Zn6  1  0.58008000  0.95577000  0.03271000  1.0
  Zn  Zn7  1  0.41989000  0.37619000  0.45313000  1.0
  H  H8  1  0.46958000  0.42596000  0.23176000  1.0
  H  H9  1  0.24598000  0.54200000  0.63350000  1.0
  H  H10  1  0.40622000  0.63202000  0.83506000  1.0
  H  H11  1  0.51410000  0.66260000  0.92857000  1.0
  H  H12  1  0.46831000  0.72638000  0.92057000  1.0
  H  H13  1  0.70232000  0.25047000  0.25389000  1.0
  H  H14  1  0.70277000  0.34232000  0.25130000  1.0
  H  H15  1  0.76308000  0.33248000  0.35105000  1.0
  H  H16  1  0.44371000  0.55841000  0.78706000  1.0
  H  H17  1  0.52369000  0.56118000  0.76245000  1.0
  H  H18  1  0.56578000  0.60902000  0.86863000  1.0
  H  H19  1  0.67276000  0.42549000  0.29353000  1.0
  H  H20  1  0.32929000  0.51948000  0.64068000  1.0
  H  H21  1  0.67779000  0.46445000  0.38292000  1.0
  H  H22  1  0.75727000  0.43471000  0.39411000  1.0
  H  H23  1  0.34377000  0.56653000  0.73330000  1.0
  H  H24  1  0.57229000  0.44163000  0.23948000  1.0
  H  H25  1  0.55193000  0.19530000  0.40182000  1.0
  H  H26  1  0.50082000  0.23689000  0.43312000  1.0
  H  H27  1  0.43397000  0.12637000  0.37685000  1.0
  H  H28  1  0.70588000  0.86431000  0.86535000  1.0
  H  H29  1  0.71660000  0.94553000  0.82101000  1.0
  H  H30  1  0.46122000  0.38992000  0.13857000  1.0
  H  H31  1  0.69154000  0.94147000  0.90044000  1.0
  H  H32  1  0.49191000  0.08344000  0.30757000  1.0
  H  H33  1  0.36654000  0.03090000  0.25722000  1.0
  H  H34  1  0.41122000  0.01760000  0.19801000  1.0
  H  H35  1  0.69007000  0.80431000  0.75188000  1.0
  H  H36  1  0.61458000  0.76134000  0.63880000  1.0
  H  H37  1  0.66827000  0.86944000  0.69318000  1.0
  H  H38  1  0.24036000  0.65379000  0.68123000  1.0
  H  H39  1  0.31712000  0.65337000  0.77973000  1.0
  H  H40  1  0.31580000  0.74532000  0.77410000  1.0
  H  H41  1  0.56926000  0.28349000  0.10897000  1.0
  H  H42  1  0.34556000  0.18348000  0.38071000  1.0
  H  H43  1  0.28543000  0.07832000  0.30980000  1.0
  H  H44  1  0.23361000  0.13818000  0.28043000  1.0
  H  H45  1  0.61190000  0.00281000  0.84820000  1.0
  H  H46  1  0.55492000  0.01371000  0.74814000  1.0
  H  H47  1  0.67018000  0.02935000  0.79325000  1.0
  H  H48  1  0.23202000  0.03041000  0.16713000  1.0
  H  H49  1  0.51393000  0.34018000  0.08920000  1.0
  H  H50  1  0.25227000  0.97364000  0.10763000  1.0
  H  H51  1  0.19383000  0.02523000  0.06061000  1.0
  H  H52  1  0.54079000  0.81598000  0.54724000  1.0
  H  H53  1  0.55357000  0.89838000  0.61438000  1.0
  H  H54  1  0.43839000  0.81819000  0.52009000  1.0
  H  H55  1  0.61482000  0.37215000  0.19109000  1.0
  H  H56  1  0.64408000  0.40384000  0.49999000  1.0
  H  H57  1  0.75709000  0.45658000  0.51034000  1.0
  H  H58  1  0.72784000  0.37709000  0.55646000  1.0
  H  H59  1  0.66454000  0.74317000  0.01927000  1.0
  H  H60  1  0.62465000  0.80924000  0.03157000  1.0
  H  H61  1  0.74130000  0.85613000  0.05077000  1.0
  H  H62  1  0.72727000  0.18753000  0.34343000  1.0
  H  H63  1  0.60480000  0.10809000  0.25618000  1.0
  H  H64  1  0.64396000  0.11022000  0.36196000  1.0
  H  H65  1  0.68968000  0.64881000  0.84589000  1.0
  H  H66  1  0.71782000  0.72057000  0.93572000  1.0
  H  H67  1  0.77849000  0.76055000  0.88438000  1.0
  H  H68  1  0.22538000  0.23376000  0.09984000  1.0
  H  H69  1  0.29352000  0.26286000  0.05370000  1.0
  H  H70  1  0.31425000  0.34381000  0.12967000  1.0
  H  H71  1  0.29427000  0.81374000  0.58853000  1.0
  H  H72  1  0.25540000  0.77901000  0.65630000  1.0
  H  H73  1  0.22766000  0.70242000  0.57037000  1.0
  H  H74  1  0.35099000  0.10255000  0.99634000  1.0
  H  H75  1  0.43056000  0.20153000  0.99351000  1.0
  H  H76  1  0.30637000  0.16140000  0.94487000  1.0
  H  H77  1  0.17955000  0.53706000  0.50674000  1.0
  H  H78  1  0.26670000  0.52087000  0.50993000  1.0
  H  H79  1  0.23486000  0.58263000  0.45241000  1.0
  C  C80  1  0.48938000  0.62853000  0.63615000  1.0
  C  C81  1  0.50099000  0.13723000  0.13958000  1.0
  C  C82  1  0.24083000  0.36970000  0.36193000  1.0
  C  C83  1  0.75934000  0.62991000  0.61827000  1.0
  C  C84  1  0.24180000  0.86829000  0.85591000  1.0
  C  C85  1  0.75841000  0.13053000  0.12132000  1.0
  C  C86  1  0.50273000  0.85637000  0.86051000  1.0
  C  C87  1  0.50414000  0.37609000  0.62870000  1.0
  C  C88  1  0.49836000  0.87568000  0.12837000  1.0
  C  C89  1  0.50233000  0.35943000  0.35999000  1.0
  C  C90  1  0.50218000  0.63608000  0.37064000  1.0
  C  C91  1  0.50032000  0.13479000  0.86946000  1.0
  C  C92  1  0.50315000  0.69053000  0.32107000  1.0
  C  C93  1  0.50013000  0.18831000  0.81900000  1.0
  C  C94  1  0.50234000  0.73528000  0.27756000  1.0
  C  C95  1  0.50102000  0.23316000  0.77550000  1.0
  C  C96  1  0.50115000  0.78369000  0.22858000  1.0
  C  C97  1  0.50215000  0.28197000  0.72691000  1.0
  C  C98  1  0.49966000  0.82669000  0.18330000  1.0
  C  C99  1  0.50332000  0.32570000  0.68234000  1.0
  C  C100  1  0.45929000  0.30716000  0.21061000  1.0
  C  C101  1  0.38888000  0.72946000  0.72070000  1.0
  C  C102  1  0.47491000  0.25611000  0.15389000  1.0
  C  C103  1  0.37933000  0.65353000  0.66470000  1.0
  C  C104  1  0.61387000  0.32771000  0.34488000  1.0
  C  C105  1  0.49441000  0.39694000  0.20600000  1.0
  C  C106  1  0.31226000  0.69315000  0.74130000  1.0
  C  C107  1  0.54856000  0.31656000  0.13588000  1.0
  C  C108  1  0.53774000  0.74086000  0.85331000  1.0
  C  C109  1  0.32268000  0.56603000  0.66936000  1.0
  C  C110  1  0.61047000  0.25521000  0.28971000  1.0
  C  C111  1  0.29661000  0.27852000  0.11203000  1.0
  C  C112  1  0.28246000  0.76679000  0.61999000  1.0
  C  C113  1  0.36904000  0.16727000  0.99932000  1.0
  C  C114  1  0.24764000  0.56721000  0.51010000  1.0
  C  C115  1  0.54457000  0.68488000  0.79149000  1.0
  C  C116  1  0.68344000  0.41810000  0.35320000  1.0
  C  C117  1  0.47747000  0.68733000  0.88535000  1.0
  C  C118  1  0.69901000  0.29784000  0.28505000  1.0
  C  C119  1  0.51632000  0.59785000  0.80183000  1.0
  C  C120  1  0.48537000  0.18987000  0.38259000  1.0
  C  C121  1  0.67750000  0.90261000  0.84458000  1.0
  C  C122  1  0.42537000  0.06375000  0.24813000  1.0
  C  C123  1  0.63592000  0.80526000  0.69608000  1.0
  C  C124  1  0.30213000  0.14311000  0.31324000  1.0
  C  C125  1  0.59952000  0.99131000  0.78479000  1.0
  C  C126  1  0.25064000  0.03014000  0.12035000  1.0
  C  C127  1  0.50617000  0.83052000  0.57355000  1.0
  C  C128  1  0.69815000  0.39517000  0.50141000  1.0
  C  C129  1  0.66582000  0.80061000  0.01029000  1.0
  C  C130  1  0.65148000  0.15053000  0.32349000  1.0
  C  C131  1  0.70891000  0.71276000  0.87364000  1.0
  C  C132  1  0.44013000  0.20205000  0.29704000  1.0
  C  C133  1  0.56964000  0.84784000  0.77237000  1.0
  C  C134  1  0.42614000  0.13950000  0.22292000  1.0
  C  C135  1  0.54543000  0.78012000  0.69476000  1.0
  C  C136  1  0.50418000  0.29943000  0.30368000  1.0
  C  C137  1  0.49932000  0.79288000  0.80314000  1.0
  C  C138  1  0.50373000  0.19572000  0.20194000  1.0
  C  C139  1  0.48824000  0.68427000  0.69690000  1.0
  C  C140  1  0.13669000  0.31757000  0.30865000  1.0
  C  C141  1  0.86250000  0.18248000  0.17216000  1.0
  C  C142  1  0.13768000  0.81506000  0.80149000  1.0
  C  C143  1  0.86344000  0.67996000  0.66790000  1.0
  C  C144  1  0.04832000  0.27410000  0.26444000  1.0
  C  C145  1  0.95085000  0.22605000  0.21592000  1.0
  C  C146  1  0.04930000  0.77098000  0.75772000  1.0
  C  C147  1  0.95180000  0.72293000  0.71019000  1.0
  O  O148  1  0.49961000  0.50170000  0.49424000  1.0
  O  O149  1  0.56626000  0.17251000  0.12440000  1.0
  O  O150  1  0.45748000  0.32898000  0.39500000  1.0
  O  O151  1  0.54767000  0.60563000  0.66793000  1.0
  O  O152  1  0.43392000  0.05771000  0.10386000  1.0
  O  O153  1  0.55492000  0.87643000  0.94136000  1.0
  O  O154  1  0.36006000  0.26617000  0.18002000  1.0
  O  O155  1  0.37434000  0.78129000  0.67286000  1.0
  O  O156  1  0.38355000  0.21116000  0.07303000  1.0
  O  O157  1  0.32236000  0.64690000  0.57869000  1.0
  O  O158  1  0.45350000  0.88668000  0.82478000  1.0
  O  O159  1  0.54817000  0.43869000  0.37005000  1.0
  O  O160  1  0.34421000  0.17830000  0.26856000  1.0
  O  O161  1  0.54580000  0.90346000  0.73552000  1.0
  O  O162  1  0.33666000  0.10722000  0.14392000  1.0
  O  O163  1  0.47722000  0.77493000  0.61522000  1.0
  O  O164  1  0.43459000  0.61087000  0.55655000  1.0
  O  O165  1  0.65796000  0.32627000  0.42987000  1.0
  O  O166  1  0.63580000  0.79981000  0.92633000  1.0
  O  O167  1  0.62303000  0.20316000  0.34007000  1.0
  O  O168  1  0.64300000  0.73010000  0.81666000  1.0
  O  O169  1  0.49960000  0.00070000  0.99364000  1.0
  O  O170  1  0.72151000  0.62107000  0.66038000  1.0
  O  O171  1  0.27838000  0.88853000  0.93572000  1.0
  O  O172  1  0.71834000  0.05029000  0.10359000  1.0
  O  O173  1  0.28127000  0.32954000  0.38031000  1.0
  O  O174  1  0.57289000  0.45519000  0.66581000  1.0
  O  O175  1  0.43788000  0.89595000  0.10634000  1.0
  O  O176  1  0.55791000  0.89315000  0.10755000  1.0
  O  O177  1  0.43590000  0.33597000  0.54980000  1.0
  O  O178  1  0.44522000  0.61819000  0.39450000  1.0
  O  O179  1  0.54652000  0.17254000  0.94951000  1.0
  O  O180  1  0.45456000  0.05555000  0.82859000  1.0
  O  O181  1  0.55825000  0.61172000  0.38478000  1.0
  O  O182  1  0.71648000  0.59996000  0.53774000  1.0
  O  O183  1  0.28564000  0.88928000  0.81872000  1.0
  O  O184  1  0.71780000  0.17043000  0.09979000  1.0
  O  O185  1  0.28073000  0.45016000  0.38502000  1.0
