# generated using pymatgen
data_CdH4(C2N3)2
_symmetry_space_group_name_H-M   'P 1'
_cell_length_a   13.23810000
_cell_length_b   13.23805998
_cell_length_c   13.23805998
_cell_angle_alpha   60.00000000
_cell_angle_beta   60.00010000
_cell_angle_gamma   60.00010000
_symmetry_Int_Tables_number   1
_chemical_formula_structural   CdH4(C2N3)2
_chemical_formula_sum   'Cd6 H24 C24 N36'
_cell_volume   1640.43869540
_cell_formula_units_Z   6
loop_
 _symmetry_equiv_pos_site_id
 _symmetry_equiv_pos_as_xyz
  1  'x, y, z'
loop_
 _atom_site_type_symbol
 _atom_site_label
 _atom_site_symmetry_multiplicity
 _atom_site_fract_x
 _atom_site_fract_y
 _atom_site_fract_z
 _atom_site_occupancy
  Cd  Cd0  1  0.00000000  0.00000000  0.00000000  1.0
  Cd  Cd1  1  0.50000000  0.00000000  0.50000000  1.0
  Cd  Cd2  1  0.00000000  0.50000000  0.50000000  1.0
  Cd  Cd3  1  0.00000000  0.00000000  0.50000000  1.0
  Cd  Cd4  1  0.87500000  0.87500000  0.37500000  1.0
  Cd  Cd5  1  0.12500000  0.12500000  0.62500000  1.0
  H  H6  1  0.70017000  0.15636000  0.98711000  1.0
  H  H7  1  0.48710000  0.15636000  0.20018000  1.0
  H  H8  1  0.15635000  0.48711000  0.65636000  1.0
  H  H9  1  0.15635000  0.70018000  0.65636000  1.0
  H  H10  1  0.15635000  0.15636000  0.98711000  1.0
  H  H11  1  0.15635000  0.15636000  0.20018000  1.0
  H  H12  1  0.48711000  0.70017000  0.65636000  1.0
  H  H13  1  0.70018000  0.48710000  0.65636000  1.0
  H  H14  1  0.15635000  0.70018000  0.98711000  1.0
  H  H15  1  0.15635000  0.48711000  0.20018000  1.0
  H  H16  1  0.70017000  0.15636000  0.65636000  1.0
  H  H17  1  0.48711000  0.15636000  0.65636000  1.0
  H  H18  1  0.51290000  0.84364000  0.79982000  1.0
  H  H19  1  0.29983000  0.84364000  0.01289000  1.0
  H  H20  1  0.84365000  0.51289000  0.34364000  1.0
  H  H21  1  0.84365000  0.29982000  0.34364000  1.0
  H  H22  1  0.51290000  0.84364000  0.34364000  1.0
  H  H23  1  0.29983000  0.84364000  0.34364000  1.0
  H  H24  1  0.84364000  0.29982000  0.01290000  1.0
  H  H25  1  0.84364000  0.51290000  0.79982000  1.0
  H  H26  1  0.51289000  0.29983000  0.34364000  1.0
  H  H27  1  0.29983000  0.51289000  0.34364000  1.0
  H  H28  1  0.84364000  0.84364000  0.79982000  1.0
  H  H29  1  0.84364000  0.84364000  0.01290000  1.0
  C  C30  1  0.68950000  0.11291000  0.08468000  1.0
  C  C31  1  0.58468000  0.11291000  0.18950000  1.0
  C  C32  1  0.11291000  0.58468000  0.61291000  1.0
  C  C33  1  0.11291000  0.68950000  0.61291000  1.0
  C  C34  1  0.11291000  0.11291000  0.08468000  1.0
  C  C35  1  0.11291000  0.11291000  0.18950000  1.0
  C  C36  1  0.58468000  0.68950000  0.61291000  1.0
  C  C37  1  0.68950000  0.58468000  0.61291000  1.0
  C  C38  1  0.11291000  0.68950000  0.08468000  1.0
  C  C39  1  0.11291000  0.58468000  0.18950000  1.0
  C  C40  1  0.68950000  0.11291000  0.61291000  1.0
  C  C41  1  0.58468000  0.11291000  0.61291000  1.0
  C  C42  1  0.41532000  0.88709000  0.81050000  1.0
  C  C43  1  0.31050000  0.88709000  0.91532000  1.0
  C  C44  1  0.88709000  0.41532000  0.38709000  1.0
  C  C45  1  0.88709000  0.31050000  0.38709000  1.0
  C  C46  1  0.41532000  0.88709000  0.38709000  1.0
  C  C47  1  0.31050000  0.88709000  0.38709000  1.0
  C  C48  1  0.88709000  0.31050000  0.91532000  1.0
  C  C49  1  0.88709000  0.41532000  0.81050000  1.0
  C  C50  1  0.41532000  0.31050000  0.38709000  1.0
  C  C51  1  0.31050000  0.41532000  0.38709000  1.0
  C  C52  1  0.88709000  0.88709000  0.81050000  1.0
  C  C53  1  0.88709000  0.88709000  0.91532000  1.0
  N  N54  1  0.78874000  0.04382000  0.12362000  1.0
  N  N55  1  0.62362000  0.04382000  0.28874000  1.0
  N  N56  1  0.04382000  0.62362000  0.54382000  1.0
  N  N57  1  0.04382000  0.78874000  0.54382000  1.0
  N  N58  1  0.04382000  0.04382000  0.12362000  1.0
  N  N59  1  0.04382000  0.04382000  0.28874000  1.0
  N  N60  1  0.62362000  0.78874000  0.54382000  1.0
  N  N61  1  0.78874000  0.62362000  0.54382000  1.0
  N  N62  1  0.04382000  0.78874000  0.12362000  1.0
  N  N63  1  0.04382000  0.62362000  0.28874000  1.0
  N  N64  1  0.78874000  0.04382000  0.54382000  1.0
  N  N65  1  0.62362000  0.04382000  0.54382000  1.0
  N  N66  1  0.37638000  0.95618000  0.71126000  1.0
  N  N67  1  0.21126000  0.95618000  0.87638000  1.0
  N  N68  1  0.95617000  0.37639000  0.45618000  1.0
  N  N69  1  0.95618000  0.21126000  0.45618000  1.0
  N  N70  1  0.37638000  0.95618000  0.45618000  1.0
  N  N71  1  0.21126000  0.95618000  0.45618000  1.0
  N  N72  1  0.95618000  0.21126000  0.87638000  1.0
  N  N73  1  0.95618000  0.37638000  0.71126000  1.0
  N  N74  1  0.37638000  0.21126000  0.45618000  1.0
  N  N75  1  0.21126000  0.37638000  0.45618000  1.0
  N  N76  1  0.95618000  0.95618000  0.71126000  1.0
  N  N77  1  0.95618000  0.95618000  0.87638000  1.0
  N  N78  1  0.74711000  0.00289000  0.24711000  1.0
  N  N79  1  0.00289000  0.74711000  0.50289000  1.0
  N  N80  1  0.00289000  0.00289000  0.24711000  1.0
  N  N81  1  0.74711000  0.74711000  0.50289000  1.0
  N  N82  1  0.00289000  0.74711000  0.24711000  1.0
  N  N83  1  0.74711000  0.00289000  0.50289000  1.0
  N  N84  1  0.25289000  0.99711000  0.75289000  1.0
  N  N85  1  0.99711000  0.25289000  0.49711000  1.0
  N  N86  1  0.25289000  0.99711000  0.49711000  1.0
  N  N87  1  0.99711000  0.25289000  0.75289000  1.0
  N  N88  1  0.25289000  0.25289000  0.49711000  1.0
  N  N89  1  0.99711000  0.99711000  0.75289000  1.0
