# generated using pymatgen
data_HgH10C12Br2(N2O)2
_symmetry_space_group_name_H-M   'P 1'
_cell_length_a   5.01836000
_cell_length_b   11.44220000
_cell_length_c   13.69190000
_cell_angle_alpha   81.85870000
_cell_angle_beta   89.94980000
_cell_angle_gamma   89.97070000
_symmetry_Int_Tables_number   1
_chemical_formula_structural   HgH10C12Br2(N2O)2
_chemical_formula_sum   'Hg2 H20 C24 Br4 N8 O4'
_cell_volume   778.27982088
_cell_formula_units_Z   2
loop_
 _symmetry_equiv_pos_site_id
 _symmetry_equiv_pos_as_xyz
  1  'x, y, z'
loop_
 _atom_site_type_symbol
 _atom_site_label
 _atom_site_symmetry_multiplicity
 _atom_site_fract_x
 _atom_site_fract_y
 _atom_site_fract_z
 _atom_site_occupancy
  Hg  Hg0  1  0.11577000  0.50000000  0.25008000  1.0
  Hg  Hg1  1  0.88421000  0.49995000  0.74997000  1.0
  H  H2  1  0.85701000  0.06309000  0.42406000  1.0
  H  H3  1  0.85661000  0.93695000  0.07590000  1.0
  H  H4  1  0.14333000  0.93689000  0.57586000  1.0
  H  H5  1  0.14322000  0.06306000  0.92412000  1.0
  H  H6  1  0.55841000  0.39917000  0.08238000  1.0
  H  H7  1  0.55807000  0.60077000  0.41760000  1.0
  H  H8  1  0.44137000  0.60076000  0.91757000  1.0
  H  H9  1  0.44184000  0.39922000  0.58241000  1.0
  H  H10  1  0.91817000  0.24853000  0.08422000  1.0
  H  H11  1  0.91736000  0.75148000  0.41569000  1.0
  H  H12  1  0.08165000  0.75141000  0.91569000  1.0
  H  H13  1  0.08258000  0.24850000  0.58431000  1.0
  H  H14  1  0.97842000  0.09802000  0.23551000  1.0
  H  H15  1  0.97742000  0.90207000  0.26444000  1.0
  H  H16  1  0.02172000  0.90200000  0.76445000  1.0
  H  H17  1  0.02237000  0.09797000  0.73560000  1.0
  H  H18  1  0.31478000  0.26185000  0.36466000  1.0
  H  H19  1  0.31469000  0.73814000  0.13541000  1.0
  H  H20  1  0.68540000  0.73813000  0.63536000  1.0
  H  H21  1  0.68520000  0.26186000  0.86460000  1.0
  C  C22  1  0.58563000  0.33127000  0.14589000  1.0
  C  C23  1  0.58517000  0.66870000  0.35411000  1.0
  C  C24  1  0.41427000  0.66868000  0.85408000  1.0
  C  C25  1  0.41476000  0.33130000  0.64590000  1.0
  C  C26  1  0.78603000  0.24653000  0.14760000  1.0
  C  C27  1  0.78530000  0.75348000  0.35236000  1.0
  C  C28  1  0.21392000  0.75344000  0.85234000  1.0
  C  C29  1  0.21461000  0.24652000  0.64766000  1.0
  C  C30  1  0.81769000  0.16254000  0.23104000  1.0
  C  C31  1  0.81685000  0.83752000  0.26893000  1.0
  C  C32  1  0.18241000  0.83746000  0.76891000  1.0
  C  C33  1  0.18302000  0.16250000  0.73109000  1.0
  C  C34  1  0.64267000  0.16489000  0.31006000  1.0
  C  C35  1  0.64205000  0.83518000  0.18995000  1.0
  C  C36  1  0.35754000  0.83513000  0.68992000  1.0
  C  C37  1  0.35780000  0.16486000  0.81008000  1.0
  C  C38  1  0.44861000  0.25359000  0.30324000  1.0
  C  C39  1  0.44830000  0.74641000  0.19681000  1.0
  C  C40  1  0.55152000  0.74640000  0.69676000  1.0
  C  C41  1  0.55160000  0.25360000  0.80321000  1.0
  C  C42  1  0.45888000  0.03704000  0.45109000  1.0
  C  C43  1  0.45852000  0.96295000  0.04889000  1.0
  C  C44  1  0.54145000  0.96292000  0.54886000  1.0
  C  C45  1  0.54131000  0.03706000  0.95113000  1.0
  Br  Br46  1  0.93860000  0.39627000  0.41429000  1.0
  Br  Br47  1  0.93917000  0.60375000  0.08590000  1.0
  Br  Br48  1  0.06156000  0.60378000  0.58582000  1.0
  Br  Br49  1  0.06099000  0.39637000  0.91418000  1.0
  N  N50  1  0.42245000  0.33482000  0.22353000  1.0
  N  N51  1  0.42219000  0.66516000  0.27652000  1.0
  N  N52  1  0.57755000  0.66515000  0.77646000  1.0
  N  N53  1  0.57772000  0.33485000  0.72351000  1.0
  N  N54  1  0.66820000  0.08544000  0.39820000  1.0
  N  N55  1  0.66773000  0.91461000  0.10179000  1.0
  N  N56  1  0.33210000  0.91456000  0.60176000  1.0
  N  N57  1  0.33210000  0.08542000  0.89823000  1.0
  O  O58  1  0.22156000  0.04802000  0.42571000  1.0
  O  O59  1  0.22110000  0.95200000  0.07431000  1.0
  O  O60  1  0.77875000  0.95196000  0.57426000  1.0
  O  O61  1  0.77873000  0.04804000  0.92572000  1.0
