# generated using pymatgen
data_CuH14C20S4(N5O7)2
_symmetry_space_group_name_H-M   'P 1'
_cell_length_a   8.83140000
_cell_length_b   9.19832000
_cell_length_c   10.60340000
_cell_angle_alpha   67.41120000
_cell_angle_beta   86.29400000
_cell_angle_gamma   71.10400000
_symmetry_Int_Tables_number   1
_chemical_formula_structural   CuH14C20S4(N5O7)2
_chemical_formula_sum   'Cu1 H14 C20 S4 N10 O14'
_cell_volume   750.65638604
_cell_formula_units_Z   1
loop_
 _symmetry_equiv_pos_site_id
 _symmetry_equiv_pos_as_xyz
  1  'x, y, z'
loop_
 _atom_site_type_symbol
 _atom_site_label
 _atom_site_symmetry_multiplicity
 _atom_site_fract_x
 _atom_site_fract_y
 _atom_site_fract_z
 _atom_site_occupancy
  Cu  Cu0  1  0.00000000  0.00000000  0.00000000  1.0
  H  H1  1  0.08224000  0.16509000  0.16854000  1.0
  H  H2  1  0.91776000  0.83491000  0.83146000  1.0
  H  H3  1  0.26493000  0.15408000  0.23917000  1.0
  H  H4  1  0.73507000  0.84592000  0.76083000  1.0
  H  H5  1  0.16702000  0.00449000  0.32900000  1.0
  H  H6  1  0.83298000  0.99550000  0.67100000  1.0
  H  H7  1  0.47311000  0.66107000  0.86941000  1.0
  H  H8  1  0.52689000  0.33893000  0.13059000  1.0
  H  H9  1  0.64865000  0.48135000  0.91452000  1.0
  H  H10  1  0.35135000  0.51865000  0.08548000  1.0
  H  H11  1  0.35293000  0.23256000  0.45111000  1.0
  H  H12  1  0.64707000  0.76744000  0.54889000  1.0
  H  H13  1  0.10951000  0.58403000  0.63291000  1.0
  H  H14  1  0.89049000  0.41597000  0.36709000  1.0
  C  C15  1  0.19521000  0.08030000  0.22745000  1.0
  C  C16  1  0.80479000  0.91970000  0.77255000  1.0
  C  C17  1  0.28666000  0.96974000  0.15806000  1.0
  C  C18  1  0.71334000  0.03026000  0.84195000  1.0
  C  C19  1  0.47847000  0.77147000  0.08074000  1.0
  C  C20  1  0.52153000  0.22852000  0.91926000  1.0
  C  C21  1  0.54803000  0.55360000  0.95484000  1.0
  C  C22  1  0.45196000  0.44640000  0.04516000  1.0
  C  C23  1  0.11318000  0.17694000  0.72896000  1.0
  C  C24  1  0.88682000  0.82306000  0.27104000  1.0
  C  C25  1  0.21234000  0.14888000  0.62081000  1.0
  C  C26  1  0.78766000  0.85113000  0.37919000  1.0
  C  C27  1  0.27236000  0.26347000  0.52597000  1.0
  C  C28  1  0.72764000  0.73654000  0.47403000  1.0
  C  C29  1  0.23102000  0.42229000  0.53003000  1.0
  C  C30  1  0.76898000  0.57771000  0.46997000  1.0
  C  C31  1  0.13773000  0.46108000  0.63013000  1.0
  C  C32  1  0.86227000  0.53893000  0.36987000  1.0
  C  C33  1  0.08136000  0.34212000  0.72840000  1.0
  C  C34  1  0.91863000  0.65788000  0.27160000  1.0
  S  S35  1  0.48993000  0.86615000  0.19171000  1.0
  S  S36  1  0.51007000  0.13385000  0.80829000  1.0
  S  S37  1  0.64509000  0.62760000  0.05228000  1.0
  S  S38  1  0.35491000  0.37240000  0.94773000  1.0
  N  N39  1  0.22708000  0.93092000  0.06908000  1.0
  N  N40  1  0.77292000  0.06908000  0.93092000  1.0
  N  N41  1  0.33341000  0.81947000  0.02398000  1.0
  N  N42  1  0.66659000  0.18053000  0.97602000  1.0
  N  N43  1  0.26216000  0.98016000  0.62107000  1.0
  N  N44  1  0.73784000  0.01984000  0.37893000  1.0
  N  N45  1  0.28764000  0.54836000  0.42819000  1.0
  N  N46  1  0.71235000  0.45164000  0.57180000  1.0
  N  N47  1  0.98352000  0.39667000  0.82746000  1.0
  N  N48  1  0.01648000  0.60333000  0.17253000  1.0
  O  O49  1  0.06613000  0.05955000  0.81088000  1.0
  O  O50  1  0.93388000  0.94045000  0.18913000  1.0
  O  O51  1  0.40929000  0.90636000  0.63132000  1.0
  O  O52  1  0.59072000  0.09364000  0.36868000  1.0
  O  O53  1  0.15665000  0.92301000  0.61232000  1.0
  O  O54  1  0.84335000  0.07699000  0.38768000  1.0
  O  O55  1  0.37042000  0.51021000  0.33889000  1.0
  O  O56  1  0.62958000  0.48979000  0.66111000  1.0
  O  O57  1  0.24898000  0.68787000  0.43466000  1.0
  O  O58  1  0.75102000  0.31213000  0.56533000  1.0
  O  O59  1  0.92140000  0.54880000  0.79751000  1.0
  O  O60  1  0.07860000  0.45120000  0.20248000  1.0
  O  O61  1  0.96550000  0.29081000  0.93894000  1.0
  O  O62  1  0.03450000  0.70919000  0.06106000  1.0
