# generated using pymatgen
data_KH11C10(OF4)3
_symmetry_space_group_name_H-M   'P 1'
_cell_length_a   8.00386000
_cell_length_b   13.78910000
_cell_length_c   14.49040000
_cell_angle_alpha   90.00000000
_cell_angle_beta   90.00000000
_cell_angle_gamma   93.48720000
_symmetry_Int_Tables_number   1
_chemical_formula_structural   KH11C10(OF4)3
_chemical_formula_sum   'K4 H44 C40 O12 F48'
_cell_volume   1596.28671375
_cell_formula_units_Z   4
loop_
 _symmetry_equiv_pos_site_id
 _symmetry_equiv_pos_as_xyz
  1  'x, y, z'
loop_
 _atom_site_type_symbol
 _atom_site_label
 _atom_site_symmetry_multiplicity
 _atom_site_fract_x
 _atom_site_fract_y
 _atom_site_fract_z
 _atom_site_occupancy
  K  K0  1  0.65554000  0.39560000  0.53493000  1.0
  K  K1  1  0.34446000  0.10440000  0.03493000  1.0
  K  K2  1  0.34446000  0.60440000  0.46507000  1.0
  K  K3  1  0.65554000  0.89560000  0.96507000  1.0
  H  H4  1  0.68838000  0.07143000  0.47146000  1.0
  H  H5  1  0.31162000  0.42857000  0.97146000  1.0
  H  H6  1  0.31162000  0.92857000  0.52854000  1.0
  H  H7  1  0.68838000  0.57143000  0.02853000  1.0
  H  H8  1  0.63279000  0.08875000  0.58934000  1.0
  H  H9  1  0.36721000  0.41125000  0.08934000  1.0
  H  H10  1  0.36721000  0.91125000  0.41066000  1.0
  H  H11  1  0.63279000  0.58875000  0.91066000  1.0
  H  H12  1  0.94455000  0.10992000  0.56417000  1.0
  H  H13  1  0.05545000  0.39008000  0.06417000  1.0
  H  H14  1  0.05546000  0.89008000  0.43583000  1.0
  H  H15  1  0.94455000  0.60992000  0.93583000  1.0
  H  H16  1  0.86548000  0.21872000  0.60548000  1.0
  H  H17  1  0.13451000  0.28128000  0.10548000  1.0
  H  H18  1  0.13452000  0.78128000  0.39452000  1.0
  H  H19  1  0.86549000  0.71872000  0.89452000  1.0
  H  H20  1  0.91469000  0.20679000  0.48613000  1.0
  H  H21  1  0.08531000  0.29320000  0.98613000  1.0
  H  H22  1  0.08531000  0.79321000  0.51387000  1.0
  H  H23  1  0.91469000  0.70679000  0.01387000  1.0
  H  H24  1  0.35147000  0.13289000  0.53114000  1.0
  H  H25  1  0.64853000  0.36711000  0.03114000  1.0
  H  H26  1  0.64853000  0.86711000  0.46886000  1.0
  H  H27  1  0.35147000  0.63289000  0.96886000  1.0
  H  H28  1  0.43217000  0.10821000  0.41931000  1.0
  H  H29  1  0.56783000  0.39179000  0.91931000  1.0
  H  H30  1  0.56783000  0.89179000  0.58069000  1.0
  H  H31  1  0.43217000  0.60821000  0.08069000  1.0
  H  H32  1  0.19848000  0.22233000  0.41273000  1.0
  H  H33  1  0.80152000  0.27767000  0.91273000  1.0
  H  H34  1  0.80152000  0.77767000  0.58727000  1.0
  H  H35  1  0.19848000  0.72233000  0.08727000  1.0
  H  H36  1  0.38803000  0.27797000  0.36915000  1.0
  H  H37  1  0.61197000  0.22203000  0.86915000  1.0
  H  H38  1  0.61197000  0.72203000  0.63085000  1.0
  H  H39  1  0.38803000  0.77797000  0.13085000  1.0
  H  H40  1  0.31569000  0.30705000  0.48211000  1.0
  H  H41  1  0.68431000  0.19295000  0.98211000  1.0
  H  H42  1  0.68431000  0.69296000  0.51789000  1.0
  H  H43  1  0.31569000  0.80705000  0.01789000  1.0
  H  H44  1  0.12176000  0.41223000  0.55719000  1.0
  H  H45  1  0.87824000  0.08777000  0.05719000  1.0
  H  H46  1  0.87824000  0.58777000  0.44281000  1.0
  H  H47  1  0.12176000  0.91223000  0.94281000  1.0
  C  C48  1  0.27244000  0.44802000  0.67230000  1.0
  C  C49  1  0.72756000  0.05198000  0.17230000  1.0
  C  C50  1  0.72756000  0.55198000  0.32770000  1.0
  C  C51  1  0.27244000  0.94802000  0.82770000  1.0
  C  C52  1  0.32269000  0.34534000  0.70962000  1.0
  C  C53  1  0.67731000  0.15466000  0.20962000  1.0
  C  C54  1  0.67732000  0.65466000  0.29038000  1.0
  C  C55  1  0.32269000  0.84534000  0.79038000  1.0
  C  C56  1  0.36760000  0.52930000  0.73186000  1.0
  C  C57  1  0.63240000  0.97070000  0.23185000  1.0
  C  C58  1  0.63240000  0.47070000  0.26815000  1.0
  C  C59  1  0.36760000  0.02930000  0.76815000  1.0
  C  C60  1  0.06313000  0.45404000  0.67499000  1.0
  C  C61  1  0.93687000  0.04596000  0.17499000  1.0
  C  C62  1  0.93687000  0.54596000  0.32501000  1.0
  C  C63  1  0.06313000  0.95404000  0.82501000  1.0
  C  C64  1  0.00479000  0.56063000  0.66687000  1.0
  C  C65  1  0.99521000  0.93938000  0.16687000  1.0
  C  C66  1  0.99521000  0.43938000  0.33313000  1.0
  C  C67  1  0.00478000  0.06062000  0.83313000  1.0
  C  C68  1  0.96475000  0.40321000  0.75662000  1.0
  C  C69  1  0.03525000  0.09679000  0.25662000  1.0
  C  C70  1  0.03525000  0.59679000  0.24338000  1.0
  C  C71  1  0.96475000  0.90321000  0.74338000  1.0
  C  C72  1  0.68710000  0.12563000  0.52753000  1.0
  C  C73  1  0.31290000  0.37437000  0.02753000  1.0
  C  C74  1  0.31290000  0.87438000  0.47247000  1.0
  C  C75  1  0.68710000  0.62563000  0.97247000  1.0
  C  C76  1  0.86234000  0.16823000  0.54689000  1.0
  C  C77  1  0.13765000  0.33177000  0.04689000  1.0
  C  C78  1  0.13766000  0.83177000  0.45311000  1.0
  C  C79  1  0.86235000  0.66823000  0.95311000  1.0
  C  C80  1  0.41936000  0.16577000  0.47141000  1.0
  C  C81  1  0.58064000  0.33423000  0.97141000  1.0
  C  C82  1  0.58064000  0.83423000  0.52859000  1.0
  C  C83  1  0.41936000  0.66577000  0.02859000  1.0
  C  C84  1  0.32619000  0.24839000  0.43152000  1.0
  C  C85  1  0.67381000  0.25161000  0.93152000  1.0
  C  C86  1  0.67381000  0.75161000  0.56848000  1.0
  C  C87  1  0.32619000  0.74839000  0.06848000  1.0
  O  O88  1  0.31672000  0.45395000  0.58299000  1.0
  O  O89  1  0.68328000  0.04605000  0.08299000  1.0
  O  O90  1  0.68328000  0.54605000  0.41701000  1.0
  O  O91  1  0.31672000  0.95395000  0.91701000  1.0
  O  O92  1  0.01204000  0.40760000  0.59324000  1.0
  O  O93  1  0.98796000  0.09240000  0.09324000  1.0
  O  O94  1  0.98796000  0.59240000  0.40676000  1.0
  O  O95  1  0.01204000  0.90760000  0.90676000  1.0
  O  O96  1  0.58351000  0.20218000  0.49993000  1.0
  O  O97  1  0.41649000  0.29782000  0.99993000  1.0
  O  O98  1  0.41649000  0.79782000  0.50007000  1.0
  O  O99  1  0.58351000  0.70218000  0.00007000  1.0
  F  F100  1  0.48948000  0.33354000  0.69366000  1.0
  F  F101  1  0.51052000  0.16646000  0.19366000  1.0
  F  F102  1  0.51052000  0.66646000  0.30634000  1.0
  F  F103  1  0.48948000  0.83354000  0.80634000  1.0
  F  F104  1  0.29916000  0.33084000  0.80160000  1.0
  F  F105  1  0.70084000  0.16916000  0.30160000  1.0
  F  F106  1  0.70084000  0.66916000  0.19840000  1.0
  F  F107  1  0.29916000  0.83084000  0.69840000  1.0
  F  F108  1  0.23992000  0.27214000  0.66288000  1.0
  F  F109  1  0.76007000  0.22787000  0.16288000  1.0
  F  F110  1  0.76008000  0.72787000  0.33712000  1.0
  F  F111  1  0.23993000  0.77213000  0.83712000  1.0
  F  F112  1  0.53402000  0.51418000  0.73734000  1.0
  F  F113  1  0.46598000  0.98582000  0.23734000  1.0
  F  F114  1  0.46598000  0.48582000  0.26266000  1.0
  F  F115  1  0.53402000  0.01418000  0.76266000  1.0
  F  F116  1  0.35890000  0.61851000  0.69277000  1.0
  F  F117  1  0.64110000  0.88149000  0.19277000  1.0
  F  F118  1  0.64110000  0.38149000  0.30723000  1.0
  F  F119  1  0.35890000  0.11851000  0.80723000  1.0
  F  F120  1  0.31108000  0.53531000  0.82019000  1.0
  F  F121  1  0.68892000  0.96469000  0.32019000  1.0
  F  F122  1  0.68892000  0.46469000  0.17981000  1.0
  F  F123  1  0.31108000  0.03531000  0.67981000  1.0
  F  F124  1  0.84019000  0.55961000  0.64065000  1.0
  F  F125  1  0.15981000  0.94039000  0.14065000  1.0
  F  F126  1  0.15981000  0.44039000  0.35935000  1.0
  F  F127  1  0.84019000  0.05961000  0.85935000  1.0
  F  F128  1  0.08896000  0.61196000  0.59918000  1.0
  F  F129  1  0.91104000  0.88804000  0.09918000  1.0
  F  F130  1  0.91104000  0.38804000  0.40082000  1.0
  F  F131  1  0.08896000  0.11196000  0.90082000  1.0
  F  F132  1  0.01979000  0.61192000  0.74609000  1.0
  F  F133  1  0.98021000  0.88808000  0.24609000  1.0
  F  F134  1  0.98021000  0.38808000  0.25392000  1.0
  F  F135  1  0.01979000  0.11192000  0.75392000  1.0
  F  F136  1  0.79710000  0.41588000  0.74948000  1.0
  F  F137  1  0.20290000  0.08412000  0.24948000  1.0
  F  F138  1  0.20289000  0.58412000  0.25052000  1.0
  F  F139  1  0.79711000  0.91588000  0.75052000  1.0
  F  F140  1  0.01350000  0.43848000  0.84059000  1.0
  F  F141  1  0.98649000  0.06152000  0.34059000  1.0
  F  F142  1  0.98650000  0.56152000  0.15941000  1.0
  F  F143  1  0.01351000  0.93848000  0.65941000  1.0
  F  F144  1  0.97819000  0.30603000  0.75713000  1.0
  F  F145  1  0.02181000  0.19397000  0.25713000  1.0
  F  F146  1  0.02181000  0.69397000  0.24287000  1.0
  F  F147  1  0.97819000  0.80603000  0.74287000  1.0
