# generated using pymatgen
data_CuP2H32C18(NO4)2
_symmetry_space_group_name_H-M   'P 1'
_cell_length_a   6.62482000
_cell_length_b   9.10941000
_cell_length_c   9.76850000
_cell_angle_alpha   79.37690000
_cell_angle_beta   82.63550000
_cell_angle_gamma   73.93670000
_symmetry_Int_Tables_number   1
_chemical_formula_structural   CuP2H32C18(NO4)2
_chemical_formula_sum   'Cu1 P2 H32 C18 N2 O8'
_cell_volume   554.92404713
_cell_formula_units_Z   1
loop_
 _symmetry_equiv_pos_site_id
 _symmetry_equiv_pos_as_xyz
  1  'x, y, z'
loop_
 _atom_site_type_symbol
 _atom_site_label
 _atom_site_symmetry_multiplicity
 _atom_site_fract_x
 _atom_site_fract_y
 _atom_site_fract_z
 _atom_site_occupancy
  Cu  Cu0  1  0.50000000  0.00000000  0.50000000  1.0
  P  P1  1  0.18575000  0.32751000  0.39493000  1.0
  P  P2  1  0.81425000  0.67249000  0.60507000  1.0
  H  H3  1  0.92567000  0.04007000  0.40808000  1.0
  H  H4  1  0.07432000  0.95994000  0.59192000  1.0
  H  H5  1  0.15179000  0.05069000  0.19269000  1.0
  H  H6  1  0.84820000  0.94931000  0.80731000  1.0
  H  H7  1  0.67947000  0.93375000  0.99453000  1.0
  H  H8  1  0.32054000  0.06624000  0.00547000  1.0
  H  H9  1  0.47320000  0.92394000  0.22630000  1.0
  H  H10  1  0.52681000  0.07605000  0.77369000  1.0
  H  H11  1  0.59083000  0.30222000  0.23489000  1.0
  H  H12  1  0.40916000  0.69778000  0.76511000  1.0
  H  H13  1  0.52912000  0.48231000  0.29734000  1.0
  H  H14  1  0.47088000  0.51769000  0.70266000  1.0
  H  H15  1  0.54605000  0.47786000  0.11505000  1.0
  H  H16  1  0.45395000  0.52214000  0.88496000  1.0
  H  H17  1  0.04976000  0.34908000  0.11965000  1.0
  H  H18  1  0.95023000  0.65093000  0.88034000  1.0
  H  H19  1  0.31866000  0.23954000  0.11210000  1.0
  H  H20  1  0.68134000  0.76046000  0.88789000  1.0
  H  H21  1  0.24195000  0.42314000  0.00607000  1.0
  H  H22  1  0.75804000  0.57686000  0.99393000  1.0
  H  H23  1  0.17849000  0.66282000  0.10606000  1.0
  H  H24  1  0.82151000  0.33718000  0.89394000  1.0
  H  H25  1  0.16727000  0.66309000  0.28838000  1.0
  H  H26  1  0.83273000  0.33690000  0.71163000  1.0
  H  H27  1  0.96251000  0.61666000  0.21672000  1.0
  H  H28  1  0.03748000  0.38334000  0.78329000  1.0
  H  H29  1  0.49183000  0.71395000  0.44723000  1.0
  H  H30  1  0.50818000  0.28605000  0.55277000  1.0
  H  H31  1  0.24822000  0.74772000  0.48861000  1.0
  H  H32  1  0.75179000  0.25228000  0.51139000  1.0
  H  H33  1  0.85615000  0.46716000  0.43999000  1.0
  H  H34  1  0.14385000  0.53284000  0.56001000  1.0
  C  C35  1  0.87645000  0.01713000  0.31405000  1.0
  C  C36  1  0.12354000  0.98287000  0.68595000  1.0
  C  C37  1  0.00317000  0.02339000  0.18950000  1.0
  C  C38  1  0.99683000  0.97661000  0.81050000  1.0
  C  C39  1  0.93617000  0.99639000  0.06804000  1.0
  C  C40  1  0.06383000  0.00361000  0.93197000  1.0
  C  C41  1  0.74083000  0.96023000  0.08235000  1.0
  C  C42  1  0.25918000  0.03977000  0.91764000  1.0
  C  C43  1  0.62279000  0.95526000  0.21027000  1.0
  C  C44  1  0.37722000  0.04474000  0.78972000  1.0
  C  C45  1  0.25896000  0.43328000  0.22493000  1.0
  C  C46  1  0.74104000  0.56672000  0.77507000  1.0
  C  C47  1  0.49535000  0.42258000  0.21857000  1.0
  C  C48  1  0.50465000  0.57741000  0.78143000  1.0
  C  C49  1  0.21382000  0.35651000  0.10919000  1.0
  C  C50  1  0.78618000  0.64350000  0.89081000  1.0
  C  C51  1  0.13307000  0.60363000  0.20948000  1.0
  C  C52  1  0.86692000  0.39637000  0.79052000  1.0
  N  N53  1  0.68837000  0.98557000  0.32437000  1.0
  N  N54  1  0.31162000  0.01443000  0.67563000  1.0
  O  O55  1  0.27468000  0.15403000  0.39168000  1.0
  O  O56  1  0.72532000  0.84596000  0.60832000  1.0
  O  O57  1  0.25676000  0.38786000  0.51237000  1.0
  O  O58  1  0.74323000  0.61214000  0.48764000  1.0
  O  O59  1  0.93531000  0.36031000  0.40754000  1.0
  O  O60  1  0.06469000  0.63969000  0.59246000  1.0
  O  O61  1  0.35558000  0.79207000  0.42979000  1.0
  O  O62  1  0.64442000  0.20793000  0.57021000  1.0
