# generated using pymatgen
data_CdH15C12NO5
_symmetry_space_group_name_H-M   'P 1'
_cell_length_a   5.82527000
_cell_length_b   9.76489000
_cell_length_c   11.84750000
_cell_angle_alpha   102.13600000
_cell_angle_beta   103.76100000
_cell_angle_gamma   93.04680000
_symmetry_Int_Tables_number   1
_chemical_formula_structural   CdH15C12NO5
_chemical_formula_sum   'Cd2 H30 C24 N2 O10'
_cell_volume   636.16228650
_cell_formula_units_Z   2
loop_
 _symmetry_equiv_pos_site_id
 _symmetry_equiv_pos_as_xyz
  1  'x, y, z'
loop_
 _atom_site_type_symbol
 _atom_site_label
 _atom_site_symmetry_multiplicity
 _atom_site_fract_x
 _atom_site_fract_y
 _atom_site_fract_z
 _atom_site_occupancy
  Cd  Cd0  1  0.21342000  0.59459000  0.75448000  1.0
  Cd  Cd1  1  0.78657000  0.40541000  0.24552000  1.0
  H  H2  1  0.62258000  0.04602000  0.93578000  1.0
  H  H3  1  0.37745000  0.95398000  0.06423000  1.0
  H  H4  1  0.85746000  0.94080000  0.94203000  1.0
  H  H5  1  0.14255000  0.05919000  0.05797000  1.0
  H  H6  1  0.09202000  0.91356000  0.79220000  1.0
  H  H7  1  0.90799000  0.08645000  0.20779000  1.0
  H  H8  1  0.21528000  0.00774000  0.63439000  1.0
  H  H9  1  0.78472000  0.99226000  0.36560000  1.0
  H  H10  1  0.98736000  0.18204000  0.54330000  1.0
  H  H11  1  0.01263000  0.81795000  0.45669000  1.0
  H  H12  1  0.50790000  0.16573000  0.76704000  1.0
  H  H13  1  0.49211000  0.83427000  0.23296000  1.0
  H  H14  1  0.44994000  0.21587000  0.50397000  1.0
  H  H15  1  0.55003000  0.78413000  0.49605000  1.0
  H  H16  1  0.69495000  0.34311000  0.54465000  1.0
  H  H17  1  0.30502000  0.65688000  0.45534000  1.0
  H  H18  1  0.30523000  0.42743000  0.97730000  1.0
  H  H19  1  0.69477000  0.57258000  0.02270000  1.0
  H  H20  1  0.10271000  0.31120000  0.85416000  1.0
  H  H21  1  0.89728000  0.68881000  0.14584000  1.0
  H  H22  1  0.04905000  0.27096000  0.04964000  1.0
  H  H23  1  0.95095000  0.72904000  0.95037000  1.0
  H  H24  1  0.78989000  0.32242000  0.96404000  1.0
  H  H25  1  0.21011000  0.67758000  0.03595000  1.0
  H  H26  1  0.81420000  0.61537000  0.55285000  1.0
  H  H27  1  0.18580000  0.38464000  0.44716000  1.0
  H  H28  1  0.74136000  0.69290000  0.67229000  1.0
  H  H29  1  0.25863000  0.30711000  0.32771000  1.0
  H  H30  1  0.85104000  0.49081000  0.83585000  1.0
  H  H31  1  0.14896000  0.50919000  0.16415000  1.0
  C  C32  1  0.53341000  0.83586000  0.82937000  1.0
  C  C33  1  0.46659000  0.16414000  0.17063000  1.0
  C  C34  1  0.70545000  0.96989000  0.87970000  1.0
  C  C35  1  0.29457000  0.03011000  0.12030000  1.0
  C  C36  1  0.78879000  0.03171000  0.78847000  1.0
  C  C37  1  0.21122000  0.96829000  0.21154000  1.0
  C  C38  1  0.99009000  0.98905000  0.75168000  1.0
  C  C39  1  0.00992000  0.01095000  0.24831000  1.0
  C  C40  1  0.06030000  0.04286000  0.66365000  1.0
  C  C41  1  0.93970000  0.95714000  0.33635000  1.0
  C  C42  1  0.93145000  0.14031000  0.61208000  1.0
  C  C43  1  0.06855000  0.85970000  0.38792000  1.0
  C  C44  1  0.72956000  0.18483000  0.64761000  1.0
  C  C45  1  0.27043000  0.81516000  0.35240000  1.0
  C  C46  1  0.66201000  0.13055000  0.73678000  1.0
  C  C47  1  0.33798000  0.86944000  0.26322000  1.0
  C  C48  1  0.58239000  0.28025000  0.58228000  1.0
  C  C49  1  0.41760000  0.71974000  0.41773000  1.0
  C  C50  1  0.45486000  0.38495000  0.65191000  1.0
  C  C51  1  0.54513000  0.61505000  0.34809000  1.0
  C  C52  1  0.11612000  0.39987000  0.93052000  1.0
  C  C53  1  0.88388000  0.60013000  0.06948000  1.0
  C  C54  1  0.97521000  0.35866000  0.01379000  1.0
  C  C55  1  0.02479000  0.64135000  0.98621000  1.0
  N  N56  1  0.02526000  0.52225000  0.88524000  1.0
  N  N57  1  0.97473000  0.47775000  0.11476000  1.0
  O  O58  1  0.51098000  0.76403000  0.72314000  1.0
  O  O59  1  0.48901000  0.23598000  0.27687000  1.0
  O  O60  1  0.41503000  0.79771000  0.89749000  1.0
  O  O61  1  0.58498000  0.20228000  0.10252000  1.0
  O  O62  1  0.52926000  0.43093000  0.76398000  1.0
  O  O63  1  0.47073000  0.56908000  0.23603000  1.0
  O  O64  1  0.27002000  0.42947000  0.59245000  1.0
  O  O65  1  0.72998000  0.57054000  0.40755000  1.0
  O  O66  1  0.86275000  0.63825000  0.64253000  1.0
  O  O67  1  0.13725000  0.36175000  0.35747000  1.0
