# generated using pymatgen
data_MnH28C30(NO3)2
_symmetry_space_group_name_H-M   'P 1'
_cell_length_a   4.60922000
_cell_length_b   12.06270000
_cell_length_c   23.05990000
_cell_angle_alpha   95.27850000
_cell_angle_beta   89.99950000
_cell_angle_gamma   89.99990000
_symmetry_Int_Tables_number   1
_chemical_formula_structural   MnH28C30(NO3)2
_chemical_formula_sum   'Mn2 H56 C60 N4 O12'
_cell_volume   1276.68498613
_cell_formula_units_Z   2
loop_
 _symmetry_equiv_pos_site_id
 _symmetry_equiv_pos_as_xyz
  1  'x, y, z'
loop_
 _atom_site_type_symbol
 _atom_site_label
 _atom_site_symmetry_multiplicity
 _atom_site_fract_x
 _atom_site_fract_y
 _atom_site_fract_z
 _atom_site_occupancy
  Mn  Mn0  1  0.00000000  0.00000000  0.00000000  1.0
  Mn  Mn1  1  0.49999000  0.00000000  0.50000000  1.0
  H  H2  1  0.56711000  0.93697000  0.76249000  1.0
  H  H3  1  0.06712000  0.06304000  0.73750000  1.0
  H  H4  1  0.43287000  0.06303000  0.23751000  1.0
  H  H5  1  0.93289000  0.93697000  0.26250000  1.0
  H  H6  1  0.33288000  0.92269000  0.66502000  1.0
  H  H7  1  0.83289000  0.07732000  0.83497000  1.0
  H  H8  1  0.66710000  0.07731000  0.33498000  1.0
  H  H9  1  0.16711000  0.92268000  0.16503000  1.0
  H  H10  1  0.98296000  0.77286000  0.63609000  1.0
  H  H11  1  0.48296000  0.22714000  0.86390000  1.0
  H  H12  1  0.01703000  0.22714000  0.36391000  1.0
  H  H13  1  0.51702000  0.77285000  0.13609000  1.0
  H  H14  1  0.85973000  0.62953000  0.70281000  1.0
  H  H15  1  0.35973000  0.37047000  0.79719000  1.0
  H  H16  1  0.14026000  0.37046000  0.29719000  1.0
  H  H17  1  0.64026000  0.62953000  0.20281000  1.0
  H  H18  1  0.82823000  0.49842000  0.79755000  1.0
  H  H19  1  0.32822000  0.50158000  0.70245000  1.0
  H  H20  1  0.17178000  0.50158000  0.20245000  1.0
  H  H21  1  0.67180000  0.49842000  0.29755000  1.0
  H  H22  1  0.89051000  0.41867000  0.89173000  1.0
  H  H23  1  0.39049000  0.58133000  0.60826000  1.0
  H  H24  1  0.10950000  0.58133000  0.10827000  1.0
  H  H25  1  0.60950000  0.41866000  0.39173000  1.0
  H  H26  1  0.22674000  0.50652000  0.96725000  1.0
  H  H27  1  0.72672000  0.49348000  0.53275000  1.0
  H  H28  1  0.77326000  0.49348000  0.03276000  1.0
  H  H29  1  0.27327000  0.50651000  0.46725000  1.0
  H  H30  1  0.50813000  0.67664000  0.94925000  1.0
  H  H31  1  0.00813000  0.32336000  0.55074000  1.0
  H  H32  1  0.49187000  0.32337000  0.05075000  1.0
  H  H33  1  0.99188000  0.67663000  0.44926000  1.0
  H  H34  1  0.79156000  0.88973000  0.84381000  1.0
  H  H35  1  0.29155000  0.11027000  0.65619000  1.0
  H  H36  1  0.20844000  0.11027000  0.15619000  1.0
  H  H37  1  0.70844000  0.88973000  0.34381000  1.0
  H  H38  1  0.80126000  0.80215000  0.90013000  1.0
  H  H39  1  0.30127000  0.19785000  0.59986000  1.0
  H  H40  1  0.19873000  0.19786000  0.09987000  1.0
  H  H41  1  0.69874000  0.80214000  0.40014000  1.0
  H  H42  1  0.03577000  0.20991000  0.91027000  1.0
  H  H43  1  0.53578000  0.79009000  0.58973000  1.0
  H  H44  1  0.96424000  0.79008000  0.08973000  1.0
  H  H45  1  0.46423000  0.20992000  0.41027000  1.0
  H  H46  1  0.26525000  0.30943000  0.95064000  1.0
  H  H47  1  0.76527000  0.69057000  0.54936000  1.0
  H  H48  1  0.73475000  0.69057000  0.04936000  1.0
  H  H49  1  0.23474000  0.30943000  0.45064000  1.0
  H  H50  1  0.92362000  0.27344000  0.98005000  1.0
  H  H51  1  0.42363000  0.72656000  0.51995000  1.0
  H  H52  1  0.07638000  0.72656000  0.01995000  1.0
  H  H53  1  0.57637000  0.27343000  0.48005000  1.0
  H  H54  1  0.40917000  0.11973000  0.96291000  1.0
  H  H55  1  0.90918000  0.88028000  0.53709000  1.0
  H  H56  1  0.59083000  0.88028000  0.03710000  1.0
  H  H57  1  0.09082000  0.11972000  0.46290000  1.0
  C  C58  1  0.34773000  0.78824000  0.78720000  1.0
  C  C59  1  0.84774000  0.21177000  0.71279000  1.0
  C  C60  1  0.65225000  0.21177000  0.21280000  1.0
  C  C61  1  0.15228000  0.78823000  0.28721000  1.0
  C  C62  1  0.41505000  0.86981000  0.75010000  1.0
  C  C63  1  0.91507000  0.13019000  0.74990000  1.0
  C  C64  1  0.58493000  0.13019000  0.24990000  1.0
  C  C65  1  0.08495000  0.86981000  0.25010000  1.0
  C  C66  1  0.28216000  0.86158000  0.69554000  1.0
  C  C67  1  0.78217000  0.13842000  0.80445000  1.0
  C  C68  1  0.71783000  0.13842000  0.30446000  1.0
  C  C69  1  0.21783000  0.86158000  0.19555000  1.0
  C  C70  1  0.08501000  0.77567000  0.67874000  1.0
  C  C71  1  0.58501000  0.22433000  0.82126000  1.0
  C  C72  1  0.91498000  0.22433000  0.32126000  1.0
  C  C73  1  0.41498000  0.77567000  0.17875000  1.0
  C  C74  1  0.01511000  0.69519000  0.71611000  1.0
  C  C75  1  0.51512000  0.30481000  0.78389000  1.0
  C  C76  1  0.98489000  0.30481000  0.28389000  1.0
  C  C77  1  0.48489000  0.69519000  0.21611000  1.0
  C  C78  1  0.14757000  0.70066000  0.77091000  1.0
  C  C79  1  0.64757000  0.29935000  0.72908000  1.0
  C  C80  1  0.85242000  0.29935000  0.22909000  1.0
  C  C81  1  0.35244000  0.70066000  0.27092000  1.0
  C  C82  1  0.13270000  0.63289000  0.81939000  1.0
  C  C83  1  0.63269000  0.36711000  0.68061000  1.0
  C  C84  1  0.86730000  0.36711000  0.18061000  1.0
  C  C85  1  0.36732000  0.63289000  0.31939000  1.0
  C  C86  1  0.97706000  0.53727000  0.83006000  1.0
  C  C87  1  0.47704000  0.46274000  0.66994000  1.0
  C  C88  1  0.02294000  0.46273000  0.16995000  1.0
  C  C89  1  0.52297000  0.53726000  0.33006000  1.0
  C  C90  1  0.01347000  0.49264000  0.88325000  1.0
  C  C91  1  0.51346000  0.50736000  0.61675000  1.0
  C  C92  1  0.98654000  0.50737000  0.11675000  1.0
  C  C93  1  0.48654000  0.49263000  0.38325000  1.0
  C  C94  1  0.20321000  0.54253000  0.92577000  1.0
  C  C95  1  0.70320000  0.45747000  0.57422000  1.0
  C  C96  1  0.79679000  0.45747000  0.07423000  1.0
  C  C97  1  0.29681000  0.54253000  0.42577000  1.0
  C  C98  1  0.36104000  0.63800000  0.91637000  1.0
  C  C99  1  0.86102000  0.36201000  0.58362000  1.0
  C  C100  1  0.63896000  0.36201000  0.08363000  1.0
  C  C101  1  0.13898000  0.63799000  0.41638000  1.0
  C  C102  1  0.32489000  0.68212000  0.86292000  1.0
  C  C103  1  0.82489000  0.31787000  0.63708000  1.0
  C  C104  1  0.67511000  0.31788000  0.13708000  1.0
  C  C105  1  0.17513000  0.68213000  0.36292000  1.0
  C  C106  1  0.65285000  0.84922000  0.87421000  1.0
  C  C107  1  0.15286000  0.15078000  0.62579000  1.0
  C  C108  1  0.34714000  0.15078000  0.12579000  1.0
  C  C109  1  0.84715000  0.84921000  0.37421000  1.0
  C  C110  1  0.50353000  0.93647000  0.91634000  1.0
  C  C111  1  0.00352000  0.06353000  0.58366000  1.0
  C  C112  1  0.49647000  0.06353000  0.08366000  1.0
  C  C113  1  0.99647000  0.93647000  0.41634000  1.0
  C  C114  1  0.10954000  0.24126000  0.95407000  1.0
  C  C115  1  0.60955000  0.75874000  0.54593000  1.0
  C  C116  1  0.89046000  0.75874000  0.04593000  1.0
  C  C117  1  0.39045000  0.24126000  0.45407000  1.0
  N  N118  1  0.45496000  0.77450000  0.84234000  1.0
  N  N119  1  0.95496000  0.22550000  0.65765000  1.0
  N  N120  1  0.54504000  0.22550000  0.15766000  1.0
  N  N121  1  0.04505000  0.77450000  0.34234000  1.0
  O  O122  1  0.65308000  0.02215000  0.93602000  1.0
  O  O123  1  0.15308000  0.97785000  0.56398000  1.0
  O  O124  1  0.34691000  0.97785000  0.06398000  1.0
  O  O125  1  0.84692000  0.02215000  0.43602000  1.0
  O  O126  1  0.24494000  0.91861000  0.93087000  1.0
  O  O127  1  0.74493000  0.08139000  0.56913000  1.0
  O  O128  1  0.75506000  0.08139000  0.06914000  1.0
  O  O129  1  0.25506000  0.91861000  0.43086000  1.0
  O  O130  1  0.23723000  0.15449000  0.98437000  1.0
  O  O131  1  0.73724000  0.84551000  0.51563000  1.0
  O  O132  1  0.76277000  0.84551000  0.01563000  1.0
  O  O133  1  0.26276000  0.15449000  0.48437000  1.0
