# generated using pymatgen
data_NdH8C9NO7
_symmetry_space_group_name_H-M   'P 1'
_cell_length_a   8.31627000
_cell_length_b   9.43558000
_cell_length_c   16.66580379
_cell_angle_alpha   104.75827968
_cell_angle_beta   90.00020318
_cell_angle_gamma   90.00000000
_symmetry_Int_Tables_number   1
_chemical_formula_structural   NdH8C9NO7
_chemical_formula_sum   'Nd4 H32 C36 N4 O28'
_cell_volume   1264.60246552
_cell_formula_units_Z   4
loop_
 _symmetry_equiv_pos_site_id
 _symmetry_equiv_pos_as_xyz
  1  'x, y, z'
loop_
 _atom_site_type_symbol
 _atom_site_label
 _atom_site_symmetry_multiplicity
 _atom_site_fract_x
 _atom_site_fract_y
 _atom_site_fract_z
 _atom_site_occupancy
  Nd  Nd0  1  0.07399000  0.93187000  0.09834000  1.0
  Nd  Nd1  1  0.57399000  0.06813000  0.40166000  1.0
  Nd  Nd2  1  0.92601000  0.06813000  0.90166000  1.0
  Nd  Nd3  1  0.42600000  0.93187000  0.59834000  1.0
  H  H4  1  0.04572000  0.54628000  0.05103000  1.0
  H  H5  1  0.54572000  0.45371000  0.44897000  1.0
  H  H6  1  0.95428000  0.45371000  0.94897000  1.0
  H  H7  1  0.45428000  0.54629000  0.55103000  1.0
  H  H8  1  0.37140000  0.35335000  0.19415000  1.0
  H  H9  1  0.87139000  0.64665000  0.30585000  1.0
  H  H10  1  0.62861000  0.64666000  0.80585000  1.0
  H  H11  1  0.12860000  0.35335000  0.69415000  1.0
  H  H12  1  0.47748000  0.61074000  0.25792000  1.0
  H  H13  1  0.97747000  0.38925000  0.24208000  1.0
  H  H14  1  0.52253000  0.38924000  0.74207000  1.0
  H  H15  1  0.02253000  0.61075000  0.75792000  1.0
  H  H16  1  0.52776000  0.86457000  0.90031000  1.0
  H  H17  1  0.02776000  0.13543000  0.59969000  1.0
  H  H18  1  0.47225000  0.13544000  0.09969000  1.0
  H  H19  1  0.97224000  0.86457000  0.40031000  1.0
  H  H20  1  0.39088000  0.96125000  0.85027000  1.0
  H  H21  1  0.89087000  0.03875000  0.64973000  1.0
  H  H22  1  0.60913000  0.03875000  0.14973000  1.0
  H  H23  1  0.10913000  0.96126000  0.35027000  1.0
  H  H24  1  0.36961000  0.76981000  0.83614000  1.0
  H  H25  1  0.86961000  0.23018000  0.66386000  1.0
  H  H26  1  0.63040000  0.23019000  0.16386000  1.0
  H  H27  1  0.13039000  0.76982000  0.33614000  1.0
  H  H28  1  0.81423000  0.88483000  0.21931000  1.0
  H  H29  1  0.31423000  0.11517000  0.28069000  1.0
  H  H30  1  0.18577000  0.11516000  0.78068000  1.0
  H  H31  1  0.68577000  0.88483000  0.71931000  1.0
  H  H32  1  0.76954000  0.76517000  0.13532000  1.0
  H  H33  1  0.26953000  0.23482000  0.36467000  1.0
  H  H34  1  0.23047000  0.23482000  0.86467000  1.0
  H  H35  1  0.73047000  0.76517000  0.63532000  1.0
  C  C36  1  0.14272000  0.55443000  0.09568000  1.0
  C  C37  1  0.64272000  0.44556000  0.40432000  1.0
  C  C38  1  0.85728000  0.44556000  0.90432000  1.0
  C  C39  1  0.35728000  0.55444000  0.59568000  1.0
  C  C40  1  0.20594000  0.42933000  0.11455000  1.0
  C  C41  1  0.70594000  0.57068000  0.38546000  1.0
  C  C42  1  0.79406000  0.57067000  0.88545000  1.0
  C  C43  1  0.29406000  0.42933000  0.61454000  1.0
  C  C44  1  0.32555000  0.44834000  0.17552000  1.0
  C  C45  1  0.82555000  0.55164000  0.32448000  1.0
  C  C46  1  0.67446000  0.55165000  0.82448000  1.0
  C  C47  1  0.17445000  0.44835000  0.67552000  1.0
  C  C48  1  0.38274000  0.58917000  0.21124000  1.0
  C  C49  1  0.88273000  0.41084000  0.28877000  1.0
  C  C50  1  0.61726000  0.41083000  0.78876000  1.0
  C  C51  1  0.11727000  0.58917000  0.71124000  1.0
  C  C52  1  0.31432000  0.70700000  0.18699000  1.0
  C  C53  1  0.81432000  0.29299000  0.31301000  1.0
  C  C54  1  0.68567000  0.29299000  0.81301000  1.0
  C  C55  1  0.18567000  0.70700000  0.68699000  1.0
  C  C56  1  0.36596000  0.86257000  0.22522000  1.0
  C  C57  1  0.86594000  0.13742000  0.27479000  1.0
  C  C58  1  0.63405000  0.13742000  0.77479000  1.0
  C  C59  1  0.13405000  0.86257000  0.72521000  1.0
  C  C60  1  0.14432000  0.27926000  0.07038000  1.0
  C  C61  1  0.64433000  0.72074000  0.42962000  1.0
  C  C62  1  0.85567000  0.72074000  0.92961000  1.0
  C  C63  1  0.35568000  0.27926000  0.57038000  1.0
  C  C64  1  0.29081000  0.89394000  0.95401000  1.0
  C  C65  1  0.79081000  0.10607000  0.54599000  1.0
  C  C66  1  0.70919000  0.10607000  0.04599000  1.0
  C  C67  1  0.20919000  0.89394000  0.45401000  1.0
  C  C68  1  0.40291000  0.87256000  0.88133000  1.0
  C  C69  1  0.90292000  0.12744000  0.61867000  1.0
  C  C70  1  0.59709000  0.12745000  0.11867000  1.0
  C  C71  1  0.09708000  0.87256000  0.38133000  1.0
  N  N72  1  0.19375000  0.69010000  0.13145000  1.0
  N  N73  1  0.69375000  0.30990000  0.36855000  1.0
  N  N74  1  0.80624000  0.30990000  0.86855000  1.0
  N  N75  1  0.30625000  0.69010000  0.63145000  1.0
  O  O76  1  0.28133000  0.96370000  0.20706000  1.0
  O  O77  1  0.78133000  0.03629000  0.29294000  1.0
  O  O78  1  0.71867000  0.03630000  0.79294000  1.0
  O  O79  1  0.21867000  0.96370000  0.70706000  1.0
  O  O80  1  0.48466000  0.88396000  0.27353000  1.0
  O  O81  1  0.98466000  0.11604000  0.22647000  1.0
  O  O82  1  0.51533000  0.11603000  0.72647000  1.0
  O  O83  1  0.01534000  0.88397000  0.77353000  1.0
  O  O84  1  0.05853000  0.27060000  0.00583000  1.0
  O  O85  1  0.55852000  0.72939000  0.49417000  1.0
  O  O86  1  0.94148000  0.72939000  0.99416000  1.0
  O  O87  1  0.44148000  0.27061000  0.50583000  1.0
  O  O88  1  0.18413000  0.17472000  0.10108000  1.0
  O  O89  1  0.68413000  0.82527000  0.39892000  1.0
  O  O90  1  0.81587000  0.82527000  0.89892000  1.0
  O  O91  1  0.31587000  0.17473000  0.60108000  1.0
  O  O92  1  0.14980000  0.94903000  0.94914000  1.0
  O  O93  1  0.64980000  0.05096000  0.55085000  1.0
  O  O94  1  0.85020000  0.05096000  0.05085000  1.0
  O  O95  1  0.35019000  0.94903000  0.44914000  1.0
  O  O96  1  0.33124000  0.85638000  0.01882000  1.0
  O  O97  1  0.83124000  0.14363000  0.48118000  1.0
  O  O98  1  0.66876000  0.14363000  0.98118000  1.0
  O  O99  1  0.16876000  0.85637000  0.51882000  1.0
  O  O100  1  0.85914000  0.81244000  0.16914000  1.0
  O  O101  1  0.35913000  0.18757000  0.33086000  1.0
  O  O102  1  0.14087000  0.18757000  0.83086000  1.0
  O  O103  1  0.64087000  0.81244000  0.66914000  1.0
