# generated using pymatgen
data_CuH10C10Br2(N3O)2
_symmetry_space_group_name_H-M   'P 1'
_cell_length_a   3.81348000
_cell_length_b   6.78040000
_cell_length_c   13.42340000
_cell_angle_alpha   76.99900000
_cell_angle_beta   87.92790000
_cell_angle_gamma   85.07040000
_symmetry_Int_Tables_number   1
_chemical_formula_structural   CuH10C10Br2(N3O)2
_chemical_formula_sum   'Cu1 H10 C10 Br2 N6 O2'
_cell_volume   336.88901053
_cell_formula_units_Z   1
loop_
 _symmetry_equiv_pos_site_id
 _symmetry_equiv_pos_as_xyz
  1  'x, y, z'
loop_
 _atom_site_type_symbol
 _atom_site_label
 _atom_site_symmetry_multiplicity
 _atom_site_fract_x
 _atom_site_fract_y
 _atom_site_fract_z
 _atom_site_occupancy
  Cu  Cu0  1  0.50001000  0.50000000  0.50000000  1.0
  H  H1  1  0.67463000  0.55319000  0.70337000  1.0
  H  H2  1  0.32538000  0.44681000  0.29663000  1.0
  H  H3  1  0.36967000  0.85368000  0.78157000  1.0
  H  H4  1  0.63032000  0.14631000  0.21843000  1.0
  H  H5  1  0.36738000  0.05941000  0.60076000  1.0
  H  H6  1  0.63264000  0.94059000  0.39924000  1.0
  H  H7  1  0.89184000  0.32861000  0.04962000  1.0
  H  H8  1  0.10816000  0.67139000  0.95038000  1.0
  H  H9  1  0.66310000  0.13278000  0.01792000  1.0
  H  H10  1  0.33687000  0.86722000  0.98208000  1.0
  C  C11  1  0.60847000  0.39627000  0.72054000  1.0
  C  C12  1  0.39154000  0.60372000  0.27946000  1.0
  C  C13  1  0.63294000  0.27678000  0.81979000  1.0
  C  C14  1  0.36707000  0.72322000  0.18021000  1.0
  C  C15  1  0.44301000  0.00998000  0.76488000  1.0
  C  C16  1  0.55698000  0.99003000  0.23511000  1.0
  C  C17  1  0.43735000  0.12379000  0.66408000  1.0
  C  C18  1  0.56266000  0.87621000  0.33591000  1.0
  C  C19  1  0.78150000  0.37012000  0.89909000  1.0
  C  C20  1  0.21849000  0.62988000  0.10090000  1.0
  Br  Br21  1  0.06874000  0.73665000  0.55802000  1.0
  Br  Br22  1  0.93126000  0.26335000  0.44198000  1.0
  N  N23  1  0.51293000  0.31907000  0.64302000  1.0
  N  N24  1  0.48708000  0.68092000  0.35697000  1.0
  N  N25  1  0.54044000  0.08478000  0.84320000  1.0
  N  N26  1  0.45957000  0.91522000  0.15680000  1.0
  N  N27  1  0.78180000  0.26527000  0.99578000  1.0
  N  N28  1  0.21819000  0.73473000  0.00422000  1.0
  O  O29  1  0.90894000  0.53870000  0.86946000  1.0
  O  O30  1  0.09106000  0.46130000  0.13054000  1.0
