# generated using pymatgen
data_CdH22C24N4(ClO3)2
_symmetry_space_group_name_H-M   'P 1'
_cell_length_a   6.63300000
_cell_length_b   11.42610000
_cell_length_c   17.90680000
_cell_angle_alpha   76.12300000
_cell_angle_beta   89.99580000
_cell_angle_gamma   73.15400000
_symmetry_Int_Tables_number   1
_chemical_formula_structural   CdH22C24N4(ClO3)2
_chemical_formula_sum   'Cd2 H44 C48 N8 Cl4 O12'
_cell_volume   1257.46830284
_cell_formula_units_Z   2
loop_
 _symmetry_equiv_pos_site_id
 _symmetry_equiv_pos_as_xyz
  1  'x, y, z'
loop_
 _atom_site_type_symbol
 _atom_site_label
 _atom_site_symmetry_multiplicity
 _atom_site_fract_x
 _atom_site_fract_y
 _atom_site_fract_z
 _atom_site_occupancy
  Cd  Cd0  1  0.30248000  0.00008000  0.75007000  1.0
  Cd  Cd1  1  0.69753000  0.99992000  0.24993000  1.0
  H  H2  1  0.86184000  0.96391000  0.68309000  1.0
  H  H3  1  0.82553000  0.03613000  0.81704000  1.0
  H  H4  1  0.13817000  0.03608000  0.31691000  1.0
  H  H5  1  0.17447000  0.96387000  0.18296000  1.0
  H  H6  1  0.73031000  0.30720000  0.51058000  1.0
  H  H7  1  0.03670000  0.69253000  0.98928000  1.0
  H  H8  1  0.26967000  0.69281000  0.48943000  1.0
  H  H9  1  0.96331000  0.30747000  0.01072000  1.0
  H  H10  1  0.10302000  0.27091000  0.59808000  1.0
  H  H11  1  0.37324000  0.72905000  0.90184000  1.0
  H  H12  1  0.89697000  0.72910000  0.40192000  1.0
  H  H13  1  0.62676000  0.27096000  0.09816000  1.0
  H  H14  1  0.45295000  0.19741000  0.52804000  1.0
  H  H15  1  0.65012000  0.80240000  0.97217000  1.0
  H  H16  1  0.54704000  0.80259000  0.47196000  1.0
  H  H17  1  0.34989000  0.19760000  0.02783000  1.0
  H  H18  1  0.47449000  0.07533000  0.61304000  1.0
  H  H19  1  0.54940000  0.92435000  0.88715000  1.0
  H  H20  1  0.52551000  0.92466000  0.38697000  1.0
  H  H21  1  0.45061000  0.07565000  0.11285000  1.0
  H  H22  1  0.70664000  0.91853000  0.54853000  1.0
  H  H23  1  0.62536000  0.08136000  0.95139000  1.0
  H  H24  1  0.29336000  0.08147000  0.45147000  1.0
  H  H25  1  0.37465000  0.91864000  0.04860000  1.0
  H  H26  1  0.68761000  0.04059000  0.46404000  1.0
  H  H27  1  0.72811000  0.95945000  0.03598000  1.0
  H  H28  1  0.31238000  0.95941000  0.53596000  1.0
  H  H29  1  0.27191000  0.04055000  0.96402000  1.0
  H  H30  1  0.39446000  0.48193000  0.94381000  1.0
  H  H31  1  0.87589000  0.51843000  0.55613000  1.0
  H  H32  1  0.60553000  0.51808000  0.05619000  1.0
  H  H33  1  0.12411000  0.48157000  0.44387000  1.0
  H  H34  1  0.87644000  0.43506000  0.78106000  1.0
  H  H35  1  0.31083000  0.56523000  0.71901000  1.0
  H  H36  1  0.12356000  0.56495000  0.21894000  1.0
  H  H37  1  0.68917000  0.43477000  0.28098000  1.0
  H  H38  1  0.72579000  0.28432000  0.73684000  1.0
  H  H39  1  0.00965000  0.71600000  0.76320000  1.0
  H  H40  1  0.27422000  0.71568000  0.26317000  1.0
  H  H41  1  0.99035000  0.28400000  0.23680000  1.0
  H  H42  1  0.18062000  0.26806000  0.87700000  1.0
  H  H43  1  0.44834000  0.73208000  0.62308000  1.0
  H  H44  1  0.81938000  0.73195000  0.12300000  1.0
  H  H45  1  0.55166000  0.26792000  0.37692000  1.0
  C  C46  1  0.88373000  0.05029000  0.64769000  1.0
  C  C47  1  0.93372000  0.94972000  0.85239000  1.0
  C  C48  1  0.11628000  0.94970000  0.35231000  1.0
  C  C49  1  0.06628000  0.05028000  0.14761000  1.0
  C  C50  1  0.81658000  0.23142000  0.55873000  1.0
  C  C51  1  0.04734000  0.76837000  0.94116000  1.0
  C  C52  1  0.18341000  0.76858000  0.44127000  1.0
  C  C53  1  0.95267000  0.23162000  0.05884000  1.0
  C  C54  1  0.99966000  0.21192000  0.60214000  1.0
  C  C55  1  0.21097000  0.78800000  0.89777000  1.0
  C  C56  1  0.00034000  0.78808000  0.39785000  1.0
  C  C57  1  0.78904000  0.21200000  0.10223000  1.0
  C  C58  1  0.55515000  0.10624000  0.56192000  1.0
  C  C59  1  0.66113000  0.89355000  0.93819000  1.0
  C  C60  1  0.44485000  0.89376000  0.43808000  1.0
  C  C61  1  0.33888000  0.10645000  0.06181000  1.0
  C  C62  1  0.60201000  0.00913000  0.51386000  1.0
  C  C63  1  0.61114000  0.99081000  0.98615000  1.0
  C  C64  1  0.39798000  0.99087000  0.48615000  1.0
  C  C65  1  0.38887000  0.00919000  0.01385000  1.0
  C  C66  1  0.47872000  0.29751000  0.81480000  1.0
  C  C67  1  0.77580000  0.70271000  0.68525000  1.0
  C  C68  1  0.52128000  0.70249000  0.18521000  1.0
  C  C69  1  0.22420000  0.29729000  0.31475000  1.0
  C  C70  1  0.38236000  0.35579000  0.87287000  1.0
  C  C71  1  0.73775000  0.64453000  0.62711000  1.0
  C  C72  1  0.61763000  0.64422000  0.12713000  1.0
  C  C73  1  0.26225000  0.35547000  0.37289000  1.0
  C  C74  1  0.46761000  0.43964000  0.89834000  1.0
  C  C75  1  0.90677000  0.56075000  0.60161000  1.0
  C  C76  1  0.53238000  0.56037000  0.10166000  1.0
  C  C77  1  0.09322000  0.43924000  0.39839000  1.0
  C  C78  1  0.64429000  0.46563000  0.86501000  1.0
  C  C79  1  0.10935000  0.53470000  0.63498000  1.0
  C  C80  1  0.35570000  0.53438000  0.13499000  1.0
  C  C81  1  0.89064000  0.46529000  0.36502000  1.0
  C  C82  1  0.73907000  0.41227000  0.80613000  1.0
  C  C83  1  0.15072000  0.58805000  0.69390000  1.0
  C  C84  1  0.26092000  0.58774000  0.19387000  1.0
  C  C85  1  0.84928000  0.41194000  0.30610000  1.0
  C  C86  1  0.65498000  0.32813000  0.78213000  1.0
  C  C87  1  0.98257000  0.67213000  0.71792000  1.0
  C  C88  1  0.34502000  0.67187000  0.21787000  1.0
  C  C89  1  0.01743000  0.32786000  0.28208000  1.0
  C  C90  1  0.39602000  0.20323000  0.79171000  1.0
  C  C91  1  0.59882000  0.79692000  0.70831000  1.0
  C  C92  1  0.60399000  0.79677000  0.20829000  1.0
  C  C93  1  0.40118000  0.20308000  0.29169000  1.0
  N  N94  1  0.03990000  0.09843000  0.65725000  1.0
  N  N95  1  0.13796000  0.90160000  0.84280000  1.0
  N  N96  1  0.96010000  0.90156000  0.34275000  1.0
  N  N97  1  0.86204000  0.09840000  0.15720000  1.0
  N  N98  1  0.74580000  0.12830000  0.58853000  1.0
  N  N99  1  0.87367000  0.87156000  0.91147000  1.0
  N  N100  1  0.25420000  0.87170000  0.41147000  1.0
  N  N101  1  0.12634000  0.12844000  0.08853000  1.0
  Cl  Cl102  1  0.75360000  0.56593000  0.89875000  1.0
  Cl  Cl103  1  0.31894000  0.43433000  0.60134000  1.0
  Cl  Cl104  1  0.24639000  0.43408000  0.10125000  1.0
  Cl  Cl105  1  0.68105000  0.56566000  0.39866000  1.0
  O  O106  1  0.49471000  0.14100000  0.74547000  1.0
  O  O107  1  0.63534000  0.85930000  0.75448000  1.0
  O  O108  1  0.50532000  0.85899000  0.25454000  1.0
  O  O109  1  0.36466000  0.14070000  0.24552000  1.0
  O  O110  1  0.22841000  0.18254000  0.82127000  1.0
  O  O111  1  0.41055000  0.81745000  0.67883000  1.0
  O  O112  1  0.77159000  0.81746000  0.17873000  1.0
  O  O113  1  0.58946000  0.18255000  0.32117000  1.0
  O  O114  1  0.21167000  0.33039000  0.90534000  1.0
  O  O115  1  0.54169000  0.66989000  0.59466000  1.0
  O  O116  1  0.78834000  0.66961000  0.09466000  1.0
  O  O117  1  0.45830000  0.33011000  0.40534000  1.0
