# generated using pymatgen
data_VH4C8O5
_symmetry_space_group_name_H-M   'P 1'
_cell_length_a   6.79845000
_cell_length_b   11.19410000
_cell_length_c   11.19470000
_cell_angle_alpha   74.34940000
_cell_angle_beta   72.70190000
_cell_angle_gamma   72.70630000
_symmetry_Int_Tables_number   1
_chemical_formula_structural   VH4C8O5
_chemical_formula_sum   'V2 H8 C16 O10'
_cell_volume   761.11271267
_cell_formula_units_Z   2
loop_
 _symmetry_equiv_pos_site_id
 _symmetry_equiv_pos_as_xyz
  1  'x, y, z'
loop_
 _atom_site_type_symbol
 _atom_site_label
 _atom_site_symmetry_multiplicity
 _atom_site_fract_x
 _atom_site_fract_y
 _atom_site_fract_z
 _atom_site_occupancy
  V  V0  1  0.53072000  0.51225000  0.98910000  1.0
  V  V1  1  0.03073000  0.48917000  0.01220000  1.0
  H  H2  1  0.33529000  0.87447000  0.05852000  1.0
  H  H3  1  0.15417000  0.44527000  0.62685000  1.0
  H  H4  1  0.27792000  0.44029000  0.39288000  1.0
  H  H5  1  0.20978000  0.10741000  0.06583000  1.0
  H  H6  1  0.65416000  0.12686000  0.94526000  1.0
  H  H7  1  0.83529000  0.55856000  0.37438000  1.0
  H  H8  1  0.70980000  0.56586000  0.60733000  1.0
  H  H9  1  0.77792000  0.89288000  0.94032000  1.0
  C  C10  1  0.18688000  0.93068000  0.03360000  1.0
  C  C11  1  0.30221000  0.47066000  0.57044000  1.0
  C  C12  1  0.37098000  0.46755000  0.44098000  1.0
  C  C13  1  0.11745000  0.05966000  0.03761000  1.0
  C  C14  1  0.80222000  0.07044000  0.97064000  1.0
  C  C15  1  0.68687000  0.53362000  0.43062000  1.0
  C  C16  1  0.61749000  0.53763000  0.55957000  1.0
  C  C17  1  0.87100000  0.94097000  0.96756000  1.0
  C  C18  1  0.06419000  0.87064000  0.99845000  1.0
  C  C19  1  0.14084000  0.73273000  0.99437000  1.0
  C  C20  1  0.42524000  0.50555000  0.63041000  1.0
  C  C21  1  0.35605000  0.50729000  0.76888000  1.0
  C  C22  1  0.56414000  0.49846000  0.37057000  1.0
  C  C23  1  0.64083000  0.49441000  0.23264000  1.0
  C  C24  1  0.92525000  0.13049000  0.00551000  1.0
  C  C25  1  0.85603000  0.26895000  0.00722000  1.0
  O  O26  1  0.33454000  0.68134000  0.99744000  1.0
  O  O27  1  0.16979000  0.49233000  0.82850000  1.0
  O  O28  1  0.50853000  0.48894000  0.17449000  1.0
  O  O29  1  0.98957000  0.31975000  0.02294000  1.0
  O  O30  1  0.66985000  0.32854000  0.99223000  1.0
  O  O31  1  0.83454000  0.49749000  0.18128000  1.0
  O  O32  1  0.48956000  0.52301000  0.81969000  1.0
  O  O33  1  0.00856000  0.67452000  0.98892000  1.0
  O  O34  1  0.75562000  0.55738000  0.94515000  1.0
  O  O35  1  0.25564000  0.44523000  0.05729000  1.0
