# generated using pymatgen
data_Hf3H25C25O16
_symmetry_space_group_name_H-M   'P 1'
_cell_length_a   15.38870000
_cell_length_b   17.34870000
_cell_length_c   25.50310000
_cell_angle_alpha   88.70170000
_cell_angle_beta   89.82790000
_cell_angle_gamma   64.73900000
_symmetry_Int_Tables_number   1
_chemical_formula_structural   Hf3H25C25O16
_chemical_formula_sum   'Hf12 H100 C100 O64'
_cell_volume   6155.82460901
_cell_formula_units_Z   4
loop_
 _symmetry_equiv_pos_site_id
 _symmetry_equiv_pos_as_xyz
  1  'x, y, z'
loop_
 _atom_site_type_symbol
 _atom_site_label
 _atom_site_symmetry_multiplicity
 _atom_site_fract_x
 _atom_site_fract_y
 _atom_site_fract_z
 _atom_site_occupancy
  Hf  Hf0  1  0.95317000  0.10119000  0.96663000  1.0
  Hf  Hf1  1  0.08817000  0.81649000  0.04593000  1.0
  Hf  Hf2  1  0.85732000  0.95537000  0.99965000  1.0
  Hf  Hf3  1  0.18476000  0.96121000  0.01285000  1.0
  Hf  Hf4  1  0.98048000  0.02378000  0.09622000  1.0
  Hf  Hf5  1  0.06322000  0.89394000  0.91835000  1.0
  Hf  Hf6  1  0.09901000  0.80127000  0.46550000  1.0
  Hf  Hf7  1  0.96334000  0.07832000  0.54646000  1.0
  Hf  Hf8  1  0.19767000  0.93815000  0.50848000  1.0
  Hf  Hf9  1  0.86461000  0.94239000  0.50207000  1.0
  Hf  Hf10  1  0.05722000  0.86779000  0.59566000  1.0
  Hf  Hf11  1  0.00141000  0.01310000  0.41823000  1.0
  H  H12  1  0.06111000  0.12480000  0.04836000  1.0
  H  H13  1  0.92303000  0.89086000  0.11100000  1.0
  H  H14  1  0.23599000  0.79609000  0.97391000  1.0
  H  H15  1  0.87644000  0.01538000  0.89767000  1.0
  H  H16  1  0.79167000  0.11911000  0.12499000  1.0
  H  H17  1  0.75291000  0.94594000  0.91774000  1.0
  H  H18  1  0.98408000  0.79588000  0.87409000  1.0
  H  H19  1  0.09835000  0.02870000  0.16869000  1.0
  H  H20  1  0.24887000  0.05857000  0.06431000  1.0
  H  H21  1  0.30910000  0.95611000  0.94056000  1.0
  H  H22  1  0.24677000  0.88722000  0.91004000  1.0
  H  H23  1  0.94610000  0.98093000  0.19208000  1.0
  H  H24  1  0.17676000  0.72173000  0.13132000  1.0
  H  H25  1  0.89584000  0.14923000  0.86135000  1.0
  H  H26  1  0.00311000  0.95126000  0.81975000  1.0
  H  H27  1  0.15751000  0.03621000  0.11519000  1.0
  H  H28  1  0.07658000  0.71566000  0.12484000  1.0
  H  H29  1  0.73393000  0.95435000  0.07199000  1.0
  H  H30  1  0.78698000  0.03700000  0.09732000  1.0
  H  H31  1  0.18700000  0.90473000  0.85309000  1.0
  H  H32  1  0.89089000  0.87666000  0.89855000  1.0
  H  H33  1  0.99195000  0.05839000  0.85996000  1.0
  H  H34  1  0.97895000  0.77478000  0.54060000  1.0
  H  H35  1  0.12077000  0.99389000  0.61759000  1.0
  H  H36  1  0.82485000  0.10902000  0.46711000  1.0
  H  H37  1  0.18735000  0.88972000  0.40360000  1.0
  H  H38  1  0.23848000  0.76668000  0.63539000  1.0
  H  H39  1  0.31516000  0.95382000  0.43336000  1.0
  H  H40  1  0.08921000  0.11215000  0.38364000  1.0
  H  H41  1  0.92997000  0.86085000  0.66134000  1.0
  H  H42  1  0.78278000  0.85270000  0.54998000  1.0
  H  H43  1  0.70646000  0.03731000  0.44638000  1.0
  H  H44  1  0.88346000  0.01211000  0.34604000  1.0
  H  H45  1  0.08127000  0.90321000  0.69333000  1.0
  H  H46  1  0.86815000  0.16919000  0.62906000  1.0
  H  H47  1  0.16648000  0.76086000  0.36175000  1.0
  H  H48  1  0.06916000  0.96385000  0.32009000  1.0
  H  H49  1  0.87595000  0.86148000  0.60464000  1.0
  H  H50  1  0.96949000  0.17493000  0.62616000  1.0
  H  H51  1  0.35601000  0.83899000  0.55764000  1.0
  H  H52  1  0.25204000  0.84706000  0.60751000  1.0
  H  H53  1  0.81629000  0.02538000  0.39946000  1.0
  H  H54  1  0.17840000  0.02621000  0.40836000  1.0
  H  H55  1  0.07367000  0.85400000  0.35855000  1.0
  H  H56  1  0.58756000  0.72635000  0.35015000  1.0
  H  H57  1  0.60032000  0.50057000  0.43003000  1.0
  H  H58  1  0.43272000  0.58110000  0.45968000  1.0
  H  H59  1  0.42539000  0.80929000  0.38572000  1.0
  H  H60  1  0.74715000  0.50607000  0.47314000  1.0
  H  H61  1  0.80269000  0.41662000  0.31505000  1.0
  H  H62  1  0.88585000  0.26790000  0.34927000  1.0
  H  H63  1  0.82932000  0.35620000  0.50698000  1.0
  H  H64  1  0.90477000  0.52925000  0.36006000  1.0
  H  H65  1  0.65535000  0.69846000  0.44396000  1.0
  H  H66  1  0.74374000  0.77964000  0.47221000  1.0
  H  H67  1  0.99467000  0.60999000  0.39084000  1.0
  H  H68  1  0.61499000  0.51299000  0.20979000  1.0
  H  H69  1  0.78865000  0.65235000  0.20762000  1.0
  H  H70  1  0.79243000  0.64875000  0.30320000  1.0
  H  H71  1  0.61927000  0.50890000  0.30602000  1.0
  H  H72  1  0.98387000  0.61687000  0.11354000  1.0
  H  H73  1  0.73095000  0.78493000  0.02855000  1.0
  H  H74  1  0.64192000  0.70702000  0.06487000  1.0
  H  H75  1  0.89495000  0.53841000  0.15061000  1.0
  H  H76  1  0.57840000  0.51719000  0.09099000  1.0
  H  H77  1  0.58617000  0.73659000  0.16252000  1.0
  H  H78  1  0.41937000  0.82563000  0.13115000  1.0
  H  H79  1  0.40737000  0.60379000  0.06632000  1.0
  H  H80  1  0.86648000  0.27439000  0.16463000  1.0
  H  H81  1  0.79487000  0.37310000  0.00713000  1.0
  H  H82  1  0.72245000  0.52118000  0.04021000  1.0
  H  H83  1  0.79543000  0.42141000  0.19811000  1.0
  H  H84  1  0.38623000  0.38618000  0.54966000  1.0
  H  H85  1  0.20391000  0.45403000  0.68541000  1.0
  H  H86  1  0.12875000  0.60481000  0.65353000  1.0
  H  H87  1  0.30320000  0.53512000  0.51559000  1.0
  H  H88  1  0.40619000  0.14448000  0.64122000  1.0
  H  H89  1  0.16039000  0.37834000  0.60087000  1.0
  H  H90  1  0.07429000  0.29488000  0.57018000  1.0
  H  H91  1  0.32258000  0.06165000  0.60600000  1.0
  H  H92  1  0.40393000  0.24486000  0.54636000  1.0
  H  H93  1  0.52601000  0.27652000  0.69147000  1.0
  H  H94  1  0.68816000  0.20080000  0.65549000  1.0
  H  H95  1  0.56710000  0.16167000  0.51252000  1.0
  H  H96  1  0.26824000  0.24822000  0.80993000  1.0
  H  H97  1  0.41057000  0.41448000  0.80058000  1.0
  H  H98  1  0.41202000  0.40673000  0.70476000  1.0
  H  H99  1  0.27718000  0.23472000  0.71499000  1.0
  H  H100  1  0.24301000  0.49509000  0.81425000  1.0
  H  H101  1  0.31281000  0.39676000  0.97261000  1.0
  H  H102  1  0.23428000  0.54479000  0.00540000  1.0
  H  H103  1  0.16744000  0.64198000  0.84728000  1.0
  H  H104  1  0.39662000  0.21030000  0.94873000  1.0
  H  H105  1  0.14612000  0.37692000  0.86035000  1.0
  H  H106  1  0.05759000  0.29541000  0.89469000  1.0
  H  H107  1  0.30898000  0.12933000  0.98151000  1.0
  H  H108  1  0.45728000  0.18147000  0.85144000  1.0
  H  H109  1  0.45827000  0.40214000  0.92484000  1.0
  H  H110  1  0.62885000  0.31751000  0.95089000  1.0
  H  H111  1  0.62273000  0.09502000  0.88329000  1.0
  C  C112  1  0.33600000  0.34220000  0.87293000  1.0
  C  C113  1  0.34778000  0.31587000  0.64181000  1.0
  C  C114  1  0.70363000  0.57500000  0.14060000  1.0
  C  C115  1  0.71422000  0.56576000  0.37269000  1.0
  C  C116  1  0.87561000  0.22555000  0.06467000  1.0
  C  C117  1  0.13360000  0.14795000  0.95624000  1.0
  C  C118  1  0.73272000  0.14378000  0.94269000  1.0
  C  C119  1  0.90764000  0.76505000  0.05220000  1.0
  C  C120  1  0.15280000  0.69148000  0.94785000  1.0
  C  C121  1  0.30782000  0.77655000  0.07335000  1.0
  C  C122  1  0.16587000  0.66955000  0.56394000  1.0
  C  C123  1  0.91928000  0.75845000  0.44787000  1.0
  C  C124  1  0.32387000  0.75465000  0.45026000  1.0
  C  C125  1  0.14773000  0.12083000  0.56331000  1.0
  C  C126  1  0.90906000  0.21280000  0.44989000  1.0
  C  C127  1  0.73592000  0.12259000  0.56052000  1.0
  C  C128  1  0.55471000  0.69467000  0.37533000  1.0
  C  C129  1  0.60814000  0.60841000  0.38990000  1.0
  C  C130  1  0.56216000  0.56798000  0.41939000  1.0
  C  C131  1  0.46764000  0.61342000  0.43659000  1.0
  C  C132  1  0.41920000  0.70104000  0.42645000  1.0
  C  C133  1  0.46321000  0.74113000  0.39475000  1.0
  C  C134  1  0.77615000  0.45377000  0.44579000  1.0
  C  C135  1  0.76591000  0.47209000  0.39152000  1.0
  C  C136  1  0.80741000  0.40431000  0.35720000  1.0
  C  C137  1  0.85480000  0.32060000  0.37616000  1.0
  C  C138  1  0.86204000  0.30277000  0.43014000  1.0
  C  C139  1  0.82272000  0.37040000  0.46496000  1.0
  C  C140  1  0.86891000  0.58461000  0.38457000  1.0
  C  C141  1  0.77125000  0.61108000  0.39692000  1.0
  C  C142  1  0.72901000  0.67878000  0.43113000  1.0
  C  C143  1  0.77897000  0.72415000  0.44789000  1.0
  C  C144  1  0.87374000  0.70165000  0.43228000  1.0
  C  C145  1  0.91984000  0.62927000  0.40183000  1.0
  C  C146  1  0.65621000  0.54119000  0.23017000  1.0
  C  C147  1  0.70674000  0.57834000  0.20085000  1.0
  C  C148  1  0.75294000  0.61865000  0.22848000  1.0
  C  C149  1  0.75512000  0.61657000  0.28342000  1.0
  C  C150  1  0.71132000  0.57401000  0.31239000  1.0
  C  C151  1  0.65856000  0.53892000  0.28454000  1.0
  C  C152  1  0.90830000  0.63719000  0.10352000  1.0
  C  C153  1  0.86170000  0.70874000  0.07032000  1.0
  C  C154  1  0.76620000  0.73120000  0.05578000  1.0
  C  C155  1  0.71639000  0.68712000  0.07664000  1.0
  C  C156  1  0.75965000  0.62022000  0.11338000  1.0
  C  C157  1  0.85796000  0.59340000  0.12443000  1.0
  C  C158  1  0.54375000  0.58426000  0.10100000  1.0
  C  C159  1  0.59584000  0.62160000  0.12653000  1.0
  C  C160  1  0.54767000  0.70770000  0.14038000  1.0
  C  C161  1  0.45417000  0.75742000  0.12384000  1.0
  C  C162  1  0.40376000  0.72025000  0.09616000  1.0
  C  C163  1  0.44750000  0.63291000  0.08684000  1.0
  C  C164  1  0.83341000  0.32897000  0.13771000  1.0
  C  C165  1  0.83260000  0.31453000  0.08404000  1.0
  C  C166  1  0.79302000  0.38465000  0.04904000  1.0
  C  C167  1  0.75258000  0.46715000  0.06780000  1.0
  C  C168  1  0.75001000  0.48226000  0.12189000  1.0
  C  C169  1  0.79323000  0.41185000  0.15622000  1.0
  C  C170  1  0.32865000  0.43297000  0.57239000  1.0
  C  C171  1  0.30158000  0.40880000  0.62026000  1.0
  C  C172  1  0.22740000  0.47153000  0.64853000  1.0
  C  C173  1  0.18452000  0.55595000  0.63081000  1.0
  C  C174  1  0.21212000  0.57913000  0.58283000  1.0
  C  C175  1  0.28316000  0.51677000  0.55329000  1.0
  C  C176  1  0.33357000  0.17791000  0.62533000  1.0
  C  C177  1  0.29001000  0.26758000  0.62281000  1.0
  C  C178  1  0.19599000  0.30896000  0.60329000  1.0
  C  C179  1  0.14732000  0.26225000  0.58574000  1.0
  C  C180  1  0.19347000  0.17326000  0.58579000  1.0
  C  C181  1  0.28713000  0.13114000  0.60610000  1.0
  C  C182  1  0.46589000  0.23637000  0.57044000  1.0
  C  C183  1  0.45170000  0.26879000  0.62141000  1.0
  C  C184  1  0.53337000  0.25500000  0.65132000  1.0
  C  C185  1  0.62568000  0.21141000  0.63118000  1.0
  C  C186  1  0.63867000  0.17715000  0.58123000  1.0
  C  C187  1  0.55747000  0.18985000  0.55108000  1.0
  C  C188  1  0.30081000  0.28309000  0.78754000  1.0
  C  C189  1  0.33570000  0.33462000  0.81293000  1.0
  C  C190  1  0.37929000  0.37613000  0.78192000  1.0
  C  C191  1  0.38236000  0.36993000  0.72774000  1.0
  C  C192  1  0.34611000  0.31873000  0.70204000  1.0
  C  C193  1  0.30631000  0.27503000  0.73304000  1.0
  C  C194  1  0.24312000  0.50495000  0.85621000  1.0
  C  C195  1  0.28714000  0.43507000  0.89079000  1.0
  C  C196  1  0.28206000  0.45056000  0.94489000  1.0
  C  C197  1  0.23794000  0.53296000  0.96350000  1.0
  C  C198  1  0.19714000  0.60273000  0.92834000  1.0
  C  C199  1  0.19951000  0.58783000  0.87459000  1.0
  C  C200  1  0.32280000  0.22944000  0.93595000  1.0
  C  C201  1  0.27983000  0.29667000  0.89955000  1.0
  C  C202  1  0.18229000  0.32225000  0.88691000  1.0
  C  C203  1  0.13215000  0.27712000  0.90609000  1.0
  C  C204  1  0.17879000  0.20525000  0.93900000  1.0
  C  C205  1  0.27338000  0.18387000  0.95492000  1.0
  C  C206  1  0.49381000  0.21129000  0.87433000  1.0
  C  C207  1  0.44364000  0.29718000  0.88820000  1.0
  C  C208  1  0.49412000  0.33516000  0.91472000  1.0
  C  C209  1  0.59030000  0.28753000  0.92977000  1.0
  C  C210  1  0.63607000  0.20031000  0.92025000  1.0
  C  C211  1  0.58714000  0.16288000  0.89149000  1.0
  O  O212  1  0.95948000  0.11878000  0.87682000  1.0
  O  O213  1  0.88647000  0.21573000  0.01529000  1.0
  O  O214  1  0.79979000  0.16912000  0.94058000  1.0
  O  O215  1  0.19203000  0.07640000  0.97636000  1.0
  O  O216  1  0.74001000  0.07299000  0.96173000  1.0
  O  O217  1  0.04339000  0.17234000  0.95019000  1.0
  O  O218  1  0.89950000  0.16517000  0.09925000  1.0
  O  O219  1  0.90604000  0.04348000  0.02323000  1.0
  O  O220  1  0.04925000  0.07744000  0.03646000  1.0
  O  O221  1  0.91804000  0.00024000  0.92828000  1.0
  O  O222  1  0.07646000  0.99370000  0.95386000  1.0
  O  O223  1  0.28826000  0.91349000  0.95316000  1.0
  O  O224  1  0.82403000  0.05720000  0.12412000  1.0
  O  O225  1  0.10189000  0.92412000  0.06516000  1.0
  O  O226  1  0.95243000  0.90893000  0.08249000  1.0
  O  O227  1  0.99824000  0.86879000  0.98485000  1.0
  O  O228  1  0.17445000  0.84181000  0.98271000  1.0
  O  O229  1  0.75076000  0.99778000  0.05659000  1.0
  O  O230  1  0.85234000  0.83518000  0.03019000  1.0
  O  O231  1  0.99745000  0.74157000  0.06156000  1.0
  O  O232  1  0.04095000  0.96472000  0.84534000  1.0
  O  O233  1  0.14823000  0.70099000  0.99740000  1.0
  O  O234  1  0.81293000  0.90735000  0.93425000  1.0
  O  O235  1  0.95543000  0.85785000  0.87547000  1.0
  O  O236  1  0.20742000  0.86631000  0.88386000  1.0
  O  O237  1  0.12347000  0.75226000  0.91335000  1.0
  O  O238  1  0.10665000  0.75461000  0.13042000  1.0
  O  O239  1  0.23657000  0.00965000  0.07374000  1.0
  O  O240  1  0.24233000  0.74859000  0.07327000  1.0
  O  O241  1  0.29923000  0.84724000  0.05457000  1.0
  O  O242  1  0.09264000  0.05860000  0.13499000  1.0
  O  O243  1  0.99751000  0.98706000  0.17312000  1.0
  O  O244  1  0.10204000  0.79230000  0.37529000  1.0
  O  O245  1  0.16138000  0.68349000  0.51453000  1.0
  O  O246  1  0.25504000  0.73281000  0.44413000  1.0
  O  O247  1  0.86078000  0.82991000  0.46551000  1.0
  O  O248  1  0.31926000  0.82008000  0.47402000  1.0
  O  O249  1  0.01003000  0.73327000  0.44336000  1.0
  O  O250  1  0.13376000  0.72623000  0.59913000  1.0
  O  O251  1  0.14033000  0.85232000  0.52619000  1.0
  O  O252  1  0.99497000  0.82148000  0.53087000  1.0
  O  O253  1  0.14356000  0.90274000  0.43291000  1.0
  O  O254  1  0.97935000  0.91191000  0.44872000  1.0
  O  O255  1  0.76940000  0.99380000  0.43752000  1.0
  O  O256  1  0.20906000  0.82859000  0.63230000  1.0
  O  O257  1  0.94170000  0.97183000  0.56104000  1.0
  O  O258  1  0.09364000  0.97983000  0.58696000  1.0
  O  O259  1  0.05973000  0.02915000  0.48903000  1.0
  O  O260  1  0.88482000  0.06206000  0.47783000  1.0
  O  O261  1  0.29688000  0.88447000  0.56986000  1.0
  O  O262  1  0.20428000  0.05120000  0.54360000  1.0
  O  O263  1  0.05598000  0.14835000  0.56631000  1.0
  O  O264  1  0.03014000  0.94918000  0.34478000  1.0
  O  O265  1  0.90837000  0.19919000  0.49929000  1.0
  O  O266  1  0.25200000  0.98883000  0.44705000  1.0
  O  O267  1  0.11595000  0.05017000  0.38304000  1.0
  O  O268  1  0.86026000  0.04767000  0.37685000  1.0
  O  O269  1  0.94528000  0.15498000  0.41553000  1.0
  O  O270  1  0.93822000  0.13627000  0.63003000  1.0
  O  O271  1  0.80186000  0.89669000  0.56048000  1.0
  O  O272  1  0.80588000  0.14167000  0.57144000  1.0
  O  O273  1  0.74171000  0.06097000  0.53286000  1.0
  O  O274  1  0.93826000  0.83392000  0.62724000  1.0
  O  O275  1  0.03046000  0.90047000  0.67221000  1.0
