# generated using pymatgen
data_MnH11C9N9O2
_symmetry_space_group_name_H-M   'P 1'
_cell_length_a   6.45624000
_cell_length_b   10.47190000
_cell_length_c   10.47180000
_cell_angle_alpha   68.42950000
_cell_angle_beta   76.82550000
_cell_angle_gamma   76.82570000
_symmetry_Int_Tables_number   1
_chemical_formula_structural   MnH11C9N9O2
_chemical_formula_sum   'Mn2 H22 C18 N18 O4'
_cell_volume   632.90432060
_cell_formula_units_Z   2
loop_
 _symmetry_equiv_pos_site_id
 _symmetry_equiv_pos_as_xyz
  1  'x, y, z'
loop_
 _atom_site_type_symbol
 _atom_site_label
 _atom_site_symmetry_multiplicity
 _atom_site_fract_x
 _atom_site_fract_y
 _atom_site_fract_z
 _atom_site_occupancy
  Mn  Mn0  1  0.75000000  0.42958000  0.57042000  1.0
  Mn  Mn1  1  0.25000000  0.57042000  0.42958000  1.0
  H  H2  1  0.66732000  0.34807000  0.35031000  1.0
  H  H3  1  0.83268000  0.64969000  0.65193000  1.0
  H  H4  1  0.33268000  0.65193000  0.64969000  1.0
  H  H5  1  0.16732000  0.35031000  0.34807000  1.0
  H  H6  1  0.76177000  0.88878000  0.86052000  1.0
  H  H7  1  0.73823000  0.13948000  0.11122000  1.0
  H  H8  1  0.23823000  0.11122000  0.13948000  1.0
  H  H9  1  0.26177000  0.86052000  0.88878000  1.0
  H  H10  1  0.75000000  0.90777000  0.09222000  1.0
  H  H11  1  0.25000000  0.09222000  0.90777000  1.0
  H  H12  1  0.74692000  0.99694000  0.48075000  1.0
  H  H13  1  0.75308000  0.51924000  0.00306000  1.0
  H  H14  1  0.25308000  0.00306000  0.51924000  1.0
  H  H15  1  0.24692000  0.48075000  0.99694000  1.0
  H  H16  1  0.60331000  0.93258000  0.65144000  1.0
  H  H17  1  0.89668000  0.34855000  0.06742000  1.0
  H  H18  1  0.39669000  0.06742000  0.34856000  1.0
  H  H19  1  0.10332000  0.65144000  0.93258000  1.0
  H  H20  1  0.88954000  0.90327000  0.62419000  1.0
  H  H21  1  0.61046000  0.37581000  0.09674000  1.0
  H  H22  1  0.11046000  0.09673000  0.37581000  1.0
  H  H23  1  0.38954000  0.62419000  0.90327000  1.0
  C  C24  1  0.75267000  0.11082000  0.75418000  1.0
  C  C25  1  0.74733000  0.24582000  0.88918000  1.0
  C  C26  1  0.24733000  0.88919000  0.24582000  1.0
  C  C27  1  0.25267000  0.75418000  0.11082000  1.0
  C  C28  1  0.75708000  0.98938000  0.87032000  1.0
  C  C29  1  0.74291000  0.12968000  0.01063000  1.0
  C  C30  1  0.24292000  0.01063000  0.12968000  1.0
  C  C31  1  0.25708000  0.87032000  0.98937000  1.0
  C  C32  1  0.75000000  0.00018000  0.99982000  1.0
  C  C33  1  0.25000000  0.99982000  0.00018000  1.0
  C  C34  1  0.74371000  0.11064000  0.61476000  1.0
  C  C35  1  0.75629000  0.38524000  0.88937000  1.0
  C  C36  1  0.25629000  0.88937000  0.38524000  1.0
  C  C37  1  0.24371000  0.61476000  0.11063000  1.0
  C  C38  1  0.74691000  0.97876000  0.59042000  1.0
  C  C39  1  0.75309000  0.40958000  0.02124000  1.0
  C  C40  1  0.25309000  0.02124000  0.40958000  1.0
  C  C41  1  0.24692000  0.59042000  0.97876000  1.0
  N  N42  1  0.38677000  0.48360000  0.63944000  1.0
  N  N43  1  0.11323000  0.36056000  0.51640000  1.0
  N  N44  1  0.61323000  0.51640000  0.36056000  1.0
  N  N45  1  0.88677000  0.63944000  0.48360000  1.0
  N  N46  1  0.31066000  0.40747000  0.75133000  1.0
  N  N47  1  0.18934000  0.24865000  0.59254000  1.0
  N  N48  1  0.68934000  0.59254000  0.24865000  1.0
  N  N49  1  0.81066000  0.75134000  0.40747000  1.0
  N  N50  1  0.24264000  0.33455000  0.85944000  1.0
  N  N51  1  0.25736000  0.14056000  0.66545000  1.0
  N  N52  1  0.75736000  0.66545000  0.14056000  1.0
  N  N53  1  0.74264000  0.85944000  0.33455000  1.0
  N  N54  1  0.75000000  0.23549000  0.76451000  1.0
  N  N55  1  0.25000000  0.76451000  0.23549000  1.0
  N  N56  1  0.72316000  0.23399000  0.52314000  1.0
  N  N57  1  0.77684000  0.47686000  0.76601000  1.0
  N  N58  1  0.27684000  0.76601000  0.47686000  1.0
  N  N59  1  0.22316000  0.52314000  0.23399000  1.0
  O  O60  1  0.70150000  0.24347000  0.39180000  1.0
  O  O61  1  0.79850000  0.60819000  0.75654000  1.0
  O  O62  1  0.29850000  0.75654000  0.60819000  1.0
  O  O63  1  0.20150000  0.39180000  0.24347000  1.0
