# generated using pymatgen
data_V2CoH4C2NO7
_symmetry_space_group_name_H-M   'P 1'
_cell_length_a   7.05903000
_cell_length_b   9.58344000
_cell_length_c   12.36240475
_cell_angle_alpha   90.03281660
_cell_angle_beta   106.55428659
_cell_angle_gamma   90.83600000
_symmetry_Int_Tables_number   1
_chemical_formula_structural   V2CoH4C2NO7
_chemical_formula_sum   'V8 Co4 H16 C8 N4 O28'
_cell_volume   801.55395101
_cell_formula_units_Z   4
loop_
 _symmetry_equiv_pos_site_id
 _symmetry_equiv_pos_as_xyz
  1  'x, y, z'
loop_
 _atom_site_type_symbol
 _atom_site_label
 _atom_site_symmetry_multiplicity
 _atom_site_fract_x
 _atom_site_fract_y
 _atom_site_fract_z
 _atom_site_occupancy
  V  V0  1  0.08442000  0.53452000  0.39860000  1.0
  V  V1  1  0.91828000  0.03041000  0.10399000  1.0
  V  V2  1  0.93015000  0.46529000  0.60440000  1.0
  V  V3  1  0.06690000  0.96575000  0.89484000  1.0
  V  V4  1  0.59210000  0.53435000  0.40261000  1.0
  V  V5  1  0.41110000  0.03266000  0.09973000  1.0
  V  V6  1  0.42476000  0.47091000  0.60168000  1.0
  V  V7  1  0.57351000  0.97114000  0.89866000  1.0
  Co  Co8  1  0.74646000  0.30283000  0.22768000  1.0
  Co  Co9  1  0.26073000  0.80209000  0.27688000  1.0
  Co  Co10  1  0.25244000  0.69757000  0.77366000  1.0
  Co  Co11  1  0.74058000  0.19741000  0.72394000  1.0
  H  H12  1  0.65368000  0.61152000  0.18519000  1.0
  H  H13  1  0.34927000  0.10443000  0.30869000  1.0
  H  H14  1  0.36241000  0.39533000  0.81773000  1.0
  H  H15  1  0.62366000  0.89140000  0.67647000  1.0
  H  H16  1  0.44864000  0.74892000  0.02379000  1.0
  H  H17  1  0.53913000  0.24551000  0.47295000  1.0
  H  H18  1  0.57027000  0.25835000  0.97879000  1.0
  H  H19  1  0.43324000  0.74973000  0.51224000  1.0
  H  H20  1  0.98322000  0.19783000  0.43182000  1.0
  H  H21  1  0.03203000  0.71013000  0.08810000  1.0
  H  H22  1  0.99132000  0.78674000  0.57375000  1.0
  H  H23  1  0.00774000  0.29091000  0.92110000  1.0
  H  H24  1  0.94684000  0.08164000  0.33723000  1.0
  H  H25  1  0.06448000  0.58987000  0.17964000  1.0
  H  H26  1  0.03208000  0.90847000  0.66439000  1.0
  H  H27  1  0.96454000  0.41318000  0.83190000  1.0
  C  C28  1  0.59076000  0.56321000  0.10289000  1.0
  C  C29  1  0.40909000  0.05621000  0.39057000  1.0
  C  C30  1  0.42645000  0.44372000  0.89983000  1.0
  C  C31  1  0.56483000  0.93943000  0.59423000  1.0
  C  C32  1  0.47607000  0.63937000  0.01320000  1.0
  C  C33  1  0.51571000  0.13458000  0.48275000  1.0
  C  C34  1  0.54167000  0.36768000  0.98927000  1.0
  C  C35  1  0.45890000  0.86000000  0.50284000  1.0
  N  N36  1  0.62170000  0.42689000  0.09076000  1.0
  N  N37  1  0.38339000  0.91759000  0.40027000  1.0
  N  N38  1  0.39428000  0.57977000  0.91214000  1.0
  N  N39  1  0.59456000  0.07699000  0.58428000  1.0
  O  O40  1  0.98197000  0.45015000  0.27758000  1.0
  O  O41  1  0.01792000  0.94147000  0.22165000  1.0
  O  O42  1  0.03495000  0.54441000  0.72795000  1.0
  O  O43  1  0.96267000  0.04801000  0.77376000  1.0
  O  O44  1  0.62434000  0.39814000  0.32337000  1.0
  O  O45  1  0.37498000  0.89852000  0.18022000  1.0
  O  O46  1  0.38894000  0.60516000  0.68125000  1.0
  O  O47  1  0.61047000  0.10599000  0.81944000  1.0
  O  O48  1  0.50181000  0.17279000  0.17638000  1.0
  O  O49  1  0.50637000  0.67134000  0.32355000  1.0
  O  O50  1  0.47834000  0.83644000  0.81624000  1.0
  O  O51  1  0.51557000  0.33544000  0.68175000  1.0
  O  O52  1  0.87663000  0.19366000  0.14206000  1.0
  O  O53  1  0.14130000  0.69859000  0.36737000  1.0
  O  O54  1  0.11566000  0.80177000  0.86288000  1.0
  O  O55  1  0.87413000  0.30061000  0.63218000  1.0
  O  O56  1  0.87568000  0.57739000  0.46035000  1.0
  O  O57  1  0.12927000  0.07261000  0.04225000  1.0
  O  O58  1  0.14228000  0.42541000  0.54363000  1.0
  O  O59  1  0.85335000  0.92557000  0.95560000  1.0
  O  O60  1  0.35620000  0.47450000  0.43541000  1.0
  O  O61  1  0.64283000  0.97296000  0.06548000  1.0
  O  O62  1  0.66152000  0.53166000  0.56902000  1.0
  O  O63  1  0.33972000  0.02980000  0.93233000  1.0
  O  O64  1  0.88242000  0.15551000  0.36873000  1.0
  O  O65  1  0.13180000  0.66554000  0.14932000  1.0
  O  O66  1  0.09547000  0.83462000  0.63193000  1.0
  O  O67  1  0.90204000  0.33758000  0.86485000  1.0
