# generated using pymatgen
data_LiH10C6N2ClO2
_symmetry_space_group_name_H-M   'P 1'
_cell_length_a   8.05228000
_cell_length_b   9.05558000
_cell_length_c   12.04430000
_cell_angle_alpha   90.00000000
_cell_angle_beta   89.99990000
_cell_angle_gamma   102.08300000
_symmetry_Int_Tables_number   1
_chemical_formula_structural   LiH10C6N2ClO2
_chemical_formula_sum   'Li4 H40 C24 N8 Cl4 O8'
_cell_volume   858.78983685
_cell_formula_units_Z   4
loop_
 _symmetry_equiv_pos_site_id
 _symmetry_equiv_pos_as_xyz
  1  'x, y, z'
loop_
 _atom_site_type_symbol
 _atom_site_label
 _atom_site_symmetry_multiplicity
 _atom_site_fract_x
 _atom_site_fract_y
 _atom_site_fract_z
 _atom_site_occupancy
  Li  Li0  1  0.55179000  0.10908000  0.59283000  1.0
  Li  Li1  1  0.94822000  0.39093000  0.09283000  1.0
  Li  Li2  1  0.44822000  0.89093000  0.40718000  1.0
  Li  Li3  1  0.05178000  0.60907000  0.90718000  1.0
  H  H4  1  0.36556000  0.89872000  0.94824000  1.0
  H  H5  1  0.13443000  0.60128000  0.44824000  1.0
  H  H6  1  0.63444000  0.10129000  0.05176000  1.0
  H  H7  1  0.86556000  0.39872000  0.55176000  1.0
  H  H8  1  0.36689000  0.92713000  0.80226000  1.0
  H  H9  1  0.13311000  0.57287000  0.30226000  1.0
  H  H10  1  0.63311000  0.07287000  0.19774000  1.0
  H  H11  1  0.86689000  0.42713000  0.69774000  1.0
  H  H12  1  0.38685000  0.16646000  0.98402000  1.0
  H  H13  1  0.11315000  0.33354000  0.48402000  1.0
  H  H14  1  0.61315000  0.83354000  0.01598000  1.0
  H  H15  1  0.88685000  0.66646000  0.51598000  1.0
  H  H16  1  0.49332000  0.18544000  0.85394000  1.0
  H  H17  1  0.00668000  0.31456000  0.35394000  1.0
  H  H18  1  0.50668000  0.81456000  0.14606000  1.0
  H  H19  1  0.99332000  0.68544000  0.64606000  1.0
  H  H20  1  0.19256000  0.29056000  0.89423000  1.0
  H  H21  1  0.30744000  0.20944000  0.39423000  1.0
  H  H22  1  0.80744000  0.70944000  0.10577000  1.0
  H  H23  1  0.69256000  0.79056000  0.60577000  1.0
  H  H24  1  0.24414000  0.23056000  0.75978000  1.0
  H  H25  1  0.25586000  0.26943000  0.25978000  1.0
  H  H26  1  0.75586000  0.76944000  0.24022000  1.0
  H  H27  1  0.74414000  0.73056000  0.74022000  1.0
  H  H28  1  0.82866000  0.97631000  0.88904000  1.0
  H  H29  1  0.67134000  0.52369000  0.38904000  1.0
  H  H30  1  0.17134000  0.02369000  0.11097000  1.0
  H  H31  1  0.32866000  0.47631000  0.61096000  1.0
  H  H32  1  0.88295000  0.17751000  0.88296000  1.0
  H  H33  1  0.61705000  0.32249000  0.38296000  1.0
  H  H34  1  0.11705000  0.82249000  0.11704000  1.0
  H  H35  1  0.38295000  0.67751000  0.61704000  1.0
  H  H36  1  0.06050000  0.04022000  0.65046000  1.0
  H  H37  1  0.43949000  0.45978000  0.15046000  1.0
  H  H38  1  0.93949000  0.95978000  0.34954000  1.0
  H  H39  1  0.56051000  0.54022000  0.84954000  1.0
  H  H40  1  0.88806000  0.05523000  0.56381000  1.0
  H  H41  1  0.61194000  0.44477000  0.06381000  1.0
  H  H42  1  0.11194000  0.94477000  0.43619000  1.0
  H  H43  1  0.38806000  0.55523000  0.93619000  1.0
  C  C44  1  0.13024000  0.93343000  0.87760000  1.0
  C  C45  1  0.36976000  0.56657000  0.37760000  1.0
  C  C46  1  0.86976000  0.06657000  0.12240000  1.0
  C  C47  1  0.63024000  0.43343000  0.62240000  1.0
  C  C48  1  0.32202000  0.96432000  0.88187000  1.0
  C  C49  1  0.17798000  0.53568000  0.38187000  1.0
  C  C50  1  0.67798000  0.03568000  0.11813000  1.0
  C  C51  1  0.82202000  0.46432000  0.61813000  1.0
  C  C52  1  0.37350000  0.13664000  0.89552000  1.0
  C  C53  1  0.12650000  0.36336000  0.39552000  1.0
  C  C54  1  0.62650000  0.86337000  0.10448000  1.0
  C  C55  1  0.87349000  0.63664000  0.60448000  1.0
  C  C56  1  0.22271000  0.19566000  0.84718000  1.0
  C  C57  1  0.27729000  0.30434000  0.34718000  1.0
  C  C58  1  0.77729000  0.80434000  0.15282000  1.0
  C  C59  1  0.72271000  0.69566000  0.65282000  1.0
  C  C60  1  0.90588000  0.07299000  0.84485000  1.0
  C  C61  1  0.59412000  0.42701000  0.34485000  1.0
  C  C62  1  0.09412000  0.92701000  0.15515000  1.0
  C  C63  1  0.40588000  0.57299000  0.65515000  1.0
  C  C64  1  0.83697000  0.06770000  0.72734000  1.0
  C  C65  1  0.66303000  0.43230000  0.22734000  1.0
  C  C66  1  0.16303000  0.93230000  0.27266000  1.0
  C  C67  1  0.33697000  0.56770000  0.77266000  1.0
  N  N68  1  0.08153000  0.06478000  0.85615000  1.0
  N  N69  1  0.41847000  0.43522000  0.35615000  1.0
  N  N70  1  0.91847000  0.93522000  0.14385000  1.0
  N  N71  1  0.58153000  0.56478000  0.64385000  1.0
  N  N72  1  0.94078000  0.05977000  0.64186000  1.0
  N  N73  1  0.55922000  0.44023000  0.14186000  1.0
  N  N74  1  0.05922000  0.94023000  0.35814000  1.0
  N  N75  1  0.44078000  0.55977000  0.85814000  1.0
  Cl  Cl76  1  0.29267000  0.93731000  0.57486000  1.0
  Cl  Cl77  1  0.20732000  0.56269000  0.07486000  1.0
  Cl  Cl78  1  0.70733000  0.06269000  0.42514000  1.0
  Cl  Cl79  1  0.79267000  0.43731000  0.92514000  1.0
  O  O80  1  0.68389000  0.07260000  0.71567000  1.0
  O  O81  1  0.81611000  0.42740000  0.21567000  1.0
  O  O82  1  0.31611000  0.92740000  0.28433000  1.0
  O  O83  1  0.18389000  0.57260000  0.78433000  1.0
  O  O84  1  0.02761000  0.81045000  0.89054000  1.0
  O  O85  1  0.47238000  0.68955000  0.39054000  1.0
  O  O86  1  0.97239000  0.18955000  0.10946000  1.0
  O  O87  1  0.52761000  0.31045000  0.60945000  1.0
