# generated using pymatgen
data_Zn4H21C48N4Cl5O24
_symmetry_space_group_name_H-M   'P 1'
_cell_length_a   9.68567000
_cell_length_b   10.97290000
_cell_length_c   21.92960000
_cell_angle_alpha   89.85020000
_cell_angle_beta   90.60080000
_cell_angle_gamma   89.93940000
_symmetry_Int_Tables_number   1
_chemical_formula_structural   Zn4H21C48N4Cl5O24
_chemical_formula_sum   'Zn4 H21 C48 N4 Cl5 O24'
_cell_volume   2330.53796846
_cell_formula_units_Z   1
loop_
 _symmetry_equiv_pos_site_id
 _symmetry_equiv_pos_as_xyz
  1  'x, y, z'
loop_
 _atom_site_type_symbol
 _atom_site_label
 _atom_site_symmetry_multiplicity
 _atom_site_fract_x
 _atom_site_fract_y
 _atom_site_fract_z
 _atom_site_occupancy
  Zn  Zn0  1  0.64842000  0.49255000  0.49907000  1.0
  Zn  Zn1  1  0.36279000  0.48732000  0.50738000  1.0
  Zn  Zn2  1  0.35624000  0.50249000  0.99846000  1.0
  Zn  Zn3  1  0.64406000  0.49591000  0.00693000  1.0
  H  H4  1  0.13179000  0.33680000  0.44598000  1.0
  H  H5  1  0.14748000  0.64558000  0.55569000  1.0
  H  H6  1  0.86891000  0.34927000  0.44416000  1.0
  H  H7  1  0.72440000  0.09364000  0.50670000  1.0
  H  H8  1  0.28573000  0.11390000  0.47691000  1.0
  H  H9  1  0.70978000  0.86586000  0.50191000  1.0
  H  H10  1  0.65278000  0.63999000  0.13502000  1.0
  H  H11  1  0.64031000  0.68174000  0.36057000  1.0
  H  H12  1  0.30366000  0.54286000  0.80734000  1.0
  H  H13  1  0.74389000  0.49319000  0.81472000  1.0
  H  H14  1  0.31155000  0.53013000  0.69338000  1.0
  H  H15  1  0.88600000  0.39209000  0.08626000  1.0
  H  H16  1  0.84880000  0.61356000  0.93257000  1.0
  H  H17  1  0.14677000  0.40126000  0.07878000  1.0
  H  H18  1  0.30507000  0.11252000  0.04503000  1.0
  H  H19  1  0.70119000  0.11767000  0.95817000  1.0
  H  H20  1  0.31829000  0.88513000  0.05185000  1.0
  H  H21  1  0.45123000  0.23034000  0.34178000  1.0
  H  H22  1  0.45273000  0.21874000  0.17596000  1.0
  H  H23  1  0.73848000  0.77242000  0.09703000  1.0
  H  H24  1  0.93353000  0.76402000  0.33306000  1.0
  C  C25  1  0.50883000  0.25340000  0.49867000  1.0
  C  C26  1  0.49505000  0.49057000  0.38451000  1.0
  C  C27  1  0.49186000  0.72511000  0.49537000  1.0
  C  C28  1  0.51946000  0.49438000  0.62135000  1.0
  C  C29  1  0.49675000  0.26461000  0.99653000  1.0
  C  C30  1  0.48425000  0.47666000  0.11995000  1.0
  C  C31  1  0.51562000  0.73716000  0.01416000  1.0
  C  C32  1  0.51702000  0.52037000  0.88612000  1.0
  C  C33  1  0.94047000  0.58513000  0.53022000  1.0
  C  C34  1  0.07565000  0.40672000  0.47067000  1.0
  C  C35  1  0.08487000  0.57815000  0.53179000  1.0
  C  C36  1  0.93237000  0.41432000  0.46931000  1.0
  C  C37  1  0.49014000  0.86128000  0.49079000  1.0
  C  C38  1  0.50510000  0.11728000  0.49397000  1.0
  C  C39  1  0.37033000  0.93256000  0.48241000  1.0
  C  C40  1  0.62572000  0.04788000  0.49995000  1.0
  C  C41  1  0.37834000  0.05924000  0.48380000  1.0
  C  C42  1  0.61724000  0.92176000  0.49771000  1.0
  C  C43  1  0.48156000  0.48114000  0.18827000  1.0
  C  C44  1  0.56693000  0.56897000  0.21784000  1.0
  C  C45  1  0.39220000  0.40870000  0.22153000  1.0
  C  C46  1  0.64926000  0.65124000  0.18422000  1.0
  C  C47  1  0.72452000  0.74224000  0.21218000  1.0
  C  C48  1  0.48404000  0.49367000  0.31620000  1.0
  C  C49  1  0.39390000  0.41475000  0.28637000  1.0
  C  C50  1  0.56678000  0.57713000  0.28271000  1.0
  C  C51  1  0.64389000  0.67191000  0.31108000  1.0
  C  C52  1  0.71831000  0.75472000  0.27699000  1.0
  C  C53  1  0.52977000  0.50327000  0.68964000  1.0
  C  C54  1  0.52339000  0.51951000  0.81800000  1.0
  C  C55  1  0.65230000  0.49339000  0.72469000  1.0
  C  C56  1  0.40101000  0.53025000  0.78380000  1.0
  C  C57  1  0.64873000  0.50256000  0.78824000  1.0
  C  C58  1  0.40553000  0.52283000  0.72081000  1.0
  C  C59  1  0.06018000  0.57428000  0.96210000  1.0
  C  C60  1  0.93700000  0.44307000  0.05029000  1.0
  C  C61  1  0.91618000  0.56740000  0.96530000  1.0
  C  C62  1  0.08000000  0.44815000  0.04604000  1.0
  C  C63  1  0.51757000  0.87339000  0.01016000  1.0
  C  C64  1  0.50227000  0.12843000  0.00101000  1.0
  C  C65  1  0.62551000  0.94009000  0.98363000  1.0
  C  C66  1  0.39393000  0.06337000  0.02758000  1.0
  C  C67  1  0.61788000  0.06655000  0.97915000  1.0
  C  C68  1  0.40216000  0.93725000  0.03173000  1.0
  C  C69  1  0.29624000  0.33661000  0.32285000  1.0
  C  C70  1  0.29520000  0.32411000  0.18800000  1.0
  C  C71  1  0.82038000  0.82236000  0.17692000  1.0
  C  C72  1  0.77804000  0.86335000  0.31019000  1.0
  N  N73  1  0.86492000  0.50284000  0.49952000  1.0
  N  N74  1  0.14981000  0.48870000  0.50265000  1.0
  N  N75  1  0.14110000  0.51287000  0.00145000  1.0
  N  N76  1  0.85700000  0.50146000  0.00912000  1.0
  Cl  Cl77  1  0.86333000  0.70096000  0.56830000  1.0
  Cl  Cl78  1  0.20894000  0.87023000  0.46735000  1.0
  Cl  Cl79  1  0.81265000  0.46391000  0.69342000  1.0
  Cl  Cl80  1  0.13200000  0.66336000  0.90729000  1.0
  Cl  Cl81  1  0.76875000  0.86966000  0.95233000  1.0
  O  O82  1  0.62566000  0.30494000  0.50625000  1.0
  O  O83  1  0.39252000  0.30758000  0.49490000  1.0
  O  O84  1  0.38531000  0.51115000  0.41365000  1.0
  O  O85  1  0.61403000  0.46573000  0.40628000  1.0
  O  O86  1  0.38659000  0.67193000  0.51714000  1.0
  O  O87  1  0.60261000  0.67211000  0.47883000  1.0
  O  O88  1  0.62754000  0.51430000  0.59047000  1.0
  O  O89  1  0.40050000  0.46971000  0.59936000  1.0
  O  O90  1  0.38094000  0.31612000  0.00567000  1.0
  O  O91  1  0.60988000  0.31884000  0.98450000  1.0
  O  O92  1  0.59915000  0.44973000  0.09569000  1.0
  O  O93  1  0.37286000  0.50469000  0.09254000  1.0
  O  O94  1  0.62403000  0.68133000  0.03359000  1.0
  O  O95  1  0.40373000  0.68644000  0.99806000  1.0
  O  O96  1  0.40001000  0.49525000  0.90883000  1.0
  O  O97  1  0.62683000  0.54431000  0.91651000  1.0
  O  O98  1  0.35241000  0.23621000  0.35009000  1.0
  O  O99  1  0.17417000  0.35876000  0.32813000  1.0
  O  O100  1  0.35448000  0.22121000  0.16523000  1.0
  O  O101  1  0.17305000  0.34360000  0.17976000  1.0
  O  O102  1  0.81266000  0.82283000  0.11516000  1.0
  O  O103  1  0.90780000  0.88409000  0.20288000  1.0
  O  O104  1  0.89418000  0.84283000  0.34420000  1.0
  O  O105  1  0.71856000  0.96078000  0.31212000  1.0
