# generated using pymatgen
data_Dy2AgH16C22N3O16
_symmetry_space_group_name_H-M   'P 1'
_cell_length_a   11.26390000
_cell_length_b   11.44840000
_cell_length_c   12.51630000
_cell_angle_alpha   102.79900000
_cell_angle_beta   114.79400000
_cell_angle_gamma   102.32400000
_symmetry_Int_Tables_number   1
_chemical_formula_structural   Dy2AgH16C22N3O16
_chemical_formula_sum   'Dy4 Ag2 H32 C44 N6 O32'
_cell_volume   1340.56153712
_cell_formula_units_Z   2
loop_
 _symmetry_equiv_pos_site_id
 _symmetry_equiv_pos_as_xyz
  1  'x, y, z'
loop_
 _atom_site_type_symbol
 _atom_site_label
 _atom_site_symmetry_multiplicity
 _atom_site_fract_x
 _atom_site_fract_y
 _atom_site_fract_z
 _atom_site_occupancy
  Dy  Dy0  1  0.74721000  0.49332000  0.88548000  1.0
  Dy  Dy1  1  0.25279000  0.50668000  0.11452000  1.0
  Dy  Dy2  1  0.23824000  0.47916000  0.60444000  1.0
  Dy  Dy3  1  0.76176000  0.52084000  0.39556000  1.0
  Ag  Ag4  1  0.91145000  0.26879000  0.18708000  1.0
  Ag  Ag5  1  0.08856000  0.73121000  0.81292000  1.0
  H  H6  1  0.42013000  0.07398000  0.46850000  1.0
  H  H7  1  0.57987000  0.92602000  0.53151000  1.0
  H  H8  1  0.32958000  0.84214000  0.32943000  1.0
  H  H9  1  0.67042000  0.15787000  0.67057000  1.0
  H  H10  1  0.92396000  0.87319000  0.15083000  1.0
  H  H11  1  0.07604000  0.12681000  0.84917000  1.0
  H  H12  1  0.02998000  0.10324000  0.29716000  1.0
  H  H13  1  0.97002000  0.89677000  0.70284000  1.0
  H  H14  1  0.45671000  0.99535000  0.25501000  1.0
  H  H15  1  0.54329000  0.00464000  0.74499000  1.0
  H  H16  1  0.62715000  0.21977000  0.36593000  1.0
  H  H17  1  0.37284000  0.78023000  0.63406000  1.0
  H  H18  1  0.95707000  0.06359000  0.44929000  1.0
  H  H19  1  0.04293000  0.93641000  0.55071000  1.0
  H  H20  1  0.77251000  0.84291000  0.33701000  1.0
  H  H21  1  0.22749000  0.15709000  0.66300000  1.0
  H  H22  1  0.91926000  0.06844000  0.98184000  1.0
  H  H23  1  0.08074000  0.93155000  0.01816000  1.0
  H  H24  1  0.78843000  0.83789000  0.84178000  1.0
  H  H25  1  0.21156000  0.16210000  0.15821000  1.0
  H  H26  1  0.51238000  0.83027000  0.99825000  1.0
  H  H27  1  0.48762000  0.16973000  0.00175000  1.0
  H  H28  1  0.65860000  0.05819000  0.13764000  1.0
  H  H29  1  0.34140000  0.94180000  0.86236000  1.0
  H  H30  1  0.44719000  0.35634000  0.59373000  1.0
  H  H31  1  0.55281000  0.64366000  0.40628000  1.0
  H  H32  1  0.29803000  0.24896000  0.49293000  1.0
  H  H33  1  0.70196000  0.75104000  0.50707000  1.0
  H  H34  1  0.49894000  0.24347000  0.78691000  1.0
  H  H35  1  0.50107000  0.75652000  0.21309000  1.0
  H  H36  1  0.46091000  0.36589000  0.82183000  1.0
  H  H37  1  0.53909000  0.63411000  0.17817000  1.0
  C  C38  1  0.31060000  0.02558000  0.39683000  1.0
  C  C39  1  0.68940000  0.97442000  0.60318000  1.0
  C  C40  1  0.26123000  0.89832000  0.31991000  1.0
  C  C41  1  0.73877000  0.10169000  0.68010000  1.0
  C  C42  1  0.12057000  0.84237000  0.22775000  1.0
  C  C43  1  0.87944000  0.15764000  0.77225000  1.0
  C  C44  1  0.03436000  0.91547000  0.22031000  1.0
  C  C45  1  0.96564000  0.08453000  0.77970000  1.0
  C  C46  1  0.09289000  0.04196000  0.30142000  1.0
  C  C47  1  0.90711000  0.95805000  0.69859000  1.0
  C  C48  1  0.06428000  0.70776000  0.13517000  1.0
  C  C49  1  0.93573000  0.29225000  0.86483000  1.0
  C  C50  1  0.56880000  0.01411000  0.30026000  1.0
  C  C51  1  0.43120000  0.98589000  0.69974000  1.0
  C  C52  1  0.66315000  0.13877000  0.36120000  1.0
  C  C53  1  0.33684000  0.86122000  0.63880000  1.0
  C  C54  1  0.80578000  0.15779000  0.41526000  1.0
  C  C55  1  0.19422000  0.84221000  0.58474000  1.0
  C  C56  1  0.84666000  0.05060000  0.40759000  1.0
  C  C57  1  0.15334000  0.94940000  0.59241000  1.0
  C  C58  1  0.74502000  0.92920000  0.34535000  1.0
  C  C59  1  0.25498000  0.07080000  0.65465000  1.0
  C  C60  1  0.91262000  0.29079000  0.47538000  1.0
  C  C61  1  0.08737000  0.70921000  0.52462000  1.0
  C  C62  1  0.82910000  0.01197000  0.98312000  1.0
  C  C63  1  0.17090000  0.98803000  0.01688000  1.0
  C  C64  1  0.75578000  0.88496000  0.90486000  1.0
  C  C65  1  0.24422000  0.11504000  0.09514000  1.0
  C  C66  1  0.63866000  0.81819000  0.90813000  1.0
  C  C67  1  0.36134000  0.18181000  0.09187000  1.0
  C  C68  1  0.60192000  0.88053000  0.99240000  1.0
  C  C69  1  0.39809000  0.11947000  0.00760000  1.0
  C  C70  1  0.68277000  0.00640000  0.06979000  1.0
  C  C71  1  0.31723000  0.99360000  0.93021000  1.0
  C  C72  1  0.55206000  0.68281000  0.82168000  1.0
  C  C73  1  0.44794000  0.31719000  0.17831000  1.0
  C  C74  1  0.81276000  0.55611000  0.67448000  1.0
  C  C75  1  0.18725000  0.44389000  0.32551000  1.0
  C  C76  1  0.67344000  0.44350000  0.59165000  1.0
  C  C77  1  0.32657000  0.55650000  0.40835000  1.0
  C  C78  1  0.79956000  0.47014000  0.14898000  1.0
  C  C79  1  0.20044000  0.52986000  0.85102000  1.0
  C  C80  1  0.71455000  0.56043000  0.13288000  1.0
  C  C81  1  0.28546000  0.43957000  0.86713000  1.0
  N  N82  1  0.22876000  0.09694000  0.38748000  1.0
  N  N83  1  0.77123000  0.90307000  0.61252000  1.0
  N  N84  1  0.60795000  0.91102000  0.29206000  1.0
  N  N85  1  0.39205000  0.08897000  0.70794000  1.0
  N  N86  1  0.79412000  0.07227000  0.06502000  1.0
  N  N87  1  0.20588000  0.92773000  0.93498000  1.0
  O  O88  1  0.94011000  0.66897000  0.04679000  1.0
  O  O89  1  0.05989000  0.33103000  0.95321000  1.0
  O  O90  1  0.14721000  0.64586000  0.15356000  1.0
  O  O91  1  0.85281000  0.35415000  0.84645000  1.0
  O  O92  1  0.04020000  0.30209000  0.53523000  1.0
  O  O93  1  0.95980000  0.69791000  0.46477000  1.0
  O  O94  1  0.86807000  0.38147000  0.46024000  1.0
  O  O95  1  0.13192000  0.61852000  0.53975000  1.0
  O  O96  1  0.42146000  0.65467000  0.77389000  1.0
  O  O97  1  0.57854000  0.34533000  0.22611000  1.0
  O  O98  1  0.61433000  0.60833000  0.80109000  1.0
  O  O99  1  0.38566000  0.39167000  0.19890000  1.0
  O  O100  1  0.86413000  0.59277000  0.79248000  1.0
  O  O101  1  0.13587000  0.40723000  0.20753000  1.0
  O  O102  1  0.87137000  0.60669000  0.62036000  1.0
  O  O103  1  0.12864000  0.39330000  0.37964000  1.0
  O  O104  1  0.62288000  0.39184000  0.65046000  1.0
  O  O105  1  0.37712000  0.60816000  0.34954000  1.0
  O  O106  1  0.62347000  0.41251000  0.47443000  1.0
  O  O107  1  0.37653000  0.58749000  0.52557000  1.0
  O  O108  1  0.84126000  0.44562000  0.25014000  1.0
  O  O109  1  0.15874000  0.55439000  0.74986000  1.0
  O  O110  1  0.81983000  0.42267000  0.05976000  1.0
  O  O111  1  0.18017000  0.57732000  0.94024000  1.0
  O  O112  1  0.68776000  0.59851000  0.22127000  1.0
  O  O113  1  0.31225000  0.40150000  0.77873000  1.0
  O  O114  1  0.67677000  0.58686000  0.03423000  1.0
  O  O115  1  0.32323000  0.41315000  0.96577000  1.0
  O  O116  1  0.34523000  0.33563000  0.56182000  1.0
  O  O117  1  0.65477000  0.66437000  0.43818000  1.0
  O  O118  1  0.54306000  0.33843000  0.83620000  1.0
  O  O119  1  0.45694000  0.66157000  0.16380000  1.0
