# generated using pymatgen
data_CdH6C6N2Cl2O
_symmetry_space_group_name_H-M   'P 1'
_cell_length_a   7.10121000
_cell_length_b   7.97036000
_cell_length_c   9.22808000
_cell_angle_alpha   110.75000000
_cell_angle_beta   95.63730000
_cell_angle_gamma   112.84900000
_symmetry_Int_Tables_number   1
_chemical_formula_structural   CdH6C6N2Cl2O
_chemical_formula_sum   'Cd2 H12 C12 N4 Cl4 O2'
_cell_volume   432.91899992
_cell_formula_units_Z   2
loop_
 _symmetry_equiv_pos_site_id
 _symmetry_equiv_pos_as_xyz
  1  'x, y, z'
loop_
 _atom_site_type_symbol
 _atom_site_label
 _atom_site_symmetry_multiplicity
 _atom_site_fract_x
 _atom_site_fract_y
 _atom_site_fract_z
 _atom_site_occupancy
  Cd  Cd0  1  0.72640000  0.97187000  0.90173000  1.0
  Cd  Cd1  1  0.27361000  0.02812000  0.09827000  1.0
  H  H2  1  0.73352000  0.00329000  0.33038000  1.0
  H  H3  1  0.26648000  0.99671000  0.66962000  1.0
  H  H4  1  0.03179000  0.34081000  0.42957000  1.0
  H  H5  1  0.96821000  0.65919000  0.57042000  1.0
  H  H6  1  0.22333000  0.53478000  0.72671000  1.0
  H  H7  1  0.77668000  0.46522000  0.27328000  1.0
  H  H8  1  0.09829000  0.37209000  0.91022000  1.0
  H  H9  1  0.90172000  0.62791000  0.08977000  1.0
  H  H10  1  0.51877000  0.72865000  0.27761000  1.0
  H  H11  1  0.48123000  0.27134000  0.72239000  1.0
  H  H12  1  0.35834000  0.54234000  0.32864000  1.0
  H  H13  1  0.64166000  0.45766000  0.67137000  1.0
  C  C14  1  0.75534000  0.00632000  0.56881000  1.0
  C  C15  1  0.24466000  0.99368000  0.43119000  1.0
  C  C16  1  0.81536000  0.08583000  0.45872000  1.0
  C  C17  1  0.18464000  0.91417000  0.54128000  1.0
  C  C18  1  0.98391000  0.27841000  0.51510000  1.0
  C  C19  1  0.01608000  0.72159000  0.48490000  1.0
  C  C20  1  0.08953000  0.38527000  0.67837000  1.0
  C  C21  1  0.91047000  0.61473000  0.32162000  1.0
  C  C22  1  0.02077000  0.29581000  0.78116000  1.0
  C  C23  1  0.97923000  0.70420000  0.21884000  1.0
  C  C24  1  0.57527000  0.80041000  0.52240000  1.0
  C  C25  1  0.42473000  0.19959000  0.47760000  1.0
  N  N26  1  0.85725000  0.11187000  0.72727000  1.0
  N  N27  1  0.14275000  0.88814000  0.27273000  1.0
  N  N28  1  0.47994000  0.68357000  0.36569000  1.0
  N  N29  1  0.52005000  0.31643000  0.63431000  1.0
  Cl  Cl30  1  0.48196000  0.79411000  0.04402000  1.0
  Cl  Cl31  1  0.51804000  0.20589000  0.95598000  1.0
  Cl  Cl32  1  0.06363000  0.24760000  0.14230000  1.0
  Cl  Cl33  1  0.93637000  0.75240000  0.85770000  1.0
  O  O34  1  0.51857000  0.74305000  0.62860000  1.0
  O  O35  1  0.48143000  0.25695000  0.37140000  1.0
