# generated using pymatgen
data_NdH13C7S2O13
_symmetry_space_group_name_H-M   'P 1'
_cell_length_a   7.82282000
_cell_length_b   10.30570000
_cell_length_c   10.64650000
_cell_angle_alpha   115.90500000
_cell_angle_beta   93.04790000
_cell_angle_gamma   105.64400000
_symmetry_Int_Tables_number   1
_chemical_formula_structural   NdH13C7S2O13
_chemical_formula_sum   'Nd2 H26 C14 S4 O26'
_cell_volume   728.84417966
_cell_formula_units_Z   2
loop_
 _symmetry_equiv_pos_site_id
 _symmetry_equiv_pos_as_xyz
  1  'x, y, z'
loop_
 _atom_site_type_symbol
 _atom_site_label
 _atom_site_symmetry_multiplicity
 _atom_site_fract_x
 _atom_site_fract_y
 _atom_site_fract_z
 _atom_site_occupancy
  Nd  Nd0  1  0.56137000  0.68495000  0.78416000  1.0
  Nd  Nd1  1  0.43863000  0.31505000  0.21584000  1.0
  H  H2  1  0.25168000  0.02368000  0.31605000  1.0
  H  H3  1  0.74832000  0.97632000  0.68395000  1.0
  H  H4  1  0.16186000  0.74771000  0.53307000  1.0
  H  H5  1  0.83814000  0.25229000  0.46693000  1.0
  H  H6  1  0.41836000  0.23659000  0.77116000  1.0
  H  H7  1  0.58164000  0.76341000  0.22884000  1.0
  H  H8  1  0.96435000  0.70394000  0.72443000  1.0
  H  H9  1  0.03565000  0.29606000  0.27557000  1.0
  H  H10  1  0.87933000  0.54279000  0.71321000  1.0
  H  H11  1  0.12067000  0.45721000  0.28679000  1.0
  H  H12  1  0.79029000  0.65724000  0.02526000  1.0
  H  H13  1  0.20971000  0.34276000  0.97474000  1.0
  H  H14  1  0.70745000  0.49420000  0.89107000  1.0
  H  H15  1  0.29255000  0.50580000  0.10893000  1.0
  H  H16  1  0.18723000  0.55132000  0.84720000  1.0
  H  H17  1  0.81277000  0.44868000  0.15280000  1.0
  H  H18  1  0.30198000  0.67622000  0.99937000  1.0
  H  H19  1  0.69802000  0.32378000  0.00063000  1.0
  H  H20  1  0.23975000  0.49511000  0.50565000  1.0
  H  H21  1  0.76025000  0.50489000  0.49435000  1.0
  H  H22  1  0.15352000  0.49432000  0.63388000  1.0
  H  H23  1  0.84648000  0.50568000  0.36612000  1.0
  H  H24  1  0.95034000  0.93205000  0.85203000  1.0
  H  H25  1  0.04966000  0.06795000  0.14798000  1.0
  H  H26  1  0.83478000  0.01349000  0.95866000  1.0
  H  H27  1  0.16522000  0.98651000  0.04134000  1.0
  C  C28  1  0.42089000  0.29738000  0.54721000  1.0
  C  C29  1  0.57911000  0.70263000  0.45280000  1.0
  C  C30  1  0.34430000  0.14517000  0.54375000  1.0
  C  C31  1  0.65570000  0.85483000  0.45625000  1.0
  C  C32  1  0.26248000  0.01445000  0.41416000  1.0
  C  C33  1  0.73752000  0.98555000  0.58584000  1.0
  C  C34  1  0.19516000  0.87324000  0.41202000  1.0
  C  C35  1  0.80484000  0.12676000  0.58798000  1.0
  C  C36  1  0.20978000  0.85884000  0.53602000  1.0
  C  C37  1  0.79022000  0.14116000  0.46398000  1.0
  C  C38  1  0.29099000  0.99195000  0.66482000  1.0
  C  C39  1  0.70902000  0.00805000  0.33518000  1.0
  C  C40  1  0.35641000  0.13431000  0.67031000  1.0
  C  C41  1  0.64360000  0.86568000  0.32969000  1.0
  S  S42  1  0.32212000  0.97773000  0.82411000  1.0
  S  S43  1  0.67788000  0.02226000  0.17588000  1.0
  S  S44  1  0.09256000  0.71196000  0.24328000  1.0
  S  S45  1  0.90744000  0.28804000  0.75672000  1.0
  O  O46  1  0.49748000  0.41221000  0.66768000  1.0
  O  O47  1  0.50251000  0.58779000  0.33231000  1.0
  O  O48  1  0.40409000  0.30201000  0.43044000  1.0
  O  O49  1  0.59591000  0.69799000  0.56955000  1.0
  O  O50  1  0.38268000  0.13357000  0.94095000  1.0
  O  O51  1  0.61733000  0.86644000  0.05905000  1.0
  O  O52  1  0.45673000  0.90021000  0.81072000  1.0
  O  O53  1  0.54327000  0.09979000  0.18927000  1.0
  O  O54  1  0.14429000  0.88553000  0.83215000  1.0
  O  O55  1  0.85571000  0.11447000  0.16786000  1.0
  O  O56  1  0.95684000  0.75013000  0.17944000  1.0
  O  O57  1  0.04316000  0.24987000  0.82056000  1.0
  O  O58  1  0.01205000  0.58211000  0.27335000  1.0
  O  O59  1  0.98795000  0.41789000  0.72665000  1.0
  O  O60  1  0.23825000  0.68547000  0.16334000  1.0
  O  O61  1  0.76175000  0.31453000  0.83666000  1.0
  O  O62  1  0.84937000  0.61847000  0.69040000  1.0
  O  O63  1  0.15063000  0.38153000  0.30960000  1.0
  O  O64  1  0.70238000  0.59883000  0.93396000  1.0
  O  O65  1  0.29761000  0.40117000  0.06604000  1.0
  O  O66  1  0.30475000  0.63236000  0.89720000  1.0
  O  O67  1  0.69525000  0.36764000  0.10280000  1.0
  O  O68  1  0.24841000  0.55803000  0.60897000  1.0
  O  O69  1  0.75159000  0.44197000  0.39103000  1.0
  O  O70  1  0.82521000  0.92955000  0.86427000  1.0
  O  O71  1  0.17480000  0.07045000  0.13573000  1.0
