# generated using pymatgen
data_CuH10C17(NO3)2
_symmetry_space_group_name_H-M   'P 1'
_cell_length_a   9.29716000
_cell_length_b   12.46700000
_cell_length_c   13.22040000
_cell_angle_alpha   89.99850000
_cell_angle_beta   77.63700000
_cell_angle_gamma   89.99650000
_symmetry_Int_Tables_number   1
_chemical_formula_structural   CuH10C17(NO3)2
_chemical_formula_sum   'Cu4 H40 C68 N8 O24'
_cell_volume   1496.81210681
_cell_formula_units_Z   4
loop_
 _symmetry_equiv_pos_site_id
 _symmetry_equiv_pos_as_xyz
  1  'x, y, z'
loop_
 _atom_site_type_symbol
 _atom_site_label
 _atom_site_symmetry_multiplicity
 _atom_site_fract_x
 _atom_site_fract_y
 _atom_site_fract_z
 _atom_site_occupancy
  Cu  Cu0  1  0.34714000  0.02400000  0.45681000  1.0
  Cu  Cu1  1  0.65283000  0.52401000  0.04320000  1.0
  Cu  Cu2  1  0.65284000  0.97597000  0.54319000  1.0
  Cu  Cu3  1  0.34721000  0.47602000  0.95680000  1.0
  H  H4  1  0.59874000  0.94543000  0.16066000  1.0
  H  H5  1  0.40124000  0.44538000  0.33936000  1.0
  H  H6  1  0.40130000  0.05462000  0.83937000  1.0
  H  H7  1  0.59879000  0.55459000  0.66065000  1.0
  H  H8  1  0.73962000  0.12676000  0.87369000  1.0
  H  H9  1  0.26037000  0.62672000  0.62631000  1.0
  H  H10  1  0.26036000  0.87326000  0.12631000  1.0
  H  H11  1  0.73963000  0.37325000  0.37369000  1.0
  H  H12  1  0.31563000  0.85219000  0.30079000  1.0
  H  H13  1  0.68439000  0.35217000  0.19922000  1.0
  H  H14  1  0.68436000  0.14781000  0.69920000  1.0
  H  H15  1  0.31561000  0.64783000  0.80077000  1.0
  H  H16  1  0.13234000  0.70815000  0.29322000  1.0
  H  H17  1  0.86771000  0.20815000  0.20679000  1.0
  H  H18  1  0.86766000  0.29184000  0.70678000  1.0
  H  H19  1  0.13229000  0.79185000  0.79319000  1.0
  H  H20  1  0.91086000  0.69050000  0.44375000  1.0
  H  H21  1  0.08917000  0.19049000  0.05624000  1.0
  H  H22  1  0.08915000  0.30948000  0.55626000  1.0
  H  H23  1  0.91083000  0.80951000  0.94374000  1.0
  H  H24  1  0.89238000  0.81283000  0.59488000  1.0
  H  H25  1  0.10760000  0.31280000  0.90510000  1.0
  H  H26  1  0.10763000  0.18716000  0.40513000  1.0
  H  H27  1  0.89239000  0.68719000  0.09489000  1.0
  H  H28  1  0.91505000  0.90534000  0.72729000  1.0
  H  H29  1  0.08490000  0.40530000  0.77269000  1.0
  H  H30  1  0.08491000  0.09469000  0.27269000  1.0
  H  H31  1  0.91505000  0.59467000  0.22728000  1.0
  H  H32  1  0.96002000  0.02188000  0.86849000  1.0
  H  H33  1  0.03994000  0.52189000  0.63152000  1.0
  H  H34  1  0.03995000  0.97814000  0.13151000  1.0
  H  H35  1  0.96003000  0.47812000  0.36846000  1.0
  H  H36  1  0.17557000  0.15236000  0.83125000  1.0
  H  H37  1  0.82445000  0.65243000  0.66880000  1.0
  H  H38  1  0.82445000  0.84762000  0.16877000  1.0
  H  H39  1  0.17556000  0.34761000  0.33121000  1.0
  H  H40  1  0.33697000  0.15409000  0.65387000  1.0
  H  H41  1  0.66306000  0.65414000  0.84617000  1.0
  H  H42  1  0.66307000  0.84587000  0.34614000  1.0
  H  H43  1  0.33698000  0.34589000  0.15384000  1.0
  C  C44  1  0.51145000  0.09967000  0.14990000  1.0
  C  C45  1  0.48855000  0.59960000  0.35010000  1.0
  C  C46  1  0.48857000  0.90038000  0.85011000  1.0
  C  C47  1  0.51146000  0.40037000  0.64990000  1.0
  C  C48  1  0.59949000  0.01564000  0.11200000  1.0
  C  C49  1  0.40051000  0.51559000  0.38801000  1.0
  C  C50  1  0.40056000  0.98440000  0.88802000  1.0
  C  C51  1  0.59951000  0.48438000  0.61199000  1.0
  C  C52  1  0.69098000  0.01775000  0.00871000  1.0
  C  C53  1  0.30902000  0.51771000  0.49130000  1.0
  C  C54  1  0.30906000  0.98229000  0.99130000  1.0
  C  C55  1  0.69101000  0.48227000  0.50871000  1.0
  C  C56  1  0.67816000  0.11603000  0.95278000  1.0
  C  C57  1  0.32183000  0.61599000  0.54723000  1.0
  C  C58  1  0.32184000  0.88400000  0.04723000  1.0
  C  C59  1  0.67818000  0.38399000  0.45278000  1.0
  C  C60  1  0.58601000  0.19596000  0.99582000  1.0
  C  C61  1  0.41403000  0.69589000  0.50418000  1.0
  C  C62  1  0.41400000  0.80408000  0.00418000  1.0
  C  C63  1  0.58598000  0.30409000  0.49583000  1.0
  C  C64  1  0.41283000  0.10124000  0.25656000  1.0
  C  C65  1  0.58713000  0.60120000  0.24345000  1.0
  C  C66  1  0.58715000  0.89878000  0.74345000  1.0
  C  C67  1  0.41286000  0.39878000  0.75654000  1.0
  C  C68  1  0.56569000  0.29750000  0.93734000  1.0
  C  C69  1  0.43434000  0.79745000  0.56266000  1.0
  C  C70  1  0.43428000  0.70251000  0.06267000  1.0
  C  C71  1  0.56565000  0.20252000  0.43735000  1.0
  C  C72  1  0.22087000  0.83949000  0.36415000  1.0
  C  C73  1  0.77915000  0.33948000  0.13586000  1.0
  C  C74  1  0.77912000  0.16050000  0.63584000  1.0
  C  C75  1  0.22086000  0.66051000  0.86413000  1.0
  C  C76  1  0.11682000  0.76003000  0.36089000  1.0
  C  C77  1  0.88320000  0.26002000  0.13912000  1.0
  C  C78  1  0.88318000  0.23996000  0.63911000  1.0
  C  C79  1  0.11679000  0.73998000  0.86087000  1.0
  C  C80  1  0.99648000  0.75028000  0.44407000  1.0
  C  C81  1  0.00353000  0.25026000  0.05593000  1.0
  C  C82  1  0.00352000  0.24971000  0.55594000  1.0
  C  C83  1  0.99647000  0.74974000  0.94406000  1.0
  C  C84  1  0.98665000  0.81756000  0.52968000  1.0
  C  C85  1  0.01335000  0.31754000  0.97031000  1.0
  C  C86  1  0.01336000  0.18243000  0.47033000  1.0
  C  C87  1  0.98665000  0.68246000  0.02968000  1.0
  C  C88  1  0.09765000  0.89294000  0.52986000  1.0
  C  C89  1  0.90234000  0.39293000  0.97014000  1.0
  C  C90  1  0.90234000  0.10706000  0.47013000  1.0
  C  C91  1  0.09765000  0.60706000  0.02985000  1.0
  C  C92  1  0.10622000  0.96378000  0.61735000  1.0
  C  C93  1  0.89377000  0.46378000  0.88266000  1.0
  C  C94  1  0.89377000  0.03622000  0.38265000  1.0
  C  C95  1  0.10623000  0.53623000  0.11733000  1.0
  C  C96  1  0.00858000  0.96022000  0.71353000  1.0
  C  C97  1  0.99139000  0.46021000  0.78647000  1.0
  C  C98  1  0.99140000  0.03979000  0.28646000  1.0
  C  C99  1  0.00858000  0.53978000  0.21351000  1.0
  C  C100  1  0.03353000  0.02744000  0.79240000  1.0
  C  C101  1  0.96645000  0.52745000  0.70762000  1.0
  C  C102  1  0.96645000  0.97256000  0.20760000  1.0
  C  C103  1  0.03352000  0.47255000  0.29237000  1.0
  C  C104  1  0.15182000  0.09839000  0.77232000  1.0
  C  C105  1  0.84820000  0.59843000  0.72772000  1.0
  C  C106  1  0.84819000  0.90159000  0.22769000  1.0
  C  C107  1  0.15180000  0.40159000  0.27229000  1.0
  C  C108  1  0.24380000  0.09951000  0.67407000  1.0
  C  C109  1  0.75622000  0.59955000  0.82596000  1.0
  C  C110  1  0.75623000  0.90046000  0.32594000  1.0
  C  C111  1  0.24380000  0.40048000  0.17404000  1.0
  N  N112  1  0.21028000  0.90424000  0.44641000  1.0
  N  N113  1  0.78972000  0.40423000  0.05361000  1.0
  N  N114  1  0.78970000  0.09577000  0.55359000  1.0
  N  N115  1  0.21028000  0.59576000  0.94638000  1.0
  N  N116  1  0.22152000  0.03304000  0.59936000  1.0
  N  N117  1  0.77847000  0.53305000  0.90067000  1.0
  N  N118  1  0.77848000  0.96695000  0.40065000  1.0
  N  N119  1  0.22155000  0.46697000  0.09933000  1.0
  O  O120  1  0.50320000  0.18999000  0.09380000  1.0
  O  O121  1  0.49681000  0.68992000  0.40621000  1.0
  O  O122  1  0.49681000  0.81006000  0.90620000  1.0
  O  O123  1  0.50319000  0.31006000  0.59379000  1.0
  O  O124  1  0.77208000  0.94101000  0.97049000  1.0
  O  O125  1  0.22789000  0.44098000  0.52953000  1.0
  O  O126  1  0.22797000  0.05904000  0.02955000  1.0
  O  O127  1  0.77212000  0.55900000  0.47047000  1.0
  O  O128  1  0.43308000  0.01774000  0.31016000  1.0
  O  O129  1  0.56686000  0.51773000  0.18984000  1.0
  O  O130  1  0.56687000  0.98225000  0.68984000  1.0
  O  O131  1  0.43312000  0.48226000  0.81014000  1.0
  O  O132  1  0.32376000  0.17564000  0.28376000  1.0
  O  O133  1  0.67621000  0.67560000  0.21625000  1.0
  O  O134  1  0.67623000  0.82439000  0.71625000  1.0
  O  O135  1  0.32379000  0.32439000  0.78376000  1.0
  O  O136  1  0.47589000  0.36542000  0.99244000  1.0
  O  O137  1  0.52418000  0.86534000  0.50755000  1.0
  O  O138  1  0.52406000  0.63457000  0.00755000  1.0
  O  O139  1  0.47578000  0.13465000  0.49245000  1.0
  O  O140  1  0.63606000  0.30555000  0.84681000  1.0
  O  O141  1  0.36395000  0.80553000  0.65316000  1.0
  O  O142  1  0.36391000  0.69447000  0.15318000  1.0
  O  O143  1  0.63607000  0.19443000  0.34684000  1.0
