# generated using pymatgen
data_Zn4H29C49N9O23
_symmetry_space_group_name_H-M   'P 1'
_cell_length_a   15.41290000
_cell_length_b   19.13890000
_cell_length_c   19.20460000
_cell_angle_alpha   94.88680000
_cell_angle_beta   102.82800000
_cell_angle_gamma   97.11600000
_symmetry_Int_Tables_number   1
_chemical_formula_structural   Zn4H29C49N9O23
_chemical_formula_sum   'Zn4 H29 C49 N9 O23'
_cell_volume   5443.83956624
_cell_formula_units_Z   1
loop_
 _symmetry_equiv_pos_site_id
 _symmetry_equiv_pos_as_xyz
  1  'x, y, z'
loop_
 _atom_site_type_symbol
 _atom_site_label
 _atom_site_symmetry_multiplicity
 _atom_site_fract_x
 _atom_site_fract_y
 _atom_site_fract_z
 _atom_site_occupancy
  Zn  Zn0  1  0.42425000  0.56078000  0.54375000  1.0
  Zn  Zn1  1  0.57906000  0.46610000  0.57097000  1.0
  Zn  Zn2  1  0.57732000  0.57032000  0.45149000  1.0
  Zn  Zn3  1  0.42783000  0.43362000  0.42329000  1.0
  H  H4  1  0.83050000  0.52183000  0.67168000  1.0
  H  H5  1  0.59915000  0.57436000  0.23651000  1.0
  H  H6  1  0.99012000  0.50207000  0.70978000  1.0
  H  H7  1  0.15711000  0.41998000  0.33375000  1.0
  H  H8  1  0.90327000  0.44053000  0.38441000  1.0
  H  H9  1  0.98820000  0.40448000  0.29700000  1.0
  H  H10  1  0.25703000  0.04519000  0.47616000  1.0
  H  H11  1  0.41053000  0.98511000  0.67864000  1.0
  H  H12  1  0.78043000  0.07781000  0.59598000  1.0
  H  H13  1  0.57360000  0.73475000  0.39480000  1.0
  H  H14  1  0.58914000  0.81820000  0.36327000  1.0
  H  H15  1  0.43192000  0.77237000  0.58640000  1.0
  H  H16  1  0.55565000  0.39044000  0.95358000  1.0
  H  H17  1  0.59540000  0.36153000  0.87756000  1.0
  H  H18  1  0.69815000  0.65827000  0.12461000  1.0
  H  H19  1  0.36318000  0.62676000  0.87267000  1.0
  H  H20  1  0.39195000  0.58370000  0.94867000  1.0
  H  H21  1  0.79218000  0.55448000  0.43178000  1.0
  H  H22  1  0.89161000  0.54043000  0.40643000  1.0
  H  H23  1  0.25358000  0.44168000  0.65158000  1.0
  H  H24  1  0.25937000  0.41326000  0.56710000  1.0
  H  H25  1  0.25092000  0.22761000  0.40718000  1.0
  H  H26  1  0.67423000  0.26145000  0.52266000  1.0
  H  H27  1  0.54906000  0.92158000  0.41989000  1.0
  H  H28  1  0.55169000  0.40963000  0.76430000  1.0
  H  H29  1  0.41665000  0.36458000  0.07791000  1.0
  H  H30  1  0.12490000  0.47391000  0.67924000  1.0
  H  H31  1  0.41278000  0.38239000  0.20809000  1.0
  H  H32  1  0.39417000  0.58053000  0.75731000  1.0
  C  C33  1  0.52677000  0.32474000  0.49287000  1.0
  C  C34  1  0.88272000  0.51622000  0.50692000  1.0
  C  C35  1  0.87140000  0.51583000  0.63263000  1.0
  C  C36  1  0.49923000  0.69536000  0.49729000  1.0
  C  C37  1  0.16165000  0.45112000  0.44449000  1.0
  C  C38  1  0.49594000  0.77253000  0.49815000  1.0
  C  C39  1  0.52996000  0.81459000  0.44918000  1.0
  C  C40  1  0.52531000  0.88792000  0.45693000  1.0
  C  C41  1  0.49034000  0.91929000  0.51053000  1.0
  C  C42  1  0.45443000  0.87760000  0.55833000  1.0
  C  C43  1  0.45819000  0.80510000  0.54993000  1.0
  C  C44  1  0.02365000  0.42435000  0.35220000  1.0
  C  C45  1  0.45347000  0.12580000  0.48011000  1.0
  C  C46  1  0.44952000  0.19862000  0.48134000  1.0
  C  C47  1  0.53825000  0.10216000  0.49754000  1.0
  C  C48  1  0.48126000  0.50156000  0.67971000  1.0
  C  C49  1  0.52965000  0.24724000  0.49628000  1.0
  C  C50  1  0.61283000  0.22335000  0.51148000  1.0
  C  C51  1  0.61773000  0.15130000  0.51301000  1.0
  C  C52  1  0.50442000  0.48037000  0.22970000  1.0
  C  C53  1  0.55793000  0.52924000  0.20118000  1.0
  C  C54  1  0.56006000  0.52072000  0.12840000  1.0
  C  C55  1  0.97615000  0.44564000  0.40147000  1.0
  C  C56  1  0.50628000  0.46108000  0.08350000  1.0
  C  C57  1  0.45600000  0.41052000  0.11335000  1.0
  C  C58  1  0.45369000  0.42044000  0.18518000  1.0
  C  C59  1  0.51505000  0.43938000  0.86424000  1.0
  C  C60  1  0.50172000  0.49093000  0.30692000  1.0
  C  C61  1  0.51689000  0.44494000  0.79213000  1.0
  C  C62  1  0.47103000  0.48853000  0.90008000  1.0
  C  C63  1  0.47423000  0.49583000  0.75556000  1.0
  C  C64  1  0.42727000  0.54208000  0.78814000  1.0
  C  C65  1  0.42549000  0.53930000  0.86033000  1.0
  C  C66  1  0.01857000  0.46929000  0.47475000  1.0
  C  C67  1  0.73937000  0.53859000  0.54414000  1.0
  C  C68  1  0.26176000  0.46795000  0.45788000  1.0
  C  C69  1  0.95877000  0.50412000  0.65334000  1.0
  C  C70  1  0.83206000  0.52389000  0.56020000  1.0
  C  C71  1  0.11748000  0.43037000  0.37292000  1.0
  C  C72  1  0.36889000  0.07313000  0.45463000  1.0
  C  C73  1  0.41675000  0.90423000  0.61834000  1.0
  C  C74  1  0.70920000  0.12940000  0.53209000  1.0
  C  C75  1  0.62521000  0.56917000  0.10163000  1.0
  C  C76  1  0.36136000  0.22695000  0.47291000  1.0
  C  C77  1  0.11237000  0.46376000  0.49798000  1.0
  C  C78  1  0.96888000  0.49228000  0.52634000  1.0
  C  C79  1  0.00912000  0.49246000  0.60078000  1.0
  C  C80  1  0.09797000  0.47712000  0.62216000  1.0
  C  C81  1  0.15043000  0.46387000  0.57417000  1.0
  N  N82  1  0.48450000  0.99241000  0.51445000  1.0
  N  N83  1  0.54888000  0.03015000  0.49879000  1.0
  N  N84  1  0.50132000  0.44764000  0.00981000  1.0
  N  N85  1  0.47171000  0.49521000  0.97167000  1.0
  N  N86  1  0.56463000  0.78651000  0.39602000  1.0
  N  N87  1  0.55491000  0.38937000  0.90011000  1.0
  N  N88  1  0.37951000  0.58245000  0.89434000  1.0
  N  N89  1  0.84890000  0.53103000  0.43874000  1.0
  N  N90  1  0.23609000  0.44812000  0.59868000  1.0
  O  O91  1  0.50051000  0.50807000  0.49571000  1.0
  O  O92  1  0.69335000  0.52894000  0.59187000  1.0
  O  O93  1  0.30156000  0.42261000  0.42876000  1.0
  O  O94  1  0.70532000  0.56041000  0.48307000  1.0
  O  O95  1  0.29818000  0.52771000  0.49309000  1.0
  O  O96  1  0.35149000  0.03366000  0.39855000  1.0
  O  O97  1  0.31144000  0.07887000  0.49846000  1.0
  O  O98  1  0.36966000  0.86650000  0.64829000  1.0
  O  O99  1  0.44057000  0.97523000  0.63969000  1.0
  O  O100  1  0.76983000  0.14862000  0.50347000  1.0
  O  O101  1  0.71875000  0.08889000  0.58727000  1.0
  O  O102  1  0.44112000  0.54762000  0.64618000  1.0
  O  O103  1  0.65618000  0.55564000  0.04956000  1.0
  O  O104  1  0.65254000  0.63248000  0.14499000  1.0
  O  O105  1  0.34226000  0.26318000  0.52107000  1.0
  O  O106  1  0.30573000  0.20641000  0.40724000  1.0
  O  O107  1  0.44575000  0.44658000  0.32717000  1.0
  O  O108  1  0.58812000  0.36723000  0.53761000  1.0
  O  O109  1  0.54671000  0.66748000  0.45788000  1.0
  O  O110  1  0.46387000  0.34049000  0.44439000  1.0
  O  O111  1  0.45567000  0.66182000  0.53628000  1.0
  O  O112  1  0.52809000  0.45950000  0.65452000  1.0
  O  O113  1  0.55466000  0.54296000  0.34641000  1.0
