# generated using pymatgen
data_ZnH18C20(I2O3)4
_symmetry_space_group_name_H-M   'P 1'
_cell_length_a   9.61127000
_cell_length_b   10.05210000
_cell_length_c   10.59120000
_cell_angle_alpha   103.08700000
_cell_angle_beta   112.71800000
_cell_angle_gamma   98.37700000
_symmetry_Int_Tables_number   1
_chemical_formula_structural   ZnH18C20(I2O3)4
_chemical_formula_sum   'Zn1 H18 C20 I8 O12'
_cell_volume   887.86130518
_cell_formula_units_Z   1
loop_
 _symmetry_equiv_pos_site_id
 _symmetry_equiv_pos_as_xyz
  1  'x, y, z'
loop_
 _atom_site_type_symbol
 _atom_site_label
 _atom_site_symmetry_multiplicity
 _atom_site_fract_x
 _atom_site_fract_y
 _atom_site_fract_z
 _atom_site_occupancy
  Zn  Zn0  1  0.50000000  0.50000000  0.50000000  1.0
  H  H1  1  0.14897000  0.43287000  0.49929000  1.0
  H  H2  1  0.85103000  0.56713000  0.50069000  1.0
  H  H3  1  0.17426000  0.56773000  0.65486000  1.0
  H  H4  1  0.82574000  0.43226000  0.34511000  1.0
  H  H5  1  0.24279000  0.41365000  0.67499000  1.0
  H  H6  1  0.75720000  0.58635000  0.32498000  1.0
  H  H7  1  0.72813000  0.80387000  0.46662000  1.0
  H  H8  1  0.27185000  0.19615000  0.53336000  1.0
  H  H9  1  0.64031000  0.92005000  0.54957000  1.0
  H  H10  1  0.35967000  0.07996000  0.45041000  1.0
  H  H11  1  0.52043000  0.77106000  0.39353000  1.0
  H  H12  1  0.47956000  0.22895000  0.60646000  1.0
  H  H13  1  0.45538000  0.59319000  0.72216000  1.0
  H  H14  1  0.54462000  0.40680000  0.27783000  1.0
  H  H15  1  0.72087000  0.74235000  0.66335000  1.0
  H  H16  1  0.27913000  0.25766000  0.33662000  1.0
  H  H17  1  0.71001000  0.69318000  0.03298000  1.0
  H  H18  1  0.28998000  0.30682000  0.96704000  1.0
  C  C19  1  0.71019000  0.54794000  0.81616000  1.0
  C  C20  1  0.28980000  0.45205000  0.18384000  1.0
  C  C21  1  0.86099000  0.52866000  0.91841000  1.0
  C  C22  1  0.13898000  0.47135000  0.08161000  1.0
  C  C23  1  0.85690000  0.42149000  0.98301000  1.0
  C  C24  1  0.14309000  0.57851000  0.01702000  1.0
  C  C25  1  0.00365000  0.60806000  0.93563000  1.0
  C  C26  1  0.99631000  0.39194000  0.06438000  1.0
  C  C27  1  0.22696000  0.48897000  0.61300000  1.0
  C  C28  1  0.77304000  0.51102000  0.38697000  1.0
  C  C29  1  0.62896000  0.81002000  0.49307000  1.0
  C  C30  1  0.37103000  0.18999000  0.50691000  1.0
  C  C31  1  0.86353000  0.85343000  0.19247000  1.0
  C  C32  1  0.13649000  0.14657000  0.80754000  1.0
  C  C33  1  0.93004000  0.92417000  0.35269000  1.0
  C  C34  1  0.06998000  0.07583000  0.64732000  1.0
  C  C35  1  0.06166000  0.89310000  0.44711000  1.0
  C  C36  1  0.93837000  0.10689000  0.55288000  1.0
  C  C37  1  0.13189000  0.96993000  0.59455000  1.0
  C  C38  1  0.86815000  0.03008000  0.40548000  1.0
  I  I39  1  0.63773000  0.30293000  0.94622000  1.0
  I  I40  1  0.36226000  0.69704000  0.05377000  1.0
  I  I41  1  0.00891000  0.77807000  0.85070000  1.0
  I  I42  1  0.99109000  0.22192000  0.14930000  1.0
  I  I43  1  0.15059000  0.73239000  0.36671000  1.0
  I  I44  1  0.84945000  0.26762000  0.63331000  1.0
  I  I45  1  0.33629000  0.93405000  0.73847000  1.0
  I  I46  1  0.66374000  0.06595000  0.26154000  1.0
  O  O47  1  0.67115000  0.48326000  0.68438000  1.0
  O  O48  1  0.32885000  0.51677000  0.31564000  1.0
  O  O49  1  0.63568000  0.62322000  0.86413000  1.0
  O  O50  1  0.36427000  0.37678000  0.13589000  1.0
  O  O51  1  0.37305000  0.55916000  0.62088000  1.0
  O  O52  1  0.62696000  0.44084000  0.37911000  1.0
  O  O53  1  0.61891000  0.72100000  0.58025000  1.0
  O  O54  1  0.38109000  0.27901000  0.41973000  1.0
  O  O55  1  0.91251000  0.90677000  0.11933000  1.0
  O  O56  1  0.08752000  0.09320000  0.88068000  1.0
  O  O57  1  0.75150000  0.73463000  0.14303000  1.0
  O  O58  1  0.24851000  0.26536000  0.85698000  1.0
