# generated using pymatgen
data_Zn4H20C31O16
_symmetry_space_group_name_H-M   'P 1'
_cell_length_a   10.89710000
_cell_length_b   10.92540000
_cell_length_c   17.89871886
_cell_angle_alpha   107.41153629
_cell_angle_beta   92.87747537
_cell_angle_gamma   99.66560000
_symmetry_Int_Tables_number   1
_chemical_formula_structural   Zn4H20C31O16
_chemical_formula_sum   'Zn4 H20 C31 O16'
_cell_volume   1992.97219553
_cell_formula_units_Z   1
loop_
 _symmetry_equiv_pos_site_id
 _symmetry_equiv_pos_as_xyz
  1  'x, y, z'
loop_
 _atom_site_type_symbol
 _atom_site_label
 _atom_site_symmetry_multiplicity
 _atom_site_fract_x
 _atom_site_fract_y
 _atom_site_fract_z
 _atom_site_occupancy
  Zn  Zn0  1  0.56941000  0.85674000  0.43293000  1.0
  Zn  Zn1  1  0.62825000  0.14780000  0.55477000  1.0
  Zn  Zn2  1  0.40776000  0.93519000  0.58005000  1.0
  Zn  Zn3  1  0.38179000  0.04357000  0.42965000  1.0
  H  H4  1  0.32667000  0.69531000  0.91556000  1.0
  H  H5  1  0.56597000  0.47638000  0.42972000  1.0
  H  H6  1  0.29929000  0.29505000  0.86835000  1.0
  H  H7  1  0.31177000  0.14718000  0.79241000  1.0
  H  H8  1  0.24224000  0.27022000  0.76804000  1.0
  H  H9  1  0.61774000  0.92284000  0.77954000  1.0
  H  H10  1  0.72406000  0.95509000  0.86643000  1.0
  H  H11  1  0.77429000  0.89274000  0.77063000  1.0
  H  H12  1  0.55094000  0.68044000  0.19779000  1.0
  H  H13  1  0.74206000  0.78532000  0.14064000  1.0
  H  H14  1  0.87179000  0.70127000  0.13107000  1.0
  H  H15  1  0.81073000  0.23082000  0.95107000  1.0
  H  H16  1  0.81655000  0.76213000  0.22574000  1.0
  H  H17  1  0.42569000  0.52702000  0.57884000  1.0
  H  H18  1  0.00041000  0.95619000  0.57792000  1.0
  H  H19  1  0.00220000  0.04286000  0.42851000  1.0
  H  H20  1  0.79273000  0.41032000  0.06598000  1.0
  H  H21  1  0.27670000  0.84497000  0.03557000  1.0
  H  H22  1  0.29974000  0.93710000  0.18257000  1.0
  H  H23  1  0.41987000  0.50748000  0.84964000  1.0
  C  C24  1  0.51811000  0.31934000  0.48349000  1.0
  C  C25  1  0.65662000  0.53004000  0.07495000  1.0
  C  C26  1  0.71320000  0.43043000  0.03528000  1.0
  C  C27  1  0.47788000  0.67599000  0.52069000  1.0
  C  C28  1  0.67245000  0.35413000  0.95594000  1.0
  C  C29  1  0.57210000  0.38584000  0.91482000  1.0
  C  C30  1  0.73377000  0.25148000  0.91840000  1.0
  C  C31  1  0.69936000  0.17999000  0.84031000  1.0
  C  C32  1  0.53404000  0.30337000  0.83574000  1.0
  C  C33  1  0.47250000  0.54480000  0.52962000  1.0
  C  C34  1  0.52180000  0.45384000  0.47877000  1.0
  C  C35  1  0.34964000  0.86116000  0.15258000  1.0
  C  C36  1  0.03556000  0.98467000  0.52839000  1.0
  C  C37  1  0.96229000  0.01624000  0.47758000  1.0
  C  C38  1  0.82585000  0.01409000  0.48244000  1.0
  C  C39  1  0.17001000  0.98562000  0.51918000  1.0
  C  C40  1  0.56587000  0.13747000  0.71215000  1.0
  C  C41  1  0.43924000  0.86111000  0.28517000  1.0
  C  C42  1  0.42721000  0.81180000  0.19761000  1.0
  C  C43  1  0.59831000  0.20609000  0.79895000  1.0
  C  C44  1  0.33802000  0.81060000  0.07170000  1.0
  C  C45  1  0.31459000  0.25281000  0.80626000  1.0
  C  C46  1  0.49389000  0.71661000  0.16090000  1.0
  C  C47  1  0.71616000  0.95671000  0.80511000  1.0
  C  C48  1  0.78865000  0.71862000  0.16232000  1.0
  C  C49  1  0.48629000  0.66496000  0.07798000  1.0
  C  C50  1  0.40308000  0.71159000  0.03308000  1.0
  C  C51  1  0.55346000  0.56443000  0.03732000  1.0
  C  C52  1  0.51904000  0.49807000  0.95515000  1.0
  C  C53  1  0.43743000  0.55072000  0.91312000  1.0
  C  C54  1  0.38529000  0.65539000  0.94991000  1.0
  O  O55  1  0.49600000  0.99682000  0.50066000  1.0
  O  O56  1  0.63269000  0.18815000  0.66897000  1.0
  O  O57  1  0.37718000  0.94907000  0.31749000  1.0
  O  O58  1  0.47741000  0.03783000  0.68974000  1.0
  O  O59  1  0.51134000  0.81202000  0.32176000  1.0
  O  O60  1  0.43312000  0.31579000  0.78994000  1.0
  O  O61  1  0.76388000  0.08555000  0.80120000  1.0
  O  O62  1  0.70503000  0.59666000  0.15233000  1.0
  O  O63  1  0.75320000  0.91116000  0.43873000  1.0
  O  O64  1  0.21316000  0.02041000  0.46206000  1.0
  O  O65  1  0.60194000  0.30677000  0.53129000  1.0
  O  O66  1  0.42186000  0.75350000  0.56949000  1.0
  O  O67  1  0.43282000  0.23053000  0.43810000  1.0
  O  O68  1  0.53775000  0.70066000  0.46568000  1.0
  O  O69  1  0.79577000  0.11545000  0.52856000  1.0
  O  O70  1  0.23098000  0.95110000  0.56994000  1.0
