# generated using pymatgen
data_Zn4H24C36O13
_symmetry_space_group_name_H-M   'P 1'
_cell_length_a   18.58990000
_cell_length_b   18.58966571
_cell_length_c   18.58987190
_cell_angle_alpha   59.99963308
_cell_angle_beta   60.00005000
_cell_angle_gamma   59.99934924
_symmetry_Int_Tables_number   1
_chemical_formula_structural   Zn4H24C36O13
_chemical_formula_sum   'Zn8 H48 C72 O26'
_cell_volume   4542.62468741
_cell_formula_units_Z   2
loop_
 _symmetry_equiv_pos_site_id
 _symmetry_equiv_pos_as_xyz
  1  'x, y, z'
loop_
 _atom_site_type_symbol
 _atom_site_label
 _atom_site_symmetry_multiplicity
 _atom_site_fract_x
 _atom_site_fract_y
 _atom_site_fract_z
 _atom_site_occupancy
  Zn  Zn0  1  0.29306000  0.29307000  0.29307000  1.0
  Zn  Zn1  1  0.29305000  0.12081000  0.29307000  1.0
  Zn  Zn2  1  0.12083000  0.29305000  0.29306000  1.0
  Zn  Zn3  1  0.29306000  0.29307000  0.12080000  1.0
  Zn  Zn4  1  0.70694000  0.70693000  0.70693000  1.0
  Zn  Zn5  1  0.70694000  0.87920000  0.70693000  1.0
  Zn  Zn6  1  0.70694000  0.70693000  0.87920000  1.0
  Zn  Zn7  1  0.87918000  0.70694000  0.70694000  1.0
  H  H8  1  0.49998000  0.87997000  0.40412000  1.0
  H  H9  1  0.40412000  0.21593000  0.49998000  1.0
  H  H10  1  0.21593000  0.40412000  0.87997000  1.0
  H  H11  1  0.87997000  0.49998000  0.21593000  1.0
  H  H12  1  0.49998000  0.40412000  0.21593000  1.0
  H  H13  1  0.40412000  0.49998000  0.87997000  1.0
  H  H14  1  0.21593000  0.87997000  0.49998000  1.0
  H  H15  1  0.87997000  0.21593000  0.40412000  1.0
  H  H16  1  0.49998000  0.21593000  0.87997000  1.0
  H  H17  1  0.40412000  0.87997000  0.21593000  1.0
  H  H18  1  0.21593000  0.49998000  0.40412000  1.0
  H  H19  1  0.87997000  0.40412000  0.49998000  1.0
  H  H20  1  0.59588000  0.12003000  0.50002000  1.0
  H  H21  1  0.50002000  0.78407000  0.59588000  1.0
  H  H22  1  0.12003000  0.59588000  0.78407000  1.0
  H  H23  1  0.78407000  0.50002000  0.12003000  1.0
  H  H24  1  0.78407000  0.59588000  0.50002000  1.0
  H  H25  1  0.12003000  0.50002000  0.59588000  1.0
  H  H26  1  0.50002000  0.12003000  0.78407000  1.0
  H  H27  1  0.59588000  0.78407000  0.12003000  1.0
  H  H28  1  0.12003000  0.78407000  0.50002000  1.0
  H  H29  1  0.78407000  0.12003000  0.59588000  1.0
  H  H30  1  0.59588000  0.50002000  0.78407000  1.0
  H  H31  1  0.50002000  0.59588000  0.12003000  1.0
  H  H32  1  0.50002000  0.12003000  0.59588000  1.0
  H  H33  1  0.59588000  0.78407000  0.50002000  1.0
  H  H34  1  0.78407000  0.59588000  0.12003000  1.0
  H  H35  1  0.12003000  0.50002000  0.78407000  1.0
  H  H36  1  0.50002000  0.59588000  0.78407000  1.0
  H  H37  1  0.59588000  0.50002000  0.12003000  1.0
  H  H38  1  0.78407000  0.12003000  0.50002000  1.0
  H  H39  1  0.12003000  0.78407000  0.59588000  1.0
  H  H40  1  0.50002000  0.78407000  0.12003000  1.0
  H  H41  1  0.59588000  0.12003000  0.78407000  1.0
  H  H42  1  0.78407000  0.50002000  0.59588000  1.0
  H  H43  1  0.12003000  0.59588000  0.50002000  1.0
  H  H44  1  0.40412000  0.87997000  0.49998000  1.0
  H  H45  1  0.49998000  0.21593000  0.40412000  1.0
  H  H46  1  0.87997000  0.40412000  0.21593000  1.0
  H  H47  1  0.21593000  0.49998000  0.87997000  1.0
  H  H48  1  0.21593000  0.40412000  0.49998000  1.0
  H  H49  1  0.87997000  0.49998000  0.40412000  1.0
  H  H50  1  0.49998000  0.87997000  0.21593000  1.0
  H  H51  1  0.40412000  0.21593000  0.87997000  1.0
  H  H52  1  0.87997000  0.21593000  0.49998000  1.0
  H  H53  1  0.21593000  0.87997000  0.40412000  1.0
  H  H54  1  0.40412000  0.49998000  0.21593000  1.0
  H  H55  1  0.49998000  0.40412000  0.87997000  1.0
  C  C56  1  0.47335000  0.96372000  0.47335000  1.0
  C  C57  1  0.46994000  0.88571000  0.46994000  1.0
  C  C58  1  0.47335000  0.08958000  0.47335000  1.0
  C  C59  1  0.46993000  0.17442000  0.46994000  1.0
  C  C60  1  0.08958000  0.47335000  0.96372000  1.0
  C  C61  1  0.17441000  0.46994000  0.88571000  1.0
  C  C62  1  0.96372000  0.47335000  0.08958000  1.0
  C  C63  1  0.88571000  0.46994000  0.17441000  1.0
  C  C64  1  0.47335000  0.47335000  0.08958000  1.0
  C  C65  1  0.46993000  0.46994000  0.17442000  1.0
  C  C66  1  0.47335000  0.47335000  0.96372000  1.0
  C  C67  1  0.46994000  0.46994000  0.88571000  1.0
  C  C68  1  0.08958000  0.96372000  0.47335000  1.0
  C  C69  1  0.17441000  0.88571000  0.46994000  1.0
  C  C70  1  0.96372000  0.08958000  0.47335000  1.0
  C  C71  1  0.88571000  0.17441000  0.46994000  1.0
  C  C72  1  0.47335000  0.08958000  0.96372000  1.0
  C  C73  1  0.46993000  0.17442000  0.88571000  1.0
  C  C74  1  0.47335000  0.96372000  0.08958000  1.0
  C  C75  1  0.46994000  0.88571000  0.17441000  1.0
  C  C76  1  0.08958000  0.47335000  0.47335000  1.0
  C  C77  1  0.17441000  0.46994000  0.46994000  1.0
  C  C78  1  0.96373000  0.47335000  0.47334000  1.0
  C  C79  1  0.88571000  0.46994000  0.46994000  1.0
  C  C80  1  0.52665000  0.03628000  0.52665000  1.0
  C  C81  1  0.53006000  0.11429000  0.53006000  1.0
  C  C82  1  0.52665000  0.91042000  0.52665000  1.0
  C  C83  1  0.53006000  0.82558000  0.53007000  1.0
  C  C84  1  0.03628000  0.52665000  0.91042000  1.0
  C  C85  1  0.11429000  0.53007000  0.82558000  1.0
  C  C86  1  0.91042000  0.52665000  0.03628000  1.0
  C  C87  1  0.82559000  0.53006000  0.11429000  1.0
  C  C88  1  0.91042000  0.52665000  0.52665000  1.0
  C  C89  1  0.82559000  0.53006000  0.53006000  1.0
  C  C90  1  0.03628000  0.52665000  0.52665000  1.0
  C  C91  1  0.11429000  0.53006000  0.53006000  1.0
  C  C92  1  0.52665000  0.03628000  0.91042000  1.0
  C  C93  1  0.53006000  0.11429000  0.82559000  1.0
  C  C94  1  0.52665000  0.91042000  0.03628000  1.0
  C  C95  1  0.53007000  0.82558000  0.11429000  1.0
  C  C96  1  0.03628000  0.91042000  0.52665000  1.0
  C  C97  1  0.11429000  0.82559000  0.53006000  1.0
  C  C98  1  0.91042000  0.03628000  0.52665000  1.0
  C  C99  1  0.82559000  0.11429000  0.53006000  1.0
  C  C100  1  0.52665000  0.52665000  0.91042000  1.0
  C  C101  1  0.53006000  0.53006000  0.82559000  1.0
  C  C102  1  0.52665000  0.52665000  0.03628000  1.0
  C  C103  1  0.53007000  0.53006000  0.11429000  1.0
  C  C104  1  0.38751000  0.11250000  0.38750000  1.0
  C  C105  1  0.44382000  0.05618000  0.44382000  1.0
  C  C106  1  0.11251000  0.38750000  0.11249000  1.0
  C  C107  1  0.05618000  0.44382000  0.05618000  1.0
  C  C108  1  0.38750000  0.38750000  0.11250000  1.0
  C  C109  1  0.44382000  0.44382000  0.05618000  1.0
  C  C110  1  0.11251000  0.11249000  0.38750000  1.0
  C  C111  1  0.05618000  0.05618000  0.44382000  1.0
  C  C112  1  0.38751000  0.11250000  0.11249000  1.0
  C  C113  1  0.44382000  0.05618000  0.05618000  1.0
  C  C114  1  0.11251000  0.38750000  0.38750000  1.0
  C  C115  1  0.05618000  0.44382000  0.44382000  1.0
  C  C116  1  0.61250000  0.88750000  0.61250000  1.0
  C  C117  1  0.55618000  0.94382000  0.55618000  1.0
  C  C118  1  0.88749000  0.61250000  0.88751000  1.0
  C  C119  1  0.94382000  0.55618000  0.94382000  1.0
  C  C120  1  0.88749000  0.61250000  0.61250000  1.0
  C  C121  1  0.94382000  0.55618000  0.55618000  1.0
  C  C122  1  0.61250000  0.88750000  0.88750000  1.0
  C  C123  1  0.55618000  0.94382000  0.94382000  1.0
  C  C124  1  0.88749000  0.88751000  0.61250000  1.0
  C  C125  1  0.94382000  0.94382000  0.55618000  1.0
  C  C126  1  0.61251000  0.61249000  0.88750000  1.0
  C  C127  1  0.55618000  0.55618000  0.94382000  1.0
  O  O128  1  0.25000000  0.25000000  0.25000000  1.0
  O  O129  1  0.75000000  0.75000000  0.75000000  1.0
  O  O130  1  0.36569000  0.19578000  0.36568000  1.0
  O  O131  1  0.36569000  0.07286000  0.36568000  1.0
  O  O132  1  0.07287000  0.36567000  0.19579000  1.0
  O  O133  1  0.19577000  0.36569000  0.07285000  1.0
  O  O134  1  0.36567000  0.36569000  0.07286000  1.0
  O  O135  1  0.36568000  0.36568000  0.19578000  1.0
  O  O136  1  0.07286000  0.19578000  0.36568000  1.0
  O  O137  1  0.19577000  0.07285000  0.36569000  1.0
  O  O138  1  0.36568000  0.07286000  0.19578000  1.0
  O  O139  1  0.36568000  0.19578000  0.07286000  1.0
  O  O140  1  0.07287000  0.36567000  0.36567000  1.0
  O  O141  1  0.19577000  0.36569000  0.36569000  1.0
  O  O142  1  0.63431000  0.80422000  0.63432000  1.0
  O  O143  1  0.63431000  0.92714000  0.63432000  1.0
  O  O144  1  0.80423000  0.63431000  0.92715000  1.0
  O  O145  1  0.92713000  0.63432000  0.80423000  1.0
  O  O146  1  0.92713000  0.63432000  0.63432000  1.0
  O  O147  1  0.80422000  0.63431000  0.63431000  1.0
  O  O148  1  0.63433000  0.80422000  0.92714000  1.0
  O  O149  1  0.63431000  0.92714000  0.80423000  1.0
  O  O150  1  0.80423000  0.92715000  0.63431000  1.0
  O  O151  1  0.92714000  0.80422000  0.63432000  1.0
  O  O152  1  0.63433000  0.63431000  0.92714000  1.0
  O  O153  1  0.63433000  0.63431000  0.80422000  1.0
