# generated using pymatgen
data_PrCoH18C36(NO2)6
_symmetry_space_group_name_H-M   'P 1'
_cell_length_a   18.27450000
_cell_length_b   18.27450000
_cell_length_c   21.53241577
_cell_angle_alpha   110.25902544
_cell_angle_beta   110.25902544
_cell_angle_gamma   100.59700000
_symmetry_Int_Tables_number   1
_chemical_formula_structural   PrCoH18C36(NO2)6
_chemical_formula_sum   'Pr4 Co4 H72 C144 N24 O48'
_cell_volume   5939.72179444
_cell_formula_units_Z   4
loop_
 _symmetry_equiv_pos_site_id
 _symmetry_equiv_pos_as_xyz
  1  'x, y, z'
loop_
 _atom_site_type_symbol
 _atom_site_label
 _atom_site_symmetry_multiplicity
 _atom_site_fract_x
 _atom_site_fract_y
 _atom_site_fract_z
 _atom_site_occupancy
  Pr  Pr0  1  0.85268000  0.10267000  0.74999000  1.0
  Pr  Pr1  1  0.39733000  0.64732000  0.75001000  1.0
  Pr  Pr2  1  0.14732000  0.89733000  0.25001000  1.0
  Pr  Pr3  1  0.60267000  0.35268000  0.24999000  1.0
  Co  Co4  1  0.89161000  0.60839000  0.75000000  1.0
  Co  Co5  1  0.35840000  0.14160000  0.75000000  1.0
  Co  Co6  1  0.10839000  0.39161000  0.25000000  1.0
  Co  Co7  1  0.64160000  0.85840000  0.25000000  1.0
  H  H8  1  0.96337000  0.55451000  0.87107000  1.0
  H  H9  1  0.40769000  0.31657000  0.87108000  1.0
  H  H10  1  0.18343000  0.09231000  0.62892000  1.0
  H  H11  1  0.94549000  0.53663000  0.62893000  1.0
  H  H12  1  0.03663000  0.44549000  0.12893000  1.0
  H  H13  1  0.59231000  0.68343000  0.12892000  1.0
  H  H14  1  0.81657000  0.90769000  0.37108000  1.0
  H  H15  1  0.05451000  0.46337000  0.37107000  1.0
  H  H16  1  0.96146000  0.41452000  0.86723000  1.0
  H  H17  1  0.40580000  0.45273000  0.86724000  1.0
  H  H18  1  0.04728000  0.09421000  0.63277000  1.0
  H  H19  1  0.08548000  0.53854000  0.63277000  1.0
  H  H20  1  0.03854000  0.58548000  0.13277000  1.0
  H  H21  1  0.59421000  0.54728000  0.13277000  1.0
  H  H22  1  0.95273000  0.90580000  0.36724000  1.0
  H  H23  1  0.91452000  0.46146000  0.36723000  1.0
  H  H24  1  0.73869000  0.32533000  0.54302000  1.0
  H  H25  1  0.30430000  0.21767000  0.54304000  1.0
  H  H26  1  0.28233000  0.19570000  0.95696000  1.0
  H  H27  1  0.17467000  0.76131000  0.95698000  1.0
  H  H28  1  0.26131000  0.67467000  0.45698000  1.0
  H  H29  1  0.69570000  0.78233000  0.45696000  1.0
  H  H30  1  0.71767000  0.80430000  0.04304000  1.0
  H  H31  1  0.82533000  0.23869000  0.04302000  1.0
  H  H32  1  0.80501000  0.30167000  0.63478000  1.0
  H  H33  1  0.32977000  0.33308000  0.63478000  1.0
  H  H34  1  0.16692000  0.17023000  0.86522000  1.0
  H  H35  1  0.19833000  0.69499000  0.86522000  1.0
  H  H36  1  0.19499000  0.69833000  0.36522000  1.0
  H  H37  1  0.67023000  0.66692000  0.36522000  1.0
  H  H38  1  0.83308000  0.82977000  0.13478000  1.0
  H  H39  1  0.80167000  0.30501000  0.13478000  1.0
  H  H40  1  0.71100000  0.51638000  0.47521000  1.0
  H  H41  1  0.26425000  0.95884000  0.47521000  1.0
  H  H42  1  0.54116000  0.23575000  0.02479000  1.0
  H  H43  1  0.98362000  0.78900000  0.02479000  1.0
  H  H44  1  0.28899000  0.48361000  0.52478000  1.0
  H  H45  1  0.73575000  0.04116000  0.52479000  1.0
  H  H46  1  0.45884000  0.76425000  0.97521000  1.0
  H  H47  1  0.01638000  0.21100000  0.97521000  1.0
  H  H48  1  0.80216000  0.62311000  0.60751000  1.0
  H  H49  1  0.30532000  0.98433000  0.60751000  1.0
  H  H50  1  0.51567000  0.19468000  0.89249000  1.0
  H  H51  1  0.87689000  0.69784000  0.89249000  1.0
  H  H52  1  0.19784000  0.37689000  0.39249000  1.0
  H  H53  1  0.69468000  0.01567000  0.39249000  1.0
  H  H54  1  0.48433000  0.80532000  0.10751000  1.0
  H  H55  1  0.12311000  0.30216000  0.10751000  1.0
  H  H56  1  0.76609000  0.50286000  0.77403000  1.0
  H  H57  1  0.50792000  0.27119000  0.77402000  1.0
  H  H58  1  0.22881000  0.99208000  0.72598000  1.0
  H  H59  1  0.99714000  0.73391000  0.72597000  1.0
  H  H60  1  0.23391000  0.49714000  0.22597000  1.0
  H  H61  1  0.49208000  0.72881000  0.22598000  1.0
  H  H62  1  0.77119000  0.00792000  0.27402000  1.0
  H  H63  1  0.00286000  0.26609000  0.27403000  1.0
  H  H64  1  0.63185000  0.51038000  0.77935000  1.0
  H  H65  1  0.64744000  0.26891000  0.77927000  1.0
  H  H66  1  0.23109000  0.85256000  0.72073000  1.0
  H  H67  1  0.98962000  0.86815000  0.72065000  1.0
  H  H68  1  0.36815000  0.48962000  0.22065000  1.0
  H  H69  1  0.35256000  0.73109000  0.22073000  1.0
  H  H70  1  0.76891000  0.14744000  0.27927000  1.0
  H  H71  1  0.01038000  0.13185000  0.27935000  1.0
  H  H72  1  0.67103000  0.73067000  0.74818000  1.0
  H  H73  1  0.57712000  0.01751000  0.74819000  1.0
  H  H74  1  0.48249000  0.92288000  0.75181000  1.0
  H  H75  1  0.76933000  0.82897000  0.75182000  1.0
  H  H76  1  0.32897000  0.26933000  0.25182000  1.0
  H  H77  1  0.42288000  0.98249000  0.25181000  1.0
  H  H78  1  0.51751000  0.07712000  0.24819000  1.0
  H  H79  1  0.23067000  0.17103000  0.24818000  1.0
  C  C80  1  0.92965000  0.49767000  0.81953000  1.0
  C  C81  1  0.38994000  0.32188000  0.81956000  1.0
  C  C82  1  0.17812000  0.11006000  0.68044000  1.0
  C  C83  1  0.00233000  0.57035000  0.68047000  1.0
  C  C84  1  0.07035000  0.50233000  0.18047000  1.0
  C  C85  1  0.61007000  0.67812000  0.18044000  1.0
  C  C86  1  0.82188000  0.88994000  0.31956000  1.0
  C  C87  1  0.99767000  0.42965000  0.31953000  1.0
  C  C88  1  0.92830000  0.42062000  0.81744000  1.0
  C  C89  1  0.38921000  0.39684000  0.81747000  1.0
  C  C90  1  0.10316000  0.11079000  0.68253000  1.0
  C  C91  1  0.07938000  0.57170000  0.68256000  1.0
  C  C92  1  0.07170000  0.57938000  0.18256000  1.0
  C  C93  1  0.61079000  0.60316000  0.18253000  1.0
  C  C94  1  0.89684000  0.88921000  0.31747000  1.0
  C  C95  1  0.92062000  0.42830000  0.31744000  1.0
  C  C96  1  0.88350000  0.34909000  0.75000000  1.0
  C  C97  1  0.36655000  0.40089000  0.75001000  1.0
  C  C98  1  0.09911000  0.13345000  0.74999000  1.0
  C  C99  1  0.15091000  0.61650000  0.75000000  1.0
  C  C100  1  0.11650000  0.65091000  0.25000000  1.0
  C  C101  1  0.63345000  0.59911000  0.24999000  1.0
  C  C102  1  0.90089000  0.86655000  0.25001000  1.0
  C  C103  1  0.84909000  0.38350000  0.25000000  1.0
  C  C104  1  0.84084000  0.35772000  0.68693000  1.0
  C  C105  1  0.34616000  0.32920000  0.68695000  1.0
  C  C106  1  0.17080000  0.15384000  0.81305000  1.0
  C  C107  1  0.14228000  0.65916000  0.81307000  1.0
  C  C108  1  0.15916000  0.64228000  0.31307000  1.0
  C  C109  1  0.65384000  0.67080000  0.31305000  1.0
  C  C110  1  0.82920000  0.84616000  0.18695000  1.0
  C  C111  1  0.85772000  0.34084000  0.18693000  1.0
  C  C112  1  0.84517000  0.43655000  0.69195000  1.0
  C  C113  1  0.34684000  0.25538000  0.69197000  1.0
  C  C114  1  0.24462000  0.15316000  0.80803000  1.0
  C  C115  1  0.06345000  0.65483000  0.80805000  1.0
  C  C116  1  0.15483000  0.56345000  0.30805000  1.0
  C  C117  1  0.65316000  0.74462000  0.30803000  1.0
  C  C118  1  0.75538000  0.84684000  0.19197000  1.0
  C  C119  1  0.93655000  0.34517000  0.19195000  1.0
  C  C120  1  0.80461000  0.45286000  0.62933000  1.0
  C  C121  1  0.32472000  0.17644000  0.62936000  1.0
  C  C122  1  0.32357000  0.17528000  0.87064000  1.0
  C  C123  1  0.04714000  0.69539000  0.87067000  1.0
  C  C124  1  0.19539000  0.54714000  0.37067000  1.0
  C  C125  1  0.67528000  0.82357000  0.37064000  1.0
  C  C126  1  0.67643000  0.82472000  0.12936000  1.0
  C  C127  1  0.95286000  0.30461000  0.12933000  1.0
  C  C128  1  0.75341000  0.39141000  0.55759000  1.0
  C  C129  1  0.30413000  0.16616000  0.55762000  1.0
  C  C130  1  0.33384000  0.19586000  0.94238000  1.0
  C  C131  1  0.10859000  0.74659000  0.94241000  1.0
  C  C132  1  0.24660000  0.60859000  0.44241000  1.0
  C  C133  1  0.69587000  0.83384000  0.44238000  1.0
  C  C134  1  0.66616000  0.80413000  0.05762000  1.0
  C  C135  1  0.89141000  0.25341000  0.05759000  1.0
  C  C136  1  0.71899000  0.41348000  0.50112000  1.0
  C  C137  1  0.28208000  0.08764000  0.50115000  1.0
  C  C138  1  0.41236000  0.21792000  0.99885000  1.0
  C  C139  1  0.08652000  0.78101000  0.99888000  1.0
  C  C140  1  0.28101000  0.58652000  0.49888000  1.0
  C  C141  1  0.71792000  0.91236000  0.49885000  1.0
  C  C142  1  0.58764000  0.78208000  0.00115000  1.0
  C  C143  1  0.91348000  0.21899000  0.00112000  1.0
  C  C144  1  0.73676000  0.49801000  0.51891000  1.0
  C  C145  1  0.28213000  0.02088000  0.51892000  1.0
  C  C146  1  0.47912000  0.21787000  0.98108000  1.0
  C  C147  1  0.00198000  0.76323000  0.98108000  1.0
  C  C148  1  0.26323000  0.50198000  0.48108000  1.0
  C  C149  1  0.71787000  0.97912000  0.48108000  1.0
  C  C150  1  0.52088000  0.78213000  0.01892000  1.0
  C  C151  1  0.99801000  0.23676000  0.01891000  1.0
  C  C152  1  0.78742000  0.55693000  0.59178000  1.0
  C  C153  1  0.30433000  0.03480000  0.59179000  1.0
  C  C154  1  0.46521000  0.19567000  0.90821000  1.0
  C  C155  1  0.94307000  0.71258000  0.90822000  1.0
  C  C156  1  0.21258000  0.44307000  0.40822000  1.0
  C  C157  1  0.69567000  0.96521000  0.40821000  1.0
  C  C158  1  0.53479000  0.80433000  0.09179000  1.0
  C  C159  1  0.05693000  0.28742000  0.09178000  1.0
  C  C160  1  0.87986000  0.26373000  0.74503000  1.0
  C  C161  1  0.36511000  0.48124000  0.74502000  1.0
  C  C162  1  0.01876000  0.13489000  0.75498000  1.0
  C  C163  1  0.23627000  0.62014000  0.75497000  1.0
  C  C164  1  0.12014000  0.73627000  0.25497000  1.0
  C  C165  1  0.63489000  0.51876000  0.25498000  1.0
  C  C166  1  0.98124000  0.86511000  0.24502000  1.0
  C  C167  1  0.76374000  0.37987000  0.24504000  1.0
  C  C168  1  0.66497000  0.34532000  0.42203000  1.0
  C  C169  1  0.25703000  0.07673000  0.42207000  1.0
  C  C170  1  0.42328000  0.24297000  0.07793000  1.0
  C  C171  1  0.15468000  0.83503000  0.07797000  1.0
  C  C172  1  0.33503000  0.65468000  0.57797000  1.0
  C  C173  1  0.74298000  0.92327000  0.57793000  1.0
  C  C174  1  0.57673000  0.75703000  0.92207000  1.0
  C  C175  1  0.84532000  0.16497000  0.92203000  1.0
  C  C176  1  0.74382000  0.55278000  0.76922000  1.0
  C  C177  1  0.52534000  0.21644000  0.76918000  1.0
  C  C178  1  0.28356000  0.97466000  0.73082000  1.0
  C  C179  1  0.94722000  0.75618000  0.73078000  1.0
  C  C180  1  0.25618000  0.44722000  0.23078000  1.0
  C  C181  1  0.47466000  0.78356000  0.23082000  1.0
  C  C182  1  0.71644000  0.02534000  0.26918000  1.0
  C  C183  1  0.05278000  0.24382000  0.26922000  1.0
  C  C184  1  0.66980000  0.55684000  0.77174000  1.0
  C  C185  1  0.60185000  0.21485000  0.77163000  1.0
  C  C186  1  0.28515000  0.89815000  0.72837000  1.0
  C  C187  1  0.94316000  0.83020000  0.72826000  1.0
  C  C188  1  0.33020000  0.44316000  0.22826000  1.0
  C  C189  1  0.39815000  0.78515000  0.22837000  1.0
  C  C190  1  0.71485000  0.10185000  0.27163000  1.0
  C  C191  1  0.05684000  0.16980000  0.27174000  1.0
  C  C192  1  0.64257000  0.62090000  0.76317000  1.0
  C  C193  1  0.62054000  0.14224000  0.76311000  1.0
  C  C194  1  0.35776000  0.87946000  0.73689000  1.0
  C  C195  1  0.87910000  0.85743000  0.73683000  1.0
  C  C196  1  0.35743000  0.37910000  0.23683000  1.0
  C  C197  1  0.37946000  0.85776000  0.23689000  1.0
  C  C198  1  0.64224000  0.12054000  0.26311000  1.0
  C  C199  1  0.12090000  0.14257000  0.26317000  1.0
  C  C200  1  0.69264000  0.68096000  0.75503000  1.0
  C  C201  1  0.56236000  0.07405000  0.75500000  1.0
  C  C202  1  0.42595000  0.93764000  0.74500000  1.0
  C  C203  1  0.81904000  0.80736000  0.74497000  1.0
  C  C204  1  0.30735000  0.31904000  0.24497000  1.0
  C  C205  1  0.43764000  0.92595000  0.24500000  1.0
  C  C206  1  0.57405000  0.06236000  0.25500000  1.0
  C  C207  1  0.18096000  0.19264000  0.25503000  1.0
  C  C208  1  0.76719000  0.67481000  0.75425000  1.0
  C  C209  1  0.48703000  0.07944000  0.75425000  1.0
  C  C210  1  0.42056000  0.01297000  0.74575000  1.0
  C  C211  1  0.82518000  0.73280000  0.74574000  1.0
  C  C212  1  0.23280000  0.32518000  0.24574000  1.0
  C  C213  1  0.51297000  0.92056000  0.24575000  1.0
  C  C214  1  0.57944000  0.98703000  0.25425000  1.0
  C  C215  1  0.17481000  0.26720000  0.25425000  1.0
  C  C216  1  0.55901000  0.62331000  0.75970000  1.0
  C  C217  1  0.70064000  0.13638000  0.75966000  1.0
  C  C218  1  0.36362000  0.79936000  0.74034000  1.0
  C  C219  1  0.87670000  0.94100000  0.74031000  1.0
  C  C220  1  0.44100000  0.37670000  0.24031000  1.0
  C  C221  1  0.29936000  0.86362000  0.24034000  1.0
  C  C222  1  0.63638000  0.20064000  0.25966000  1.0
  C  C223  1  0.12331000  0.05901000  0.25970000  1.0
  N  N224  1  0.88932000  0.50582000  0.75799000  1.0
  N  N225  1  0.36872000  0.25218000  0.75802000  1.0
  N  N226  1  0.24782000  0.13128000  0.74198000  1.0
  N  N227  1  0.99418000  0.61068000  0.74201000  1.0
  N  N228  1  0.11068000  0.49418000  0.24201000  1.0
  N  N229  1  0.63128000  0.74782000  0.24198000  1.0
  N  N230  1  0.75218000  0.86872000  0.25802000  1.0
  N  N231  1  0.00582000  0.38932000  0.25799000  1.0
  N  N232  1  0.82136000  0.53509000  0.64608000  1.0
  N  N233  1  0.32471000  0.11093000  0.64609000  1.0
  N  N234  1  0.38907000  0.17529000  0.85391000  1.0
  N  N235  1  0.96491000  0.67865000  0.85392000  1.0
  N  N236  1  0.17865000  0.46491000  0.35392000  1.0
  N  N237  1  0.67529000  0.88907000  0.35391000  1.0
  N  N238  1  0.61093000  0.82471000  0.14609000  1.0
  N  N239  1  0.03509000  0.32135000  0.14608000  1.0
  N  N240  1  0.79158000  0.61035000  0.76053000  1.0
  N  N241  1  0.46892000  0.15018000  0.76053000  1.0
  N  N242  1  0.34982000  0.03108000  0.73947000  1.0
  N  N243  1  0.88964000  0.70841000  0.73946000  1.0
  N  N244  1  0.20841000  0.38964000  0.23946000  1.0
  N  N245  1  0.53108000  0.84982000  0.23947000  1.0
  N  N246  1  0.65018000  0.96892000  0.26053000  1.0
  N  N247  1  0.11035000  0.29158000  0.26053000  1.0
  O  O248  1  0.92751000  0.26159000  0.80284000  1.0
  O  O249  1  0.37524000  0.54116000  0.80284000  1.0
  O  O250  1  0.95884000  0.12476000  0.69716000  1.0
  O  O251  1  0.23840000  0.57249000  0.69716000  1.0
  O  O252  1  0.07249000  0.73841000  0.19716000  1.0
  O  O253  1  0.62476000  0.45884000  0.19716000  1.0
  O  O254  1  0.04116000  0.87524000  0.30284000  1.0
  O  O255  1  0.76159000  0.42751000  0.30284000  1.0
  O  O256  1  0.82858000  0.20171000  0.68436000  1.0
  O  O257  1  0.35570000  0.48264000  0.68436000  1.0
  O  O258  1  0.01737000  0.14431000  0.81565000  1.0
  O  O259  1  0.29829000  0.67142000  0.81564000  1.0
  O  O260  1  0.17142000  0.79829000  0.31564000  1.0
  O  O261  1  0.64431000  0.51737000  0.31565000  1.0
  O  O262  1  0.98264000  0.85570000  0.18436000  1.0
  O  O263  1  0.70171000  0.32858000  0.18436000  1.0
  O  O264  1  0.65012000  0.27202000  0.41316000  1.0
  O  O265  1  0.26294000  0.14112000  0.41317000  1.0
  O  O266  1  0.35888000  0.23706000  0.08683000  1.0
  O  O267  1  0.22796000  0.84987000  0.08683000  1.0
  O  O268  1  0.34988000  0.72797000  0.58684000  1.0
  O  O269  1  0.73706000  0.85888000  0.58683000  1.0
  O  O270  1  0.64112000  0.76295000  0.91317000  1.0
  O  O271  1  0.77202000  0.15012000  0.91316000  1.0
  O  O272  1  0.64308000  0.37419000  0.37517000  1.0
  O  O273  1  0.23214000  0.00100000  0.37521000  1.0
  O  O274  1  0.49900000  0.26787000  0.12479000  1.0
  O  O275  1  0.12581000  0.85692000  0.12483000  1.0
  O  O276  1  0.35692000  0.62581000  0.62483000  1.0
  O  O277  1  0.76787000  0.99900000  0.62479000  1.0
  O  O278  1  0.50100000  0.73214000  0.87521000  1.0
  O  O279  1  0.87419000  0.14307000  0.87517000  1.0
  O  O280  1  0.52565000  0.58091000  0.78440000  1.0
  O  O281  1  0.75868000  0.20351000  0.78435000  1.0
  O  O282  1  0.29650000  0.74132000  0.71565000  1.0
  O  O283  1  0.91908000  0.97435000  0.71560000  1.0
  O  O284  1  0.47435000  0.41908000  0.21560000  1.0
  O  O285  1  0.24132000  0.79649000  0.21565000  1.0
  O  O286  1  0.70350000  0.25867000  0.28435000  1.0
  O  O287  1  0.08092000  0.02565000  0.28440000  1.0
  O  O288  1  0.52830000  0.66641000  0.72993000  1.0
  O  O289  1  0.70164000  0.06352000  0.72995000  1.0
  O  O290  1  0.43648000  0.79836000  0.77005000  1.0
  O  O291  1  0.83358000  0.97170000  0.77007000  1.0
  O  O292  1  0.47170000  0.33358000  0.27007000  1.0
  O  O293  1  0.29836000  0.93648000  0.27005000  1.0
  O  O294  1  0.56352000  0.20164000  0.22995000  1.0
  O  O295  1  0.16642000  0.02830000  0.22993000  1.0
