# generated using pymatgen
data_Ag2H4C8SO7
_symmetry_space_group_name_H-M   'P 1'
_cell_length_a   7.82599000
_cell_length_b   11.18500000
_cell_length_c   12.49730000
_cell_angle_alpha   64.31800000
_cell_angle_beta   89.99990000
_cell_angle_gamma   89.99990000
_symmetry_Int_Tables_number   1
_chemical_formula_structural   Ag2H4C8SO7
_chemical_formula_sum   'Ag8 H16 C32 S4 O28'
_cell_volume   985.86857537
_cell_formula_units_Z   4
loop_
 _symmetry_equiv_pos_site_id
 _symmetry_equiv_pos_as_xyz
  1  'x, y, z'
loop_
 _atom_site_type_symbol
 _atom_site_label
 _atom_site_symmetry_multiplicity
 _atom_site_fract_x
 _atom_site_fract_y
 _atom_site_fract_z
 _atom_site_occupancy
  Ag  Ag0  1  0.41434000  0.82098000  0.25951000  1.0
  Ag  Ag1  1  0.91434000  0.67902000  0.24048000  1.0
  Ag  Ag2  1  0.58566000  0.17902000  0.74049000  1.0
  Ag  Ag3  1  0.08566000  0.32098000  0.75952000  1.0
  Ag  Ag4  1  0.62646000  0.59265000  0.49042000  1.0
  Ag  Ag5  1  0.12647000  0.90735000  0.00958000  1.0
  Ag  Ag6  1  0.37353000  0.40735000  0.50957000  1.0
  Ag  Ag7  1  0.87353000  0.09265000  0.99043000  1.0
  H  H8  1  0.97317000  0.59644000  0.70917000  1.0
  H  H9  1  0.47317000  0.90356000  0.79083000  1.0
  H  H10  1  0.02683000  0.40356000  0.29083000  1.0
  H  H11  1  0.52684000  0.09644000  0.20917000  1.0
  H  H12  1  0.75501000  0.72244000  0.87167000  1.0
  H  H13  1  0.25501000  0.77756000  0.62834000  1.0
  H  H14  1  0.24499000  0.27756000  0.12833000  1.0
  H  H15  1  0.74499000  0.22244000  0.37167000  1.0
  H  H16  1  0.77028000  0.29820000  0.07565000  1.0
  H  H17  1  0.27028000  0.20180000  0.42435000  1.0
  H  H18  1  0.22972000  0.70180000  0.92435000  1.0
  H  H19  1  0.72972000  0.79820000  0.57565000  1.0
  H  H20  1  0.61424000  0.32393000  0.23750000  1.0
  H  H21  1  0.11424000  0.17607000  0.26250000  1.0
  H  H22  1  0.38576000  0.67607000  0.76250000  1.0
  H  H23  1  0.88576000  0.82393000  0.73750000  1.0
  C  C24  1  0.55114000  0.53423000  0.26791000  1.0
  C  C25  1  0.05114000  0.96577000  0.23210000  1.0
  C  C26  1  0.44885000  0.46576000  0.73209000  1.0
  C  C27  1  0.94886000  0.03423000  0.76790000  1.0
  C  C28  1  0.61640000  0.53569000  0.15383000  1.0
  C  C29  1  0.11640000  0.96431000  0.34617000  1.0
  C  C30  1  0.38360000  0.46431000  0.84617000  1.0
  C  C31  1  0.88360000  0.03569000  0.65383000  1.0
  C  C32  1  0.65311000  0.64885000  0.04737000  1.0
  C  C33  1  0.15311000  0.85115000  0.45263000  1.0
  C  C34  1  0.34689000  0.35115000  0.95263000  1.0
  C  C35  1  0.84689000  0.14885000  0.54737000  1.0
  C  C36  1  0.73194000  0.63465000  0.95372000  1.0
  C  C37  1  0.23194000  0.86535000  0.54628000  1.0
  C  C38  1  0.26806000  0.36535000  0.04628000  1.0
  C  C39  1  0.76806000  0.13465000  0.45372000  1.0
  C  C40  1  0.77925000  0.50916000  0.96399000  1.0
  C  C41  1  0.27925000  0.99085000  0.53601000  1.0
  C  C42  1  0.22075000  0.49085000  0.03601000  1.0
  C  C43  1  0.72075000  0.00916000  0.46399000  1.0
  C  C44  1  0.73732000  0.39644000  0.06733000  1.0
  C  C45  1  0.23731000  0.10356000  0.43267000  1.0
  C  C46  1  0.26269000  0.60356000  0.93267000  1.0
  C  C47  1  0.76269000  0.89644000  0.56733000  1.0
  C  C48  1  0.65338000  0.41095000  0.15890000  1.0
  C  C49  1  0.15338000  0.08905000  0.34110000  1.0
  C  C50  1  0.34661000  0.58905000  0.84110000  1.0
  C  C51  1  0.84662000  0.91095000  0.65890000  1.0
  C  C52  1  0.87228000  0.49370000  0.86712000  1.0
  C  C53  1  0.37228000  0.00630000  0.63288000  1.0
  C  C54  1  0.12772000  0.50630000  0.13288000  1.0
  C  C55  1  0.62772000  0.99370000  0.36712000  1.0
  S  S56  1  0.59251000  0.81352000  0.02311000  1.0
  S  S57  1  0.09251000  0.68648000  0.47689000  1.0
  S  S58  1  0.40749000  0.18648000  0.97689000  1.0
  S  S59  1  0.90749000  0.31352000  0.52311000  1.0
  O  O60  1  0.61793000  0.61897000  0.29975000  1.0
  O  O61  1  0.11792000  0.88103000  0.20025000  1.0
  O  O62  1  0.38207000  0.38103000  0.70025000  1.0
  O  O63  1  0.88208000  0.11897000  0.79975000  1.0
  O  O64  1  0.44608000  0.44420000  0.32674000  1.0
  O  O65  1  0.94608000  0.05580000  0.17326000  1.0
  O  O66  1  0.55392000  0.55580000  0.67326000  1.0
  O  O67  1  0.05392000  0.94420000  0.82674000  1.0
  O  O68  1  0.71815000  0.85928000  0.08451000  1.0
  O  O69  1  0.21815000  0.64072000  0.41549000  1.0
  O  O70  1  0.28185000  0.14072000  0.91549000  1.0
  O  O71  1  0.78185000  0.35928000  0.58451000  1.0
  O  O72  1  0.41829000  0.80043000  0.07259000  1.0
  O  O73  1  0.91829000  0.69957000  0.42741000  1.0
  O  O74  1  0.58171000  0.19957000  0.92741000  1.0
  O  O75  1  0.08171000  0.30043000  0.57259000  1.0
  O  O76  1  0.59738000  0.89428000  0.89320000  1.0
  O  O77  1  0.09738000  0.60572000  0.60680000  1.0
  O  O78  1  0.40262000  0.10572000  0.10680000  1.0
  O  O79  1  0.90262000  0.39428000  0.39320000  1.0
  O  O80  1  0.90505000  0.60685000  0.77404000  1.0
  O  O81  1  0.40505000  0.89314000  0.72596000  1.0
  O  O82  1  0.09496000  0.39315000  0.22596000  1.0
  O  O83  1  0.59496000  0.10685000  0.27404000  1.0
  O  O84  1  0.91697000  0.38272000  0.87677000  1.0
  O  O85  1  0.41697000  0.11727000  0.62323000  1.0
  O  O86  1  0.08303000  0.61727000  0.12323000  1.0
  O  O87  1  0.58303000  0.88272000  0.37677000  1.0
