# generated using pymatgen
data_CdH4C2(N5O)2
_symmetry_space_group_name_H-M   'P 1'
_cell_length_a   10.11370000
_cell_length_b   10.11340000
_cell_length_c   11.25445761
_cell_angle_alpha   63.30551495
_cell_angle_beta   63.29731768
_cell_angle_gamma   90.00320000
_symmetry_Int_Tables_number   1
_chemical_formula_structural   CdH4C2(N5O)2
_chemical_formula_sum   'Cd4 H16 C8 N40 O8'
_cell_volume   888.87994207
_cell_formula_units_Z   4
loop_
 _symmetry_equiv_pos_site_id
 _symmetry_equiv_pos_as_xyz
  1  'x, y, z'
loop_
 _atom_site_type_symbol
 _atom_site_label
 _atom_site_symmetry_multiplicity
 _atom_site_fract_x
 _atom_site_fract_y
 _atom_site_fract_z
 _atom_site_occupancy
  Cd  Cd0  1  0.86428000  0.61421000  0.77145000  1.0
  Cd  Cd1  1  0.61423000  0.86427000  0.27147000  1.0
  Cd  Cd2  1  0.13572000  0.38579000  0.22855000  1.0
  Cd  Cd3  1  0.38577000  0.13573000  0.72854000  1.0
  H  H4  1  0.08992000  0.53647000  0.56329000  1.0
  H  H5  1  0.84720000  0.90032000  0.56311000  1.0
  H  H6  1  0.53649000  0.84693000  0.06322000  1.0
  H  H7  1  0.90020000  0.08989000  0.06320000  1.0
  H  H8  1  0.91008000  0.46355000  0.43670000  1.0
  H  H9  1  0.15280000  0.09969000  0.43688000  1.0
  H  H10  1  0.46351000  0.15308000  0.93678000  1.0
  H  H11  1  0.09980000  0.91012000  0.93680000  1.0
  H  H12  1  0.04967000  0.39790000  0.72192000  1.0
  H  H13  1  0.72874000  0.88028000  0.72170000  1.0
  H  H14  1  0.39787000  0.72854000  0.22182000  1.0
  H  H15  1  0.88016000  0.04973000  0.22179000  1.0
  H  H16  1  0.95033000  0.60210000  0.27808000  1.0
  H  H17  1  0.27127000  0.11972000  0.27829000  1.0
  H  H18  1  0.60213000  0.27146000  0.77818000  1.0
  H  H19  1  0.11984000  0.95027000  0.77821000  1.0
  C  C20  1  0.61469000  0.55452000  0.55601000  1.0
  C  C21  1  0.32928000  0.88927000  0.55622000  1.0
  C  C22  1  0.55454000  0.32934000  0.05623000  1.0
  C  C23  1  0.88934000  0.61462000  0.05605000  1.0
  C  C24  1  0.38530000  0.44548000  0.44400000  1.0
  C  C25  1  0.67070000  0.11071000  0.44380000  1.0
  C  C26  1  0.44546000  0.67066000  0.94375000  1.0
  C  C27  1  0.11066000  0.38538000  0.94395000  1.0
  N  N28  1  0.75339000  0.74499000  0.51713000  1.0
  N  N29  1  0.22947000  0.73777000  0.51725000  1.0
  N  N30  1  0.74497000  0.22947000  0.01722000  1.0
  N  N31  1  0.73782000  0.75337000  0.01712000  1.0
  N  N32  1  0.24661000  0.25500000  0.48287000  1.0
  N  N33  1  0.77053000  0.26222000  0.48276000  1.0
  N  N34  1  0.25504000  0.77053000  0.98277000  1.0
  N  N35  1  0.26218000  0.24665000  0.98287000  1.0
  N  N36  1  0.75334000  0.61552000  0.62714000  1.0
  N  N37  1  0.11951000  0.75719000  0.62730000  1.0
  N  N38  1  0.61548000  0.11955000  0.12732000  1.0
  N  N39  1  0.75729000  0.75334000  0.12712000  1.0
  N  N40  1  0.24667000  0.38447000  0.37286000  1.0
  N  N41  1  0.88049000  0.24282000  0.37270000  1.0
  N  N42  1  0.38453000  0.88045000  0.87268000  1.0
  N  N43  1  0.24271000  0.24667000  0.87287000  1.0
  N  N44  1  0.66780000  0.49446000  0.65430000  1.0
  N  N45  1  0.17789000  0.85104000  0.65450000  1.0
  N  N46  1  0.49445000  0.17795000  0.15454000  1.0
  N  N47  1  0.85118000  0.66781000  0.15428000  1.0
  N  N48  1  0.33220000  0.50553000  0.34570000  1.0
  N  N49  1  0.82210000  0.14895000  0.34551000  1.0
  N  N50  1  0.50556000  0.82204000  0.84546000  1.0
  N  N51  1  0.14882000  0.33220000  0.84571000  1.0
  N  N52  1  0.66692000  0.70869000  0.47080000  1.0
  N  N53  1  0.36226000  0.82040000  0.47091000  1.0
  N  N54  1  0.70871000  0.36228000  0.97090000  1.0
  N  N55  1  0.82044000  0.66689000  0.97079000  1.0
  N  N56  1  0.33308000  0.29130000  0.52920000  1.0
  N  N57  1  0.63773000  0.17960000  0.52910000  1.0
  N  N58  1  0.29130000  0.63771000  0.02909000  1.0
  N  N59  1  0.17955000  0.33311000  0.02921000  1.0
  N  N60  1  0.51883000  0.46307000  0.55049000  1.0
  N  N61  1  0.43069000  0.98638000  0.55055000  1.0
  N  N62  1  0.46310000  0.43070000  0.05059000  1.0
  N  N63  1  0.98640000  0.51884000  0.05049000  1.0
  N  N64  1  0.48117000  0.53692000  0.44952000  1.0
  N  N65  1  0.56931000  0.01361000  0.44947000  1.0
  N  N66  1  0.53690000  0.56930000  0.94939000  1.0
  N  N67  1  0.01361000  0.48115000  0.94951000  1.0
  O  O68  1  0.00302000  0.45764000  0.66079000  1.0
  O  O69  1  0.83654000  0.88169000  0.66062000  1.0
  O  O70  1  0.45757000  0.83634000  0.16069000  1.0
  O  O71  1  0.88156000  0.00302000  0.16070000  1.0
  O  O72  1  0.99698000  0.54237000  0.33920000  1.0
  O  O73  1  0.16346000  0.11831000  0.33938000  1.0
  O  O74  1  0.54243000  0.16367000  0.83931000  1.0
  O  O75  1  0.11844000  0.99699000  0.83930000  1.0
