# generated using pymatgen
data_AgH5(CO)7
_symmetry_space_group_name_H-M   'P 1'
_cell_length_a   3.56015000
_cell_length_b   14.92910000
_cell_length_c   15.70270000
_cell_angle_alpha   73.79600000
_cell_angle_beta   89.99960000
_cell_angle_gamma   89.99940000
_symmetry_Int_Tables_number   1
_chemical_formula_structural   AgH5(CO)7
_chemical_formula_sum   'Ag4 H20 C28 O28'
_cell_volume   801.44093422
_cell_formula_units_Z   4
loop_
 _symmetry_equiv_pos_site_id
 _symmetry_equiv_pos_as_xyz
  1  'x, y, z'
loop_
 _atom_site_type_symbol
 _atom_site_label
 _atom_site_symmetry_multiplicity
 _atom_site_fract_x
 _atom_site_fract_y
 _atom_site_fract_z
 _atom_site_occupancy
  Ag  Ag0  1  0.99911000  0.59929000  0.95571000  1.0
  Ag  Ag1  1  0.49912000  0.90071000  0.04429000  1.0
  Ag  Ag2  1  0.00089000  0.40071000  0.04429000  1.0
  Ag  Ag3  1  0.50086000  0.09929000  0.95571000  1.0
  H  H4  1  0.56920000  0.18437000  0.58426000  1.0
  H  H5  1  0.06920000  0.31562000  0.41574000  1.0
  H  H6  1  0.43079000  0.81562000  0.41574000  1.0
  H  H7  1  0.93080000  0.68438000  0.58426000  1.0
  H  H8  1  0.41540000  0.71466000  0.82398000  1.0
  H  H9  1  0.91540000  0.78535000  0.17602000  1.0
  H  H10  1  0.58460000  0.28535000  0.17602000  1.0
  H  H11  1  0.08459000  0.21465000  0.82398000  1.0
  H  H12  1  0.44787000  0.77569000  0.89111000  1.0
  H  H13  1  0.94787000  0.72431000  0.10889000  1.0
  H  H14  1  0.55213000  0.22431000  0.10889000  1.0
  H  H15  1  0.05213000  0.27569000  0.89111000  1.0
  H  H16  1  0.80215000  0.42244000  0.54584000  1.0
  H  H17  1  0.30216000  0.07756000  0.45416000  1.0
  H  H18  1  0.19784000  0.57756000  0.45416000  1.0
  H  H19  1  0.69784000  0.92244000  0.54585000  1.0
  H  H20  1  0.68287000  0.58875000  0.73408000  1.0
  H  H21  1  0.18287000  0.91125000  0.26592000  1.0
  H  H22  1  0.31714000  0.41125000  0.26592000  1.0
  H  H23  1  0.81713000  0.08875000  0.73408000  1.0
  C  C24  1  0.46113000  0.26640000  0.66044000  1.0
  C  C25  1  0.96115000  0.23359000  0.33956000  1.0
  C  C26  1  0.53885000  0.73360000  0.33956000  1.0
  C  C27  1  0.03884000  0.76641000  0.66043000  1.0
  C  C28  1  0.54253000  0.36181000  0.67028000  1.0
  C  C29  1  0.04253000  0.13819000  0.32972000  1.0
  C  C30  1  0.45746000  0.63819000  0.32972000  1.0
  C  C31  1  0.95748000  0.86181000  0.67028000  1.0
  C  C32  1  0.71180000  0.43291000  0.60884000  1.0
  C  C33  1  0.21180000  0.06709000  0.39116000  1.0
  C  C34  1  0.28820000  0.56709000  0.39116000  1.0
  C  C35  1  0.78820000  0.93291000  0.60884000  1.0
  C  C36  1  0.77065000  0.52163000  0.62715000  1.0
  C  C37  1  0.27065000  0.97837000  0.37285000  1.0
  C  C38  1  0.22936000  0.47837000  0.37285000  1.0
  C  C39  1  0.72936000  0.02163000  0.62715000  1.0
  C  C40  1  0.65024000  0.52566000  0.71335000  1.0
  C  C41  1  0.15023000  0.97433000  0.28665000  1.0
  C  C42  1  0.34976000  0.47433000  0.28665000  1.0
  C  C43  1  0.84976000  0.02567000  0.71335000  1.0
  C  C44  1  0.48158000  0.45088000  0.77062000  1.0
  C  C45  1  0.98159000  0.04912000  0.22938000  1.0
  C  C46  1  0.51843000  0.54912000  0.22938000  1.0
  C  C47  1  0.01842000  0.95088000  0.77062000  1.0
  C  C48  1  0.33297000  0.45262000  0.85993000  1.0
  C  C49  1  0.83300000  0.04737000  0.14007000  1.0
  C  C50  1  0.66704000  0.54738000  0.14007000  1.0
  C  C51  1  0.16700000  0.95263000  0.85993000  1.0
  O  O52  1  0.28249000  0.20856000  0.71784000  1.0
  O  O53  1  0.78249000  0.29144000  0.28216000  1.0
  O  O54  1  0.71750000  0.79144000  0.28216000  1.0
  O  O55  1  0.21751000  0.70855000  0.71785000  1.0
  O  O56  1  0.59908000  0.25387000  0.58733000  1.0
  O  O57  1  0.09908000  0.24612000  0.41267000  1.0
  O  O58  1  0.40091000  0.74612000  0.41267000  1.0
  O  O59  1  0.90092000  0.75387000  0.58734000  1.0
  O  O60  1  0.92244000  0.58982000  0.57059000  1.0
  O  O61  1  0.42244000  0.91017000  0.42941000  1.0
  O  O62  1  0.07757000  0.41017000  0.42941000  1.0
  O  O63  1  0.57755000  0.08982000  0.57059000  1.0
  O  O64  1  0.42444000  0.36956000  0.75013000  1.0
  O  O65  1  0.92445000  0.13044000  0.24987000  1.0
  O  O66  1  0.57555000  0.63044000  0.24987000  1.0
  O  O67  1  0.07556000  0.86956000  0.75013000  1.0
  O  O68  1  0.39948000  0.52727000  0.87987000  1.0
  O  O69  1  0.89949000  0.97273000  0.12013000  1.0
  O  O70  1  0.60054000  0.47273000  0.12013000  1.0
  O  O71  1  0.10050000  0.02728000  0.87987000  1.0
  O  O72  1  0.14892000  0.38266000  0.90548000  1.0
  O  O73  1  0.64892000  0.11734000  0.09452000  1.0
  O  O74  1  0.85109000  0.61734000  0.09452000  1.0
  O  O75  1  0.35107000  0.88266000  0.90548000  1.0
  O  O76  1  0.50043000  0.71271000  0.88424000  1.0
  O  O77  1  0.00044000  0.78730000  0.11576000  1.0
  O  O78  1  0.49957000  0.28730000  0.11576000  1.0
  O  O79  1  0.99956000  0.21270000  0.88424000  1.0
