# generated using pymatgen
data_CuH21C29N2O5
_symmetry_space_group_name_H-M   'P 1'
_cell_length_a   9.25882000
_cell_length_b   12.58900000
_cell_length_c   25.58410000
_cell_angle_alpha   96.33600000
_cell_angle_beta   89.99950000
_cell_angle_gamma   89.99970000
_symmetry_Int_Tables_number   1
_chemical_formula_structural   CuH21C29N2O5
_chemical_formula_sum   'Cu4 H84 C116 N8 O20'
_cell_volume   2963.84939018
_cell_formula_units_Z   4
loop_
 _symmetry_equiv_pos_site_id
 _symmetry_equiv_pos_as_xyz
  1  'x, y, z'
loop_
 _atom_site_type_symbol
 _atom_site_label
 _atom_site_symmetry_multiplicity
 _atom_site_fract_x
 _atom_site_fract_y
 _atom_site_fract_z
 _atom_site_occupancy
  Cu  Cu0  1  0.62288000  0.95077000  0.00343000  1.0
  Cu  Cu1  1  0.12287000  0.04922000  0.49657000  1.0
  Cu  Cu2  1  0.37713000  0.04923000  0.99656000  1.0
  Cu  Cu3  1  0.87712000  0.95077000  0.50344000  1.0
  H  H4  1  0.10187000  0.29135000  0.63051000  1.0
  H  H5  1  0.60187000  0.70865000  0.86948000  1.0
  H  H6  1  0.89813000  0.70866000  0.36949000  1.0
  H  H7  1  0.39813000  0.29134000  0.13051000  1.0
  H  H8  1  0.72957000  0.09784000  0.65351000  1.0
  H  H9  1  0.22957000  0.90216000  0.84649000  1.0
  H  H10  1  0.27043000  0.90216000  0.34649000  1.0
  H  H11  1  0.77043000  0.09784000  0.15351000  1.0
  H  H12  1  0.05373000  0.40104000  0.71521000  1.0
  H  H13  1  0.55373000  0.59897000  0.78478000  1.0
  H  H14  1  0.94626000  0.59896000  0.28479000  1.0
  H  H15  1  0.44625000  0.40103000  0.21521000  1.0
  H  H16  1  0.67987000  0.20707000  0.73856000  1.0
  H  H17  1  0.17987000  0.79294000  0.76144000  1.0
  H  H18  1  0.32012000  0.79294000  0.26144000  1.0
  H  H19  1  0.82012000  0.20707000  0.23856000  1.0
  H  H20  1  0.93741000  0.78471000  0.82660000  1.0
  H  H21  1  0.43743000  0.21530000  0.67340000  1.0
  H  H22  1  0.06257000  0.21530000  0.17341000  1.0
  H  H23  1  0.56257000  0.78469000  0.32659000  1.0
  H  H24  1  0.86082000  0.71185000  0.73586000  1.0
  H  H25  1  0.36084000  0.28816000  0.76414000  1.0
  H  H26  1  0.13917000  0.28817000  0.26415000  1.0
  H  H27  1  0.63916000  0.71184000  0.23586000  1.0
  H  H28  1  0.96786000  0.66075000  0.89502000  1.0
  H  H29  1  0.46788000  0.33926000  0.60498000  1.0
  H  H30  1  0.03210000  0.33926000  0.10499000  1.0
  H  H31  1  0.53211000  0.66074000  0.39502000  1.0
  H  H32  1  0.81068000  0.51850000  0.71498000  1.0
  H  H33  1  0.31069000  0.48151000  0.78502000  1.0
  H  H34  1  0.18931000  0.48152000  0.28502000  1.0
  H  H35  1  0.68931000  0.51848000  0.21498000  1.0
  H  H36  1  0.92503000  0.46667000  0.87362000  1.0
  H  H37  1  0.42503000  0.53334000  0.62638000  1.0
  H  H38  1  0.07495000  0.53333000  0.12638000  1.0
  H  H39  1  0.57497000  0.46666000  0.37362000  1.0
  H  H40  1  0.94572000  0.19096000  0.81177000  1.0
  H  H41  1  0.44572000  0.80905000  0.68823000  1.0
  H  H42  1  0.05427000  0.80906000  0.18823000  1.0
  H  H43  1  0.55427000  0.19094000  0.31177000  1.0
  H  H44  1  0.60576000  0.42308000  0.84273000  1.0
  H  H45  1  0.10575000  0.57693000  0.65728000  1.0
  H  H46  1  0.39424000  0.57694000  0.15728000  1.0
  H  H47  1  0.89424000  0.42306000  0.34272000  1.0
  H  H48  1  0.50404000  0.31652000  0.91065000  1.0
  H  H49  1  0.00403000  0.68348000  0.58935000  1.0
  H  H50  1  0.49596000  0.68349000  0.08935000  1.0
  H  H51  1  0.99596000  0.31650000  0.41065000  1.0
  H  H52  1  0.84734000  0.08774000  0.88184000  1.0
  H  H53  1  0.34733000  0.91226000  0.61816000  1.0
  H  H54  1  0.15267000  0.91227000  0.11816000  1.0
  H  H55  1  0.65267000  0.08773000  0.38183000  1.0
  H  H56  1  0.90235000  0.96749000  0.94800000  1.0
  H  H57  1  0.40235000  0.03250000  0.55200000  1.0
  H  H58  1  0.09767000  0.03251000  0.05200000  1.0
  H  H59  1  0.59767000  0.96749000  0.44800000  1.0
  H  H60  1  0.13384000  0.86852000  0.92904000  1.0
  H  H61  1  0.63384000  0.13148000  0.57096000  1.0
  H  H62  1  0.86618000  0.13148000  0.07096000  1.0
  H  H63  1  0.36618000  0.86852000  0.42904000  1.0
  H  H64  1  0.77204000  0.75966000  0.05274000  1.0
  H  H65  1  0.27205000  0.24033000  0.44726000  1.0
  H  H66  1  0.22797000  0.24034000  0.94726000  1.0
  H  H67  1  0.72796000  0.75967000  0.55274000  1.0
  H  H68  1  0.99803000  0.64913000  0.03752000  1.0
  H  H69  1  0.49804000  0.35086000  0.46247000  1.0
  H  H70  1  0.00197000  0.35087000  0.96247000  1.0
  H  H71  1  0.50197000  0.64914000  0.53753000  1.0
  H  H72  1  0.23625000  0.67216000  0.92669000  1.0
  H  H73  1  0.73624000  0.32783000  0.57331000  1.0
  H  H74  1  0.76377000  0.32783000  0.07331000  1.0
  H  H75  1  0.26376000  0.67217000  0.42669000  1.0
  H  H76  1  0.31198000  0.74786000  0.98249000  1.0
  H  H77  1  0.81198000  0.25213000  0.51751000  1.0
  H  H78  1  0.68803000  0.25213000  0.01751000  1.0
  H  H79  1  0.18803000  0.74787000  0.48250000  1.0
  H  H80  1  0.48712000  0.66087000  0.95191000  1.0
  H  H81  1  0.98712000  0.33913000  0.54809000  1.0
  H  H82  1  0.51289000  0.33912000  0.04809000  1.0
  H  H83  1  0.01288000  0.66087000  0.45191000  1.0
  H  H84  1  0.28141000  0.43204000  0.04176000  1.0
  H  H85  1  0.78141000  0.56794000  0.45824000  1.0
  H  H86  1  0.71860000  0.56795000  0.95824000  1.0
  H  H87  1  0.21860000  0.43206000  0.54176000  1.0
  C  C88  1  0.94697000  0.12252000  0.58528000  1.0
  C  C89  1  0.44696000  0.87748000  0.91471000  1.0
  C  C90  1  0.05306000  0.87749000  0.41472000  1.0
  C  C91  1  0.55304000  0.12252000  0.08528000  1.0
  C  C92  1  0.91752000  0.18841000  0.63607000  1.0
  C  C93  1  0.41751000  0.81159000  0.86392000  1.0
  C  C94  1  0.08248000  0.81160000  0.36393000  1.0
  C  C95  1  0.58248000  0.18840000  0.13608000  1.0
  C  C96  1  0.00786000  0.27456000  0.65386000  1.0
  C  C97  1  0.50786000  0.72545000  0.84614000  1.0
  C  C98  1  0.99213000  0.72544000  0.34614000  1.0
  C  C99  1  0.49212000  0.27455000  0.15387000  1.0
  C  C100  1  0.79943000  0.16485000  0.66720000  1.0
  C  C101  1  0.29942000  0.83515000  0.83280000  1.0
  C  C102  1  0.20057000  0.83516000  0.33280000  1.0
  C  C103  1  0.70057000  0.16484000  0.16720000  1.0
  C  C104  1  0.98091000  0.33599000  0.70135000  1.0
  C  C105  1  0.48091000  0.66401000  0.79865000  1.0
  C  C106  1  0.01910000  0.66401000  0.29865000  1.0
  C  C107  1  0.51909000  0.33598000  0.20135000  1.0
  C  C108  1  0.77206000  0.22550000  0.71472000  1.0
  C  C109  1  0.27206000  0.77450000  0.78528000  1.0
  C  C110  1  0.22794000  0.77451000  0.28528000  1.0
  C  C111  1  0.72794000  0.22548000  0.21472000  1.0
  C  C112  1  0.86287000  0.31170000  0.73260000  1.0
  C  C113  1  0.36286000  0.68831000  0.76740000  1.0
  C  C114  1  0.13714000  0.68832000  0.26740000  1.0
  C  C115  1  0.63714000  0.31168000  0.23260000  1.0
  C  C116  1  0.91790000  0.69946000  0.81691000  1.0
  C  C117  1  0.41791000  0.30055000  0.68309000  1.0
  C  C118  1  0.08209000  0.30056000  0.18309000  1.0
  C  C119  1  0.58208000  0.69944000  0.31691000  1.0
  C  C120  1  0.87518000  0.65848000  0.76627000  1.0
  C  C121  1  0.37519000  0.34153000  0.73373000  1.0
  C  C122  1  0.12481000  0.34153000  0.23373000  1.0
  C  C123  1  0.62481000  0.65846000  0.26627000  1.0
  C  C124  1  0.93491000  0.62984000  0.85537000  1.0
  C  C125  1  0.43492000  0.37016000  0.64463000  1.0
  C  C126  1  0.06507000  0.37016000  0.14463000  1.0
  C  C127  1  0.56508000  0.62983000  0.35537000  1.0
  C  C128  1  0.84762000  0.54963000  0.75416000  1.0
  C  C129  1  0.34763000  0.45038000  0.74584000  1.0
  C  C130  1  0.15237000  0.45038000  0.24584000  1.0
  C  C131  1  0.65237000  0.54961000  0.25416000  1.0
  C  C132  1  0.91043000  0.52072000  0.84355000  1.0
  C  C133  1  0.41044000  0.47929000  0.65644000  1.0
  C  C134  1  0.08955000  0.47929000  0.15645000  1.0
  C  C135  1  0.58956000  0.52071000  0.34355000  1.0
  C  C136  1  0.86534000  0.47954000  0.79285000  1.0
  C  C137  1  0.36535000  0.52046000  0.70715000  1.0
  C  C138  1  0.13464000  0.52047000  0.20715000  1.0
  C  C139  1  0.63464000  0.47953000  0.29285000  1.0
  C  C140  1  0.78077000  0.31251000  0.82261000  1.0
  C  C141  1  0.28076000  0.68750000  0.67739000  1.0
  C  C142  1  0.21923000  0.68750000  0.17739000  1.0
  C  C143  1  0.71923000  0.31249000  0.32261000  1.0
  C  C144  1  0.84941000  0.21820000  0.83383000  1.0
  C  C145  1  0.34941000  0.78180000  0.66617000  1.0
  C  C146  1  0.15059000  0.78181000  0.16617000  1.0
  C  C147  1  0.65058000  0.21819000  0.33383000  1.0
  C  C148  1  0.65757000  0.34903000  0.85106000  1.0
  C  C149  1  0.15756000  0.65097000  0.64894000  1.0
  C  C150  1  0.34244000  0.65098000  0.14894000  1.0
  C  C151  1  0.84243000  0.34902000  0.35106000  1.0
  C  C152  1  0.60109000  0.28982000  0.88900000  1.0
  C  C153  1  0.10109000  0.71019000  0.61101000  1.0
  C  C154  1  0.39890000  0.71020000  0.11101000  1.0
  C  C155  1  0.89890000  0.28980000  0.38899000  1.0
  C  C156  1  0.79420000  0.16048000  0.87251000  1.0
  C  C157  1  0.29420000  0.83952000  0.62749000  1.0
  C  C158  1  0.20579000  0.83952000  0.12750000  1.0
  C  C159  1  0.70579000  0.16047000  0.37250000  1.0
  C  C160  1  0.66839000  0.19484000  0.89985000  1.0
  C  C161  1  0.16839000  0.80516000  0.60015000  1.0
  C  C162  1  0.33160000  0.80517000  0.10015000  1.0
  C  C163  1  0.83160000  0.19483000  0.39985000  1.0
  C  C164  1  0.60514000  0.12935000  0.93924000  1.0
  C  C165  1  0.10514000  0.87065000  0.56076000  1.0
  C  C166  1  0.39486000  0.87066000  0.06076000  1.0
  C  C167  1  0.89486000  0.12934000  0.43924000  1.0
  C  C168  1  0.92810000  0.89629000  0.96685000  1.0
  C  C169  1  0.42810000  0.10371000  0.53315000  1.0
  C  C170  1  0.07191000  0.10371000  0.03315000  1.0
  C  C171  1  0.57191000  0.89629000  0.46685000  1.0
  C  C172  1  0.05511000  0.84014000  0.95590000  1.0
  C  C173  1  0.55511000  0.15986000  0.54410000  1.0
  C  C174  1  0.94491000  0.15986000  0.04409000  1.0
  C  C175  1  0.44490000  0.84014000  0.45590000  1.0
  C  C176  1  0.85570000  0.78058000  0.02559000  1.0
  C  C177  1  0.35571000  0.21941000  0.47441000  1.0
  C  C178  1  0.14431000  0.21942000  0.97441000  1.0
  C  C179  1  0.64430000  0.78059000  0.52560000  1.0
  C  C180  1  0.98076000  0.71920000  0.01690000  1.0
  C  C181  1  0.48076000  0.28079000  0.48309000  1.0
  C  C182  1  0.01925000  0.28080000  0.98310000  1.0
  C  C183  1  0.51925000  0.71920000  0.51691000  1.0
  C  C184  1  0.08335000  0.74949000  0.98137000  1.0
  C  C185  1  0.58335000  0.25050000  0.51863000  1.0
  C  C186  1  0.91666000  0.25051000  0.01862000  1.0
  C  C187  1  0.41666000  0.74950000  0.48138000  1.0
  C  C188  1  0.22350000  0.69242000  0.96964000  1.0
  C  C189  1  0.72350000  0.30758000  0.53036000  1.0
  C  C190  1  0.77651000  0.30758000  0.03036000  1.0
  C  C191  1  0.27651000  0.69242000  0.46964000  1.0
  C  C192  1  0.36690000  0.55172000  0.99632000  1.0
  C  C193  1  0.86690000  0.44827000  0.50368000  1.0
  C  C194  1  0.63311000  0.44827000  0.00368000  1.0
  C  C195  1  0.13311000  0.55173000  0.49632000  1.0
  C  C196  1  0.49037000  0.59014000  0.97272000  1.0
  C  C197  1  0.99038000  0.40986000  0.52728000  1.0
  C  C198  1  0.50964000  0.40985000  0.02728000  1.0
  C  C199  1  0.00963000  0.59014000  0.47272000  1.0
  C  C200  1  0.37751000  0.46148000  0.02337000  1.0
  C  C201  1  0.87751000  0.53851000  0.47663000  1.0
  C  C202  1  0.62250000  0.53851000  0.97664000  1.0
  C  C203  1  0.12250000  0.46149000  0.52337000  1.0
  N  N204  1  0.83590000  0.36926000  0.78194000  1.0
  N  N205  1  0.33590000  0.63074000  0.71806000  1.0
  N  N206  1  0.16408000  0.63075000  0.21806000  1.0
  N  N207  1  0.66409000  0.36925000  0.28194000  1.0
  N  N208  1  0.82935000  0.86786000  0.00131000  1.0
  N  N209  1  0.32935000  0.13214000  0.49869000  1.0
  N  N210  1  0.17066000  0.13214000  0.99869000  1.0
  N  N211  1  0.67065000  0.86786000  0.50131000  1.0
  O  O212  1  0.06271000  0.14293000  0.56123000  1.0
  O  O213  1  0.56271000  0.85705000  0.93877000  1.0
  O  O214  1  0.93731000  0.85706000  0.43877000  1.0
  O  O215  1  0.43729000  0.14294000  0.06123000  1.0
  O  O216  1  0.85336000  0.05134000  0.56941000  1.0
  O  O217  1  0.35335000  0.94866000  0.93059000  1.0
  O  O218  1  0.14665000  0.94867000  0.43060000  1.0
  O  O219  1  0.64666000  0.05134000  0.06941000  1.0
  O  O220  1  0.47390000  0.14821000  0.95228000  1.0
  O  O221  1  0.97389000  0.85179000  0.54773000  1.0
  O  O222  1  0.52611000  0.85181000  0.04772000  1.0
  O  O223  1  0.02611000  0.14820000  0.45228000  1.0
  O  O224  1  0.68719000  0.05952000  0.95661000  1.0
  O  O225  1  0.18718000  0.94048000  0.54339000  1.0
  O  O226  1  0.31281000  0.94047000  0.04339000  1.0
  O  O227  1  0.81281000  0.05951000  0.45660000  1.0
  O  O228  1  0.23241000  0.59868000  0.99576000  1.0
  O  O229  1  0.73241000  0.40132000  0.50424000  1.0
  O  O230  1  0.76760000  0.40132000  0.00424000  1.0
  O  O231  1  0.26760000  0.59868000  0.49576000  1.0
