# generated using pymatgen
data_BaH4C8(N3O)2
_symmetry_space_group_name_H-M   'P 1'
_cell_length_a   6.76703000
_cell_length_b   10.89910000
_cell_length_c   17.61310000
_cell_angle_alpha   89.99990000
_cell_angle_beta   96.92750000
_cell_angle_gamma   89.99990000
_symmetry_Int_Tables_number   1
_chemical_formula_structural   BaH4C8(N3O)2
_chemical_formula_sum   'Ba4 H16 C32 N24 O8'
_cell_volume   1289.56243012
_cell_formula_units_Z   4
loop_
 _symmetry_equiv_pos_site_id
 _symmetry_equiv_pos_as_xyz
  1  'x, y, z'
loop_
 _atom_site_type_symbol
 _atom_site_label
 _atom_site_symmetry_multiplicity
 _atom_site_fract_x
 _atom_site_fract_y
 _atom_site_fract_z
 _atom_site_occupancy
  Ba  Ba0  1  0.24682000  0.85326000  0.02660000  1.0
  Ba  Ba1  1  0.25318000  0.35326000  0.47340000  1.0
  Ba  Ba2  1  0.75317000  0.14674000  0.97340000  1.0
  Ba  Ba3  1  0.74682000  0.64674000  0.52660000  1.0
  H  H4  1  0.88776000  0.98151000  0.12155000  1.0
  H  H5  1  0.61224000  0.48151000  0.37845000  1.0
  H  H6  1  0.11224000  0.01849000  0.87845000  1.0
  H  H7  1  0.38776000  0.51849000  0.62155000  1.0
  H  H8  1  0.79586000  0.87685000  0.06902000  1.0
  H  H9  1  0.70414000  0.37686000  0.43098000  1.0
  H  H10  1  0.20414000  0.12314000  0.93098000  1.0
  H  H11  1  0.29586000  0.62315000  0.56902000  1.0
  H  H12  1  0.54854000  0.06341000  0.12472000  1.0
  H  H13  1  0.95146000  0.56341000  0.37528000  1.0
  H  H14  1  0.45146000  0.93659000  0.87528000  1.0
  H  H15  1  0.04854000  0.43659000  0.62472000  1.0
  H  H16  1  0.36079000  0.13060000  0.08014000  1.0
  H  H17  1  0.13921000  0.63060000  0.41986000  1.0
  H  H18  1  0.63921000  0.86940000  0.91986000  1.0
  H  H19  1  0.86079000  0.36940000  0.58014000  1.0
  C  C20  1  0.33439000  0.91261000  0.33693000  1.0
  C  C21  1  0.16561000  0.41261000  0.16307000  1.0
  C  C22  1  0.66560000  0.08739000  0.66307000  1.0
  C  C23  1  0.83440000  0.58739000  0.83693000  1.0
  C  C24  1  0.30624000  0.90225000  0.25684000  1.0
  C  C25  1  0.19377000  0.40225000  0.24317000  1.0
  C  C26  1  0.69376000  0.09775000  0.74316000  1.0
  C  C27  1  0.80624000  0.59775000  0.75684000  1.0
  C  C28  1  0.34015000  0.02788000  0.37277000  1.0
  C  C29  1  0.15985000  0.52787000  0.12723000  1.0
  C  C30  1  0.65984000  0.97213000  0.62722000  1.0
  C  C31  1  0.84016000  0.47212000  0.87278000  1.0
  C  C32  1  0.35856000  0.80638000  0.38130000  1.0
  C  C33  1  0.14145000  0.30637000  0.11870000  1.0
  C  C34  1  0.64144000  0.19362000  0.61870000  1.0
  C  C35  1  0.85856000  0.69362000  0.88130000  1.0
  C  C36  1  0.67216000  0.54587000  0.15017000  1.0
  C  C37  1  0.82784000  0.04587000  0.34983000  1.0
  C  C38  1  0.32784000  0.45413000  0.84983000  1.0
  C  C39  1  0.17216000  0.95413000  0.65018000  1.0
  C  C40  1  0.70737000  0.54323000  0.22994000  1.0
  C  C41  1  0.79263000  0.04324000  0.27007000  1.0
  C  C42  1  0.29263000  0.45676000  0.77007000  1.0
  C  C43  1  0.20737000  0.95676000  0.72994000  1.0
  C  C44  1  0.65156000  0.65919000  0.11351000  1.0
  C  C45  1  0.84845000  0.15919000  0.38649000  1.0
  C  C46  1  0.34845000  0.34081000  0.88649000  1.0
  C  C47  1  0.15155000  0.84081000  0.61351000  1.0
  C  C48  1  0.66557000  0.43708000  0.10722000  1.0
  C  C49  1  0.83443000  0.93709000  0.39277000  1.0
  C  C50  1  0.33443000  0.56292000  0.89278000  1.0
  C  C51  1  0.16558000  0.06291000  0.60723000  1.0
  N  N52  1  0.28233000  0.89162000  0.19015000  1.0
  N  N53  1  0.21767000  0.39162000  0.30985000  1.0
  N  N54  1  0.71766000  0.10838000  0.80985000  1.0
  N  N55  1  0.78233000  0.60838000  0.69015000  1.0
  N  N56  1  0.34688000  0.12376000  0.40315000  1.0
  N  N57  1  0.15312000  0.62376000  0.09685000  1.0
  N  N58  1  0.65311000  0.87624000  0.59685000  1.0
  N  N59  1  0.84689000  0.37624000  0.90315000  1.0
  N  N60  1  0.37862000  0.71642000  0.41847000  1.0
  N  N61  1  0.12139000  0.21642000  0.08154000  1.0
  N  N62  1  0.62137000  0.28358000  0.58154000  1.0
  N  N63  1  0.87862000  0.78359000  0.91847000  1.0
  N  N64  1  0.73827000  0.54330000  0.29696000  1.0
  N  N65  1  0.76173000  0.04330000  0.20304000  1.0
  N  N66  1  0.26173000  0.45670000  0.70304000  1.0
  N  N67  1  0.23826000  0.95670000  0.79696000  1.0
  N  N68  1  0.63327000  0.75534000  0.08338000  1.0
  N  N69  1  0.86673000  0.25534000  0.41662000  1.0
  N  N70  1  0.36673000  0.24466000  0.91662000  1.0
  N  N71  1  0.13327000  0.74466000  0.58338000  1.0
  N  N72  1  0.66024000  0.34690000  0.07089000  1.0
  N  N73  1  0.83975000  0.84690000  0.42911000  1.0
  N  N74  1  0.33976000  0.65310000  0.92911000  1.0
  N  N75  1  0.16025000  0.15310000  0.57089000  1.0
  O  O76  1  0.89126000  0.94675000  0.06989000  1.0
  O  O77  1  0.60873000  0.44675000  0.43011000  1.0
  O  O78  1  0.10873000  0.05325000  0.93011000  1.0
  O  O79  1  0.39127000  0.55325000  0.56989000  1.0
  O  O80  1  0.46801000  0.07076000  0.07421000  1.0
  O  O81  1  0.03198000  0.57076000  0.42579000  1.0
  O  O82  1  0.53199000  0.92924000  0.92579000  1.0
  O  O83  1  0.96801000  0.42924000  0.57421000  1.0
