# generated using pymatgen
data_CdH5C7N3
_symmetry_space_group_name_H-M   'P 1'
_cell_length_a   8.57517000
_cell_length_b   8.57518000
_cell_length_c   14.63810000
_cell_angle_alpha   89.99910000
_cell_angle_beta   89.99940000
_cell_angle_gamma   113.81400000
_symmetry_Int_Tables_number   1
_chemical_formula_structural   CdH5C7N3
_chemical_formula_sum   'Cd4 H20 C28 N12'
_cell_volume   984.74962570
_cell_formula_units_Z   4
loop_
 _symmetry_equiv_pos_site_id
 _symmetry_equiv_pos_as_xyz
  1  'x, y, z'
loop_
 _atom_site_type_symbol
 _atom_site_label
 _atom_site_symmetry_multiplicity
 _atom_site_fract_x
 _atom_site_fract_y
 _atom_site_fract_z
 _atom_site_occupancy
  Cd  Cd0  1  0.00000000  0.50000000  0.00000000  1.0
  Cd  Cd1  1  0.50000000  1.00000000  0.50000000  1.0
  Cd  Cd2  1  0.50000000  0.50001000  0.25000000  1.0
  Cd  Cd3  1  0.50000000  0.49999000  0.75000000  1.0
  H  H4  1  0.82568000  0.19230000  0.14133000  1.0
  H  H5  1  0.80770000  0.17432000  0.64134000  1.0
  H  H6  1  0.19230000  0.82568000  0.64134000  1.0
  H  H7  1  0.17433000  0.80770000  0.14134000  1.0
  H  H8  1  0.17432000  0.80770000  0.85867000  1.0
  H  H9  1  0.19231000  0.82568000  0.35866000  1.0
  H  H10  1  0.80770000  0.17432000  0.35866000  1.0
  H  H11  1  0.82568000  0.19230000  0.85866000  1.0
  H  H12  1  0.67181000  0.87458000  0.14781000  1.0
  H  H13  1  0.12542000  0.32818000  0.64781000  1.0
  H  H14  1  0.87458000  0.67182000  0.64781000  1.0
  H  H15  1  0.32818000  0.12543000  0.14781000  1.0
  H  H16  1  0.32819000  0.12542000  0.85219000  1.0
  H  H17  1  0.87458000  0.67182000  0.35219000  1.0
  H  H18  1  0.12542000  0.32819000  0.35219000  1.0
  H  H19  1  0.67181000  0.87457000  0.85219000  1.0
  H  H20  1  0.59433000  0.71057000  0.00000000  1.0
  H  H21  1  0.28942000  0.40566000  0.49999000  1.0
  H  H22  1  0.71058000  0.59435000  0.50000000  1.0
  H  H23  1  0.40566000  0.28942000  0.00000000  1.0
  C  C24  1  0.27828000  0.46273000  0.16302000  1.0
  C  C25  1  0.53728000  0.72173000  0.66302000  1.0
  C  C26  1  0.46273000  0.27827000  0.66303000  1.0
  C  C27  1  0.72172000  0.53727000  0.16302000  1.0
  C  C28  1  0.72172000  0.53727000  0.83698000  1.0
  C  C29  1  0.46273000  0.27828000  0.33698000  1.0
  C  C30  1  0.53727000  0.72174000  0.33698000  1.0
  C  C31  1  0.27826000  0.46272000  0.83697000  1.0
  C  C32  1  0.78807000  0.11615000  0.07901000  1.0
  C  C33  1  0.88385000  0.21193000  0.57902000  1.0
  C  C34  1  0.11615000  0.78807000  0.57901000  1.0
  C  C35  1  0.21194000  0.88386000  0.07902000  1.0
  C  C36  1  0.21193000  0.88385000  0.92099000  1.0
  C  C37  1  0.11616000  0.78807000  0.42098000  1.0
  C  C38  1  0.88386000  0.21193000  0.42098000  1.0
  C  C39  1  0.78806000  0.11613000  0.92098000  1.0
  C  C40  1  0.70261000  0.93938000  0.08206000  1.0
  C  C41  1  0.06062000  0.29738000  0.58205000  1.0
  C  C42  1  0.93940000  0.70263000  0.58206000  1.0
  C  C43  1  0.29737000  0.06061000  0.08206000  1.0
  C  C44  1  0.29739000  0.06061000  0.91794000  1.0
  C  C45  1  0.93940000  0.70262000  0.41795000  1.0
  C  C46  1  0.06060000  0.29738000  0.41793000  1.0
  C  C47  1  0.70262000  0.93939000  0.91794000  1.0
  C  C48  1  0.65963000  0.84912000  0.00000000  1.0
  C  C49  1  0.15088000  0.34036000  0.50000000  1.0
  C  C50  1  0.84912000  0.65964000  0.50000000  1.0
  C  C51  1  0.34037000  0.15088000  0.00000000  1.0
  N  N52  1  0.16769000  0.45658000  0.11461000  1.0
  N  N53  1  0.54342000  0.83231000  0.61461000  1.0
  N  N54  1  0.45659000  0.16769000  0.61461000  1.0
  N  N55  1  0.83231000  0.54341000  0.11461000  1.0
  N  N56  1  0.83231000  0.54342000  0.88539000  1.0
  N  N57  1  0.45658000  0.16769000  0.38539000  1.0
  N  N58  1  0.54342000  0.83231000  0.38539000  1.0
  N  N59  1  0.16768000  0.45659000  0.88539000  1.0
  N  N60  1  0.83076000  0.20301000  0.00001000  1.0
  N  N61  1  0.79700000  0.16924000  0.50000000  1.0
  N  N62  1  0.20300000  0.83076000  0.50000000  1.0
  N  N63  1  0.16925000  0.79700000  0.00000000  1.0
