# generated using pymatgen
data_ZnH12C20(N3O2)2
_symmetry_space_group_name_H-M   'P 1'
_cell_length_a   9.20200000
_cell_length_b   10.19240000
_cell_length_c   12.64370000
_cell_angle_alpha   90.78140000
_cell_angle_beta   91.80860000
_cell_angle_gamma   103.94070000
_symmetry_Int_Tables_number   1
_chemical_formula_structural   ZnH12C20(N3O2)2
_chemical_formula_sum   'Zn2 H24 C40 N12 O8'
_cell_volume   1150.08057455
_cell_formula_units_Z   2
loop_
 _symmetry_equiv_pos_site_id
 _symmetry_equiv_pos_as_xyz
  1  'x, y, z'
loop_
 _atom_site_type_symbol
 _atom_site_label
 _atom_site_symmetry_multiplicity
 _atom_site_fract_x
 _atom_site_fract_y
 _atom_site_fract_z
 _atom_site_occupancy
  Zn  Zn0  1  0.14347000  0.37698000  0.46778000  1.0
  Zn  Zn1  1  0.85652000  0.62302000  0.53223000  1.0
  H  H2  1  0.10328000  0.90913000  0.44724000  1.0
  H  H3  1  0.89673000  0.09088000  0.55277000  1.0
  H  H4  1  0.14984000  0.53149000  0.26126000  1.0
  H  H5  1  0.85015000  0.46851000  0.73874000  1.0
  H  H6  1  0.58506000  0.56607000  0.73922000  1.0
  H  H7  1  0.41494000  0.43393000  0.26077000  1.0
  H  H8  1  0.11786000  0.21763000  0.67023000  1.0
  H  H9  1  0.88214000  0.78237000  0.32978000  1.0
  H  H10  1  0.47343000  0.73647000  0.37689000  1.0
  H  H11  1  0.52657000  0.26352000  0.62311000  1.0
  H  H12  1  0.26629000  0.20734000  0.84018000  1.0
  H  H13  1  0.73371000  0.79267000  0.15982000  1.0
  H  H14  1  0.85752000  0.19168000  0.37122000  1.0
  H  H15  1  0.14248000  0.80832000  0.62877000  1.0
  H  H16  1  0.62773000  0.96487000  0.33310000  1.0
  H  H17  1  0.37228000  0.03512000  0.66690000  1.0
  H  H18  1  0.51641000  0.16681000  0.35138000  1.0
  H  H19  1  0.48360000  0.83319000  0.64863000  1.0
  H  H20  1  0.42666000  0.55910000  0.57696000  1.0
  H  H21  1  0.57334000  0.44091000  0.42304000  1.0
  H  H22  1  0.97966000  0.54418000  0.10459000  1.0
  H  H23  1  0.02033000  0.45581000  0.89541000  1.0
  H  H24  1  0.67478000  0.18719000  0.21714000  1.0
  H  H25  1  0.32522000  0.81280000  0.78286000  1.0
  C  C26  1  0.24423000  0.17156000  0.41744000  1.0
  C  C27  1  0.75577000  0.82845000  0.58256000  1.0
  C  C28  1  0.21729000  0.92045000  0.42067000  1.0
  C  C29  1  0.78271000  0.07956000  0.57933000  1.0
  C  C30  1  0.04287000  0.45819000  0.24881000  1.0
  C  C31  1  0.95713000  0.54181000  0.75119000  1.0
  C  C32  1  0.18562000  0.66932000  0.43430000  1.0
  C  C33  1  0.81438000  0.33068000  0.56571000  1.0
  C  C34  1  0.48266000  0.48661000  0.72889000  1.0
  C  C35  1  0.51734000  0.51339000  0.27111000  1.0
  C  C36  1  0.43833000  0.38547000  0.80330000  1.0
  C  C37  1  0.56167000  0.61453000  0.19670000  1.0
  C  C38  1  0.22226000  0.29188000  0.69011000  1.0
  C  C39  1  0.77774000  0.70813000  0.30989000  1.0
  C  C40  1  0.30427000  0.04936000  0.39935000  1.0
  C  C41  1  0.69573000  0.95064000  0.60065000  1.0
  C  C42  1  0.42678000  0.82478000  0.38052000  1.0
  C  C43  1  0.57321000  0.17522000  0.61948000  1.0
  C  C44  1  0.81290000  0.36700000  0.14978000  1.0
  C  C45  1  0.18710000  0.63300000  0.85022000  1.0
  C  C46  1  0.30421000  0.28674000  0.78356000  1.0
  C  C47  1  0.69578000  0.71327000  0.21644000  1.0
  C  C48  1  0.87922000  0.26764000  0.31002000  1.0
  C  C49  1  0.12078000  0.73235000  0.68998000  1.0
  C  C50  1  0.51224000  0.95288000  0.35665000  1.0
  C  C51  1  0.48777000  0.04711000  0.64335000  1.0
  C  C52  1  0.27845000  0.80767000  0.41127000  1.0
  C  C53  1  0.72156000  0.19233000  0.58873000  1.0
  C  C54  1  0.53325000  0.38198000  0.89856000  1.0
  C  C55  1  0.46675000  0.61802000  0.10144000  1.0
  C  C56  1  0.45127000  0.06492000  0.36622000  1.0
  C  C57  1  0.54873000  0.93508000  0.63378000  1.0
  C  C58  1  0.39403000  0.48333000  0.63719000  1.0
  C  C59  1  0.60597000  0.51667000  0.36281000  1.0
  C  C60  1  0.94896000  0.46452000  0.16189000  1.0
  C  C61  1  0.05104000  0.53548000  0.83811000  1.0
  C  C62  1  0.70883000  0.37285000  0.06012000  1.0
  C  C63  1  0.29116000  0.62715000  0.93987000  1.0
  C  C64  1  0.77886000  0.26521000  0.22499000  1.0
  C  C65  1  0.22114000  0.73478000  0.77501000  1.0
  N  N66  1  0.00808000  0.36334000  0.32262000  1.0
  N  N67  1  0.99191000  0.63666000  0.67737000  1.0
  N  N68  1  0.26679000  0.38781000  0.61773000  1.0
  N  N69  1  0.73320000  0.61220000  0.38228000  1.0
  N  N70  1  0.74552000  0.48065000  0.99655000  1.0
  N  N71  1  0.25448000  0.51935000  0.00345000  1.0
  N  N72  1  0.65609000  0.48537000  0.91420000  1.0
  N  N73  1  0.34391000  0.51463000  0.08580000  1.0
  N  N74  1  0.49176000  0.27827000  0.96583000  1.0
  N  N75  1  0.50824000  0.72173000  0.03416000  1.0
  N  N76  1  0.58138000  0.27370000  0.04829000  1.0
  N  N77  1  0.41861000  0.72629000  0.95171000  1.0
  O  O78  1  0.25412000  0.57411000  0.44182000  1.0
  O  O79  1  0.74588000  0.42589000  0.55818000  1.0
  O  O80  1  0.04551000  0.65324000  0.44101000  1.0
  O  O81  1  0.95448000  0.34677000  0.55899000  1.0
  O  O82  1  0.11695000  0.15720000  0.45950000  1.0
  O  O83  1  0.88307000  0.84281000  0.54050000  1.0
  O  O84  1  0.32282000  0.28789000  0.39390000  1.0
  O  O85  1  0.67719000  0.71212000  0.60610000  1.0
