# generated using pymatgen
data_Zn2H3C12S2NO9
_symmetry_space_group_name_H-M   'P 1'
_cell_length_a   19.60900000
_cell_length_b   19.62590000
_cell_length_c   33.35690000
_cell_angle_alpha   79.16310000
_cell_angle_beta   79.18350000
_cell_angle_gamma   63.84860000
_symmetry_Int_Tables_number   1
_chemical_formula_structural   Zn2H3C12S2NO9
_chemical_formula_sum   'Zn16 H24 C96 S16 N8 O72'
_cell_volume   11237.35773195
_cell_formula_units_Z   8
loop_
 _symmetry_equiv_pos_site_id
 _symmetry_equiv_pos_as_xyz
  1  'x, y, z'
loop_
 _atom_site_type_symbol
 _atom_site_label
 _atom_site_symmetry_multiplicity
 _atom_site_fract_x
 _atom_site_fract_y
 _atom_site_fract_z
 _atom_site_occupancy
  Zn  Zn0  1  0.59965000  0.94619000  0.52188000  1.0
  Zn  Zn1  1  0.51741000  0.01154000  0.43971000  1.0
  Zn  Zn2  1  0.43567000  0.94340000  0.51829000  1.0
  Zn  Zn3  1  0.44457000  0.09873000  0.52096000  1.0
  Zn  Zn4  1  0.64928000  0.30750000  0.72864000  1.0
  Zn  Zn5  1  0.80798000  0.31314000  0.73465000  1.0
  Zn  Zn6  1  0.73576000  0.22867000  0.81009000  1.0
  Zn  Zn7  1  0.80296000  0.15344000  0.72696000  1.0
  Zn  Zn8  1  0.23469000  0.73044000  0.31105000  1.0
  Zn  Zn9  1  0.30517000  0.64839000  0.22950000  1.0
  Zn  Zn10  1  0.15351000  0.80528000  0.22878000  1.0
  Zn  Zn11  1  0.31370000  0.80766000  0.23514000  1.0
  Zn  Zn12  1  0.94043000  0.43840000  0.01792000  1.0
  Zn  Zn13  1  0.94556000  0.59841000  0.02191000  1.0
  Zn  Zn14  1  0.09983000  0.44422000  0.02254000  1.0
  Zn  Zn15  1  0.01726000  0.51375000  0.94010000  1.0
  H  H16  1  0.74731000  0.04790000  0.65087000  1.0
  H  H17  1  0.54418000  0.26022000  0.64641000  1.0
  H  H18  1  0.69787000  0.00065000  0.60285000  1.0
  H  H19  1  0.39939000  0.90451000  0.30203000  1.0
  H  H20  1  0.30982000  0.78383000  0.40374000  1.0
  H  H21  1  0.44184000  0.95471000  0.35187000  1.0
  H  H22  1  0.76055000  0.53804000  0.65769000  1.0
  H  H23  1  0.29788000  0.51562000  0.39964000  1.0
  H  H24  1  0.02140000  0.79512000  0.39816000  1.0
  H  H25  1  0.03330000  0.04968000  0.65768000  1.0
  H  H26  1  0.95065000  0.44619000  0.84893000  1.0
  H  H27  1  0.83968000  0.35204000  0.95356000  1.0
  H  H28  1  0.89729000  0.40079000  0.80204000  1.0
  H  H29  1  0.23151000  0.45380000  0.85220000  1.0
  H  H30  1  0.85912000  0.83691000  0.95785000  1.0
  H  H31  1  0.20995000  0.50059000  0.09788000  1.0
  H  H32  1  0.99683000  0.70287000  0.10146000  1.0
  H  H33  1  0.25578000  0.55046000  0.14632000  1.0
  H  H34  1  0.71629000  0.70262000  0.09626000  1.0
  H  H35  1  0.99094000  0.21256000  0.09339000  1.0
  H  H36  1  0.47402000  0.19953000  0.57628000  1.0
  H  H37  1  0.37486000  0.84563000  0.47577000  1.0
  H  H38  1  0.76126000  0.28737000  0.88967000  1.0
  H  H39  1  0.05733000  0.77536000  0.17057000  1.0
  C  C40  1  0.68319000  0.93559000  0.43952000  1.0
  C  C41  1  0.42800000  0.92706000  0.43331000  1.0
  C  C42  1  0.55900000  0.82163000  0.56249000  1.0
  C  C43  1  0.31516000  0.06456000  0.56136000  1.0
  C  C44  1  0.56846000  0.07386000  0.56865000  1.0
  C  C45  1  0.44092000  0.17791000  0.43822000  1.0
  C  C46  1  0.68919000  0.43492000  0.68741000  1.0
  C  C47  1  0.81030000  0.32459000  0.82218000  1.0
  C  C48  1  0.56923000  0.30669000  0.81168000  1.0
  C  C49  1  0.81595000  0.06458000  0.80874000  1.0
  C  C50  1  0.67722000  0.18527000  0.68005000  1.0
  C  C51  1  0.93507000  0.18878000  0.69260000  1.0
  C  C52  1  0.30927000  0.56313000  0.31257000  1.0
  C  C53  1  0.18144000  0.68048000  0.18002000  1.0
  C  C54  1  0.06656000  0.81146000  0.31132000  1.0
  C  C55  1  0.19122000  0.93238000  0.19116000  1.0
  C  C56  1  0.32481000  0.81214000  0.32099000  1.0
  C  C57  1  0.43070000  0.68933000  0.18800000  1.0
  C  C58  1  0.81598000  0.56264000  0.06183000  1.0
  C  C59  1  0.07198000  0.57024000  0.06827000  1.0
  C  C60  1  0.06215000  0.31537000  0.06292000  1.0
  C  C61  1  0.18504000  0.43652000  0.93903000  1.0
  C  C62  1  0.92989000  0.42811000  0.93225000  1.0
  C  C63  1  0.93784000  0.68223000  0.93811000  1.0
  C  C64  1  0.59487000  0.10372000  0.59710000  1.0
  C  C65  1  0.64832000  0.15681000  0.65135000  1.0
  C  C66  1  0.55088000  0.17820000  0.60927000  1.0
  C  C67  1  0.69260000  0.08325000  0.63916000  1.0
  C  C68  1  0.57822000  0.20350000  0.63682000  1.0
  C  C69  1  0.66529000  0.05744000  0.61261000  1.0
  C  C70  1  0.40162000  0.89631000  0.40535000  1.0
  C  C71  1  0.35199000  0.84137000  0.35018000  1.0
  C  C72  1  0.36448000  0.84694000  0.42036000  1.0
  C  C73  1  0.38979000  0.88930000  0.33502000  1.0
  C  C74  1  0.33913000  0.82082000  0.39226000  1.0
  C  C75  1  0.41345000  0.91666000  0.36260000  1.0
  C  C76  1  0.54553000  0.69589000  0.59658000  1.0
  C  C77  1  0.70359000  0.55477000  0.64969000  1.0
  C  C78  1  0.58372000  0.74321000  0.58435000  1.0
  C  C79  1  0.66375000  0.50970000  0.66193000  1.0
  C  C80  1  0.65966000  0.62312000  0.62621000  1.0
  C  C81  1  0.58772000  0.62809000  0.62116000  1.0
  C  C82  1  0.42113000  0.26948000  0.36916000  1.0
  C  C83  1  0.32630000  0.47144000  0.37918000  1.0
  C  C84  1  0.41311000  0.25167000  0.41176000  1.0
  C  C85  1  0.33524000  0.48730000  0.33684000  1.0
  C  C86  1  0.35869000  0.39168000  0.39083000  1.0
  C  C87  1  0.39151000  0.34917000  0.35700000  1.0
  C  C88  1  0.77366000  0.92819000  0.37066000  1.0
  C  C89  1  0.97635000  0.82539000  0.37829000  1.0
  C  C90  1  0.75716000  0.91683000  0.41320000  1.0
  C  C91  1  0.99091000  0.83708000  0.33595000  1.0
  C  C92  1  0.89678000  0.85809000  0.39071000  1.0
  C  C93  1  0.85299000  0.89369000  0.35750000  1.0
  C  C94  1  0.19493000  0.16265000  0.60156000  1.0
  C  C95  1  0.05217000  0.09545000  0.65198000  1.0
  C  C96  1  0.23867000  0.09350000  0.58538000  1.0
  C  C97  1  0.01015000  0.16474000  0.66749000  1.0
  C  C98  1  0.12041000  0.09455000  0.62850000  1.0
  C  C99  1  0.12825000  0.16314000  0.62683000  1.0
  C  C100  1  0.83890000  0.35139000  0.85110000  1.0
  C  C101  1  0.89833000  0.40137000  0.90397000  1.0
  C  C102  1  0.82209000  0.33743000  0.89441000  1.0
  C  C103  1  0.91488000  0.41578000  0.86108000  1.0
  C  C104  1  0.85248000  0.36284000  0.92041000  1.0
  C  C105  1  0.88526000  0.39080000  0.83531000  1.0
  C  C106  1  0.47870000  0.32545000  0.88122000  1.0
  C  C107  1  0.27615000  0.42346000  0.87233000  1.0
  C  C108  1  0.49587000  0.33517000  0.83862000  1.0
  C  C109  1  0.26089000  0.41169000  0.91460000  1.0
  C  C110  1  0.35587000  0.39080000  0.86033000  1.0
  C  C111  1  0.39901000  0.35545000  0.89381000  1.0
  C  C112  1  0.88428000  0.91501000  0.82019000  1.0
  C  C113  1  0.87621000  0.82837000  0.92558000  1.0
  C  C114  1  0.84554000  0.98797000  0.83263000  1.0
  C  C115  1  0.91419000  0.75678000  0.91231000  1.0
  C  C116  1  0.86417000  0.88593000  0.89168000  1.0
  C  C117  1  0.89364000  0.85655000  0.85356000  1.0
  C  C118  1  0.15255000  0.65365000  0.15126000  1.0
  C  C119  1  0.10063000  0.59914000  0.09691000  1.0
  C  C120  1  0.07847000  0.69749000  0.13848000  1.0
  C  C121  1  0.17410000  0.55534000  0.10939000  1.0
  C  C122  1  0.05354000  0.66935000  0.11119000  1.0
  C  C123  1  0.19921000  0.58291000  0.13619000  1.0
  C  C124  1  0.54669000  0.59596000  0.14340000  1.0
  C  C125  1  0.69683000  0.65740000  0.10086000  1.0
  C  C126  1  0.50298000  0.66472000  0.15998000  1.0
  C  C127  1  0.73963000  0.58786000  0.08570000  1.0
  C  C128  1  0.62678000  0.65962000  0.12247000  1.0
  C  C129  1  0.61810000  0.59183000  0.12287000  1.0
  C  C130  1  0.21010000  0.05130000  0.14991000  1.0
  C  C131  1  0.04842000  0.19546000  0.10073000  1.0
  C  C132  1  0.17078000  0.00542000  0.16388000  1.0
  C  C133  1  0.08860000  0.24008000  0.08777000  1.0
  C  C134  1  0.09266000  0.12715000  0.12410000  1.0
  C  C135  1  0.16540000  0.12156000  0.12804000  1.0
  S  S136  1  0.67260000  0.70286000  0.60182000  1.0
  S  S137  1  0.57326000  0.54966000  0.64554000  1.0
  S  S138  1  0.36692000  0.33291000  0.43673000  1.0
  S  S139  1  0.38348000  0.40655000  0.31094000  1.0
  S  S140  1  0.83940000  0.86600000  0.43711000  1.0
  S  S141  1  0.90901000  0.88657000  0.31099000  1.0
  S  S142  1  0.19641000  0.03024000  0.60019000  1.0
  S  S143  1  0.05296000  0.22841000  0.65446000  1.0
  S  S144  1  0.41402000  0.38388000  0.81425000  1.0
  S  S145  1  0.34217000  0.36092000  0.93997000  1.0
  S  S146  1  0.82312000  0.98444000  0.88547000  1.0
  S  S147  1  0.93478000  0.75854000  0.85906000  1.0
  S  S148  1  0.54843000  0.72545000  0.14877000  1.0
  S  S149  1  0.69606000  0.52480000  0.09760000  1.0
  S  S150  1  0.07986000  0.04753000  0.14877000  1.0
  S  S151  1  0.17920000  0.20048000  0.10396000  1.0
  N  N152  1  0.47283000  0.70779000  0.58477000  1.0
  N  N153  1  0.45040000  0.21647000  0.33822000  1.0
  N  N154  1  0.71940000  0.97400000  0.34112000  1.0
  N  N155  1  0.20854000  0.23145000  0.59270000  1.0
  N  N156  1  0.53260000  0.29343000  0.91169000  1.0
  N  N157  1  0.91807000  0.89589000  0.77878000  1.0
  N  N158  1  0.52463000  0.53398000  0.14354000  1.0
  N  N159  1  0.28982000  0.03168000  0.15340000  1.0
  O  O160  1  0.50020000  0.99909000  0.50039000  1.0
  O  O161  1  0.68526000  0.93538000  0.47772000  1.0
  O  O162  1  0.45611000  0.97491000  0.41786000  1.0
  O  O163  1  0.48784000  0.86130000  0.56086000  1.0
  O  O164  1  0.62538000  0.94757000  0.42265000  1.0
  O  O165  1  0.61300000  0.84280000  0.54834000  1.0
  O  O166  1  0.42068000  0.90343000  0.47233000  1.0
  O  O167  1  0.33197000  0.00613000  0.54321000  1.0
  O  O168  1  0.50592000  0.12051000  0.55300000  1.0
  O  O169  1  0.35810000  0.09741000  0.56176000  1.0
  O  O170  1  0.60757000  0.00504000  0.56101000  1.0
  O  O171  1  0.49325000  0.12002000  0.42257000  1.0
  O  O172  1  0.41010000  0.18069000  0.47577000  1.0
  O  O173  1  0.74894000  0.25157000  0.75004000  1.0
  O  O174  1  0.64289000  0.40309000  0.69439000  1.0
  O  O175  1  0.82866000  0.33829000  0.78386000  1.0
  O  O176  1  0.62664000  0.25196000  0.82669000  1.0
  O  O177  1  0.75457000  0.40910000  0.70011000  1.0
  O  O178  1  0.56668000  0.33924000  0.77457000  1.0
  O  O179  1  0.76814000  0.28810000  0.83775000  1.0
  O  O180  1  0.79696000  0.12057000  0.82933000  1.0
  O  O181  1  0.74646000  0.14517000  0.68723000  1.0
  O  O182  1  0.80935000  0.06894000  0.77112000  1.0
  O  O183  1  0.63084000  0.24718000  0.69495000  1.0
  O  O184  1  0.90696000  0.25587000  0.70359000  1.0
  O  O185  1  0.90514000  0.14099000  0.70065000  1.0
  O  O186  1  0.25152000  0.74821000  0.25082000  1.0
  O  O187  1  0.27742000  0.62125000  0.33241000  1.0
  O  O188  1  0.24864000  0.63947000  0.18980000  1.0
  O  O189  1  0.06663000  0.83057000  0.27242000  1.0
  O  O190  1  0.32110000  0.56324000  0.27352000  1.0
  O  O191  1  0.12448000  0.77303000  0.33092000  1.0
  O  O192  1  0.13566000  0.74512000  0.19379000  1.0
  O  O193  1  0.14847000  0.89795000  0.19185000  1.0
  O  O194  1  0.34817000  0.82209000  0.28285000  1.0
  O  O195  1  0.24624000  0.91148000  0.21215000  1.0
  O  O196  1  0.28039000  0.77963000  0.33653000  1.0
  O  O197  1  0.40834000  0.63830000  0.20571000  1.0
  O  O198  1  0.39883000  0.76043000  0.19286000  1.0
  O  O199  1  0.00073000  0.49897000  0.00045000  1.0
  O  O200  1  0.84464000  0.49487000  0.05172000  1.0
  O  O201  1  0.00531000  0.61304000  0.05770000  1.0
  O  O202  1  0.10822000  0.34752000  0.05576000  1.0
  O  O203  1  0.84626000  0.61018000  0.05341000  1.0
  O  O204  1  0.99629000  0.34126000  0.05085000  1.0
  O  O205  1  0.11652000  0.50486000  0.05668000  1.0
  O  O206  1  0.18505000  0.41804000  0.97789000  1.0
  O  O207  1  0.97146000  0.46326000  0.91546000  1.0
  O  O208  1  0.12700000  0.47388000  0.91933000  1.0
  O  O209  1  0.91276000  0.41385000  0.97079000  1.0
  O  O210  1  0.92261000  0.68360000  0.97691000  1.0
  O  O211  1  0.97186000  0.62323000  0.91884000  1.0
  O  O212  1  0.48331000  0.22650000  0.59575000  1.0
  O  O213  1  0.35172000  0.82364000  0.46058000  1.0
  O  O214  1  0.77812000  0.30068000  0.91228000  1.0
  O  O215  1  0.03013000  0.76565000  0.15135000  1.0
  O  O216  1  0.43663000  0.67595000  0.60952000  1.0
  O  O217  1  0.45334000  0.74474000  0.55135000  1.0
  O  O218  1  0.47809000  0.23936000  0.30461000  1.0
  O  O219  1  0.44297000  0.15592000  0.34627000  1.0
  O  O220  1  0.73854000  0.95373000  0.30598000  1.0
  O  O221  1  0.66145000  0.03000000  0.35190000  1.0
  O  O222  1  0.17984000  0.27549000  0.61980000  1.0
  O  O223  1  0.24358000  0.24351000  0.55931000  1.0
  O  O224  1  0.50964000  0.26552000  0.94523000  1.0
  O  O225  1  0.59450000  0.29838000  0.90346000  1.0
  O  O226  1  0.92418000  0.83338000  0.77135000  1.0
  O  O227  1  0.94104000  0.93959000  0.75478000  1.0
  O  O228  1  0.57850000  0.46914000  0.14289000  1.0
  O  O229  1  0.45679000  0.54921000  0.14244000  1.0
  O  O230  1  0.30466000  0.08676000  0.15454000  1.0
  O  O231  1  0.33694000  0.96435000  0.15309000  1.0
