# generated using pymatgen
data_AlH4C17NCl4O7
_symmetry_space_group_name_H-M   'P 1'
_cell_length_a   6.63817000
_cell_length_b   21.56620000
_cell_length_c   24.29050000
_cell_angle_alpha   99.03060000
_cell_angle_beta   89.99580000
_cell_angle_gamma   89.99150000
_symmetry_Int_Tables_number   1
_chemical_formula_structural   AlH4C17NCl4O7
_chemical_formula_sum   'Al4 H16 C68 N4 Cl16 O28'
_cell_volume   3434.32644156
_cell_formula_units_Z   4
loop_
 _symmetry_equiv_pos_site_id
 _symmetry_equiv_pos_as_xyz
  1  'x, y, z'
loop_
 _atom_site_type_symbol
 _atom_site_label
 _atom_site_symmetry_multiplicity
 _atom_site_fract_x
 _atom_site_fract_y
 _atom_site_fract_z
 _atom_site_occupancy
  Al  Al0  1  0.20061000  0.75069000  0.25167000  1.0
  Al  Al1  1  0.79279000  0.24918000  0.74877000  1.0
  Al  Al2  1  0.70063000  0.74933000  0.24836000  1.0
  Al  Al3  1  0.29278000  0.25082000  0.75124000  1.0
  H  H4  1  0.31983000  0.40789000  0.66347000  1.0
  H  H5  1  0.67380000  0.59118000  0.33607000  1.0
  H  H6  1  0.81988000  0.09207000  0.83652000  1.0
  H  H7  1  0.17363000  0.90880000  0.16390000  1.0
  H  H8  1  0.76227000  0.32057000  0.60199000  1.0
  H  H9  1  0.23056000  0.67911000  0.39760000  1.0
  H  H10  1  0.26217000  0.17940000  0.89799000  1.0
  H  H11  1  0.73054000  0.82086000  0.10243000  1.0
  H  H12  1  0.78536000  0.35395000  0.03245000  1.0
  H  H13  1  0.28735000  0.63476000  0.97727000  1.0
  H  H14  1  0.28780000  0.14628000  0.46732000  1.0
  H  H15  1  0.78556000  0.86495000  0.52303000  1.0
  H  H16  1  0.44745000  0.66701000  0.23814000  1.0
  H  H17  1  0.54646000  0.33292000  0.76318000  1.0
  H  H18  1  0.94738000  0.83302000  0.26174000  1.0
  H  H19  1  0.04652000  0.16706000  0.73701000  1.0
  C  C20  1  0.45218000  0.83021000  0.33184000  1.0
  C  C21  1  0.53992000  0.16991000  0.66833000  1.0
  C  C22  1  0.95220000  0.66980000  0.16819000  1.0
  C  C23  1  0.03985000  0.33011000  0.83168000  1.0
  C  C24  1  0.44975000  0.82072000  0.18197000  1.0
  C  C25  1  0.54359000  0.17980000  0.81844000  1.0
  C  C26  1  0.94983000  0.67929000  0.31805000  1.0
  C  C27  1  0.04349000  0.32017000  0.68155000  1.0
  C  C28  1  0.18102000  0.44511000  0.59530000  1.0
  C  C29  1  0.81295000  0.55421000  0.40431000  1.0
  C  C30  1  0.68100000  0.05484000  0.90468000  1.0
  C  C31  1  0.31283000  0.94575000  0.09567000  1.0
  C  C32  1  0.19426000  0.40452000  0.63434000  1.0
  C  C33  1  0.79912000  0.59482000  0.36529000  1.0
  C  C34  1  0.69426000  0.09544000  0.86564000  1.0
  C  C35  1  0.29898000  0.90515000  0.13469000  1.0
  C  C36  1  0.04116000  0.36052000  0.63708000  1.0
  C  C37  1  0.95157000  0.63901000  0.36258000  1.0
  C  C38  1  0.54117000  0.13945000  0.86292000  1.0
  C  C39  1  0.45148000  0.86098000  0.13743000  1.0
  C  C40  1  0.88016000  0.35506000  0.59938000  1.0
  C  C41  1  0.11280000  0.64458000  0.40024000  1.0
  C  C42  1  0.38009000  0.14491000  0.90060000  1.0
  C  C43  1  0.61276000  0.85540000  0.09977000  1.0
  C  C44  1  0.87327000  0.39346000  0.55860000  1.0
  C  C45  1  0.12044000  0.60612000  0.44095000  1.0
  C  C46  1  0.37320000  0.10649000  0.94137000  1.0
  C  C47  1  0.62040000  0.89383000  0.05904000  1.0
  C  C48  1  0.02061000  0.44079000  0.55612000  1.0
  C  C49  1  0.97356000  0.55866000  0.44345000  1.0
  C  C50  1  0.52055000  0.05915000  0.94386000  1.0
  C  C51  1  0.47349000  0.94129000  0.05652000  1.0
  C  C52  1  0.00598000  0.48185000  0.51677000  1.0
  C  C53  1  0.98877000  0.51756000  0.48274000  1.0
  C  C54  1  0.50593000  0.01809000  0.98320000  1.0
  C  C55  1  0.48872000  0.98239000  0.01724000  1.0
  C  C56  1  0.07006000  0.62906000  0.07081000  1.0
  C  C57  1  0.95077000  0.36587000  0.93255000  1.0
  C  C58  1  0.56948000  0.87084000  0.42930000  1.0
  C  C59  1  0.45156000  0.13421000  0.56739000  1.0
  C  C60  1  0.96408000  0.61874000  0.11824000  1.0
  C  C61  1  0.03614000  0.37907000  0.88319000  1.0
  C  C62  1  0.46398000  0.88124000  0.38181000  1.0
  C  C63  1  0.53627000  0.12094000  0.61682000  1.0
  C  C64  1  0.87630000  0.55980000  0.11982000  1.0
  C  C65  1  0.11986000  0.43844000  0.88166000  1.0
  C  C66  1  0.37664000  0.94023000  0.38020000  1.0
  C  C67  1  0.61935000  0.06150000  0.61841000  1.0
  C  C68  1  0.90544000  0.50869000  0.07620000  1.0
  C  C69  1  0.13223000  0.48419000  0.93000000  1.0
  C  C70  1  0.40618000  0.99134000  0.42379000  1.0
  C  C71  1  0.63162000  0.01570000  0.57011000  1.0
  C  C72  1  0.00955000  0.52042000  0.02693000  1.0
  C  C73  1  0.02805000  0.47238000  0.97910000  1.0
  C  C74  1  0.50962000  0.97954000  0.47313000  1.0
  C  C75  1  0.52812000  0.02759000  0.52095000  1.0
  C  C76  1  0.09286000  0.58114000  0.02451000  1.0
  C  C77  1  0.93790000  0.41241000  0.98030000  1.0
  C  C78  1  0.59218000  0.91874000  0.47561000  1.0
  C  C79  1  0.43866000  0.08765000  0.51966000  1.0
  C  C80  1  0.83399000  0.44587000  0.07595000  1.0
  C  C81  1  0.23365000  0.54332000  0.93345000  1.0
  C  C82  1  0.33564000  0.05425000  0.42393000  1.0
  C  C83  1  0.73239000  0.95646000  0.56676000  1.0
  C  C84  1  0.84408000  0.40056000  0.03011000  1.0
  C  C85  1  0.20858000  0.59051000  0.97725000  1.0
  C  C86  1  0.34570000  0.09957000  0.46975000  1.0
  C  C87  1  0.70726000  0.90927000  0.52297000  1.0
  N  N88  1  0.76541000  0.42235000  0.12690000  1.0
  N  N89  1  0.39691000  0.55377000  0.89447000  1.0
  N  N90  1  0.26868000  0.07783000  0.37285000  1.0
  N  N91  1  0.89519000  0.94591000  0.60583000  1.0
  Cl  Cl92  1  0.36118000  0.50235000  0.59486000  1.0
  Cl  Cl93  1  0.63358000  0.49681000  0.40472000  1.0
  Cl  Cl94  1  0.86124000  0.99759000  0.90513000  1.0
  Cl  Cl95  1  0.13339000  0.00315000  0.09524000  1.0
  Cl  Cl96  1  0.68155000  0.38383000  0.51039000  1.0
  Cl  Cl97  1  0.31266000  0.61575000  0.48903000  1.0
  Cl  Cl98  1  0.18145000  0.11613000  0.98959000  1.0
  Cl  Cl99  1  0.81264000  0.88417000  0.01096000  1.0
  Cl  Cl100  1  0.16734000  0.70268000  0.06805000  1.0
  Cl  Cl101  1  0.85935000  0.29146000  0.93475000  1.0
  Cl  Cl102  1  0.66640000  0.79716000  0.43206000  1.0
  Cl  Cl103  1  0.36094000  0.20871000  0.56513000  1.0
  Cl  Cl104  1  0.72649000  0.55176000  0.17619000  1.0
  Cl  Cl105  1  0.18985000  0.45596000  0.81755000  1.0
  Cl  Cl106  1  0.22691000  0.94836000  0.32383000  1.0
  Cl  Cl107  1  0.68846000  0.04395000  0.68260000  1.0
  O  O108  1  0.62118000  0.80263000  0.19660000  1.0
  O  O109  1  0.37256000  0.19781000  0.80342000  1.0
  O  O110  1  0.12125000  0.69746000  0.30349000  1.0
  O  O111  1  0.87247000  0.30208000  0.69649000  1.0
  O  O112  1  0.27986000  0.80954000  0.31641000  1.0
  O  O113  1  0.71249000  0.18910000  0.68528000  1.0
  O  O114  1  0.77986000  0.69054000  0.18357000  1.0
  O  O115  1  0.21250000  0.31082000  0.81480000  1.0
  O  O116  1  0.28034000  0.80826000  0.20253000  1.0
  O  O117  1  0.71373000  0.19236000  0.79849000  1.0
  O  O118  1  0.78047000  0.69169000  0.29742000  1.0
  O  O119  1  0.21356000  0.30770000  0.70160000  1.0
  O  O120  1  0.11981000  0.68631000  0.19083000  1.0
  O  O121  1  0.87133000  0.31311000  0.81009000  1.0
  O  O122  1  0.61983000  0.81363000  0.30926000  1.0
  O  O123  1  0.37129000  0.18700000  0.68984000  1.0
  O  O124  1  0.45008000  0.71241000  0.24617000  1.0
  O  O125  1  0.54358000  0.28763000  0.75345000  1.0
  O  O126  1  0.95004000  0.78762000  0.25386000  1.0
  O  O127  1  0.04362000  0.21237000  0.74657000  1.0
  O  O128  1  0.59257000  0.40099000  0.12688000  1.0
  O  O129  1  0.89242000  0.42279000  0.16417000  1.0
  O  O130  1  0.39321000  0.60253000  0.87378000  1.0
  O  O131  1  0.53286000  0.51374000  0.88843000  1.0
  O  O132  1  0.09666000  0.09980000  0.37270000  1.0
  O  O133  1  0.39626000  0.07679000  0.33564000  1.0
  O  O134  1  0.89087000  0.89718000  0.62655000  1.0
  O  O135  1  0.03136000  0.98585000  0.61193000  1.0
