# generated using pymatgen
data_Zn4H48C56Br4O13
_symmetry_space_group_name_H-M   'P 1'
_cell_length_a   23.63030163
_cell_length_b   23.63040000
_cell_length_c   23.62790000
_cell_angle_alpha   107.38100000
_cell_angle_beta   113.74305322
_cell_angle_gamma   107.37904366
_symmetry_Int_Tables_number   1
_chemical_formula_structural   Zn4H48C56Br4O13
_chemical_formula_sum   'Zn8 H96 C112 Br8 O26'
_cell_volume   10113.44098589
_cell_formula_units_Z   2
loop_
 _symmetry_equiv_pos_site_id
 _symmetry_equiv_pos_as_xyz
  1  'x, y, z'
loop_
 _atom_site_type_symbol
 _atom_site_label
 _atom_site_symmetry_multiplicity
 _atom_site_fract_x
 _atom_site_fract_y
 _atom_site_fract_z
 _atom_site_occupancy
  Zn  Zn0  1  0.51168000  0.55192000  0.45161000  1.0
  Zn  Zn1  1  0.54843000  0.44815000  0.48835000  1.0
  Zn  Zn2  1  0.54018000  0.55192000  0.60030000  1.0
  Zn  Zn3  1  0.39971000  0.44811000  0.45972000  1.0
  Zn  Zn4  1  0.98825000  0.43989000  0.04018000  1.0
  Zn  Zn5  1  0.95166000  0.43994000  0.89970000  1.0
  Zn  Zn6  1  0.95970000  0.56003000  0.01154000  1.0
  Zn  Zn7  1  0.10030000  0.56012000  0.04853000  1.0
  H  H8  1  0.83504000  0.19823000  0.98624000  1.0
  H  H9  1  0.84236000  0.27203000  0.97860000  1.0
  H  H10  1  0.91838000  0.26418000  0.01742000  1.0
  H  H11  1  0.86187000  0.19838000  0.71132000  1.0
  H  H12  1  0.92896000  0.27191000  0.79279000  1.0
  H  H13  1  0.84521000  0.26459000  0.74707000  1.0
  H  H14  1  0.76140000  0.11420000  0.65445000  1.0
  H  H15  1  0.74326000  0.03961000  0.66255000  1.0
  H  H16  1  0.82574000  0.08701000  0.67655000  1.0
  H  H17  1  0.85244000  0.11468000  0.95994000  1.0
  H  H18  1  0.79721000  0.03988000  0.87740000  1.0
  H  H19  1  0.76068000  0.08621000  0.90959000  1.0
  H  H20  1  0.67556000  0.90754000  0.81871000  1.0
  H  H21  1  0.76093000  0.94088000  0.83372000  1.0
  H  H22  1  0.72555000  0.86495000  0.83650000  1.0
  H  H23  1  0.73265000  0.90799000  0.58949000  1.0
  H  H24  1  0.67988000  0.94066000  0.60707000  1.0
  H  H25  1  0.64013000  0.86481000  0.52854000  1.0
  H  H26  1  0.57083000  0.73296000  0.47450000  1.0
  H  H27  1  0.62919000  0.70184000  0.50550000  1.0
  H  H28  1  0.66164000  0.78098000  0.50795000  1.0
  H  H29  1  0.66255000  0.73288000  0.75851000  1.0
  H  H30  1  0.57305000  0.70193000  0.69658000  1.0
  H  H31  1  0.61997000  0.78105000  0.77336000  1.0
  H  H32  1  0.28748000  0.80177000  0.13594000  1.0
  H  H33  1  0.20611000  0.72762000  0.07024000  1.0
  H  H34  1  0.25369000  0.73637000  0.15441000  1.0
  H  H35  1  0.01327000  0.80165000  0.16416000  1.0
  H  H36  1  0.02082000  0.72780000  0.15674000  1.0
  H  H37  1  0.98243000  0.73592000  0.08082000  1.0
  H  H38  1  0.04016000  0.88577000  0.14727000  1.0
  H  H39  1  0.12282000  0.96041000  0.20355000  1.0
  H  H40  1  0.08964000  0.91314000  0.23884000  1.0
  H  H41  1  0.34514000  0.88526000  0.23745000  1.0
  H  H42  1  0.33753000  0.96013000  0.25727000  1.0
  H  H43  1  0.32325000  0.91390000  0.17431000  1.0
  H  H44  1  0.41118000  0.09250000  0.26808000  1.0
  H  H45  1  0.39284000  0.05916000  0.32011000  1.0
  H  H46  1  0.47156000  0.13508000  0.36067000  1.0
  H  H47  1  0.18160000  0.09206000  0.32478000  1.0
  H  H48  1  0.16642000  0.05944000  0.23929000  1.0
  H  H49  1  0.16381000  0.13530000  0.27550000  1.0
  H  H50  1  0.24159000  0.26708000  0.33802000  1.0
  H  H51  1  0.30383000  0.29826000  0.42750000  1.0
  H  H52  1  0.22715000  0.21912000  0.38090000  1.0
  H  H53  1  0.52567000  0.26711000  0.42981000  1.0
  H  H54  1  0.49479000  0.29815000  0.37131000  1.0
  H  H55  1  0.49238000  0.21899000  0.33905000  1.0
  H  H56  1  0.92963000  0.40404000  0.16244000  1.0
  H  H57  1  0.87111000  0.37651000  0.07295000  1.0
  H  H58  1  0.83887000  0.34662000  0.11982000  1.0
  H  H59  1  0.83772000  0.59628000  0.07073000  1.0
  H  H60  1  0.92723000  0.62367000  0.12907000  1.0
  H  H61  1  0.88056000  0.65367000  0.16156000  1.0
  H  H62  1  0.82474000  0.64324000  0.23262000  1.0
  H  H63  1  0.73930000  0.57290000  0.18003000  1.0
  H  H64  1  0.77520000  0.61152000  0.14007000  1.0
  H  H65  1  0.76799000  0.35696000  0.17562000  1.0
  H  H66  1  0.82027000  0.42732000  0.26101000  1.0
  H  H67  1  0.86055000  0.38898000  0.22536000  1.0
  H  H68  1  0.73786000  0.39249000  0.35246000  1.0
  H  H69  1  0.75728000  0.41968000  0.29710000  1.0
  H  H70  1  0.67445000  0.35100000  0.26072000  1.0
  H  H71  1  0.64740000  0.60707000  0.26169000  1.0
  H  H72  1  0.70367000  0.58067000  0.24331000  1.0
  H  H73  1  0.73897000  0.64916000  0.32587000  1.0
  H  H74  1  0.66411000  0.65077000  0.36247000  1.0
  H  H75  1  0.65715000  0.63604000  0.42921000  1.0
  H  H76  1  0.58098000  0.59838000  0.34533000  1.0
  H  H77  1  0.63666000  0.34868000  0.33488000  1.0
  H  H78  1  0.57040000  0.36384000  0.34253000  1.0
  H  H79  1  0.65438000  0.40090000  0.41838000  1.0
  H  H80  1  0.97452000  0.40373000  0.74164000  1.0
  H  H81  1  0.00554000  0.37638000  0.80378000  1.0
  H  H82  1  0.00794000  0.34635000  0.72705000  1.0
  H  H83  1  0.25861000  0.59599000  0.02569000  1.0
  H  H84  1  0.19668000  0.62359000  0.99477000  1.0
  H  H85  1  0.27341000  0.65341000  0.99234000  1.0
  H  H86  1  0.31869000  0.64311000  0.91113000  1.0
  H  H87  1  0.33369000  0.57274000  0.89283000  1.0
  H  H88  1  0.33650000  0.61097000  0.97156000  1.0
  H  H89  1  0.08929000  0.35672000  0.68155000  1.0
  H  H90  1  0.10710000  0.42704000  0.66643000  1.0
  H  H91  1  0.02853000  0.38850000  0.66376000  1.0
  H  H92  1  0.15443000  0.39294000  0.54008000  1.0
  H  H93  1  0.16242000  0.41942000  0.62274000  1.0
  H  H94  1  0.17647000  0.35090000  0.58963000  1.0
  H  H95  1  0.45989000  0.60755000  0.84520000  1.0
  H  H96  1  0.37738000  0.58020000  0.83752000  1.0
  H  H97  1  0.40948000  0.64891000  0.82334000  1.0
  H  H98  1  0.48599000  0.65135000  0.78778000  1.0
  H  H99  1  0.47851000  0.63608000  0.70636000  1.0
  H  H100  1  0.51736000  0.59915000  0.75341000  1.0
  H  H101  1  0.21149000  0.34927000  0.51309000  1.0
  H  H102  1  0.29293000  0.36398000  0.52084000  1.0
  H  H103  1  0.24676000  0.40170000  0.48240000  1.0
  C  C104  1  0.59322000  0.49989000  0.40666000  1.0
  C  C105  1  0.63650000  0.50012000  0.63659000  1.0
  C  C106  1  0.58670000  0.67322000  0.58664000  1.0
  C  C107  1  0.40665000  0.50008000  0.59321000  1.0
  C  C108  1  0.36355000  0.50000000  0.36339000  1.0
  C  C109  1  0.41348000  0.32684000  0.41354000  1.0
  C  C110  1  0.90663000  0.31348000  0.90672000  1.0
  C  C111  1  0.86336000  0.49973000  0.86323000  1.0
  C  C112  1  0.91350000  0.50013000  0.08669000  1.0
  C  C113  1  0.09325000  0.68663000  0.09322000  1.0
  C  C114  1  0.13636000  0.49980000  0.13648000  1.0
  C  C115  1  0.08668000  0.50007000  0.91350000  1.0
  C  C116  1  0.30502000  0.49990000  0.30488000  1.0
  C  C117  1  0.19488000  0.49981000  0.19490000  1.0
  C  C118  1  0.23385000  0.45500000  0.27554000  1.0
  C  C119  1  0.26604000  0.54141000  0.22093000  1.0
  C  C120  1  0.17951000  0.45827000  0.22458000  1.0
  C  C121  1  0.32040000  0.54474000  0.27850000  1.0
  C  C122  1  0.69492000  0.50000000  0.69498000  1.0
  C  C123  1  0.80484000  0.49976000  0.80483000  1.0
  C  C124  1  0.72462000  0.54505000  0.76622000  1.0
  C  C125  1  0.77844000  0.45800000  0.73360000  1.0
  C  C126  1  0.77555000  0.54163000  0.82043000  1.0
  C  C127  1  0.72090000  0.45483000  0.67938000  1.0
  C  C128  1  0.86865000  0.23766000  0.86876000  1.0
  C  C129  1  0.85066000  0.20173000  0.90323000  1.0
  C  C130  1  0.81910000  0.13081000  0.86890000  1.0
  C  C131  1  0.79769000  0.09543000  0.79766000  1.0
  C  C132  1  0.81154000  0.13081000  0.76177000  1.0
  C  C133  1  0.85067000  0.20176000  0.79831000  1.0
  C  C134  1  0.76184000  0.02358000  0.76178000  1.0
  C  C135  1  0.73095000  0.96167000  0.73089000  1.0
  C  C136  1  0.69512000  0.88991000  0.69503000  1.0
  C  C137  1  0.68336000  0.85459000  0.73171000  1.0
  C  C138  1  0.64452000  0.78377000  0.69527000  1.0
  C  C139  1  0.62449000  0.74868000  0.62439000  1.0
  C  C140  1  0.63963000  0.78377000  0.58864000  1.0
  C  C141  1  0.67162000  0.85458000  0.62304000  1.0
  C  C142  1  0.13108000  0.76244000  0.13102000  1.0
  C  C143  1  0.20144000  0.79836000  0.14887000  1.0
  C  C144  1  0.23803000  0.86928000  0.18820000  1.0
  C  C145  1  0.20221000  0.90467000  0.20224000  1.0
  C  C146  1  0.13095000  0.86927000  0.18076000  1.0
  C  C147  1  0.09655000  0.79832000  0.14896000  1.0
  C  C148  1  0.23818000  0.97649000  0.23824000  1.0
  C  C149  1  0.26921000  0.03840000  0.26929000  1.0
  C  C150  1  0.30515000  0.11016000  0.30527000  1.0
  C  C151  1  0.37716000  0.14547000  0.32886000  1.0
  C  C152  1  0.41158000  0.21630000  0.36086000  1.0
  C  C153  1  0.37579000  0.25139000  0.37589000  1.0
  C  C154  1  0.30496000  0.21631000  0.35596000  1.0
  C  C155  1  0.26851000  0.14550000  0.31711000  1.0
  C  C156  1  0.87579000  0.50012000  0.12444000  1.0
  C  C157  1  0.86074000  0.44927000  0.14445000  1.0
  C  C158  1  0.82879000  0.45168000  0.18332000  1.0
  C  C159  1  0.80523000  0.50012000  0.19511000  1.0
  C  C160  1  0.81702000  0.54859000  0.17159000  1.0
  C  C161  1  0.85581000  0.55098000  0.13956000  1.0
  C  C162  1  0.76933000  0.50009000  0.23097000  1.0
  C  C163  1  0.73835000  0.50005000  0.26191000  1.0
  C  C164  1  0.70236000  0.50000000  0.29775000  1.0
  C  C165  1  0.68835000  0.45015000  0.31912000  1.0
  C  C166  1  0.64899000  0.44739000  0.35068000  1.0
  C  C167  1  0.63108000  0.49988000  0.36870000  1.0
  C  C168  1  0.64909000  0.55238000  0.35082000  1.0
  C  C169  1  0.68088000  0.54978000  0.31167000  1.0
  C  C170  1  0.12443000  0.49996000  0.87580000  1.0
  C  C171  1  0.08865000  0.44905000  0.80495000  1.0
  C  C172  1  0.12302000  0.45142000  0.76850000  1.0
  C  C173  1  0.19500000  0.49990000  0.80513000  1.0
  C  C174  1  0.23170000  0.54834000  0.87715000  1.0
  C  C175  1  0.19531000  0.55079000  0.91157000  1.0
  C  C176  1  0.23083000  0.49992000  0.76920000  1.0
  C  C177  1  0.26172000  0.49994000  0.73817000  1.0
  C  C178  1  0.29759000  0.49999000  0.70221000  1.0
  C  C179  1  0.26171000  0.45024000  0.63092000  1.0
  C  C180  1  0.29826000  0.44763000  0.59653000  1.0
  C  C181  1  0.36869000  0.50010000  0.63107000  1.0
  C  C182  1  0.40315000  0.55257000  0.70147000  1.0
  C  C183  1  0.36882000  0.54982000  0.73806000  1.0
  C  C184  1  0.86225000  0.23559000  0.97515000  1.0
  C  C185  1  0.87257000  0.23570000  0.76013000  1.0
  C  C186  1  0.78418000  0.09109000  0.68492000  1.0
  C  C187  1  0.80686000  0.09110000  0.90607000  1.0
  C  C188  1  0.71267000  0.89370000  0.80907000  1.0
  C  C189  1  0.68146000  0.89371000  0.58482000  1.0
  C  C190  1  0.62462000  0.74806000  0.51544000  1.0
  C  C191  1  0.62389000  0.74809000  0.73281000  1.0
  C  C192  1  0.23940000  0.76447000  0.12645000  1.0
  C  C193  1  0.02449000  0.76437000  0.13703000  1.0
  C  C194  1  0.09379000  0.90895000  0.19311000  1.0
  C  C195  1  0.31490000  0.90894000  0.21561000  1.0
  C  C196  1  0.41539000  0.10634000  0.31904000  1.0
  C  C197  1  0.19117000  0.10638000  0.28786000  1.0
  C  C198  1  0.26751000  0.25202000  0.37673000  1.0
  C  C199  1  0.48482000  0.25197000  0.37596000  1.0
  C  C200  1  0.87578000  0.39110000  0.12379000  1.0
  C  C201  1  0.87645000  0.60916000  0.12453000  1.0
  C  C202  1  0.78775000  0.59666000  0.18147000  1.0
  C  C203  1  0.81902000  0.40364000  0.21265000  1.0
  C  C204  1  0.71578000  0.40072000  0.30684000  1.0
  C  C205  1  0.69324000  0.59928000  0.28433000  1.0
  C  C206  1  0.63719000  0.61253000  0.37286000  1.0
  C  C207  1  0.62669000  0.38706000  0.36225000  1.0
  C  C208  1  0.01546000  0.39087000  0.76747000  1.0
  C  C209  1  0.23288000  0.60896000  0.98479000  1.0
  C  C210  1  0.30906000  0.59638000  0.91537000  1.0
  C  C211  1  0.08477000  0.40331000  0.69114000  1.0
  C  C212  1  0.18485000  0.40078000  0.59374000  1.0
  C  C213  1  0.40600000  0.59923000  0.81494000  1.0
  C  C214  1  0.47503000  0.61292000  0.73949000  1.0
  C  C215  1  0.26013000  0.38752000  0.52444000  1.0
  Br  Br216  1  0.20916000  0.38611000  0.30027000  1.0
  Br  Br217  1  0.29063000  0.59057000  0.17648000  1.0
  Br  Br218  1  0.08599000  0.40914000  0.20024000  1.0
  Br  Br219  1  0.41397000  0.61368000  0.32253000  1.0
  Br  Br220  1  0.70035000  0.61428000  0.79106000  1.0
  Br  Br221  1  0.82240000  0.40842000  0.70863000  1.0
  Br  Br222  1  0.80031000  0.59105000  0.91408000  1.0
  Br  Br223  1  0.67640000  0.38580000  0.58574000  1.0
  O  O224  1  0.50001000  0.50003000  0.50001000  1.0
  O  O225  1  0.57380000  0.54506000  0.41810000  1.0
  O  O226  1  0.63830000  0.49202000  0.58180000  1.0
  O  O227  1  0.60214000  0.64331000  0.62321000  1.0
  O  O228  1  0.58191000  0.45477000  0.42617000  1.0
  O  O229  1  0.54129000  0.64336000  0.52015000  1.0
  O  O230  1  0.58989000  0.50830000  0.64658000  1.0
  O  O231  1  0.47129000  0.54520000  0.62705000  1.0
  O  O232  1  0.35362000  0.49186000  0.41005000  1.0
  O  O233  1  0.37292000  0.45494000  0.52860000  1.0
  O  O234  1  0.41837000  0.50820000  0.36163000  1.0
  O  O235  1  0.47995000  0.35677000  0.45894000  1.0
  O  O236  1  0.37685000  0.35668000  0.39793000  1.0
  O  O237  1  0.99999000  0.50000000  0.00000000  1.0
  O  O238  1  0.92562000  0.34431000  0.97119000  1.0
  O  O239  1  0.86165000  0.44316000  0.85327000  1.0
  O  O240  1  0.89796000  0.52119000  0.04127000  1.0
  O  O241  1  0.91860000  0.34437000  0.87319000  1.0
  O  O242  1  0.95890000  0.47905000  0.10219000  1.0
  O  O243  1  0.91002000  0.55632000  0.91803000  1.0
  O  O244  1  0.02844000  0.65577000  0.07314000  1.0
  O  O245  1  0.14630000  0.55640000  0.13831000  1.0
  O  O246  1  0.12732000  0.65585000  0.08262000  1.0
  O  O247  1  0.08154000  0.44322000  0.08985000  1.0
  O  O248  1  0.02022000  0.47901000  0.87688000  1.0
  O  O249  1  0.12324000  0.52123000  0.98001000  1.0
