# generated using pymatgen
data_BiH5(C3Br)2
_symmetry_space_group_name_H-M   'P 1'
_cell_length_a   7.81869000
_cell_length_b   8.79576000
_cell_length_c   13.06999851
_cell_angle_alpha   109.65257901
_cell_angle_beta   90.00182918
_cell_angle_gamma   90.00070000
_symmetry_Int_Tables_number   1
_chemical_formula_structural   BiH5(C3Br)2
_chemical_formula_sum   'Bi4 H20 C24 Br8'
_cell_volume   846.48286609
_cell_formula_units_Z   4
loop_
 _symmetry_equiv_pos_site_id
 _symmetry_equiv_pos_as_xyz
  1  'x, y, z'
loop_
 _atom_site_type_symbol
 _atom_site_label
 _atom_site_symmetry_multiplicity
 _atom_site_fract_x
 _atom_site_fract_y
 _atom_site_fract_z
 _atom_site_occupancy
  Bi  Bi0  1  0.24997000  0.96364000  0.15736000  1.0
  Bi  Bi1  1  0.75000000  0.03635000  0.84263000  1.0
  Bi  Bi2  1  0.74999000  0.19378000  0.15749000  1.0
  Bi  Bi3  1  0.25001000  0.80622000  0.84251000  1.0
  H  H4  1  0.25000000  0.96348000  0.40555000  1.0
  H  H5  1  0.75000000  0.03652000  0.59444000  1.0
  H  H6  1  0.75000000  0.44234000  0.40558000  1.0
  H  H7  1  0.25001000  0.55766000  0.59443000  1.0
  H  H8  1  0.24999000  0.76536000  0.50137000  1.0
  H  H9  1  0.75000000  0.23466000  0.49863000  1.0
  H  H10  1  0.75000000  0.73612000  0.50124000  1.0
  H  H11  1  0.25000000  0.26388000  0.49877000  1.0
  H  H12  1  0.24999000  0.46956000  0.39577000  1.0
  H  H13  1  0.75000000  0.53044000  0.60423000  1.0
  H  H14  1  0.75000000  0.92632000  0.39570000  1.0
  H  H15  1  0.25000000  0.07367000  0.60431000  1.0
  H  H16  1  0.25000000  0.37622000  0.19422000  1.0
  H  H17  1  0.75000000  0.62378000  0.80578000  1.0
  H  H18  1  0.75001000  0.81806000  0.19394000  1.0
  H  H19  1  0.25000000  0.18195000  0.80607000  1.0
  H  H20  1  0.25001000  0.57229000  0.09701000  1.0
  H  H21  1  0.75000000  0.42770000  0.90298000  1.0
  H  H22  1  0.74999000  0.52490000  0.09692000  1.0
  H  H23  1  0.25000000  0.47509000  0.90308000  1.0
  C  C24  1  0.24999000  0.78158000  0.24469000  1.0
  C  C25  1  0.75000000  0.21841000  0.75530000  1.0
  C  C26  1  0.74999000  0.46333000  0.24463000  1.0
  C  C27  1  0.25002000  0.53666000  0.75537000  1.0
  C  C28  1  0.24999000  0.83489000  0.35839000  1.0
  C  C29  1  0.75000000  0.16511000  0.64160000  1.0
  C  C30  1  0.74999000  0.52367000  0.35832000  1.0
  C  C31  1  0.25001000  0.47632000  0.64168000  1.0
  C  C32  1  0.24999000  0.72283000  0.41276000  1.0
  C  C33  1  0.75000000  0.27719000  0.58724000  1.0
  C  C34  1  0.75000000  0.69008000  0.41265000  1.0
  C  C35  1  0.25001000  0.30993000  0.58736000  1.0
  C  C36  1  0.24999000  0.55781000  0.35389000  1.0
  C  C37  1  0.75000000  0.44219000  0.64611000  1.0
  C  C38  1  0.75001000  0.79624000  0.35378000  1.0
  C  C39  1  0.25000000  0.20376000  0.64623000  1.0
  C  C40  1  0.25000000  0.50495000  0.24062000  1.0
  C  C41  1  0.75000000  0.49505000  0.75938000  1.0
  C  C42  1  0.75000000  0.73588000  0.24049000  1.0
  C  C43  1  0.25000000  0.26411000  0.75951000  1.0
  C  C44  1  0.25000000  0.61617000  0.18561000  1.0
  C  C45  1  0.75000000  0.38382000  0.81438000  1.0
  C  C46  1  0.74999000  0.56965000  0.18552000  1.0
  C  C47  1  0.25001000  0.43035000  0.81449000  1.0
  Br  Br48  1  0.49994000  0.15598000  0.31013000  1.0
  Br  Br49  1  0.99994000  0.84402000  0.68987000  1.0
  Br  Br50  1  0.50007000  0.84400000  0.68986000  1.0
  Br  Br51  1  0.00008000  0.15600000  0.31013000  1.0
  Br  Br52  1  0.50133000  0.77168000  0.99990000  1.0
  Br  Br53  1  0.00131000  0.22831000  0.00010000  1.0
  Br  Br54  1  0.49867000  0.22831000  0.00010000  1.0
  Br  Br55  1  0.99867000  0.77170000  0.99990000  1.0
