# generated using pymatgen
data_KH11C8S(NO)2
_symmetry_space_group_name_H-M   'P 1'
_cell_length_a   4.18009000
_cell_length_b   14.68950000
_cell_length_c   16.62150000
_cell_angle_alpha   90.00000000
_cell_angle_beta   90.00010000
_cell_angle_gamma   90.00000000
_symmetry_Int_Tables_number   1
_chemical_formula_structural   KH11C8S(NO)2
_chemical_formula_sum   'K4 H44 C32 S4 N8 O8'
_cell_volume   1020.61714590
_cell_formula_units_Z   4
loop_
 _symmetry_equiv_pos_site_id
 _symmetry_equiv_pos_as_xyz
  1  'x, y, z'
loop_
 _atom_site_type_symbol
 _atom_site_label
 _atom_site_symmetry_multiplicity
 _atom_site_fract_x
 _atom_site_fract_y
 _atom_site_fract_z
 _atom_site_occupancy
  K  K0  1  0.08855000  0.87684000  0.87153000  1.0
  K  K1  1  0.41145000  0.12316000  0.37153000  1.0
  K  K2  1  0.91145000  0.37684000  0.62848000  1.0
  K  K3  1  0.58855000  0.62316000  0.12848000  1.0
  H  H4  1  0.29747000  0.71872000  0.98902000  1.0
  H  H5  1  0.20253000  0.28128000  0.48902000  1.0
  H  H6  1  0.70253000  0.21872000  0.51098000  1.0
  H  H7  1  0.79747000  0.78128000  0.01098000  1.0
  H  H8  1  0.84991000  0.55107000  0.73899000  1.0
  H  H9  1  0.65009000  0.44893000  0.23899000  1.0
  H  H10  1  0.15009000  0.05107000  0.76101000  1.0
  H  H11  1  0.34991000  0.94893000  0.26101000  1.0
  H  H12  1  0.90798000  0.66686000  0.76853000  1.0
  H  H13  1  0.59202000  0.33314000  0.26853000  1.0
  H  H14  1  0.09202000  0.16686000  0.73147000  1.0
  H  H15  1  0.40798000  0.83314000  0.23147000  1.0
  H  H16  1  0.70817000  0.65834000  0.62746000  1.0
  H  H17  1  0.79183000  0.34166000  0.12746000  1.0
  H  H18  1  0.29183000  0.15834000  0.87254000  1.0
  H  H19  1  0.20817000  0.84166000  0.37254000  1.0
  H  H20  1  0.42747000  0.71423000  0.69049000  1.0
  H  H21  1  0.07253000  0.28577000  0.19049000  1.0
  H  H22  1  0.57253000  0.21423000  0.80951000  1.0
  H  H23  1  0.92747000  0.78577000  0.30951000  1.0
  H  H24  1  0.36338000  0.59821000  0.65997000  1.0
  H  H25  1  0.13662000  0.40179000  0.15997000  1.0
  H  H26  1  0.63662000  0.09821000  0.84003000  1.0
  H  H27  1  0.86338000  0.90179000  0.34003000  1.0
  H  H28  1  0.96707000  0.39571000  0.86836000  1.0
  H  H29  1  0.53293000  0.60429000  0.36836000  1.0
  H  H30  1  0.03293000  0.89571000  0.63164000  1.0
  H  H31  1  0.46707000  0.10429000  0.13164000  1.0
  H  H32  1  0.85651000  0.44168000  0.96410000  1.0
  H  H33  1  0.64349000  0.55832000  0.46410000  1.0
  H  H34  1  0.14349000  0.94168000  0.53590000  1.0
  H  H35  1  0.35651000  0.05832000  0.03590000  1.0
  H  H36  1  0.36858000  0.38207000  0.02340000  1.0
  H  H37  1  0.13142000  0.61793000  0.52340000  1.0
  H  H38  1  0.63142000  0.88207000  0.47660000  1.0
  H  H39  1  0.86858000  0.11793000  0.97660000  1.0
  H  H40  1  0.46245000  0.33094000  0.92829000  1.0
  H  H41  1  0.03755000  0.66906000  0.42829000  1.0
  H  H42  1  0.53755000  0.83094000  0.57171000  1.0
  H  H43  1  0.96245000  0.16906000  0.07171000  1.0
  H  H44  1  0.12355000  0.29382000  0.98423000  1.0
  H  H45  1  0.37646000  0.70618000  0.48423000  1.0
  H  H46  1  0.87645000  0.79382000  0.51577000  1.0
  H  H47  1  0.62354000  0.20618000  0.01577000  1.0
  C  C48  1  0.39007000  0.51841000  0.83673000  1.0
  C  C49  1  0.10993000  0.48159000  0.33673000  1.0
  C  C50  1  0.60993000  0.01841000  0.66327000  1.0
  C  C51  1  0.89007000  0.98159000  0.16327000  1.0
  C  C52  1  0.19519000  0.57796000  0.96682000  1.0
  C  C53  1  0.30481000  0.42204000  0.46682000  1.0
  C  C54  1  0.80481000  0.07796000  0.53318000  1.0
  C  C55  1  0.69519000  0.92204000  0.03318000  1.0
  C  C56  1  0.32618000  0.66280000  0.94680000  1.0
  C  C57  1  0.17381000  0.33721000  0.44680000  1.0
  C  C58  1  0.67382000  0.16279000  0.55320000  1.0
  C  C59  1  0.82619000  0.83721000  0.05320000  1.0
  C  C60  1  0.49353000  0.67809000  0.87499000  1.0
  C  C61  1  0.00646000  0.32191000  0.37499000  1.0
  C  C62  1  0.50647000  0.17809000  0.62501000  1.0
  C  C63  1  0.99353000  0.82191000  0.12501000  1.0
  C  C64  1  0.72991000  0.61587000  0.75120000  1.0
  C  C65  1  0.77009000  0.38413000  0.25120000  1.0
  C  C66  1  0.27009000  0.11587000  0.74880000  1.0
  C  C67  1  0.22991000  0.88413000  0.24880000  1.0
  C  C68  1  0.54310000  0.64858000  0.67818000  1.0
  C  C69  1  0.95690000  0.35142000  0.17818000  1.0
  C  C70  1  0.45690000  0.14858000  0.82182000  1.0
  C  C71  1  0.04310000  0.85142000  0.32182000  1.0
  C  C72  1  0.05722000  0.42265000  0.92543000  1.0
  C  C73  1  0.44278000  0.57735000  0.42542000  1.0
  C  C74  1  0.94278000  0.92265000  0.57458000  1.0
  C  C75  1  0.55722000  0.07735000  0.07458000  1.0
  C  C76  1  0.26808000  0.35340000  0.96789000  1.0
  C  C77  1  0.23192000  0.64660000  0.46789000  1.0
  C  C78  1  0.73192000  0.85340000  0.53211000  1.0
  C  C79  1  0.76808000  0.14660000  0.03211000  1.0
  S  S80  1  0.41974000  0.43107000  0.77102000  1.0
  S  S81  1  0.08026000  0.56893000  0.27102000  1.0
  S  S82  1  0.58026000  0.93107000  0.72897000  1.0
  S  S83  1  0.91974000  0.06893000  0.22898000  1.0
  N  N84  1  0.53039000  0.60148000  0.82288000  1.0
  N  N85  1  0.96961000  0.39852000  0.32288000  1.0
  N  N86  1  0.46961000  0.10148000  0.67712000  1.0
  N  N87  1  0.03039000  0.89852000  0.17712000  1.0
  N  N88  1  0.22314000  0.50837000  0.90728000  1.0
  N  N89  1  0.27686000  0.49163000  0.40728000  1.0
  N  N90  1  0.77686000  0.00837000  0.59272000  1.0
  N  N91  1  0.72313000  0.99163000  0.09272000  1.0
  O  O92  1  0.05832000  0.55853000  0.03235000  1.0
  O  O93  1  0.44168000  0.44147000  0.53235000  1.0
  O  O94  1  0.94168000  0.05853000  0.46765000  1.0
  O  O95  1  0.55832000  0.94147000  0.96765000  1.0
  O  O96  1  0.61189000  0.75323000  0.85327000  1.0
  O  O97  1  0.88811000  0.24677000  0.35327000  1.0
  O  O98  1  0.38811000  0.25323000  0.64673000  1.0
  O  O99  1  0.11189000  0.74677000  0.14673000  1.0
