# generated using pymatgen
data_ZnH16C22N4O
_symmetry_space_group_name_H-M   'P 1'
_cell_length_a   11.54300000
_cell_length_b   13.40710000
_cell_length_c   15.41290000
_cell_angle_alpha   89.99990000
_cell_angle_beta   98.74800000
_cell_angle_gamma   89.99990000
_symmetry_Int_Tables_number   1
_chemical_formula_structural   ZnH16C22N4O
_chemical_formula_sum   'Zn4 H64 C88 N16 O4'
_cell_volume   2357.52367355
_cell_formula_units_Z   4
loop_
 _symmetry_equiv_pos_site_id
 _symmetry_equiv_pos_as_xyz
  1  'x, y, z'
loop_
 _atom_site_type_symbol
 _atom_site_label
 _atom_site_symmetry_multiplicity
 _atom_site_fract_x
 _atom_site_fract_y
 _atom_site_fract_z
 _atom_site_occupancy
  Zn  Zn0  1  0.88058000  0.91364000  0.43385000  1.0
  Zn  Zn1  1  0.61942000  0.41364000  0.56615000  1.0
  Zn  Zn2  1  0.11942000  0.08636000  0.56615000  1.0
  Zn  Zn3  1  0.38058000  0.58636000  0.43385000  1.0
  H  H4  1  0.46498000  0.59243000  0.15741000  1.0
  H  H5  1  0.03502000  0.09243000  0.84259000  1.0
  H  H6  1  0.53502000  0.40757000  0.84259000  1.0
  H  H7  1  0.96498000  0.90757000  0.15740000  1.0
  H  H8  1  0.29227000  0.46677000  0.10457000  1.0
  H  H9  1  0.20773000  0.96677000  0.89543000  1.0
  H  H10  1  0.70773000  0.53323000  0.89543000  1.0
  H  H11  1  0.79227000  0.03323000  0.10457000  1.0
  H  H12  1  0.12840000  0.37424000  0.18518000  1.0
  H  H13  1  0.37160000  0.87424000  0.81482000  1.0
  H  H14  1  0.87160000  0.62576000  0.81482000  1.0
  H  H15  1  0.62840000  0.12576000  0.18518000  1.0
  H  H16  1  0.08217000  0.37180000  0.34854000  1.0
  H  H17  1  0.41784000  0.87180000  0.65146000  1.0
  H  H18  1  0.91783000  0.62820000  0.65146000  1.0
  H  H19  1  0.58217000  0.12820000  0.34854000  1.0
  H  H20  1  0.02665000  0.36914000  0.50904000  1.0
  H  H21  1  0.47335000  0.86914000  0.49096000  1.0
  H  H22  1  0.97335000  0.63086000  0.49096000  1.0
  H  H23  1  0.52665000  0.13086000  0.50904000  1.0
  H  H24  1  0.11401000  0.45906000  0.66195000  1.0
  H  H25  1  0.38599000  0.95906000  0.33805000  1.0
  H  H26  1  0.88598000  0.54094000  0.33805000  1.0
  H  H27  1  0.61402000  0.04094000  0.66195000  1.0
  H  H28  1  0.30031000  0.57639000  0.71225000  1.0
  H  H29  1  0.19969000  0.07639000  0.28775000  1.0
  H  H30  1  0.69969000  0.42361000  0.28775000  1.0
  H  H31  1  0.80031000  0.92361000  0.71225000  1.0
  H  H32  1  0.48499000  0.68783000  0.76824000  1.0
  H  H33  1  0.01501000  0.18783000  0.23176000  1.0
  H  H34  1  0.51501000  0.31217000  0.23176000  1.0
  H  H35  1  0.98499000  0.81217000  0.76824000  1.0
  H  H36  1  0.65808000  0.76987000  0.69004000  1.0
  H  H37  1  0.84192000  0.26987000  0.30996000  1.0
  H  H38  1  0.34192000  0.23013000  0.30996000  1.0
  H  H39  1  0.15808000  0.73012000  0.69003000  1.0
  H  H40  1  0.70699000  0.77076000  0.52727000  1.0
  H  H41  1  0.79301000  0.27076000  0.47273000  1.0
  H  H42  1  0.29301000  0.22923000  0.47273000  1.0
  H  H43  1  0.20699000  0.72923000  0.52727000  1.0
  H  H44  1  0.50358000  0.84103000  0.26676000  1.0
  H  H45  1  0.99642000  0.34103000  0.73324000  1.0
  H  H46  1  0.49642000  0.15897000  0.73324000  1.0
  H  H47  1  0.00358000  0.65897000  0.26676000  1.0
  H  H48  1  0.62954000  0.86386000  0.21540000  1.0
  H  H49  1  0.87046000  0.36386000  0.78460000  1.0
  H  H50  1  0.37046000  0.13614000  0.78460000  1.0
  H  H51  1  0.12954000  0.63614000  0.21540000  1.0
  H  H52  1  0.50893000  0.79345000  0.15959000  1.0
  H  H53  1  0.99107000  0.29345000  0.84041000  1.0
  H  H54  1  0.49107000  0.20655000  0.84041000  1.0
  H  H55  1  0.00893000  0.70655000  0.15959000  1.0
  H  H56  1  0.65387000  0.65731000  0.13636000  1.0
  H  H57  1  0.84613000  0.15731000  0.86364000  1.0
  H  H58  1  0.34613000  0.34270000  0.86364000  1.0
  H  H59  1  0.15387000  0.84270000  0.13636000  1.0
  H  H60  1  0.77276000  0.72137000  0.20020000  1.0
  H  H61  1  0.72724000  0.22137000  0.79980000  1.0
  H  H62  1  0.22724000  0.27863000  0.79980000  1.0
  H  H63  1  0.27276000  0.77863000  0.20020000  1.0
  H  H64  1  0.73821000  0.59708000  0.22798000  1.0
  H  H65  1  0.76179000  0.09708000  0.77202000  1.0
  H  H66  1  0.26179000  0.40292000  0.77202000  1.0
  H  H67  1  0.23821000  0.90292000  0.22798000  1.0
  C  C68  1  0.60925000  0.70180000  0.41699000  1.0
  C  C69  1  0.89075000  0.20181000  0.58301000  1.0
  C  C70  1  0.39075000  0.29820000  0.58301000  1.0
  C  C71  1  0.10925000  0.79819000  0.41699000  1.0
  C  C72  1  0.68281000  0.73807000  0.35417000  1.0
  C  C73  1  0.81719000  0.23807000  0.64583000  1.0
  C  C74  1  0.31719000  0.26193000  0.64583000  1.0
  C  C75  1  0.18281000  0.76193000  0.35417000  1.0
  C  C76  1  0.61892000  0.71115000  0.26299000  1.0
  C  C77  1  0.88108000  0.21115000  0.73701000  1.0
  C  C78  1  0.38108000  0.28886000  0.73701000  1.0
  C  C79  1  0.11892000  0.78886000  0.26299000  1.0
  C  C80  1  0.52409000  0.64214000  0.28673000  1.0
  C  C81  1  0.97591000  0.14214000  0.71327000  1.0
  C  C82  1  0.47591000  0.35786000  0.71327000  1.0
  C  C83  1  0.02409000  0.85786000  0.28673000  1.0
  C  C84  1  0.44972000  0.58724000  0.22542000  1.0
  C  C85  1  0.05028000  0.08724000  0.77458000  1.0
  C  C86  1  0.55028000  0.41276000  0.77458000  1.0
  C  C87  1  0.94972000  0.91276000  0.22542000  1.0
  C  C88  1  0.35610000  0.52590000  0.24045000  1.0
  C  C89  1  0.14390000  0.02590000  0.75955000  1.0
  C  C90  1  0.64390000  0.47410000  0.75955000  1.0
  C  C91  1  0.85609000  0.97410000  0.24044000  1.0
  C  C92  1  0.28182000  0.46972000  0.17342000  1.0
  C  C93  1  0.21818000  0.96972000  0.82658000  1.0
  C  C94  1  0.71818000  0.53028000  0.82658000  1.0
  C  C95  1  0.78182000  0.03028000  0.17342000  1.0
  C  C96  1  0.19924000  0.42288000  0.21400000  1.0
  C  C97  1  0.30076000  0.92288000  0.78601000  1.0
  C  C98  1  0.80076000  0.57712000  0.78601000  1.0
  C  C99  1  0.69924000  0.07712000  0.21399000  1.0
  C  C100  1  0.22239000  0.45081000  0.30569000  1.0
  C  C101  1  0.27761000  0.95081000  0.69431000  1.0
  C  C102  1  0.77761000  0.54919000  0.69431000  1.0
  C  C103  1  0.72239000  0.04919000  0.30568000  1.0
  C  C104  1  0.15506000  0.42246000  0.36929000  1.0
  C  C105  1  0.34495000  0.92246000  0.63071000  1.0
  C  C106  1  0.84495000  0.57754000  0.63071000  1.0
  C  C107  1  0.65505000  0.07754000  0.36929000  1.0
  C  C108  1  0.17184000  0.45153000  0.45754000  1.0
  C  C109  1  0.32816000  0.95153000  0.54246000  1.0
  C  C110  1  0.82816000  0.54847000  0.54246000  1.0
  C  C111  1  0.67184000  0.04847000  0.45754000  1.0
  C  C112  1  0.10100000  0.41937000  0.52196000  1.0
  C  C113  1  0.39900000  0.91937000  0.47804000  1.0
  C  C114  1  0.89900000  0.58063000  0.47804000  1.0
  C  C115  1  0.60100000  0.08063000  0.52196000  1.0
  C  C116  1  0.14608000  0.46436000  0.59944000  1.0
  C  C117  1  0.35393000  0.96436000  0.40056000  1.0
  C  C118  1  0.85392000  0.53564000  0.40056000  1.0
  C  C119  1  0.64608000  0.03564000  0.59944000  1.0
  C  C120  1  0.24548000  0.52303000  0.58284000  1.0
  C  C121  1  0.25452000  0.02303000  0.41716000  1.0
  C  C122  1  0.75452000  0.47697000  0.41716000  1.0
  C  C123  1  0.74548000  0.97697000  0.58284000  1.0
  C  C124  1  0.32030000  0.57744000  0.64531000  1.0
  C  C125  1  0.17970000  0.07744000  0.35469000  1.0
  C  C126  1  0.67970000  0.42256000  0.35469000  1.0
  C  C127  1  0.82030000  0.92256000  0.64531000  1.0
  C  C128  1  0.42008000  0.63081000  0.63222000  1.0
  C  C129  1  0.07992000  0.13081000  0.36778000  1.0
  C  C130  1  0.57992000  0.36919000  0.36778000  1.0
  C  C131  1  0.92008000  0.86919000  0.63222000  1.0
  C  C132  1  0.49633000  0.68420000  0.69961000  1.0
  C  C133  1  0.00366000  0.18420000  0.30039000  1.0
  C  C134  1  0.50366000  0.31580000  0.30039000  1.0
  C  C135  1  0.99634000  0.81580000  0.69961000  1.0
  C  C136  1  0.58373000  0.72559000  0.66041000  1.0
  C  C137  1  0.91627000  0.22558000  0.33959000  1.0
  C  C138  1  0.41626000  0.27441000  0.33959000  1.0
  C  C139  1  0.08374000  0.77441000  0.66041000  1.0
  C  C140  1  0.56124000  0.69740000  0.56900000  1.0
  C  C141  1  0.93876000  0.19740000  0.43100000  1.0
  C  C142  1  0.43876000  0.30260000  0.43100000  1.0
  C  C143  1  0.06124000  0.80260000  0.56900000  1.0
  C  C144  1  0.62995000  0.72507000  0.50562000  1.0
  C  C145  1  0.87005000  0.22507000  0.49438000  1.0
  C  C146  1  0.37004000  0.27493000  0.49438000  1.0
  C  C147  1  0.12996000  0.77493000  0.50562000  1.0
  C  C148  1  0.56151000  0.80894000  0.22377000  1.0
  C  C149  1  0.93849000  0.30894000  0.77623000  1.0
  C  C150  1  0.43849000  0.19106000  0.77623000  1.0
  C  C151  1  0.06151000  0.69106000  0.22377000  1.0
  C  C152  1  0.70066000  0.66856000  0.20321000  1.0
  C  C153  1  0.79934000  0.16856000  0.79679000  1.0
  C  C154  1  0.29934000  0.33144000  0.79679000  1.0
  C  C155  1  0.20066000  0.83144000  0.20321000  1.0
  N  N156  1  0.52001000  0.64426000  0.37411000  1.0
  N  N157  1  0.97999000  0.14426000  0.62589000  1.0
  N  N158  1  0.47999000  0.35574000  0.62589000  1.0
  N  N159  1  0.02001000  0.85574000  0.37411000  1.0
  N  N160  1  0.31900000  0.51233000  0.31959000  1.0
  N  N161  1  0.18100000  0.01233000  0.68041000  1.0
  N  N162  1  0.68100000  0.48767000  0.68041000  1.0
  N  N163  1  0.81900000  0.98768000  0.31958000  1.0
  N  N164  1  0.25836000  0.51480000  0.49593000  1.0
  N  N165  1  0.24165000  0.01480000  0.50407000  1.0
  N  N166  1  0.74164000  0.48521000  0.50407000  1.0
  N  N167  1  0.75836000  0.98520000  0.49593000  1.0
  N  N168  1  0.46154000  0.64009000  0.55328000  1.0
  N  N169  1  0.03846000  0.14009000  0.44672000  1.0
  N  N170  1  0.53846000  0.35991000  0.44672000  1.0
  N  N171  1  0.96154000  0.85991000  0.55328000  1.0
  O  O172  1  0.77692000  0.78349000  0.36856000  1.0
  O  O173  1  0.72308000  0.28349000  0.63144000  1.0
  O  O174  1  0.22308000  0.21651000  0.63144000  1.0
  O  O175  1  0.27692000  0.71651000  0.36856000  1.0
