# generated using pymatgen
data_ZnH14C16(NO)4
_symmetry_space_group_name_H-M   'P 1'
_cell_length_a   8.87843000
_cell_length_b   9.58611000
_cell_length_c   10.81412868
_cell_angle_alpha   101.61399270
_cell_angle_beta   113.70288607
_cell_angle_gamma   102.88410000
_symmetry_Int_Tables_number   1
_chemical_formula_structural   ZnH14C16(NO)4
_chemical_formula_sum   'Zn2 H28 C32 N8 O8'
_cell_volume   776.65640950
_cell_formula_units_Z   2
loop_
 _symmetry_equiv_pos_site_id
 _symmetry_equiv_pos_as_xyz
  1  'x, y, z'
loop_
 _atom_site_type_symbol
 _atom_site_label
 _atom_site_symmetry_multiplicity
 _atom_site_fract_x
 _atom_site_fract_y
 _atom_site_fract_z
 _atom_site_occupancy
  Zn  Zn0  1  0.18853000  0.30603000  0.55585000  1.0
  Zn  Zn1  1  0.81147000  0.69397000  0.44415000  1.0
  H  H2  1  0.57321000  0.34647000  0.81078000  1.0
  H  H3  1  0.42679000  0.65353000  0.18922000  1.0
  H  H4  1  0.30950000  0.66345000  0.77265000  1.0
  H  H5  1  0.69050000  0.33655000  0.22735000  1.0
  H  H6  1  0.63048000  0.79048000  0.02189000  1.0
  H  H7  1  0.36952000  0.20952000  0.97811000  1.0
  H  H8  1  0.83238000  0.47773000  0.04640000  1.0
  H  H9  1  0.16761000  0.52227000  0.95360000  1.0
  H  H10  1  0.83609000  0.63972000  0.16029000  1.0
  H  H11  1  0.16391000  0.36027000  0.83971000  1.0
  H  H12  1  0.15369000  0.74316000  0.25788000  1.0
  H  H13  1  0.84631000  0.25684000  0.74212000  1.0
  H  H14  1  0.34827000  0.95028000  0.00801000  1.0
  H  H15  1  0.65173000  0.04973000  0.99199000  1.0
  H  H16  1  0.05873000  0.81634000  0.79326000  1.0
  H  H17  1  0.94127000  0.18366000  0.20674000  1.0
  H  H18  1  0.81548000  0.65372000  0.81159000  1.0
  H  H19  1  0.18452000  0.34628000  0.18841000  1.0
  H  H20  1  0.47922000  0.87588000  0.34891000  1.0
  H  H21  1  0.52078000  0.12412000  0.65109000  1.0
  H  H22  1  0.54863000  0.97815000  0.25106000  1.0
  H  H23  1  0.45137000  0.02185000  0.74894000  1.0
  H  H24  1  0.16966000  0.01681000  0.32264000  1.0
  H  H25  1  0.83034000  0.98319000  0.67736000  1.0
  H  H26  1  0.58947000  0.42693000  0.58169000  1.0
  H  H27  1  0.41053000  0.57307000  0.41831000  1.0
  H  H28  1  0.70566000  0.22688000  0.45189000  1.0
  H  H29  1  0.29434000  0.77312000  0.54811000  1.0
  C  C30  1  0.06686000  0.00653000  0.57711000  1.0
  C  C31  1  0.93314000  0.99348000  0.42289000  1.0
  C  C32  1  0.96225000  0.48113000  0.55105000  1.0
  C  C33  1  0.03775000  0.51887000  0.44895000  1.0
  C  C34  1  0.54175000  0.44880000  0.83012000  1.0
  C  C35  1  0.45825000  0.55120000  0.16988000  1.0
  C  C36  1  0.41221000  0.61660000  0.81531000  1.0
  C  C37  1  0.58779000  0.38340000  0.18469000  1.0
  C  C38  1  0.56925000  0.68138000  0.93854000  1.0
  C  C39  1  0.43075000  0.31862000  0.06146000  1.0
  C  C40  1  0.82348000  0.59150000  0.05428000  1.0
  C  C41  1  0.17652000  0.40849000  0.94572000  1.0
  C  C42  1  0.96807000  0.68962000  0.03717000  1.0
  C  C43  1  0.03193000  0.31038000  0.96283000  1.0
  C  C44  1  0.13339000  0.76140000  0.15660000  1.0
  C  C45  1  0.86661000  0.23860000  0.84340000  1.0
  C  C46  1  0.27025000  0.85669000  0.14720000  1.0
  C  C47  1  0.72975000  0.14330000  0.85280000  1.0
  C  C48  1  0.24191000  0.87591000  0.01564000  1.0
  C  C49  1  0.75809000  0.12409000  0.98436000  1.0
  C  C50  1  0.07928000  0.80159000  0.89541000  1.0
  C  C51  1  0.92072000  0.19841000  0.10459000  1.0
  C  C52  1  0.94238000  0.70960000  0.90645000  1.0
  C  C53  1  0.05763000  0.29040000  0.09356000  1.0
  C  C54  1  0.44285000  0.94400000  0.27853000  1.0
  C  C55  1  0.55716000  0.05600000  0.72147000  1.0
  C  C56  1  0.29861000  0.10172000  0.37797000  1.0
  C  C57  1  0.70139000  0.89828000  0.62203000  1.0
  C  C58  1  0.51832000  0.31147000  0.51028000  1.0
  C  C59  1  0.48168000  0.68854000  0.48972000  1.0
  C  C60  1  0.57808000  0.21491000  0.44504000  1.0
  C  C61  1  0.42192000  0.78509000  0.55496000  1.0
  N  N62  1  0.39662000  0.47113000  0.74829000  1.0
  N  N63  1  0.60338000  0.52887000  0.25171000  1.0
  N  N64  1  0.64946000  0.57293000  0.94632000  1.0
  N  N65  1  0.35054000  0.42706000  0.05368000  1.0
  N  N66  1  0.43729000  0.08309000  0.36149000  1.0
  N  N67  1  0.56271000  0.91691000  0.63851000  1.0
  N  N68  1  0.34414000  0.23912000  0.46826000  1.0
  N  N69  1  0.65586000  0.76088000  0.53174000  1.0
  O  O70  1  0.04821000  0.88820000  0.61237000  1.0
  O  O71  1  0.95179000  0.11180000  0.38763000  1.0
  O  O72  1  0.18423000  0.13467000  0.65596000  1.0
  O  O73  1  0.81577000  0.86533000  0.34404000  1.0
  O  O74  1  0.00539000  0.38397000  0.60890000  1.0
  O  O75  1  0.99461000  0.61603000  0.39110000  1.0
  O  O76  1  0.86153000  0.54918000  0.56775000  1.0
  O  O77  1  0.13846000  0.45082000  0.43224000  1.0
