# generated using pymatgen
data_ZnH15C19N2O7
_symmetry_space_group_name_H-M   'P 1'
_cell_length_a   15.84990000
_cell_length_b   17.42330000
_cell_length_c   18.42050000
_cell_angle_alpha   88.59130000
_cell_angle_beta   89.99920000
_cell_angle_gamma   89.99520000
_symmetry_Int_Tables_number   1
_chemical_formula_structural   ZnH15C19N2O7
_chemical_formula_sum   'Zn8 H120 C152 N16 O56'
_cell_volume   5085.42292471
_cell_formula_units_Z   8
loop_
 _symmetry_equiv_pos_site_id
 _symmetry_equiv_pos_as_xyz
  1  'x, y, z'
loop_
 _atom_site_type_symbol
 _atom_site_label
 _atom_site_symmetry_multiplicity
 _atom_site_fract_x
 _atom_site_fract_y
 _atom_site_fract_z
 _atom_site_occupancy
  Zn  Zn0  1  0.56027000  0.67555000  0.83811000  1.0
  Zn  Zn1  1  0.06022000  0.82459000  0.16179000  1.0
  Zn  Zn2  1  0.43966000  0.32464000  0.16188000  1.0
  Zn  Zn3  1  0.93968000  0.17527000  0.83813000  1.0
  Zn  Zn4  1  0.53067000  0.16846000  0.60844000  1.0
  Zn  Zn5  1  0.03058000  0.33136000  0.39172000  1.0
  Zn  Zn6  1  0.46931000  0.83155000  0.39179000  1.0
  Zn  Zn7  1  0.96940000  0.66872000  0.60832000  1.0
  H  H8  1  0.87349000  0.19954000  0.23201000  1.0
  H  H9  1  0.37374000  0.30021000  0.76783000  1.0
  H  H10  1  0.12620000  0.80047000  0.76795000  1.0
  H  H11  1  0.62639000  0.69972000  0.23204000  1.0
  H  H12  1  0.64575000  0.87401000  0.46340000  1.0
  H  H13  1  0.14576000  0.62622000  0.53675000  1.0
  H  H14  1  0.35427000  0.12608000  0.53672000  1.0
  H  H15  1  0.85419000  0.37374000  0.46333000  1.0
  H  H16  1  0.71515000  0.25016000  0.74573000  1.0
  H  H17  1  0.21515000  0.24966000  0.25443000  1.0
  H  H18  1  0.28476000  0.74991000  0.25427000  1.0
  H  H19  1  0.78471000  0.75030000  0.74556000  1.0
  H  H20  1  0.07621000  0.09491000  0.92246000  1.0
  H  H21  1  0.57630000  0.40488000  0.07762000  1.0
  H  H22  1  0.92369000  0.90493000  0.07769000  1.0
  H  H23  1  0.42393000  0.59506000  0.92229000  1.0
  H  H24  1  0.09737000  0.05421000  0.05285000  1.0
  H  H25  1  0.59766000  0.44555000  0.94723000  1.0
  H  H26  1  0.90236000  0.94570000  0.94733000  1.0
  H  H27  1  0.40271000  0.55432000  0.05267000  1.0
  H  H28  1  0.99466000  0.10039000  0.14635000  1.0
  H  H29  1  0.49515000  0.39929000  0.85363000  1.0
  H  H30  1  0.00496000  0.89954000  0.85371000  1.0
  H  H31  1  0.50521000  0.60064000  0.14623000  1.0
  H  H32  1  0.86583000  0.25732000  0.12348000  1.0
  H  H33  1  0.36633000  0.24240000  0.87633000  1.0
  H  H34  1  0.13388000  0.74270000  0.87646000  1.0
  H  H35  1  0.63397000  0.75754000  0.12352000  1.0
  H  H36  1  0.79171000  0.18805000  0.09458000  1.0
  H  H37  1  0.29209000  0.31153000  0.90529000  1.0
  H  H38  1  0.20804000  0.81194000  0.90534000  1.0
  H  H39  1  0.70820000  0.68835000  0.09461000  1.0
  H  H40  1  0.85390000  0.11138000  0.31890000  1.0
  H  H41  1  0.35398000  0.38846000  0.68091000  1.0
  H  H42  1  0.14599000  0.88859000  0.68102000  1.0
  H  H43  1  0.64609000  0.61145000  0.31895000  1.0
  H  H44  1  0.77940000  0.45042000  0.86788000  1.0
  H  H45  1  0.27914000  0.04951000  0.13198000  1.0
  H  H46  1  0.22076000  0.54965000  0.13199000  1.0
  H  H47  1  0.72069000  0.95053000  0.86787000  1.0
  H  H48  1  0.55726000  0.45113000  0.73267000  1.0
  H  H49  1  0.05707000  0.04882000  0.26725000  1.0
  H  H50  1  0.44285000  0.54905000  0.26722000  1.0
  H  H51  1  0.94272000  0.95115000  0.73256000  1.0
  H  H52  1  0.62528000  0.03384000  0.55383000  1.0
  H  H53  1  0.12508000  0.46619000  0.44634000  1.0
  H  H54  1  0.37477000  0.96614000  0.44626000  1.0
  H  H55  1  0.87478000  0.53387000  0.55376000  1.0
  H  H56  1  0.56824000  0.84436000  0.70179000  1.0
  H  H57  1  0.06801000  0.65563000  0.29831000  1.0
  H  H58  1  0.43199000  0.15565000  0.29836000  1.0
  H  H59  1  0.93191000  0.34442000  0.70175000  1.0
  H  H60  1  0.85895000  0.21453000  0.97203000  1.0
  H  H61  1  0.35910000  0.28532000  0.02786000  1.0
  H  H62  1  0.14098000  0.78550000  0.02792000  1.0
  H  H63  1  0.64116000  0.71464000  0.97196000  1.0
  H  H64  1  0.28941000  0.26455000  0.54213000  1.0
  H  H65  1  0.78927000  0.23488000  0.45800000  1.0
  H  H66  1  0.71066000  0.73552000  0.45787000  1.0
  H  H67  1  0.21074000  0.76500000  0.54216000  1.0
  H  H68  1  0.03672000  0.26690000  0.62669000  1.0
  H  H69  1  0.53664000  0.23266000  0.37318000  1.0
  H  H70  1  0.96330000  0.73319000  0.37318000  1.0
  H  H71  1  0.46333000  0.76721000  0.62698000  1.0
  H  H72  1  0.24149000  0.18960000  0.76352000  1.0
  H  H73  1  0.74157000  0.30987000  0.23658000  1.0
  H  H74  1  0.75844000  0.81047000  0.23647000  1.0
  H  H75  1  0.25838000  0.68992000  0.76356000  1.0
  H  H76  1  0.72079000  0.87201000  0.60791000  1.0
  H  H77  1  0.22045000  0.62824000  0.39214000  1.0
  H  H78  1  0.27944000  0.12811000  0.39217000  1.0
  H  H79  1  0.77947000  0.37177000  0.60790000  1.0
  H  H80  1  0.63088000  0.82078000  0.57817000  1.0
  H  H81  1  0.13048000  0.67927000  0.42201000  1.0
  H  H82  1  0.36937000  0.17922000  0.42198000  1.0
  H  H83  1  0.86948000  0.32078000  0.57807000  1.0
  H  H84  1  0.74453000  0.08878000  0.42285000  1.0
  H  H85  1  0.24438000  0.41112000  0.57708000  1.0
  H  H86  1  0.25552000  0.91120000  0.57713000  1.0
  H  H87  1  0.75560000  0.58881000  0.42288000  1.0
  H  H88  1  0.64633000  0.04639000  0.40142000  1.0
  H  H89  1  0.14621000  0.45349000  0.59866000  1.0
  H  H90  1  0.35371000  0.95356000  0.59867000  1.0
  H  H91  1  0.85379000  0.54642000  0.40136000  1.0
  H  H92  1  0.71836000  0.92409000  0.37448000  1.0
  H  H93  1  0.21819000  0.57583000  0.62559000  1.0
  H  H94  1  0.28170000  0.07587000  0.62555000  1.0
  H  H95  1  0.78181000  0.42409000  0.37446000  1.0
  H  H96  1  0.87299000  0.90847000  0.39341000  1.0
  H  H97  1  0.37278000  0.59156000  0.60662000  1.0
  H  H98  1  0.12715000  0.09157000  0.60655000  1.0
  H  H99  1  0.62724000  0.40837000  0.39326000  1.0
  H  H100  1  0.88138000  0.00548000  0.41797000  1.0
  H  H101  1  0.38127000  0.49460000  0.58191000  1.0
  H  H102  1  0.11867000  0.99459000  0.58191000  1.0
  H  H103  1  0.61868000  0.50533000  0.41798000  1.0
  H  H104  1  0.69813000  0.12600000  0.29729000  1.0
  H  H105  1  0.19819000  0.37377000  0.70265000  1.0
  H  H106  1  0.30179000  0.87393000  0.70274000  1.0
  H  H107  1  0.80192000  0.62614000  0.29733000  1.0
  H  H108  1  0.69214000  0.02839000  0.27331000  1.0
  H  H109  1  0.19217000  0.47135000  0.72673000  1.0
  H  H110  1  0.30775000  0.97154000  0.72673000  1.0
  H  H111  1  0.80792000  0.52854000  0.27326000  1.0
  H  H112  1  0.46985000  0.07271000  0.72992000  1.0
  H  H113  1  0.96987000  0.42721000  0.27012000  1.0
  H  H114  1  0.53024000  0.92726000  0.27018000  1.0
  H  H115  1  0.03000000  0.57285000  0.72998000  1.0
  H  H116  1  0.48332000  0.93480000  0.77414000  1.0
  H  H117  1  0.98323000  0.56512000  0.22593000  1.0
  H  H118  1  0.51690000  0.06519000  0.22602000  1.0
  H  H119  1  0.01664000  0.43494000  0.77417000  1.0
  H  H120  1  0.92538000  0.98831000  0.28928000  1.0
  H  H121  1  0.42543000  0.51157000  0.71056000  1.0
  H  H122  1  0.07457000  0.01171000  0.71059000  1.0
  H  H123  1  0.57472000  0.48832000  0.28926000  1.0
  H  H124  1  0.82731000  0.94738000  0.26738000  1.0
  H  H125  1  0.32735000  0.55244000  0.73261000  1.0
  H  H126  1  0.17267000  0.05257000  0.73257000  1.0
  H  H127  1  0.67285000  0.44747000  0.26732000  1.0
  C  C128  1  0.83195000  0.30593000  0.83773000  1.0
  C  C129  1  0.33185000  0.19402000  0.16230000  1.0
  C  C130  1  0.16802000  0.69416000  0.16228000  1.0
  C  C131  1  0.66787000  0.80619000  0.83760000  1.0
  C  C132  1  0.75594000  0.34677000  0.80885000  1.0
  C  C133  1  0.25583000  0.15317000  0.19115000  1.0
  C  C134  1  0.24407000  0.65334000  0.19108000  1.0
  C  C135  1  0.74392000  0.84690000  0.80870000  1.0
  C  C136  1  0.70213000  0.30890000  0.76102000  1.0
  C  C137  1  0.20207000  0.19096000  0.23907000  1.0
  C  C138  1  0.29786000  0.69120000  0.23893000  1.0
  C  C139  1  0.79774000  0.80902000  0.76086000  1.0
  C  C140  1  0.07316000  0.20841000  0.76138000  1.0
  C  C141  1  0.57335000  0.29110000  0.23850000  1.0
  C  C142  1  0.92672000  0.79158000  0.23851000  1.0
  C  C143  1  0.42665000  0.70884000  0.76163000  1.0
  C  C144  1  0.13021000  0.30335000  0.50675000  1.0
  C  C145  1  0.63003000  0.19610000  0.49324000  1.0
  C  C146  1  0.86995000  0.69687000  0.49324000  1.0
  C  C147  1  0.36991000  0.80377000  0.50695000  1.0
  C  C148  1  0.16038000  0.27051000  0.57788000  1.0
  C  C149  1  0.66026000  0.22895000  0.42213000  1.0
  C  C150  1  0.83970000  0.72960000  0.42209000  1.0
  C  C151  1  0.33972000  0.77091000  0.57806000  1.0
  C  C152  1  0.03318000  0.11244000  0.96507000  1.0
  C  C153  1  0.53332000  0.38736000  0.03497000  1.0
  C  C154  1  0.96665000  0.88743000  0.03502000  1.0
  C  C155  1  0.46691000  0.61261000  0.96493000  1.0
  C  C156  1  0.04434000  0.09094000  0.03761000  1.0
  C  C157  1  0.54461000  0.40883000  0.96244000  1.0
  C  C158  1  0.95540000  0.90896000  0.96250000  1.0
  C  C159  1  0.45569000  0.59110000  0.03745000  1.0
  C  C160  1  0.98714000  0.11655000  0.08920000  1.0
  C  C161  1  0.48750000  0.38318000  0.91078000  1.0
  C  C162  1  0.01256000  0.88338000  0.91085000  1.0
  C  C163  1  0.51281000  0.61678000  0.08909000  1.0
  C  C164  1  0.91952000  0.16288000  0.06713000  1.0
  C  C165  1  0.41984000  0.33687000  0.93280000  1.0
  C  C166  1  0.08026000  0.83711000  0.93286000  1.0
  C  C167  1  0.58045000  0.66310000  0.06706000  1.0
  C  C168  1  0.85487000  0.19534000  0.11841000  1.0
  C  C169  1  0.35527000  0.30436000  0.88146000  1.0
  C  C170  1  0.14487000  0.80467000  0.88153000  1.0
  C  C171  1  0.64502000  0.69558000  0.11841000  1.0
  C  C172  1  0.82728000  0.09151000  0.20676000  1.0
  C  C173  1  0.32750000  0.40823000  0.79312000  1.0
  C  C174  1  0.17259000  0.90846000  0.79318000  1.0
  C  C175  1  0.67275000  0.59173000  0.20676000  1.0
  C  C176  1  0.81980000  0.06839000  0.28720000  1.0
  C  C177  1  0.31988000  0.43141000  0.71267000  1.0
  C  C178  1  0.18011000  0.93156000  0.71273000  1.0
  C  C179  1  0.68024000  0.56851000  0.28721000  1.0
  C  C180  1  0.64499000  0.53728000  0.82812000  1.0
  C  C181  1  0.14467000  0.96284000  0.17168000  1.0
  C  C182  1  0.35521000  0.46300000  0.17168000  1.0
  C  C183  1  0.85518000  0.03709000  0.82820000  1.0
  C  C184  1  0.73809000  0.42157000  0.82992000  1.0
  C  C185  1  0.23792000  0.07840000  0.17000000  1.0
  C  C186  1  0.26200000  0.57857000  0.16996000  1.0
  C  C187  1  0.76189000  0.92163000  0.82986000  1.0
  C  C188  1  0.61289000  0.42182000  0.75423000  1.0
  C  C189  1  0.11271000  0.07816000  0.24574000  1.0
  C  C190  1  0.38722000  0.57839000  0.24567000  1.0
  C  C191  1  0.88708000  0.92184000  0.75412000  1.0
  C  C192  1  0.66625000  0.45887000  0.80283000  1.0
  C  C193  1  0.16604000  0.04118000  0.19705000  1.0
  C  C194  1  0.33390000  0.54136000  0.19702000  1.0
  C  C195  1  0.83378000  0.95881000  0.80280000  1.0
  C  C196  1  0.60413000  0.93134000  0.62112000  1.0
  C  C197  1  0.10391000  0.56867000  0.37902000  1.0
  C  C198  1  0.39604000  0.06867000  0.37901000  1.0
  C  C199  1  0.89596000  0.43140000  0.62108000  1.0
  C  C200  1  0.59392000  0.00857000  0.60127000  1.0
  C  C201  1  0.09374000  0.49143000  0.39887000  1.0
  C  C202  1  0.40618000  0.99143000  0.39884000  1.0
  C  C203  1  0.90612000  0.50864000  0.60123000  1.0
  C  C204  1  0.56302000  0.90443000  0.68402000  1.0
  C  C205  1  0.06281000  0.59556000  0.31609000  1.0
  C  C206  1  0.43720000  0.09557000  0.31614000  1.0
  C  C207  1  0.93706000  0.40451000  0.68400000  1.0
  C  C208  1  0.57181000  0.30512000  0.68387000  1.0
  C  C209  1  0.07190000  0.19474000  0.31638000  1.0
  C  C210  1  0.42803000  0.69502000  0.31626000  1.0
  C  C211  1  0.92807000  0.80531000  0.68366000  1.0
  C  C212  1  0.91180000  0.18067000  0.99320000  1.0
  C  C213  1  0.41200000  0.31914000  0.00674000  1.0
  C  C214  1  0.08807000  0.81930000  0.00677000  1.0
  C  C215  1  0.58826000  0.68085000  0.99312000  1.0
  C  C216  1  0.63051000  0.34672000  0.73402000  1.0
  C  C217  1  0.13044000  0.15318000  0.26608000  1.0
  C  C218  1  0.36950000  0.65344000  0.26595000  1.0
  C  C219  1  0.86937000  0.84681000  0.73386000  1.0
  C  C220  1  0.24606000  0.25385000  0.58714000  1.0
  C  C221  1  0.74596000  0.24555000  0.41294000  1.0
  C  C222  1  0.75399000  0.74619000  0.41285000  1.0
  C  C223  1  0.25401000  0.75432000  0.58723000  1.0
  C  C224  1  0.10368000  0.25613000  0.63472000  1.0
  C  C225  1  0.60363000  0.24337000  0.36524000  1.0
  C  C226  1  0.89633000  0.74394000  0.36521000  1.0
  C  C227  1  0.39635000  0.75649000  0.63493000  1.0
  C  C228  1  0.27550000  0.22471000  0.65387000  1.0
  C  C229  1  0.77550000  0.27467000  0.34624000  1.0
  C  C230  1  0.72449000  0.77530000  0.34612000  1.0
  C  C231  1  0.22447000  0.72521000  0.65393000  1.0
  C  C232  1  0.74198000  0.94878000  0.48633000  1.0
  C  C233  1  0.24172000  0.55117000  0.51370000  1.0
  C  C234  1  0.25822000  0.05113000  0.51369000  1.0
  C  C235  1  0.75823000  0.44881000  0.48632000  1.0
  C  C236  1  0.21915000  0.21242000  0.71138000  1.0
  C  C237  1  0.71921000  0.28700000  0.28869000  1.0
  C  C238  1  0.78080000  0.78763000  0.28859000  1.0
  C  C239  1  0.28076000  0.71283000  0.71147000  1.0
  C  C240  1  0.13319000  0.22699000  0.70148000  1.0
  C  C241  1  0.63324000  0.27249000  0.29851000  1.0
  C  C242  1  0.86675000  0.77306000  0.29845000  1.0
  C  C243  1  0.36672000  0.72736000  0.70166000  1.0
  C  C244  1  0.36633000  0.20392000  0.66408000  1.0
  C  C245  1  0.86632000  0.29547000  0.33608000  1.0
  C  C246  1  0.63364000  0.79602000  0.33593000  1.0
  C  C247  1  0.13362000  0.70451000  0.66403000  1.0
  C  C248  1  0.66019000  0.87788000  0.57894000  1.0
  C  C249  1  0.15991000  0.62223000  0.42117000  1.0
  C  C250  1  0.34000000  0.12216000  0.42117000  1.0
  C  C251  1  0.84003000  0.37781000  0.57890000  1.0
  C  C252  1  0.71412000  0.04639000  0.38820000  1.0
  C  C253  1  0.21402000  0.45348000  0.61180000  1.0
  C  C254  1  0.28591000  0.95355000  0.61183000  1.0
  C  C255  1  0.78599000  0.54644000  0.38818000  1.0
  C  C256  1  0.75320000  0.96741000  0.40501000  1.0
  C  C257  1  0.25303000  0.53252000  0.59503000  1.0
  C  C258  1  0.24688000  0.03255000  0.59501000  1.0
  C  C259  1  0.74695000  0.46742000  0.40497000  1.0
  C  C260  1  0.84640000  0.96600000  0.38319000  1.0
  C  C261  1  0.34628000  0.53398000  0.61677000  1.0
  C  C262  1  0.15366000  0.03400000  0.61674000  1.0
  C  C263  1  0.65373000  0.46595000  0.38314000  1.0
  C  C264  1  0.72586000  0.06901000  0.30789000  1.0
  C  C265  1  0.22588000  0.43078000  0.69208000  1.0
  C  C266  1  0.27407000  0.93092000  0.69212000  1.0
  C  C267  1  0.77421000  0.56913000  0.30789000  1.0
  C  C268  1  0.50696000  0.03065000  0.70067000  1.0
  C  C269  1  0.00689000  0.46928000  0.29942000  1.0
  C  C270  1  0.49317000  0.96932000  0.29945000  1.0
  C  C271  1  0.99295000  0.53080000  0.70069000  1.0
  C  C272  1  0.51441000  0.95459000  0.72441000  1.0
  C  C273  1  0.01430000  0.54535000  0.27568000  1.0
  C  C274  1  0.48578000  0.04540000  0.27574000  1.0
  C  C275  1  0.98555000  0.45473000  0.72442000  1.0
  C  C276  1  0.85781000  0.98900000  0.30297000  1.0
  C  C277  1  0.35783000  0.51086000  0.69696000  1.0
  C  C278  1  0.14215000  0.01097000  0.69696000  1.0
  C  C279  1  0.64230000  0.48905000  0.30293000  1.0
  N  N280  1  0.96747000  0.15664000  0.94377000  1.0
  N  N281  1  0.46759000  0.34319000  0.05624000  1.0
  N  N282  1  0.03240000  0.84325000  0.05624000  1.0
  N  N283  1  0.53260000  0.65682000  0.94367000  1.0
  N  N284  1  0.85623000  0.16292000  0.19155000  1.0
  N  N285  1  0.35655000  0.33683000  0.80832000  1.0
  N  N286  1  0.14348000  0.83711000  0.80841000  1.0
  N  N287  1  0.64366000  0.66312000  0.19155000  1.0
  N  N288  1  0.54606000  0.05681000  0.63991000  1.0
  N  N289  1  0.04594000  0.44313000  0.36023000  1.0
  N  N290  1  0.45403000  0.94317000  0.36020000  1.0
  N  N291  1  0.95391000  0.55696000  0.63988000  1.0
  N  N292  1  0.67707000  0.90177000  0.50422000  1.0
  N  N293  1  0.17694000  0.59837000  0.49589000  1.0
  N  N294  1  0.32303000  0.09827000  0.49588000  1.0
  N  N295  1  0.82302000  0.40164000  0.50417000  1.0
  O  O296  1  0.83086000  0.23194000  0.83510000  1.0
  O  O297  1  0.33081000  0.26800000  0.16493000  1.0
  O  O298  1  0.16913000  0.76814000  0.16500000  1.0
  O  O299  1  0.66895000  0.73221000  0.83499000  1.0
  O  O300  1  0.99536000  0.22896000  0.75332000  1.0
  O  O301  1  0.49542000  0.27101000  0.24665000  1.0
  O  O302  1  0.00452000  0.77106000  0.24662000  1.0
  O  O303  1  0.50448000  0.72925000  0.75347000  1.0
  O  O304  1  0.04940000  0.30892000  0.49715000  1.0
  O  O305  1  0.54922000  0.19083000  0.50293000  1.0
  O  O306  1  0.95076000  0.69129000  0.50284000  1.0
  O  O307  1  0.45073000  0.80911000  0.49728000  1.0
  O  O308  1  0.58310000  0.57284000  0.79630000  1.0
  O  O309  1  0.08283000  0.92733000  0.20360000  1.0
  O  O310  1  0.41701000  0.42741000  0.20361000  1.0
  O  O311  1  0.91701000  0.07260000  0.79625000  1.0
  O  O312  1  0.40490000  0.18035000  0.60671000  1.0
  O  O313  1  0.90484000  0.31920000  0.39341000  1.0
  O  O314  1  0.59509000  0.81966000  0.39327000  1.0
  O  O315  1  0.09515000  0.68078000  0.60668000  1.0
  O  O316  1  0.59124000  0.23434000  0.67401000  1.0
  O  O317  1  0.09121000  0.26556000  0.32612000  1.0
  O  O318  1  0.40856000  0.76578000  0.32619000  1.0
  O  O319  1  0.90879000  0.73449000  0.67391000  1.0
  O  O320  1  0.89323000  0.34303000  0.86199000  1.0
  O  O321  1  0.39313000  0.15688000  0.13808000  1.0
  O  O322  1  0.10670000  0.65711000  0.13804000  1.0
  O  O323  1  0.60663000  0.84335000  0.86186000  1.0
  O  O324  1  0.68531000  0.56492000  0.88009000  1.0
  O  O325  1  0.18479000  0.93523000  0.11959000  1.0
  O  O326  1  0.31505000  0.43544000  0.11959000  1.0
  O  O327  1  0.81510000  0.06463000  0.88033000  1.0
  O  O328  1  0.51047000  0.34035000  0.65614000  1.0
  O  O329  1  0.01074000  0.15944000  0.34434000  1.0
  O  O330  1  0.48931000  0.65978000  0.34409000  1.0
  O  O331  1  0.98926000  0.84066000  0.65581000  1.0
  O  O332  1  0.18281000  0.32441000  0.45939000  1.0
  O  O333  1  0.68259000  0.17474000  0.54054000  1.0
  O  O334  1  0.81738000  0.67589000  0.54067000  1.0
  O  O335  1  0.31731000  0.82507000  0.45967000  1.0
  O  O336  1  0.78817000  0.97820000  0.53252000  1.0
  O  O337  1  0.28771000  0.52158000  0.46748000  1.0
  O  O338  1  0.21221000  0.02154000  0.46746000  1.0
  O  O339  1  0.71223000  0.47843000  0.53253000  1.0
  O  O340  1  0.39999000  0.20814000  0.72543000  1.0
  O  O341  1  0.90001000  0.29115000  0.27475000  1.0
  O  O342  1  0.59999000  0.79168000  0.27458000  1.0
  O  O343  1  0.09985000  0.70895000  0.72532000  1.0
  O  O344  1  0.80516000  0.04728000  0.15822000  1.0
  O  O345  1  0.30540000  0.45243000  0.84167000  1.0
  O  O346  1  0.19486000  0.95263000  0.84171000  1.0
  O  O347  1  0.69501000  0.54760000  0.15820000  1.0
  O  O348  1  0.09767000  0.17179000  0.81734000  1.0
  O  O349  1  0.59813000  0.32729000  0.18239000  1.0
  O  O350  1  0.90218000  0.82809000  0.18250000  1.0
  O  O351  1  0.40208000  0.67246000  0.81770000  1.0
