# generated using pymatgen
data_GdCu2H16C17I2(NO4)2
_symmetry_space_group_name_H-M   'P 1'
_cell_length_a   8.00008000
_cell_length_b   8.06181000
_cell_length_c   18.82310000
_cell_angle_alpha   86.86090000
_cell_angle_beta   85.69290000
_cell_angle_gamma   79.54740000
_symmetry_Int_Tables_number   1
_chemical_formula_structural   GdCu2H16C17I2(NO4)2
_chemical_formula_sum   'Gd2 Cu4 H32 C34 I4 N4 O16'
_cell_volume   1189.43280535
_cell_formula_units_Z   2
loop_
 _symmetry_equiv_pos_site_id
 _symmetry_equiv_pos_as_xyz
  1  'x, y, z'
loop_
 _atom_site_type_symbol
 _atom_site_label
 _atom_site_symmetry_multiplicity
 _atom_site_fract_x
 _atom_site_fract_y
 _atom_site_fract_z
 _atom_site_occupancy
  Gd  Gd0  1  0.79245000  0.19989000  0.49387000  1.0
  Gd  Gd1  1  0.20752000  0.80009000  0.50613000  1.0
  Cu  Cu2  1  0.62099000  0.09165000  0.98338000  1.0
  Cu  Cu3  1  0.37903000  0.90835000  0.01663000  1.0
  Cu  Cu4  1  0.90067000  0.89502000  0.02201000  1.0
  Cu  Cu5  1  0.09936000  0.10498000  0.97798000  1.0
  H  H6  1  0.60514000  0.93308000  0.43323000  1.0
  H  H7  1  0.39482000  0.06690000  0.56677000  1.0
  H  H8  1  0.79885000  0.85369000  0.45197000  1.0
  H  H9  1  0.20112000  0.14631000  0.54802000  1.0
  H  H10  1  0.43641000  0.21845000  0.45251000  1.0
  H  H11  1  0.56355000  0.78156000  0.54749000  1.0
  H  H12  1  0.46239000  0.40699000  0.43187000  1.0
  H  H13  1  0.53760000  0.59300000  0.56812000  1.0
  H  H14  1  0.91106000  0.89164000  0.74396000  1.0
  H  H15  1  0.08894000  0.10837000  0.25605000  1.0
  H  H16  1  0.85743000  0.23120000  0.65755000  1.0
  H  H17  1  0.14255000  0.76880000  0.34245000  1.0
  H  H18  1  0.79486000  0.01707000  0.84345000  1.0
  H  H19  1  0.20514000  0.98293000  0.15655000  1.0
  H  H20  1  0.48155000  0.43673000  0.92648000  1.0
  H  H21  1  0.51848000  0.56327000  0.07353000  1.0
  H  H22  1  0.51605000  0.61036000  0.81418000  1.0
  H  H23  1  0.48397000  0.38964000  0.18583000  1.0
  H  H24  1  0.69622000  0.47319000  0.70986000  1.0
  H  H25  1  0.30377000  0.52680000  0.29015000  1.0
  H  H26  1  0.36055000  0.48666000  0.66367000  1.0
  H  H27  1  0.63943000  0.51335000  0.33633000  1.0
  H  H28  1  0.37265000  0.11022000  0.70721000  1.0
  H  H29  1  0.62736000  0.88978000  0.29278000  1.0
  H  H30  1  0.11572000  0.55834000  0.72096000  1.0
  H  H31  1  0.88430000  0.44167000  0.27905000  1.0
  H  H32  1  0.92764000  0.64686000  0.83041000  1.0
  H  H33  1  0.07241000  0.35315000  0.16960000  1.0
  H  H34  1  0.92110000  0.44559000  0.93478000  1.0
  H  H35  1  0.07893000  0.55441000  0.06522000  1.0
  H  H36  1  0.26034000  0.07190000  0.83091000  1.0
  H  H37  1  0.73967000  0.92810000  0.16909000  1.0
  C  C38  1  0.98696000  0.91369000  0.63057000  1.0
  C  C39  1  0.01302000  0.08630000  0.36943000  1.0
  C  C40  1  0.90907000  0.98234000  0.69865000  1.0
  C  C41  1  0.09091000  0.01767000  0.30135000  1.0
  C  C42  1  0.84601000  0.14825000  0.70489000  1.0
  C  C43  1  0.15398000  0.85175000  0.29511000  1.0
  C  C44  1  0.75720000  0.23226000  0.76704000  1.0
  C  C45  1  0.24280000  0.76774000  0.23297000  1.0
  C  C46  1  0.73473000  0.14825000  0.83338000  1.0
  C  C47  1  0.26528000  0.85175000  0.16663000  1.0
  C  C48  1  0.56089000  0.38386000  0.88054000  1.0
  C  C49  1  0.43913000  0.61615000  0.11946000  1.0
  C  C50  1  0.57982000  0.47898000  0.81747000  1.0
  C  C51  1  0.42020000  0.52103000  0.18253000  1.0
  C  C52  1  0.67974000  0.40318000  0.76036000  1.0
  C  C53  1  0.32026000  0.59682000  0.23964000  1.0
  C  C54  1  0.53250000  0.28954000  0.60775000  1.0
  C  C55  1  0.46749000  0.71046000  0.39224000  1.0
  C  C56  1  0.39535000  0.34998000  0.66091000  1.0
  C  C57  1  0.60464000  0.65002000  0.33908000  1.0
  C  C58  1  0.32740000  0.24646000  0.70894000  1.0
  C  C59  1  0.67260000  0.75355000  0.29106000  1.0
  C  C60  1  0.20669000  0.30716000  0.76749000  1.0
  C  C61  1  0.79333000  0.69284000  0.23251000  1.0
  C  C62  1  0.11020000  0.47181000  0.76745000  1.0
  C  C63  1  0.88983000  0.52820000  0.23256000  1.0
  C  C64  1  0.00618000  0.52175000  0.82761000  1.0
  C  C65  1  0.99386000  0.47826000  0.17239000  1.0
  C  C66  1  0.00072000  0.40962000  0.88647000  1.0
  C  C67  1  0.99931000  0.59038000  0.11353000  1.0
  C  C68  1  0.18991000  0.20140000  0.82828000  1.0
  C  C69  1  0.81011000  0.79860000  0.17172000  1.0
  C  C70  1  0.93293000  0.55687000  0.47797000  1.0
  C  C71  1  0.06704000  0.44311000  0.52201000  1.0
  I  I72  1  0.82769000  0.20519000  0.06552000  1.0
  I  I73  1  0.17235000  0.79481000  0.93448000  1.0
  I  I74  1  0.32812000  0.22630000  0.04775000  1.0
  I  I75  1  0.67189000  0.77370000  0.95226000  1.0
  N  N76  1  0.63879000  0.22127000  0.88865000  1.0
  N  N77  1  0.36122000  0.77873000  0.11135000  1.0
  N  N78  1  0.09081000  0.25134000  0.88694000  1.0
  N  N79  1  0.90921000  0.74866000  0.11307000  1.0
  O  O80  1  0.80754000  0.49758000  0.46130000  1.0
  O  O81  1  0.19243000  0.50240000  0.53868000  1.0
  O  O82  1  0.94541000  0.98890000  0.57028000  1.0
  O  O83  1  0.05457000  0.01109000  0.42973000  1.0
  O  O84  1  0.56518000  0.13693000  0.58783000  1.0
  O  O85  1  0.43480000  0.86307000  0.41216000  1.0
  O  O86  1  0.70556000  0.95434000  0.45771000  1.0
  O  O87  1  0.29441000  0.04565000  0.54229000  1.0
  O  O88  1  0.52332000  0.28708000  0.43891000  1.0
  O  O89  1  0.47666000  0.71291000  0.56110000  1.0
  O  O90  1  0.09897000  0.77928000  0.63064000  1.0
  O  O91  1  0.90100000  0.22071000  0.36937000  1.0
  O  O92  1  0.62800000  0.39370000  0.58085000  1.0
  O  O93  1  0.37200000  0.60629000  0.41915000  1.0
  O  O94  1  0.96315000  0.70549000  0.46258000  1.0
  O  O95  1  0.03683000  0.29449000  0.53740000  1.0
