# generated using pymatgen
data_Al2H11(C7O5)2
_symmetry_space_group_name_H-M   'P 1'
_cell_length_a   6.67224000
_cell_length_b   13.07220000
_cell_length_c   16.98400000
_cell_angle_alpha   90.96920000
_cell_angle_beta   91.02960000
_cell_angle_gamma   90.74360000
_symmetry_Int_Tables_number   1
_chemical_formula_structural   Al2H11(C7O5)2
_chemical_formula_sum   'Al4 H22 C28 O20'
_cell_volume   1480.77723445
_cell_formula_units_Z   2
loop_
 _symmetry_equiv_pos_site_id
 _symmetry_equiv_pos_as_xyz
  1  'x, y, z'
loop_
 _atom_site_type_symbol
 _atom_site_label
 _atom_site_symmetry_multiplicity
 _atom_site_fract_x
 _atom_site_fract_y
 _atom_site_fract_z
 _atom_site_occupancy
  Al  Al0  1  0.86858000  0.49751000  0.50240000  1.0
  Al  Al1  1  0.36881000  0.50078000  0.50124000  1.0
  Al  Al2  1  0.39626000  0.01149000  0.00466000  1.0
  Al  Al3  1  0.89634000  0.00824000  0.00486000  1.0
  H  H4  1  0.97173000  0.34100000  0.14286000  1.0
  H  H5  1  0.77718000  0.28210000  0.28356000  1.0
  H  H6  1  0.96606000  0.08795000  0.27015000  1.0
  H  H7  1  0.29227000  0.16794000  0.36486000  1.0
  H  H8  1  0.29775000  0.42081000  0.23760000  1.0
  H  H9  1  0.82738000  0.29673000  0.68933000  1.0
  H  H10  1  0.28777000  0.31068000  0.70551000  1.0
  H  H11  1  0.83409000  0.19017000  0.80781000  1.0
  H  H12  1  0.29409000  0.21515000  0.80945000  1.0
  H  H13  1  0.94428000  0.80907000  0.20276000  1.0
  H  H14  1  0.48270000  0.80555000  0.20003000  1.0
  H  H15  1  0.92645000  0.70325000  0.32103000  1.0
  H  H16  1  0.46826000  0.69627000  0.29563000  1.0
  H  H17  1  0.93515000  0.80581000  0.81812000  1.0
  H  H18  1  0.47412000  0.80385000  0.80346000  1.0
  H  H19  1  0.93305000  0.68604000  0.70400000  1.0
  H  H20  1  0.47814000  0.72167000  0.68996000  1.0
  H  H21  1  0.48708000  0.22684000  0.22415000  1.0
  H  H22  1  0.60953000  0.37365000  0.46736000  1.0
  H  H23  1  0.11501000  0.62797000  0.47449000  1.0
  H  H24  1  0.65646000  0.13480000  0.04011000  1.0
  H  H25  1  0.14924000  0.88276000  0.03476000  1.0
  C  C26  1  0.61476000  0.61794000  0.39225000  1.0
  C  C27  1  0.63230000  0.62192000  0.60857000  1.0
  C  C28  1  0.12771000  0.38520000  0.61111000  1.0
  C  C29  1  0.10758000  0.37622000  0.39287000  1.0
  C  C30  1  0.93414000  0.26901000  0.26957000  1.0
  C  C31  1  0.04224000  0.30339000  0.19310000  1.0
  C  C32  1  0.14987000  0.19701000  0.18700000  1.0
  C  C33  1  0.03926000  0.16270000  0.26400000  1.0
  C  C34  1  0.22190000  0.20532000  0.31449000  1.0
  C  C35  1  0.32998000  0.23974000  0.23801000  1.0
  C  C36  1  0.22476000  0.34599000  0.24361000  1.0
  C  C37  1  0.11425000  0.31160000  0.32056000  1.0
  C  C38  1  0.97358000  0.28114000  0.71633000  1.0
  C  C39  1  0.13655000  0.32184000  0.68205000  1.0
  C  C40  1  0.97758000  0.21826000  0.78610000  1.0
  C  C41  1  0.14420000  0.19101000  0.82653000  1.0
  C  C42  1  0.79553000  0.78717000  0.22308000  1.0
  C  C43  1  0.63586000  0.82334000  0.18293000  1.0
  C  C44  1  0.78523000  0.72226000  0.29149000  1.0
  C  C45  1  0.61588000  0.68272000  0.32179000  1.0
  C  C46  1  0.79007000  0.78453000  0.79120000  1.0
  C  C47  1  0.62496000  0.82160000  0.82591000  1.0
  C  C48  1  0.78979000  0.71801000  0.72177000  1.0
  C  C49  1  0.62655000  0.69238000  0.67719000  1.0
  C  C50  1  0.63323000  0.88940000  0.89625000  1.0
  C  C51  1  0.65007000  0.88929000  0.11342000  1.0
  C  C52  1  0.15637000  0.13224000  0.11465000  1.0
  C  C53  1  0.13863000  0.12572000  0.89648000  1.0
  O  O54  1  0.46363000  0.60365000  0.57400000  1.0
  O  O55  1  0.78198000  0.59874000  0.42613000  1.0
  O  O56  1  0.93692000  0.40690000  0.41540000  1.0
  O  O57  1  0.79981000  0.58495000  0.58847000  1.0
  O  O58  1  0.95860000  0.40039000  0.57740000  1.0
  O  O59  1  0.44153000  0.58677000  0.41342000  1.0
  O  O60  1  0.61595000  0.43619000  0.49888000  1.0
  O  O61  1  0.29679000  0.41974000  0.58861000  1.0
  O  O62  1  0.27675000  0.39635000  0.42650000  1.0
  O  O63  1  0.11885000  0.56178000  0.49917000  1.0
  O  O64  1  0.82277000  0.91899000  0.09132000  1.0
  O  O65  1  0.46504000  0.92385000  0.91864000  1.0
  O  O66  1  0.30815000  0.10828000  0.92953000  1.0
  O  O67  1  0.48153000  0.91078000  0.08097000  1.0
  O  O68  1  0.32720000  0.10238000  0.09158000  1.0
  O  O69  1  0.80265000  0.90820000  0.92961000  1.0
  O  O70  1  0.64928000  0.07253000  0.00830000  1.0
  O  O71  1  0.98692000  0.11115000  0.08160000  1.0
  O  O72  1  0.96956000  0.09209000  0.91905000  1.0
  O  O73  1  0.14585000  0.94709000  0.00730000  1.0
