# generated using pymatgen
data_Cd3H46C62(N3O8)2
_symmetry_space_group_name_H-M   'P 1'
_cell_length_a   11.81480000
_cell_length_b   16.06250000
_cell_length_c   18.37600000
_cell_angle_alpha   71.64600000
_cell_angle_beta   89.99990000
_cell_angle_gamma   89.99990000
_symmetry_Int_Tables_number   1
_chemical_formula_structural   Cd3H46C62(N3O8)2
_chemical_formula_sum   'Cd6 H92 C124 N12 O32'
_cell_volume   3309.90704751
_cell_formula_units_Z   2
loop_
 _symmetry_equiv_pos_site_id
 _symmetry_equiv_pos_as_xyz
  1  'x, y, z'
loop_
 _atom_site_type_symbol
 _atom_site_label
 _atom_site_symmetry_multiplicity
 _atom_site_fract_x
 _atom_site_fract_y
 _atom_site_fract_z
 _atom_site_occupancy
  Cd  Cd0  1  0.00124000  0.97440000  0.11105000  1.0
  Cd  Cd1  1  0.00124000  0.52560000  0.38895000  1.0
  Cd  Cd2  1  0.99876000  0.02560000  0.88895000  1.0
  Cd  Cd3  1  0.99876000  0.47440000  0.61105000  1.0
  Cd  Cd4  1  0.78959000  0.25000000  0.25000000  1.0
  Cd  Cd5  1  0.21042000  0.75000000  0.75000000  1.0
  H  H6  1  0.83164000  0.42933000  0.26952000  1.0
  H  H7  1  0.83164000  0.07067000  0.23048000  1.0
  H  H8  1  0.16836000  0.57067000  0.73048000  1.0
  H  H9  1  0.16836000  0.92933000  0.76952000  1.0
  H  H10  1  0.75952000  0.35740000  0.33449000  1.0
  H  H11  1  0.75952000  0.14260000  0.16551000  1.0
  H  H12  1  0.24048000  0.64260000  0.66551000  1.0
  H  H13  1  0.24048000  0.85740000  0.83449000  1.0
  H  H14  1  0.70636000  0.23860000  0.94400000  1.0
  H  H15  1  0.70636000  0.26140000  0.55600000  1.0
  H  H16  1  0.29364000  0.76139000  0.05600000  1.0
  H  H17  1  0.29364000  0.73860000  0.44400000  1.0
  H  H18  1  0.58750000  0.09411000  0.04413000  1.0
  H  H19  1  0.58750000  0.40589000  0.45587000  1.0
  H  H20  1  0.41250000  0.90589000  0.95587000  1.0
  H  H21  1  0.41250000  0.59412000  0.54413000  1.0
  H  H22  1  0.70496000  0.32698000  0.80398000  1.0
  H  H23  1  0.70496000  0.17302000  0.69602000  1.0
  H  H24  1  0.29504000  0.67302000  0.19602000  1.0
  H  H25  1  0.29504000  0.82698000  0.30398000  1.0
  H  H26  1  0.79300000  0.08648000  0.03595000  1.0
  H  H27  1  0.79300000  0.41353000  0.46405000  1.0
  H  H28  1  0.20700000  0.91352000  0.96405000  1.0
  H  H29  1  0.20700000  0.58647000  0.53595000  1.0
  H  H30  1  0.76264000  0.48395000  0.76521000  1.0
  H  H31  1  0.76264000  0.01605000  0.73479000  1.0
  H  H32  1  0.23736000  0.51605000  0.23478000  1.0
  H  H33  1  0.23736000  0.98395000  0.26522000  1.0
  H  H34  1  0.82045000  0.55077000  0.86393000  1.0
  H  H35  1  0.82045000  0.94923000  0.63607000  1.0
  H  H36  1  0.17955000  0.44923000  0.13607000  1.0
  H  H37  1  0.17955000  0.05077000  0.36393000  1.0
  H  H38  1  0.76609000  0.47053000  0.06031000  1.0
  H  H39  1  0.76609000  0.02948000  0.43969000  1.0
  H  H40  1  0.23390000  0.52947000  0.93969000  1.0
  H  H41  1  0.23390000  0.97053000  0.56031000  1.0
  H  H42  1  0.90769000  0.44192000  0.04864000  1.0
  H  H43  1  0.90769000  0.05809000  0.45136000  1.0
  H  H44  1  0.09231000  0.55809000  0.95136000  1.0
  H  H45  1  0.09231000  0.94192000  0.54864000  1.0
  H  H46  1  0.79912000  0.82204000  0.16053000  1.0
  H  H47  1  0.79912000  0.67796000  0.33947000  1.0
  H  H48  1  0.20088000  0.17796000  0.83947000  1.0
  H  H49  1  0.20088000  0.32204000  0.66054000  1.0
  H  H50  1  0.91424000  0.72844000  0.92864000  1.0
  H  H51  1  0.91424000  0.77156000  0.57136000  1.0
  H  H52  1  0.08576000  0.27156000  0.07136000  1.0
  H  H53  1  0.08576000  0.22844000  0.42864000  1.0
  H  H54  1  0.88782000  0.50767000  0.13596000  1.0
  H  H55  1  0.88782000  0.99233000  0.36404000  1.0
  H  H56  1  0.11218000  0.49233000  0.86404000  1.0
  H  H57  1  0.11218000  0.00768000  0.63596000  1.0
  H  H58  1  0.00389000  0.75597000  0.14789000  1.0
  H  H59  1  0.00389000  0.74403000  0.35211000  1.0
  H  H60  1  0.99611000  0.24403000  0.85211000  1.0
  H  H61  1  0.99611000  0.25597000  0.64788000  1.0
  H  H62  1  0.58967000  0.81665000  0.17341000  1.0
  H  H63  1  0.58967000  0.68335000  0.32659000  1.0
  H  H64  1  0.41033000  0.18335000  0.82659000  1.0
  H  H65  1  0.41033000  0.31665000  0.67341000  1.0
  H  H66  1  0.43166000  0.10065000  0.08427000  1.0
  H  H67  1  0.43166000  0.39935000  0.41573000  1.0
  H  H68  1  0.56834000  0.89935000  0.91574000  1.0
  H  H69  1  0.56834000  0.60065000  0.58427000  1.0
  H  H70  1  0.41282000  0.81755000  0.14759000  1.0
  H  H71  1  0.41282000  0.68245000  0.35241000  1.0
  H  H72  1  0.58717000  0.18245000  0.85241000  1.0
  H  H73  1  0.58718000  0.31755000  0.64759000  1.0
  H  H74  1  0.99759000  0.14932000  0.20135000  1.0
  H  H75  1  0.99759000  0.35068000  0.29865000  1.0
  H  H76  1  0.00242000  0.85068000  0.79865000  1.0
  H  H77  1  0.00242000  0.64932000  0.70135000  1.0
  H  H78  1  0.20668000  0.14452000  0.20028000  1.0
  H  H79  1  0.20668000  0.35548000  0.29972000  1.0
  H  H80  1  0.79332000  0.85548000  0.79972000  1.0
  H  H81  1  0.79333000  0.64452000  0.70028000  1.0
  H  H82  1  0.36884000  0.22217000  0.14246000  1.0
  H  H83  1  0.36884000  0.27783000  0.35754000  1.0
  H  H84  1  0.63117000  0.77783000  0.85754000  1.0
  H  H85  1  0.63117000  0.72217000  0.64246000  1.0
  H  H86  1  0.58042000  0.22064000  0.14805000  1.0
  H  H87  1  0.58041000  0.27936000  0.35195000  1.0
  H  H88  1  0.41959000  0.77936000  0.85195000  1.0
  H  H89  1  0.41959000  0.72064000  0.64805000  1.0
  H  H90  1  0.22094000  0.10226000  0.08492000  1.0
  H  H91  1  0.22094000  0.39774000  0.41508000  1.0
  H  H92  1  0.77906000  0.89774000  0.91508000  1.0
  H  H93  1  0.77905000  0.60226000  0.58492000  1.0
  H  H94  1  0.20333000  0.83213000  0.14997000  1.0
  H  H95  1  0.20333000  0.66787000  0.35003000  1.0
  H  H96  1  0.79667000  0.16787000  0.85003000  1.0
  H  H97  1  0.79667000  0.33213000  0.64997000  1.0
  C  C98  1  0.76157000  0.28517000  0.06399000  1.0
  C  C99  1  0.76157000  0.21483000  0.43601000  1.0
  C  C100  1  0.23843000  0.71483000  0.93601000  1.0
  C  C101  1  0.23843000  0.78517000  0.56399000  1.0
  C  C102  1  0.76298000  0.34420000  0.98153000  1.0
  C  C103  1  0.76298000  0.15580000  0.51847000  1.0
  C  C104  1  0.23702000  0.65580000  0.01847000  1.0
  C  C105  1  0.23702000  0.84420000  0.48153000  1.0
  C  C106  1  0.72999000  0.30765000  0.92483000  1.0
  C  C107  1  0.72999000  0.19235000  0.57517000  1.0
  C  C108  1  0.27001000  0.69235000  0.07517000  1.0
  C  C109  1  0.27001000  0.80765000  0.42483000  1.0
  C  C110  1  0.62817000  0.03114000  0.07063000  1.0
  C  C111  1  0.62817000  0.46886000  0.42937000  1.0
  C  C112  1  0.37183000  0.96886000  0.92938000  1.0
  C  C113  1  0.37183000  0.53114000  0.57062000  1.0
  C  C114  1  0.72898000  0.35678000  0.84751000  1.0
  C  C115  1  0.72898000  0.14321000  0.65249000  1.0
  C  C116  1  0.27102000  0.64321000  0.15249000  1.0
  C  C117  1  0.27102000  0.85678000  0.34751000  1.0
  C  C118  1  0.74512000  0.02777000  0.06559000  1.0
  C  C119  1  0.74512000  0.47223000  0.43442000  1.0
  C  C120  1  0.25488000  0.97223000  0.93441000  1.0
  C  C121  1  0.25488000  0.52777000  0.56558000  1.0
  C  C122  1  0.76128000  0.44478000  0.82563000  1.0
  C  C123  1  0.76128000  0.05522000  0.67437000  1.0
  C  C124  1  0.23872000  0.55522000  0.17437000  1.0
  C  C125  1  0.23872000  0.94478000  0.32563000  1.0
  C  C126  1  0.79415000  0.48240000  0.88106000  1.0
  C  C127  1  0.79415000  0.01760000  0.61894000  1.0
  C  C128  1  0.20585000  0.51760000  0.11894000  1.0
  C  C129  1  0.20585000  0.98240000  0.38106000  1.0
  C  C130  1  0.79568000  0.43341000  0.95909000  1.0
  C  C131  1  0.79568000  0.06659000  0.54091000  1.0
  C  C132  1  0.20431000  0.56659000  0.04091000  1.0
  C  C133  1  0.20431000  0.93341000  0.45909000  1.0
  C  C134  1  0.83280000  0.47570000  0.01730000  1.0
  C  C135  1  0.83280000  0.02430000  0.48269000  1.0
  C  C136  1  0.16720000  0.52430000  0.98269000  1.0
  C  C137  1  0.16719000  0.97570000  0.51730000  1.0
  C  C138  1  0.89478000  0.61241000  0.02652000  1.0
  C  C139  1  0.89478000  0.88759000  0.47348000  1.0
  C  C140  1  0.10522000  0.38759000  0.97348000  1.0
  C  C141  1  0.10522000  0.11241000  0.52652000  1.0
  C  C142  1  0.74779000  0.88042000  0.13487000  1.0
  C  C143  1  0.74779000  0.61958000  0.36513000  1.0
  C  C144  1  0.25221000  0.11958000  0.86513000  1.0
  C  C145  1  0.25221000  0.38042000  0.63487000  1.0
  C  C146  1  0.92174000  0.70068000  0.99062000  1.0
  C  C147  1  0.92174000  0.79932000  0.50938000  1.0
  C  C148  1  0.07826000  0.29932000  0.00938000  1.0
  C  C149  1  0.07826000  0.20068000  0.49062000  1.0
  C  C150  1  0.90656000  0.57616000  0.10603000  1.0
  C  C151  1  0.90656000  0.92384000  0.39397000  1.0
  C  C152  1  0.09344000  0.42384000  0.89397000  1.0
  C  C153  1  0.09344000  0.07616000  0.60603000  1.0
  C  C154  1  0.44257000  0.95840000  0.11526000  1.0
  C  C155  1  0.44257000  0.54160000  0.38474000  1.0
  C  C156  1  0.55743000  0.04160000  0.88474000  1.0
  C  C157  1  0.55743000  0.45840000  0.61526000  1.0
  C  C158  1  0.94578000  0.62860000  0.14893000  1.0
  C  C159  1  0.94578000  0.87140000  0.35107000  1.0
  C  C160  1  0.05422000  0.37140000  0.85107000  1.0
  C  C161  1  0.05422000  0.12860000  0.64893000  1.0
  C  C162  1  0.56732000  0.95542000  0.10964000  1.0
  C  C163  1  0.56732000  0.54458000  0.39036000  1.0
  C  C164  1  0.43268000  0.04458000  0.89036000  1.0
  C  C165  1  0.43268000  0.45542000  0.60964000  1.0
  C  C166  1  0.96076000  0.75250000  0.03384000  1.0
  C  C167  1  0.96076000  0.74750000  0.46615000  1.0
  C  C168  1  0.03924000  0.24750000  0.96615000  1.0
  C  C169  1  0.03924000  0.25250000  0.53385000  1.0
  C  C170  1  0.97307000  0.71660000  0.11344000  1.0
  C  C171  1  0.97307000  0.78340000  0.38656000  1.0
  C  C172  1  0.02693000  0.28340000  0.88656000  1.0
  C  C173  1  0.02692000  0.21660000  0.61344000  1.0
  C  C174  1  0.98994000  0.84623000  0.99411000  1.0
  C  C175  1  0.98994000  0.65377000  0.50589000  1.0
  C  C176  1  0.01006000  0.15377000  0.00589000  1.0
  C  C177  1  0.01006000  0.34623000  0.49411000  1.0
  C  C178  1  0.63045000  0.87828000  0.14183000  1.0
  C  C179  1  0.63045000  0.62172000  0.35816000  1.0
  C  C180  1  0.36955000  0.12171000  0.85817000  1.0
  C  C181  1  0.36955000  0.37829000  0.64183000  1.0
  C  C182  1  0.96184000  0.58842000  0.23342000  1.0
  C  C183  1  0.96184000  0.91158000  0.26658000  1.0
  C  C184  1  0.03816000  0.41158000  0.76658000  1.0
  C  C185  1  0.03816000  0.08842000  0.73342000  1.0
  C  C186  1  0.38548000  0.03897000  0.09853000  1.0
  C  C187  1  0.38548000  0.46103000  0.40147000  1.0
  C  C188  1  0.61452000  0.96103000  0.90147000  1.0
  C  C189  1  0.61452000  0.53897000  0.59853000  1.0
  C  C190  1  0.37520000  0.88252000  0.13489000  1.0
  C  C191  1  0.37520000  0.61748000  0.36511000  1.0
  C  C192  1  0.62479000  0.11748000  0.86511000  1.0
  C  C193  1  0.62480000  0.38252000  0.63489000  1.0
  C  C194  1  0.04650000  0.19393000  0.22298000  1.0
  C  C195  1  0.04650000  0.30607000  0.27702000  1.0
  C  C196  1  0.95350000  0.80607000  0.77702000  1.0
  C  C197  1  0.95350000  0.69393000  0.72298000  1.0
  C  C198  1  0.16410000  0.19207000  0.22192000  1.0
  C  C199  1  0.16410000  0.30793000  0.27808000  1.0
  C  C200  1  0.83590000  0.80793000  0.77808000  1.0
  C  C201  1  0.83590000  0.69206000  0.72192000  1.0
  C  C202  1  0.22580000  0.25000000  0.25000000  1.0
  C  C203  1  0.77420000  0.75000000  0.75000000  1.0
  C  C204  1  0.35059000  0.25000000  0.25000000  1.0
  C  C205  1  0.64942000  0.75000000  0.75000000  1.0
  C  C206  1  0.41225000  0.23332000  0.19089000  1.0
  C  C207  1  0.41225000  0.26668000  0.30912000  1.0
  C  C208  1  0.58776000  0.76668000  0.80912000  1.0
  C  C209  1  0.58775000  0.73332000  0.69088000  1.0
  C  C210  1  0.52989000  0.23362000  0.19307000  1.0
  C  C211  1  0.52989000  0.26638000  0.30693000  1.0
  C  C212  1  0.47012000  0.76638000  0.80693000  1.0
  C  C213  1  0.47012000  0.73362000  0.69307000  1.0
  C  C214  1  0.26809000  0.04078000  0.09946000  1.0
  C  C215  1  0.26809000  0.45922000  0.40054000  1.0
  C  C216  1  0.73191000  0.95922000  0.90054000  1.0
  C  C217  1  0.73191000  0.54078000  0.59946000  1.0
  C  C218  1  0.25777000  0.88988000  0.13562000  1.0
  C  C219  1  0.25777000  0.61012000  0.36438000  1.0
  C  C220  1  0.74222000  0.11012000  0.86438000  1.0
  C  C221  1  0.74222000  0.38988000  0.63562000  1.0
  N  N222  1  0.98850000  0.25000000  0.25000000  1.0
  N  N223  1  0.01150000  0.75000000  0.75000000  1.0
  N  N224  1  0.80466000  0.95406000  0.09726000  1.0
  N  N225  1  0.80466000  0.54594000  0.40274000  1.0
  N  N226  1  0.19534000  0.04594000  0.90274000  1.0
  N  N227  1  0.19534000  0.45406000  0.59726000  1.0
  N  N228  1  0.58800000  0.25000000  0.25000000  1.0
  N  N229  1  0.41201000  0.75000000  0.75000000  1.0
  N  N230  1  0.20461000  0.96763000  0.11753000  1.0
  N  N231  1  0.20461000  0.53237000  0.38247000  1.0
  N  N232  1  0.79538000  0.03237000  0.88247000  1.0
  N  N233  1  0.79538000  0.46764000  0.61753000  1.0
  O  O234  1  0.72850000  0.20632000  0.07663000  1.0
  O  O235  1  0.72850000  0.29368000  0.42337000  1.0
  O  O236  1  0.27150000  0.79368000  0.92337000  1.0
  O  O237  1  0.27150000  0.70632000  0.57663000  1.0
  O  O238  1  0.99894000  0.63681000  0.27163000  1.0
  O  O239  1  0.99894000  0.86319000  0.22837000  1.0
  O  O240  1  0.00106000  0.36319000  0.72837000  1.0
  O  O241  1  0.00106000  0.13681000  0.77163000  1.0
  O  O242  1  0.79193000  0.31789000  0.11590000  1.0
  O  O243  1  0.79194000  0.18211000  0.38410000  1.0
  O  O244  1  0.20807000  0.68211000  0.88410000  1.0
  O  O245  1  0.20807000  0.81789000  0.61591000  1.0
  O  O246  1  0.85925000  0.56651000  0.97961000  1.0
  O  O247  1  0.85925000  0.93349000  0.52039000  1.0
  O  O248  1  0.14075000  0.43349000  0.02039000  1.0
  O  O249  1  0.14075000  0.06651000  0.47961000  1.0
  O  O250  1  0.93974000  0.50695000  0.26505000  1.0
  O  O251  1  0.93974000  0.99304000  0.23495000  1.0
  O  O252  1  0.06026000  0.49304000  0.73495000  1.0
  O  O253  1  0.06026000  0.00696000  0.76505000  1.0
  O  O254  1  0.03803000  0.89147000  0.03120000  1.0
  O  O255  1  0.03802000  0.60853000  0.46880000  1.0
  O  O256  1  0.96198000  0.10853000  0.96880000  1.0
  O  O257  1  0.96198000  0.39147000  0.53120000  1.0
  O  O258  1  0.96606000  0.87816000  0.92287000  1.0
  O  O259  1  0.96605000  0.62184000  0.57713000  1.0
  O  O260  1  0.03395000  0.12184000  0.07713000  1.0
  O  O261  1  0.03394000  0.37816000  0.42287000  1.0
  O  O262  1  0.77215000  0.38384000  0.27764000  1.0
  O  O263  1  0.77215000  0.11616000  0.22236000  1.0
  O  O264  1  0.22785000  0.61615000  0.72236000  1.0
  O  O265  1  0.22785000  0.88384000  0.77764000  1.0
