# generated using pymatgen
data_CuH8C9S(NO)3
_symmetry_space_group_name_H-M   'P 1'
_cell_length_a   9.30269000
_cell_length_b   10.51680000
_cell_length_c   12.36590000
_cell_angle_alpha   85.00790000
_cell_angle_beta   78.61540000
_cell_angle_gamma   63.74570000
_symmetry_Int_Tables_number   1
_chemical_formula_structural   CuH8C9S(NO)3
_chemical_formula_sum   'Cu4 H32 C36 S4 N12 O12'
_cell_volume   1063.65888304
_cell_formula_units_Z   4
loop_
 _symmetry_equiv_pos_site_id
 _symmetry_equiv_pos_as_xyz
  1  'x, y, z'
loop_
 _atom_site_type_symbol
 _atom_site_label
 _atom_site_symmetry_multiplicity
 _atom_site_fract_x
 _atom_site_fract_y
 _atom_site_fract_z
 _atom_site_occupancy
  Cu  Cu0  1  0.36653000  0.16199000  0.52725000  1.0
  Cu  Cu1  1  0.47140000  0.16201000  0.97280000  1.0
  Cu  Cu2  1  0.63347000  0.83801000  0.47276000  1.0
  Cu  Cu3  1  0.52861000  0.83799000  0.02720000  1.0
  H  H4  1  0.20043000  0.14738000  0.75426000  1.0
  H  H5  1  0.65198000  0.14732000  0.74576000  1.0
  H  H6  1  0.79957000  0.85262000  0.24574000  1.0
  H  H7  1  0.34802000  0.85268000  0.25424000  1.0
  H  H8  1  0.31944000  0.70056000  0.80422000  1.0
  H  H9  1  0.98036000  0.70060000  0.69578000  1.0
  H  H10  1  0.68056000  0.29943000  0.19578000  1.0
  H  H11  1  0.01964000  0.29940000  0.30422000  1.0
  H  H12  1  0.51465000  0.66158000  0.62893000  1.0
  H  H13  1  0.82406000  0.66160000  0.87099000  1.0
  H  H14  1  0.48535000  0.33842000  0.37108000  1.0
  H  H15  1  0.17593000  0.33840000  0.12901000  1.0
  H  H16  1  0.12919000  0.16176000  0.93286000  1.0
  H  H17  1  0.70904000  0.16180000  0.56730000  1.0
  H  H18  1  0.87081000  0.83823000  0.06714000  1.0
  H  H19  1  0.29096000  0.83820000  0.43270000  1.0
  H  H20  1  0.07509000  0.77939000  0.89880000  1.0
  H  H21  1  0.14566000  0.77943000  0.60110000  1.0
  H  H22  1  0.92491000  0.22061000  0.10120000  1.0
  H  H23  1  0.85434000  0.22057000  0.39890000  1.0
  H  H24  1  0.77365000  0.37723000  0.65164000  1.0
  H  H25  1  0.84920000  0.37712000  0.84831000  1.0
  H  H26  1  0.22635000  0.62276000  0.34836000  1.0
  H  H27  1  0.15080000  0.62288000  0.15168000  1.0
  H  H28  1  0.77383000  0.47685000  0.52810000  1.0
  H  H29  1  0.74931000  0.47672000  0.97191000  1.0
  H  H30  1  0.22617000  0.52315000  0.47190000  1.0
  H  H31  1  0.25069000  0.52328000  0.02810000  1.0
  H  H32  1  0.82166000  0.52477000  0.64881000  1.0
  H  H33  1  0.65362000  0.52468000  0.85119000  1.0
  H  H34  1  0.17834000  0.47524000  0.35119000  1.0
  H  H35  1  0.34637000  0.47533000  0.14881000  1.0
  C  C36  1  0.26808000  0.03513000  0.73340000  1.0
  C  C37  1  0.69668000  0.03509000  0.76660000  1.0
  C  C38  1  0.73192000  0.96487000  0.26660000  1.0
  C  C39  1  0.30332000  0.96491000  0.23340000  1.0
  C  C40  1  0.23932000  0.93014000  0.80015000  1.0
  C  C41  1  0.83064000  0.93015000  0.69987000  1.0
  C  C42  1  0.76068000  0.06986000  0.19985000  1.0
  C  C43  1  0.16936000  0.06985000  0.30013000  1.0
  C  C44  1  0.33129000  0.79111000  0.76086000  1.0
  C  C45  1  0.87787000  0.79114000  0.73912000  1.0
  C  C46  1  0.66871000  0.20889000  0.23914000  1.0
  C  C47  1  0.12213000  0.20886000  0.26088000  1.0
  C  C48  1  0.44234000  0.76784000  0.66296000  1.0
  C  C49  1  0.79004000  0.76785000  0.83697000  1.0
  C  C50  1  0.55766000  0.23216000  0.33704000  1.0
  C  C51  1  0.20996000  0.23215000  0.16303000  1.0
  C  C52  1  0.11718000  0.96649000  0.90190000  1.0
  C  C53  1  0.91641000  0.96653000  0.59814000  1.0
  C  C54  1  0.88282000  0.03351000  0.09810000  1.0
  C  C55  1  0.08358000  0.03347000  0.40187000  1.0
  C  C56  1  0.07159000  0.09120000  0.96075000  1.0
  C  C57  1  0.83721000  0.09123000  0.53935000  1.0
  C  C58  1  0.92841000  0.90879000  0.03925000  1.0
  C  C59  1  0.16278000  0.90877000  0.46066000  1.0
  C  C60  1  0.04358000  0.87619000  0.94278000  1.0
  C  C61  1  0.08031000  0.87622000  0.55717000  1.0
  C  C62  1  0.95641000  0.12381000  0.05722000  1.0
  C  C63  1  0.91968000  0.12378000  0.44283000  1.0
  C  C64  1  0.00350000  0.34794000  0.56446000  1.0
  C  C65  1  0.64859000  0.34785000  0.93541000  1.0
  C  C66  1  0.99651000  0.65206000  0.43553000  1.0
  C  C67  1  0.35141000  0.65215000  0.06459000  1.0
  C  C68  1  0.83358000  0.43687000  0.60049000  1.0
  C  C69  1  0.72959000  0.43675000  0.89947000  1.0
  C  C70  1  0.16643000  0.56313000  0.39951000  1.0
  C  C71  1  0.27041000  0.56325000  0.10053000  1.0
  S  S72  1  0.38335000  0.42169000  0.68016000  1.0
  S  S73  1  0.19491000  0.42166000  0.81982000  1.0
  S  S74  1  0.61664000  0.57831000  0.31985000  1.0
  S  S75  1  0.80509000  0.57834000  0.18018000  1.0
  N  N76  1  0.37594000  0.00783000  0.63926000  1.0
  N  N77  1  0.61615000  0.00779000  0.86073000  1.0
  N  N78  1  0.62407000  0.99217000  0.36074000  1.0
  N  N79  1  0.38385000  0.99221000  0.13928000  1.0
  N  N80  1  0.46712000  0.87226000  0.60395000  1.0
  N  N81  1  0.66071000  0.87223000  0.89601000  1.0
  N  N82  1  0.53289000  0.12774000  0.39605000  1.0
  N  N83  1  0.33929000  0.12778000  0.10400000  1.0
  N  N84  1  0.14161000  0.27680000  0.53525000  1.0
  N  N85  1  0.58157000  0.27678000  0.96469000  1.0
  N  N86  1  0.85838000  0.72321000  0.46475000  1.0
  N  N87  1  0.41843000  0.72322000  0.03531000  1.0
  O  O88  1  0.44228000  0.28556000  0.62237000  1.0
  O  O89  1  0.27219000  0.28556000  0.87754000  1.0
  O  O90  1  0.55773000  0.71444000  0.37764000  1.0
  O  O91  1  0.72781000  0.71444000  0.12246000  1.0
  O  O92  1  0.29533000  0.54711000  0.61648000  1.0
  O  O93  1  0.15739000  0.54708000  0.88359000  1.0
  O  O94  1  0.70467000  0.45289000  0.38352000  1.0
  O  O95  1  0.84261000  0.45292000  0.11641000  1.0
  O  O96  1  0.50947000  0.43010000  0.72990000  1.0
  O  O97  1  0.06047000  0.43001000  0.77002000  1.0
  O  O98  1  0.49053000  0.56991000  0.27010000  1.0
  O  O99  1  0.93953000  0.56999000  0.22998000  1.0
