# generated using pymatgen
data_MnH10(C7N5)2
_symmetry_space_group_name_H-M   'P 1'
_cell_length_a   7.82037000
_cell_length_b   8.27793000
_cell_length_c   11.45700000
_cell_angle_alpha   93.39370000
_cell_angle_beta   102.14000000
_cell_angle_gamma   101.56800000
_symmetry_Int_Tables_number   1
_chemical_formula_structural   MnH10(C7N5)2
_chemical_formula_sum   'Mn2 H20 C28 N20'
_cell_volume   706.38076638
_cell_formula_units_Z   2
loop_
 _symmetry_equiv_pos_site_id
 _symmetry_equiv_pos_as_xyz
  1  'x, y, z'
loop_
 _atom_site_type_symbol
 _atom_site_label
 _atom_site_symmetry_multiplicity
 _atom_site_fract_x
 _atom_site_fract_y
 _atom_site_fract_z
 _atom_site_occupancy
  Mn  Mn0  1  0.85188000  0.06097000  0.07636000  1.0
  Mn  Mn1  1  0.14812000  0.93905000  0.92363000  1.0
  H  H2  1  0.63634000  0.86851000  0.25743000  1.0
  H  H3  1  0.36366000  0.13149000  0.74257000  1.0
  H  H4  1  0.45928000  0.65106000  0.52366000  1.0
  H  H5  1  0.54074000  0.34895000  0.47634000  1.0
  H  H6  1  0.84439000  0.13866000  0.60766000  1.0
  H  H7  1  0.15563000  0.86134000  0.39233000  1.0
  H  H8  1  0.11881000  0.37666000  0.01122000  1.0
  H  H9  1  0.88120000  0.62336000  0.98879000  1.0
  H  H10  1  0.08931000  0.27404000  0.70355000  1.0
  H  H11  1  0.91068000  0.72593000  0.29646000  1.0
  H  H12  1  0.26872000  0.52040000  0.82727000  1.0
  H  H13  1  0.73125000  0.47959000  0.17275000  1.0
  H  H14  1  0.62105000  0.91717000  0.47480000  1.0
  H  H15  1  0.37896000  0.08285000  0.52519000  1.0
  H  H16  1  0.38589000  0.68113000  0.34273000  1.0
  H  H17  1  0.61412000  0.31884000  0.65727000  1.0
  H  H18  1  0.46777000  0.72006000  0.72979000  1.0
  H  H19  1  0.53224000  0.27995000  0.27023000  1.0
  H  H20  1  0.32558000  0.63796000  0.12022000  1.0
  H  H21  1  0.67441000  0.36205000  0.87980000  1.0
  C  C22  1  0.73063000  0.96837000  0.31853000  1.0
  C  C23  1  0.26938000  0.03164000  0.68146000  1.0
  C  C24  1  0.08022000  0.31035000  0.28543000  1.0
  C  C25  1  0.91978000  0.68966000  0.71457000  1.0
  C  C26  1  0.85012000  0.11978000  0.51391000  1.0
  C  C27  1  0.14986000  0.88020000  0.48610000  1.0
  C  C28  1  0.20423000  0.44871000  0.35677000  1.0
  C  C29  1  0.79580000  0.55131000  0.64321000  1.0
  C  C30  1  0.22851000  0.46266000  0.48466000  1.0
  C  C31  1  0.77150000  0.53732000  0.51533000  1.0
  C  C32  1  0.96864000  0.19496000  0.34128000  1.0
  C  C33  1  0.03137000  0.80504000  0.65873000  1.0
  C  C34  1  0.11761000  0.35262000  0.53849000  1.0
  C  C35  1  0.88238000  0.64736000  0.46150000  1.0
  C  C36  1  0.14403000  0.40150000  0.10851000  1.0
  C  C37  1  0.85597000  0.59850000  0.89150000  1.0
  C  C38  1  0.98048000  0.22252000  0.46662000  1.0
  C  C39  1  0.01947000  0.77743000  0.53339000  1.0
  C  C40  1  0.26430000  0.50535000  0.73187000  1.0
  C  C41  1  0.73569000  0.49464000  0.26814000  1.0
  C  C42  1  0.72450000  0.99395000  0.43952000  1.0
  C  C43  1  0.27551000  0.00605000  0.56048000  1.0
  C  C44  1  0.29470000  0.56864000  0.29456000  1.0
  C  C45  1  0.70533000  0.43138000  0.70544000  1.0
  C  C46  1  0.37053000  0.61243000  0.68034000  1.0
  C  C47  1  0.62947000  0.38756000  0.31967000  1.0
  C  C48  1  0.26266000  0.54583000  0.17086000  1.0
  C  C49  1  0.73734000  0.45418000  0.82915000  1.0
  N  N50  1  0.50580000  0.81567000  0.99698000  1.0
  N  N51  1  0.49418000  0.18435000  0.00303000  1.0
  N  N52  1  0.91196000  0.07437000  0.89893000  1.0
  N  N53  1  0.08808000  0.92567000  0.10105000  1.0
  N  N54  1  0.78802000  0.03214000  0.81274000  1.0
  N  N55  1  0.21200000  0.96788000  0.18725000  1.0
  N  N56  1  0.66272000  0.83173000  0.03471000  1.0
  N  N57  1  0.33725000  0.16833000  0.96530000  1.0
  N  N58  1  0.05516000  0.28770000  0.16437000  1.0
  N  N59  1  0.94481000  0.71227000  0.83561000  1.0
  N  N60  1  0.84983000  0.06585000  0.27071000  1.0
  N  N61  1  0.15018000  0.93415000  0.72926000  1.0
  N  N62  1  0.66895000  0.99091000  0.72856000  1.0
  N  N63  1  0.33104000  0.00908000  0.27145000  1.0
  N  N64  1  0.35308000  0.59585000  0.55542000  1.0
  N  N65  1  0.64694000  0.40414000  0.44459000  1.0
  N  N66  1  0.13312000  0.37397000  0.66210000  1.0
  N  N67  1  0.86687000  0.62600000  0.33790000  1.0
  N  N68  1  0.34850000  0.79322000  0.96029000  1.0
  N  N69  1  0.65147000  0.20675000  0.03972000  1.0
