# generated using pymatgen
data_H28Pb5C20Br2(N2O9)2
_symmetry_space_group_name_H-M   'P 1'
_cell_length_a   7.65768000
_cell_length_b   8.88889000
_cell_length_c   13.60280000
_cell_angle_alpha   72.60700000
_cell_angle_beta   80.40140000
_cell_angle_gamma   74.84250000
_symmetry_Int_Tables_number   1
_chemical_formula_structural   H28Pb5C20Br2(N2O9)2
_chemical_formula_sum   'H28 Pb5 C20 Br2 N4 O18'
_cell_volume   848.89062654
_cell_formula_units_Z   1
loop_
 _symmetry_equiv_pos_site_id
 _symmetry_equiv_pos_as_xyz
  1  'x, y, z'
loop_
 _atom_site_type_symbol
 _atom_site_label
 _atom_site_symmetry_multiplicity
 _atom_site_fract_x
 _atom_site_fract_y
 _atom_site_fract_z
 _atom_site_occupancy
  H  H0  1  0.88306000  0.17284000  0.24832000  1.0
  H  H1  1  0.11697000  0.82715000  0.75166000  1.0
  H  H2  1  0.74838000  0.26261000  0.15884000  1.0
  H  H3  1  0.25163000  0.73739000  0.84115000  1.0
  H  H4  1  0.01152000  0.47087000  0.16518000  1.0
  H  H5  1  0.98847000  0.52915000  0.83482000  1.0
  H  H6  1  0.81137000  0.47067000  0.25086000  1.0
  H  H7  1  0.18862000  0.52935000  0.74914000  1.0
  H  H8  1  0.80879000  0.58539000  0.39807000  1.0
  H  H9  1  0.19122000  0.41462000  0.60194000  1.0
  H  H10  1  0.68600000  0.73698000  0.30134000  1.0
  H  H11  1  0.31400000  0.26304000  0.69867000  1.0
  H  H12  1  0.12425000  0.00019000  0.13284000  1.0
  H  H13  1  0.87574000  0.99980000  0.86715000  1.0
  H  H14  1  0.30338000  0.00206000  0.03110000  1.0
  H  H15  1  0.69661000  0.99792000  0.96890000  1.0
  H  H16  1  0.47687000  0.72766000  0.00108000  1.0
  H  H17  1  0.52313000  0.27232000  0.99892000  1.0
  H  H18  1  0.56520000  0.74573000  0.10751000  1.0
  H  H19  1  0.43478000  0.25427000  0.89249000  1.0
  H  H20  1  0.84761000  0.75649000  0.11081000  1.0
  H  H21  1  0.15238000  0.24350000  0.88919000  1.0
  H  H22  1  0.91887000  0.88182000  0.16813000  1.0
  H  H23  1  0.08113000  0.11819000  0.83186000  1.0
  H  H24  1  0.17756000  0.61714000  0.07584000  1.0
  H  H25  1  0.82242000  0.38286000  0.92416000  1.0
  H  H26  1  0.11814000  0.82188000  0.00700000  1.0
  H  H27  1  0.88186000  0.17811000  0.99300000  1.0
  Pb  Pb28  1  0.27813000  0.61915000  0.32953000  1.0
  Pb  Pb29  1  0.72186000  0.38086000  0.67048000  1.0
  Pb  Pb30  1  0.49325000  0.14232000  0.32421000  1.0
  Pb  Pb31  1  0.50678000  0.85768000  0.67578000  1.0
  Pb  Pb32  1  0.00003000  0.00003000  0.49999000  1.0
  C  C33  1  0.05493000  0.33559000  0.31956000  1.0
  C  C34  1  0.94506000  0.66441000  0.68044000  1.0
  C  C35  1  0.95360000  0.48193000  0.24285000  1.0
  C  C36  1  0.04640000  0.51810000  0.75715000  1.0
  C  C37  1  0.82060000  0.69047000  0.33131000  1.0
  C  C38  1  0.17941000  0.30955000  0.66869000  1.0
  C  C39  1  0.85922000  0.81739000  0.37333000  1.0
  C  C40  1  0.14079000  0.18263000  0.62668000  1.0
  C  C41  1  0.37756000  0.98153000  0.18168000  1.0
  C  C42  1  0.62242000  0.01846000  0.81832000  1.0
  C  C43  1  0.26654000  0.94293000  0.11301000  1.0
  C  C44  1  0.73345000  0.05706000  0.88699000  1.0
  C  C45  1  0.52476000  0.51215000  0.12815000  1.0
  C  C46  1  0.47524000  0.48784000  0.87186000  1.0
  C  C47  1  0.46428000  0.69547000  0.08622000  1.0
  C  C48  1  0.53571000  0.30452000  0.91378000  1.0
  C  C49  1  0.95621000  0.76198000  0.15322000  1.0
  C  C50  1  0.04378000  0.23803000  0.84678000  1.0
  C  C51  1  0.13553000  0.73998000  0.08559000  1.0
  C  C52  1  0.86445000  0.26001000  0.91441000  1.0
  Br  Br53  1  0.64504000  0.29472000  0.46017000  1.0
  Br  Br54  1  0.35499000  0.70527000  0.53983000  1.0
  N  N55  1  0.96429000  0.63841000  0.25400000  1.0
  N  N56  1  0.03571000  0.36160000  0.74600000  1.0
  N  N57  1  0.28354000  0.76884000  0.12988000  1.0
  N  N58  1  0.71645000  0.23115000  0.87012000  1.0
  O  O59  1  0.14238000  0.35428000  0.38459000  1.0
  O  O60  1  0.85759000  0.64571000  0.61542000  1.0
  O  O61  1  0.78862000  0.15619000  0.21217000  1.0
  O  O62  1  0.21139000  0.84380000  0.78782000  1.0
  O  O63  1  0.04847000  0.19698000  0.31177000  1.0
  O  O64  1  0.95155000  0.80304000  0.68820000  1.0
  O  O65  1  0.02317000  0.83340000  0.36358000  1.0
  O  O66  1  0.97684000  0.16661000  0.63643000  1.0
  O  O67  1  0.73103000  0.90035000  0.41984000  1.0
  O  O68  1  0.26898000  0.09967000  0.58017000  1.0
  O  O69  1  0.41937000  0.87733000  0.26683000  1.0
  O  O70  1  0.58061000  0.12265000  0.73317000  1.0
  O  O71  1  0.41653000  0.11920000  0.15166000  1.0
  O  O72  1  0.58348000  0.88077000  0.84834000  1.0
  O  O73  1  0.43116000  0.44203000  0.20834000  1.0
  O  O74  1  0.56885000  0.55797000  0.79167000  1.0
  O  O75  1  0.66790000  0.44290000  0.08462000  1.0
  O  O76  1  0.33209000  0.55710000  0.91539000  1.0
