# generated using pymatgen
data_ZnH16C25(NO2)2
_symmetry_space_group_name_H-M   'P 1'
_cell_length_a   16.43380000
_cell_length_b   18.18830000
_cell_length_c   21.91110000
_cell_angle_alpha   90.00000000
_cell_angle_beta   108.94400000
_cell_angle_gamma   90.00000000
_symmetry_Int_Tables_number   1
_chemical_formula_structural   ZnH16C25(NO2)2
_chemical_formula_sum   'Zn8 H128 C200 N16 O32'
_cell_volume   6194.55735184
_cell_formula_units_Z   8
loop_
 _symmetry_equiv_pos_site_id
 _symmetry_equiv_pos_as_xyz
  1  'x, y, z'
loop_
 _atom_site_type_symbol
 _atom_site_label
 _atom_site_symmetry_multiplicity
 _atom_site_fract_x
 _atom_site_fract_y
 _atom_site_fract_z
 _atom_site_occupancy
  Zn  Zn0  1  0.44206000  0.55148000  0.71965000  1.0
  Zn  Zn1  1  0.05794000  0.05148000  0.78035000  1.0
  Zn  Zn2  1  0.55794000  0.44852000  0.28035000  1.0
  Zn  Zn3  1  0.94206000  0.94852000  0.21965000  1.0
  Zn  Zn4  1  0.53932000  0.45905000  0.65934000  1.0
  Zn  Zn5  1  0.96068000  0.95905000  0.84066000  1.0
  Zn  Zn6  1  0.46068000  0.54095000  0.34066000  1.0
  Zn  Zn7  1  0.03932000  0.04095000  0.15934000  1.0
  H  H8  1  0.54906000  0.60738000  0.51275000  1.0
  H  H9  1  0.95094000  0.10738000  0.98725000  1.0
  H  H10  1  0.45094000  0.39262000  0.48725000  1.0
  H  H11  1  0.04906000  0.89262000  0.01275000  1.0
  H  H12  1  0.53078000  0.69920000  0.42659000  1.0
  H  H13  1  0.96922000  0.19920000  0.07341000  1.0
  H  H14  1  0.46923000  0.30080000  0.57341000  1.0
  H  H15  1  0.03078000  0.80080000  0.92659000  1.0
  H  H16  1  0.41126000  0.84764000  0.52576000  1.0
  H  H17  1  0.08874000  0.34764000  0.97424000  1.0
  H  H18  1  0.58875000  0.15236000  0.47424000  1.0
  H  H19  1  0.91126000  0.65236000  0.02576000  1.0
  H  H20  1  0.42694000  0.75195000  0.61139000  1.0
  H  H21  1  0.07306000  0.25195000  0.88861000  1.0
  H  H22  1  0.57306000  0.24805000  0.38861000  1.0
  H  H23  1  0.92694000  0.74805000  0.11139000  1.0
  H  H24  1  0.16038000  0.82505000  0.36567000  1.0
  H  H25  1  0.33962000  0.32505000  0.13433000  1.0
  H  H26  1  0.83962000  0.17495000  0.63433000  1.0
  H  H27  1  0.66038000  0.67495000  0.86567000  1.0
  H  H28  1  0.30567000  0.77578000  0.42463000  1.0
  H  H29  1  0.19433000  0.27578000  0.07537000  1.0
  H  H30  1  0.69433000  0.22422000  0.57537000  1.0
  H  H31  1  0.80567000  0.72422000  0.92463000  1.0
  H  H32  1  0.41971000  0.94805000  0.34388000  1.0
  H  H33  1  0.08029000  0.44805000  0.15612000  1.0
  H  H34  1  0.58029000  0.05195000  0.65612000  1.0
  H  H35  1  0.91971000  0.55195000  0.84388000  1.0
  H  H36  1  0.27315000  0.99284000  0.28147000  1.0
  H  H37  1  0.22685000  0.49284000  0.21853000  1.0
  H  H38  1  0.72685000  0.00716000  0.71853000  1.0
  H  H39  1  0.77315000  0.50716000  0.78147000  1.0
  H  H40  1  0.94162000  0.87140000  0.34128000  1.0
  H  H41  1  0.55838000  0.37139000  0.15872000  1.0
  H  H42  1  0.05838000  0.12861000  0.65872000  1.0
  H  H43  1  0.44162000  0.62861000  0.84128000  1.0
  H  H44  1  0.83238000  0.83323000  0.39194000  1.0
  H  H45  1  0.66762000  0.33323000  0.10806000  1.0
  H  H46  1  0.16762000  0.16677000  0.60806000  1.0
  H  H47  1  0.33238000  0.66677000  0.89194000  1.0
  H  H48  1  0.63595000  0.89427000  0.21359000  1.0
  H  H49  1  0.86405000  0.39427000  0.28641000  1.0
  H  H50  1  0.36405000  0.10572000  0.78641000  1.0
  H  H51  1  0.13595000  0.60573000  0.71359000  1.0
  H  H52  1  0.75411000  0.92790000  0.17060000  1.0
  H  H53  1  0.74589000  0.42790000  0.32940000  1.0
  H  H54  1  0.24589000  0.07210000  0.82940000  1.0
  H  H55  1  0.25411000  0.57210000  0.67060000  1.0
  H  H56  1  0.55720000  0.81749000  0.24709000  1.0
  H  H57  1  0.94280000  0.31749000  0.25291000  1.0
  H  H58  1  0.44280000  0.18251000  0.75291000  1.0
  H  H59  1  0.05720000  0.68251000  0.74709000  1.0
  H  H60  1  0.44100000  0.80760000  0.29443000  1.0
  H  H61  1  0.05900000  0.30760000  0.20557000  1.0
  H  H62  1  0.55900000  0.19240000  0.70557000  1.0
  H  H63  1  0.94100000  0.69240000  0.79443000  1.0
  H  H64  1  0.61865000  0.86223000  0.48143000  1.0
  H  H65  1  0.88135000  0.36223000  0.01857000  1.0
  H  H66  1  0.38135000  0.13777000  0.51857000  1.0
  H  H67  1  0.11865000  0.63777000  0.98143000  1.0
  H  H68  1  0.73504000  0.87628000  0.43394000  1.0
  H  H69  1  0.76496000  0.37628000  0.06606000  1.0
  H  H70  1  0.26496000  0.12372000  0.56606000  1.0
  H  H71  1  0.23504000  0.62372000  0.93394000  1.0
  H  H72  1  0.33156000  0.30635000  0.56392000  1.0
  H  H73  1  0.16844000  0.80635000  0.93608000  1.0
  H  H74  1  0.66844000  0.69365000  0.43608000  1.0
  H  H75  1  0.83156000  0.19365000  0.06392000  1.0
  H  H76  1  0.19471000  0.24121000  0.50792000  1.0
  H  H77  1  0.30529000  0.74121000  0.99208000  1.0
  H  H78  1  0.80529000  0.75878000  0.49208000  1.0
  H  H79  1  0.69471000  0.25879000  0.00792000  1.0
  H  H80  1  0.05281000  0.43684000  0.52037000  1.0
  H  H81  1  0.44719000  0.93684000  0.97963000  1.0
  H  H82  1  0.94719000  0.56316000  0.47963000  1.0
  H  H83  1  0.55281000  0.06316000  0.02037000  1.0
  H  H84  1  0.19052000  0.50111000  0.57670000  1.0
  H  H85  1  0.30948000  0.00111000  0.92330000  1.0
  H  H86  1  0.80948000  0.49889000  0.42330000  1.0
  H  H87  1  0.69052000  0.99889000  0.07670000  1.0
  H  H88  1  0.92370000  0.09514000  0.35592000  1.0
  H  H89  1  0.57630000  0.59514000  0.14408000  1.0
  H  H90  1  0.07630000  0.90486000  0.64408000  1.0
  H  H91  1  0.42370000  0.40486000  0.85592000  1.0
  H  H92  1  0.93792000  0.17822000  0.44952000  1.0
  H  H93  1  0.56208000  0.67822000  0.05048000  1.0
  H  H94  1  0.06208000  0.82178000  0.55048000  1.0
  H  H95  1  0.43792000  0.32178000  0.94952000  1.0
  H  H96  1  0.11554000  0.31338000  0.39120000  1.0
  H  H97  1  0.38446000  0.81338000  0.10880000  1.0
  H  H98  1  0.88446000  0.68662000  0.60880000  1.0
  H  H99  1  0.61554000  0.18662000  0.89120000  1.0
  H  H100  1  0.10221000  0.22805000  0.29944000  1.0
  H  H101  1  0.39779000  0.72805000  0.20056000  1.0
  H  H102  1  0.89779000  0.77195000  0.70056000  1.0
  H  H103  1  0.60221000  0.27195000  0.79944000  1.0
  H  H104  1  0.58116000  0.47938000  0.53692000  1.0
  H  H105  1  0.91884000  0.97938000  0.96308000  1.0
  H  H106  1  0.41884000  0.52062000  0.46308000  1.0
  H  H107  1  0.08116000  0.02061000  0.03692000  1.0
  H  H108  1  0.69353000  0.44035000  0.49137000  1.0
  H  H109  1  0.80647000  0.94035000  0.00863000  1.0
  H  H110  1  0.30647000  0.55965000  0.50863000  1.0
  H  H111  1  0.19353000  0.05965000  0.99137000  1.0
  H  H112  1  0.80992000  0.31730000  0.66781000  1.0
  H  H113  1  0.69008000  0.81730000  0.83219000  1.0
  H  H114  1  0.19008000  0.68270000  0.33219000  1.0
  H  H115  1  0.30992000  0.18270000  0.16781000  1.0
  H  H116  1  0.69176000  0.36234000  0.70551000  1.0
  H  H117  1  0.80824000  0.86234000  0.79449000  1.0
  H  H118  1  0.30824000  0.63766000  0.29449000  1.0
  H  H119  1  0.19176000  0.13766000  0.20551000  1.0
  H  H120  1  0.75422000  0.35919000  0.44921000  1.0
  H  H121  1  0.74578000  0.85919000  0.05079000  1.0
  H  H122  1  0.24578000  0.64081000  0.55079000  1.0
  H  H123  1  0.25422000  0.14081000  0.94921000  1.0
  H  H124  1  0.87184000  0.32558000  0.40770000  1.0
  H  H125  1  0.62816000  0.82558000  0.09230000  1.0
  H  H126  1  0.12816000  0.67442000  0.59230000  1.0
  H  H127  1  0.37184000  0.17442000  0.90770000  1.0
  H  H128  1  0.04290000  0.29758000  0.60238000  1.0
  H  H129  1  0.45710000  0.79758000  0.89762000  1.0
  H  H130  1  0.95710000  0.70242000  0.39762000  1.0
  H  H131  1  0.54290000  0.20242000  0.10238000  1.0
  H  H132  1  0.92592000  0.33060000  0.64437000  1.0
  H  H133  1  0.57408000  0.83060000  0.85563000  1.0
  H  H134  1  0.07408000  0.66941000  0.35563000  1.0
  H  H135  1  0.42592000  0.16940000  0.14437000  1.0
  C  C136  1  0.48830000  0.61352000  0.61316000  1.0
  C  C137  1  0.01170000  0.11352000  0.88684000  1.0
  C  C138  1  0.51170000  0.38648000  0.38684000  1.0
  C  C139  1  0.98830000  0.88648000  0.11316000  1.0
  C  C140  1  0.48792000  0.67368000  0.56688000  1.0
  C  C141  1  0.01208000  0.17368000  0.93312000  1.0
  C  C142  1  0.51208000  0.32632000  0.43312000  1.0
  C  C143  1  0.98792000  0.82632000  0.06688000  1.0
  C  C144  1  0.51986000  0.66029000  0.51596000  1.0
  C  C145  1  0.98014000  0.16029000  0.98404000  1.0
  C  C146  1  0.48014000  0.33970000  0.48404000  1.0
  C  C147  1  0.01986000  0.83971000  0.01596000  1.0
  C  C148  1  0.51045000  0.71230000  0.46794000  1.0
  C  C149  1  0.98955000  0.21230000  0.03206000  1.0
  C  C150  1  0.48955000  0.28770000  0.53206000  1.0
  C  C151  1  0.01045000  0.78770000  0.96794000  1.0
  C  C152  1  0.47002000  0.77942000  0.47091000  1.0
  C  C153  1  0.02998000  0.27942000  0.02909000  1.0
  C  C154  1  0.52998000  0.22058000  0.52909000  1.0
  C  C155  1  0.97002000  0.72058000  0.97091000  1.0
  C  C156  1  0.44169000  0.79490000  0.52348000  1.0
  C  C157  1  0.05831000  0.29490000  0.97652000  1.0
  C  C158  1  0.55831000  0.20510000  0.47652000  1.0
  C  C159  1  0.94169000  0.70509000  0.02348000  1.0
  C  C160  1  0.45022000  0.74191000  0.57089000  1.0
  C  C161  1  0.04978000  0.24191000  0.92911000  1.0
  C  C162  1  0.54978000  0.25809000  0.42911000  1.0
  C  C163  1  0.95022000  0.75809000  0.07089000  1.0
  C  C164  1  0.12101000  0.93732000  0.27814000  1.0
  C  C165  1  0.37899000  0.43732000  0.22186000  1.0
  C  C166  1  0.87899000  0.06268000  0.72186000  1.0
  C  C167  1  0.62101000  0.56268000  0.77814000  1.0
  C  C168  1  0.20755000  0.91152000  0.31921000  1.0
  C  C169  1  0.29245000  0.41152000  0.18079000  1.0
  C  C170  1  0.79245000  0.08848000  0.68079000  1.0
  C  C171  1  0.70755000  0.58848000  0.81921000  1.0
  C  C172  1  0.21766000  0.85150000  0.36100000  1.0
  C  C173  1  0.28234000  0.35150000  0.13900000  1.0
  C  C174  1  0.78234000  0.14850000  0.63900000  1.0
  C  C175  1  0.71766000  0.64850000  0.86100000  1.0
  C  C176  1  0.29902000  0.82414000  0.39421000  1.0
  C  C177  1  0.20098000  0.32414000  0.10579000  1.0
  C  C178  1  0.70098000  0.17586000  0.60579000  1.0
  C  C179  1  0.79902000  0.67586000  0.89421000  1.0
  C  C180  1  0.37290000  0.85775000  0.38756000  1.0
  C  C181  1  0.12710000  0.35775000  0.11244000  1.0
  C  C182  1  0.62710000  0.14225000  0.61244000  1.0
  C  C183  1  0.87290000  0.64225000  0.88756000  1.0
  C  C184  1  0.36293000  0.92041000  0.34804000  1.0
  C  C185  1  0.13707000  0.42041000  0.15196000  1.0
  C  C186  1  0.63707000  0.07959000  0.65196000  1.0
  C  C187  1  0.86293000  0.57959000  0.84804000  1.0
  C  C188  1  0.28137000  0.94577000  0.31365000  1.0
  C  C189  1  0.21863000  0.44577000  0.18635000  1.0
  C  C190  1  0.71863000  0.05423000  0.68635000  1.0
  C  C191  1  0.78137000  0.55423000  0.81365000  1.0
  C  C192  1  0.87283000  0.87507000  0.31500000  1.0
  C  C193  1  0.62717000  0.37507000  0.18500000  1.0
  C  C194  1  0.12717000  0.12493000  0.68500000  1.0
  C  C195  1  0.37283000  0.62493000  0.81500000  1.0
  C  C196  1  0.81137000  0.85469000  0.34283000  1.0
  C  C197  1  0.68863000  0.35469000  0.15717000  1.0
  C  C198  1  0.18863000  0.14531000  0.65717000  1.0
  C  C199  1  0.31137000  0.64531000  0.84283000  1.0
  C  C200  1  0.72316000  0.86210000  0.30778000  1.0
  C  C201  1  0.77684000  0.36210000  0.19222000  1.0
  C  C202  1  0.27683000  0.13790000  0.69222000  1.0
  C  C203  1  0.22316000  0.63790000  0.80778000  1.0
  C  C204  1  0.70273000  0.88664000  0.24360000  1.0
  C  C205  1  0.79727000  0.38664000  0.25640000  1.0
  C  C206  1  0.29727000  0.11336000  0.75640000  1.0
  C  C207  1  0.20273000  0.61336000  0.74360000  1.0
  C  C208  1  0.76764000  0.90574000  0.21910000  1.0
  C  C209  1  0.73236000  0.40574000  0.28090000  1.0
  C  C210  1  0.23236000  0.09426000  0.78090000  1.0
  C  C211  1  0.26764000  0.59426000  0.71910000  1.0
  C  C212  1  0.65527000  0.84911000  0.33660000  1.0
  C  C213  1  0.84473000  0.34911000  0.16340000  1.0
  C  C214  1  0.34473000  0.15089000  0.66340000  1.0
  C  C215  1  0.15527000  0.65089000  0.83660000  1.0
  C  C216  1  0.57116000  0.82997000  0.29815000  1.0
  C  C217  1  0.92884000  0.32997000  0.20185000  1.0
  C  C218  1  0.42884000  0.17003000  0.70185000  1.0
  C  C219  1  0.07116000  0.67003000  0.79815000  1.0
  C  C220  1  0.50535000  0.82362000  0.32457000  1.0
  C  C221  1  0.99465000  0.32363000  0.17542000  1.0
  C  C222  1  0.49465000  0.17637000  0.67542000  1.0
  C  C223  1  0.00535000  0.67637000  0.82458000  1.0
  C  C224  1  0.52156000  0.83606000  0.39073000  1.0
  C  C225  1  0.97844000  0.33606000  0.10927000  1.0
  C  C226  1  0.47844000  0.16394000  0.60927000  1.0
  C  C227  1  0.02156000  0.66394000  0.89073000  1.0
  C  C228  1  0.60573000  0.85303000  0.42998000  1.0
  C  C229  1  0.89427000  0.35303000  0.07002000  1.0
  C  C230  1  0.39427000  0.14697000  0.57002000  1.0
  C  C231  1  0.10573000  0.64697000  0.92998000  1.0
  C  C232  1  0.67118000  0.85961000  0.40314000  1.0
  C  C233  1  0.82882000  0.35961000  0.09686000  1.0
  C  C234  1  0.32882000  0.14039000  0.59686000  1.0
  C  C235  1  0.17118000  0.64039000  0.90314000  1.0
  C  C236  1  0.35238000  0.44627000  0.60915000  1.0
  C  C237  1  0.14762000  0.94627000  0.89085000  1.0
  C  C238  1  0.64761000  0.55373000  0.39085000  1.0
  C  C239  1  0.85239000  0.05373000  0.10916000  1.0
  C  C240  1  0.26996000  0.40797000  0.57387000  1.0
  C  C241  1  0.23004000  0.90797000  0.92613000  1.0
  C  C242  1  0.73004000  0.59203000  0.42613000  1.0
  C  C243  1  0.76996000  0.09203000  0.07387000  1.0
  C  C244  1  0.27032000  0.33480000  0.55379000  1.0
  C  C245  1  0.22968000  0.83480000  0.94621000  1.0
  C  C246  1  0.72968000  0.66520000  0.44621000  1.0
  C  C247  1  0.77032000  0.16520000  0.05379000  1.0
  C  C248  1  0.19376000  0.29824000  0.52293000  1.0
  C  C249  1  0.30624000  0.79824000  0.97707000  1.0
  C  C250  1  0.80624000  0.70176000  0.47707000  1.0
  C  C251  1  0.69376000  0.20176000  0.02293000  1.0
  C  C252  1  0.11472000  0.33466000  0.51077000  1.0
  C  C253  1  0.38529000  0.83466000  0.98923000  1.0
  C  C254  1  0.88528000  0.66534000  0.48923000  1.0
  C  C255  1  0.61471000  0.16534000  0.01077000  1.0
  C  C256  1  0.11405000  0.40828000  0.53020000  1.0
  C  C257  1  0.38595000  0.90828000  0.96980000  1.0
  C  C258  1  0.88595000  0.59172000  0.46980000  1.0
  C  C259  1  0.61405000  0.09172000  0.03020000  1.0
  C  C260  1  0.19087000  0.44402000  0.56177000  1.0
  C  C261  1  0.30913000  0.94402000  0.93823000  1.0
  C  C262  1  0.80913000  0.55598000  0.43823000  1.0
  C  C263  1  0.69087000  0.05598000  0.06177000  1.0
  C  C264  1  0.00410000  0.10536000  0.26672000  1.0
  C  C265  1  0.49590000  0.60536000  0.23328000  1.0
  C  C266  1  0.99590000  0.89464000  0.73328000  1.0
  C  C267  1  0.50410000  0.39464000  0.76672000  1.0
  C  C268  1  0.01134000  0.15681000  0.32150000  1.0
  C  C269  1  0.48866000  0.65681000  0.17850000  1.0
  C  C270  1  0.98866000  0.84319000  0.67850000  1.0
  C  C271  1  0.51134000  0.34319000  0.82150000  1.0
  C  C272  1  0.96494000  0.14351000  0.36398000  1.0
  C  C273  1  0.53506000  0.64351000  0.13602000  1.0
  C  C274  1  0.03506000  0.85649000  0.63602000  1.0
  C  C275  1  0.46494000  0.35649000  0.86398000  1.0
  C  C276  1  0.97291000  0.18984000  0.41602000  1.0
  C  C277  1  0.52709000  0.68984000  0.08398000  1.0
  C  C278  1  0.02709000  0.81016000  0.58398000  1.0
  C  C279  1  0.47291000  0.31016000  0.91602000  1.0
  C  C280  1  0.02723000  0.25162000  0.42642000  1.0
  C  C281  1  0.47277000  0.75162000  0.07358000  1.0
  C  C282  1  0.97277000  0.74838000  0.57358000  1.0
  C  C283  1  0.52723000  0.24838000  0.92642000  1.0
  C  C284  1  0.07334000  0.26564000  0.38357000  1.0
  C  C285  1  0.42665000  0.76564000  0.11643000  1.0
  C  C286  1  0.92666000  0.73436000  0.61643000  1.0
  C  C287  1  0.57334000  0.23436000  0.88357000  1.0
  C  C288  1  0.06585000  0.21818000  0.33230000  1.0
  C  C289  1  0.43415000  0.71818000  0.16770000  1.0
  C  C290  1  0.93415000  0.78182000  0.66770000  1.0
  C  C291  1  0.56585000  0.28182000  0.83230000  1.0
  C  C292  1  0.63302000  0.44318000  0.56405000  1.0
  C  C293  1  0.86698000  0.94318000  0.93595000  1.0
  C  C294  1  0.36698000  0.55682000  0.43595000  1.0
  C  C295  1  0.13302000  0.05682000  0.06405000  1.0
  C  C296  1  0.69645000  0.42086000  0.53905000  1.0
  C  C297  1  0.80355000  0.92086000  0.96095000  1.0
  C  C298  1  0.30355000  0.57914000  0.46095000  1.0
  C  C299  1  0.19645000  0.07914000  0.03905000  1.0
  C  C300  1  0.76305000  0.37448000  0.57539000  1.0
  C  C301  1  0.73695000  0.87448000  0.92461000  1.0
  C  C302  1  0.23695000  0.62552000  0.42461000  1.0
  C  C303  1  0.26305000  0.12552000  0.07539000  1.0
  C  C304  1  0.76149000  0.35400000  0.63702000  1.0
  C  C305  1  0.73851000  0.85401000  0.86298000  1.0
  C  C306  1  0.23851000  0.64600000  0.36298000  1.0
  C  C307  1  0.26149000  0.14600000  0.13702000  1.0
  C  C308  1  0.69554000  0.37827000  0.65851000  1.0
  C  C309  1  0.80446000  0.87827000  0.84148000  1.0
  C  C310  1  0.30446000  0.62173000  0.34149000  1.0
  C  C311  1  0.19554000  0.12173000  0.15851000  1.0
  C  C312  1  0.83121000  0.34944000  0.55022000  1.0
  C  C313  1  0.66879000  0.84944000  0.94978000  1.0
  C  C314  1  0.16879000  0.65056000  0.44978000  1.0
  C  C315  1  0.33121000  0.15056000  0.05022000  1.0
  C  C316  1  0.81747000  0.34618000  0.48333000  1.0
  C  C317  1  0.68253000  0.84618000  0.01667000  1.0
  C  C318  1  0.18253000  0.65382000  0.51666000  1.0
  C  C319  1  0.31747000  0.15382000  0.98334000  1.0
  C  C320  1  0.88348000  0.32719000  0.45961000  1.0
  C  C321  1  0.61652000  0.82720000  0.04039000  1.0
  C  C322  1  0.11652000  0.67280000  0.54039000  1.0
  C  C323  1  0.38348000  0.17280000  0.95961000  1.0
  C  C324  1  0.96602000  0.31132000  0.50232000  1.0
  C  C325  1  0.53398000  0.81132000  0.99768000  1.0
  C  C326  1  0.03398000  0.68868000  0.49768000  1.0
  C  C327  1  0.46602000  0.18868000  0.00232000  1.0
  C  C328  1  0.97942000  0.31117000  0.56902000  1.0
  C  C329  1  0.52059000  0.81117000  0.93098000  1.0
  C  C330  1  0.02058000  0.68883000  0.43098000  1.0
  C  C331  1  0.47942000  0.18883000  0.06902000  1.0
  C  C332  1  0.91308000  0.32981000  0.59234000  1.0
  C  C333  1  0.58692000  0.82981000  0.90766000  1.0
  C  C334  1  0.08692000  0.67019000  0.40766000  1.0
  C  C335  1  0.41308000  0.17019000  0.09234000  1.0
  N  N336  1  0.45569000  0.82952000  0.41893000  1.0
  N  N337  1  0.04431000  0.32952000  0.08107000  1.0
  N  N338  1  0.54431000  0.17048000  0.58107000  1.0
  N  N339  1  0.95569000  0.67048000  0.91893000  1.0
  N  N340  1  0.85174000  0.90157000  0.25436000  1.0
  N  N341  1  0.64826000  0.40157000  0.24564000  1.0
  N  N342  1  0.14826000  0.09843000  0.74564000  1.0
  N  N343  1  0.35174000  0.59843000  0.75436000  1.0
  N  N344  1  0.03605000  0.29809000  0.47968000  1.0
  N  N345  1  0.46395000  0.79809000  0.02032000  1.0
  N  N346  1  0.96395000  0.70191000  0.52032000  1.0
  N  N347  1  0.53605000  0.20191000  0.97968000  1.0
  N  N348  1  0.63168000  0.42196000  0.62263000  1.0
  N  N349  1  0.86832000  0.92196000  0.87737000  1.0
  N  N350  1  0.36832000  0.57804000  0.37737000  1.0
  N  N351  1  0.13168000  0.07804000  0.12263000  1.0
  O  O352  1  0.50969000  0.54983000  0.59945000  1.0
  O  O353  1  0.99030000  0.04983000  0.90055000  1.0
  O  O354  1  0.49031000  0.45017000  0.40055000  1.0
  O  O355  1  0.00969000  0.95017000  0.09945000  1.0
  O  O356  1  0.46480000  0.62992000  0.66148000  1.0
  O  O357  1  0.03520000  0.12992000  0.83852000  1.0
  O  O358  1  0.53520000  0.37008000  0.33852000  1.0
  O  O359  1  0.96479000  0.87008000  0.16148000  1.0
  O  O360  1  0.05450000  0.91758000  0.29200000  1.0
  O  O361  1  0.44550000  0.41758000  0.20800000  1.0
  O  O362  1  0.94550000  0.08242000  0.70800000  1.0
  O  O363  1  0.55450000  0.58242000  0.79200000  1.0
  O  O364  1  0.12070000  0.97718000  0.23027000  1.0
  O  O365  1  0.37930000  0.47718000  0.26973000  1.0
  O  O366  1  0.87930000  0.02282000  0.76973000  1.0
  O  O367  1  0.62070000  0.52282000  0.73027000  1.0
  O  O368  1  0.34719000  0.50789000  0.63536000  1.0
  O  O369  1  0.15281000  0.00789000  0.86464000  1.0
  O  O370  1  0.65281000  0.49211000  0.36464000  1.0
  O  O371  1  0.84719000  0.99211000  0.13536000  1.0
  O  O372  1  0.42190000  0.41405000  0.61052000  1.0
  O  O373  1  0.07810000  0.91405000  0.88947000  1.0
  O  O374  1  0.57810000  0.58595000  0.38948000  1.0
  O  O375  1  0.92190000  0.08595000  0.11053000  1.0
  O  O376  1  0.95164000  0.05179000  0.25977000  1.0
  O  O377  1  0.54836000  0.55179000  0.24023000  1.0
  O  O378  1  0.04836000  0.94821000  0.74023000  1.0
  O  O379  1  0.45164000  0.44821000  0.75977000  1.0
  O  O380  1  0.05058000  0.11855000  0.23138000  1.0
  O  O381  1  0.44942000  0.61855000  0.26862000  1.0
  O  O382  1  0.94942000  0.88145000  0.76862000  1.0
  O  O383  1  0.55058000  0.38145000  0.73138000  1.0
