# generated using pymatgen
data_ZnH7C10NO5
_symmetry_space_group_name_H-M   'P 1'
_cell_length_a   6.45906000
_cell_length_b   11.55290000
_cell_length_c   13.27990000
_cell_angle_alpha   88.90690000
_cell_angle_beta   80.04550000
_cell_angle_gamma   80.02910000
_symmetry_Int_Tables_number   1
_chemical_formula_structural   ZnH7C10NO5
_chemical_formula_sum   'Zn4 H28 C40 N4 O20'
_cell_volume   961.23676625
_cell_formula_units_Z   4
loop_
 _symmetry_equiv_pos_site_id
 _symmetry_equiv_pos_as_xyz
  1  'x, y, z'
loop_
 _atom_site_type_symbol
 _atom_site_label
 _atom_site_symmetry_multiplicity
 _atom_site_fract_x
 _atom_site_fract_y
 _atom_site_fract_z
 _atom_site_occupancy
  Zn  Zn0  1  0.07141000  0.65225000  0.80152000  1.0
  Zn  Zn1  1  0.92859000  0.34775000  0.19848000  1.0
  Zn  Zn2  1  0.72256000  0.03640000  0.90810000  1.0
  Zn  Zn3  1  0.27744000  0.96360000  0.09191000  1.0
  H  H4  1  0.11763000  0.02964000  0.79348000  1.0
  H  H5  1  0.88238000  0.97036000  0.20653000  1.0
  H  H6  1  0.50189000  0.27911000  0.72788000  1.0
  H  H7  1  0.49811000  0.72090000  0.27212000  1.0
  H  H8  1  0.12592000  0.26311000  0.86965000  1.0
  H  H9  1  0.87408000  0.73688000  0.13035000  1.0
  H  H10  1  0.25675000  0.39300000  0.01206000  1.0
  H  H11  1  0.74324000  0.60699000  0.98794000  1.0
  H  H12  1  0.61409000  0.39031000  0.92162000  1.0
  H  H13  1  0.38590000  0.60969000  0.07839000  1.0
  H  H14  1  0.70333000  0.51612000  0.74166000  1.0
  H  H15  1  0.29666000  0.48388000  0.25833000  1.0
  H  H16  1  0.56026000  0.49221000  0.58383000  1.0
  H  H17  1  0.43975000  0.50779000  0.41617000  1.0
  H  H18  1  0.70218000  0.59474000  0.42192000  1.0
  H  H19  1  0.29782000  0.40526000  0.57808000  1.0
  H  H20  1  0.92635000  0.74329000  0.34265000  1.0
  H  H21  1  0.07365000  0.25671000  0.65735000  1.0
  H  H22  1  0.20506000  0.86019000  0.35451000  1.0
  H  H23  1  0.79495000  0.13982000  0.64549000  1.0
  H  H24  1  0.48885000  0.90856000  0.45170000  1.0
  H  H25  1  0.51114000  0.09144000  0.54830000  1.0
  H  H26  1  0.61742000  0.90709000  0.62061000  1.0
  H  H27  1  0.38258000  0.09291000  0.37939000  1.0
  H  H28  1  0.44337000  0.80203000  0.76675000  1.0
  H  H29  1  0.55663000  0.19797000  0.23325000  1.0
  H  H30  1  0.10937000  0.93191000  0.88354000  1.0
  H  H31  1  0.89063000  0.06809000  0.11646000  1.0
  C  C32  1  0.46289000  0.23201000  0.79958000  1.0
  C  C33  1  0.53711000  0.76799000  0.20042000  1.0
  C  C34  1  0.26706000  0.30526000  0.86525000  1.0
  C  C35  1  0.73294000  0.69473000  0.13475000  1.0
  C  C36  1  0.33193000  0.31046000  0.97186000  1.0
  C  C37  1  0.66807000  0.68954000  0.02814000  1.0
  C  C38  1  0.57686000  0.30256000  0.94240000  1.0
  C  C39  1  0.42314000  0.69744000  0.05760000  1.0
  C  C40  1  0.43009000  0.10972000  0.77284000  1.0
  C  C41  1  0.56992000  0.89028000  0.22716000  1.0
  C  C42  1  0.21258000  0.42922000  0.82282000  1.0
  C  C43  1  0.78741000  0.57078000  0.17719000  1.0
  C  C44  1  0.27534000  0.20780000  0.03896000  1.0
  C  C45  1  0.72467000  0.79220000  0.96104000  1.0
  C  C46  1  0.70183000  0.25412000  0.02645000  1.0
  C  C47  1  0.29817000  0.74588000  0.97355000  1.0
  C  C48  1  0.76311000  0.55936000  0.67163000  1.0
  C  C49  1  0.23688000  0.44064000  0.32837000  1.0
  C  C50  1  0.68215000  0.54669000  0.58140000  1.0
  C  C51  1  0.31785000  0.45331000  0.41860000  1.0
  C  C52  1  0.75790000  0.60384000  0.49402000  1.0
  C  C53  1  0.24210000  0.39617000  0.50598000  1.0
  C  C54  1  0.91438000  0.67480000  0.49712000  1.0
  C  C55  1  0.08563000  0.32520000  0.50288000  1.0
  C  C56  1  0.99549000  0.74137000  0.41203000  1.0
  C  C57  1  0.00452000  0.25863000  0.58796000  1.0
  C  C58  1  0.15024000  0.80659000  0.41875000  1.0
  C  C59  1  0.84976000  0.19341000  0.58125000  1.0
  C  C60  1  0.24102000  0.80739000  0.50973000  1.0
  C  C61  1  0.75897000  0.19261000  0.49026000  1.0
  C  C62  1  0.41297000  0.86525000  0.51826000  1.0
  C  C63  1  0.58703000  0.13475000  0.48174000  1.0
  C  C64  1  0.48653000  0.86325000  0.61005000  1.0
  C  C65  1  0.51346000  0.13675000  0.38996000  1.0
  C  C66  1  0.39004000  0.80333000  0.69329000  1.0
  C  C67  1  0.60996000  0.19667000  0.30671000  1.0
  C  C68  1  0.15760000  0.74603000  0.59673000  1.0
  C  C69  1  0.84240000  0.25397000  0.40327000  1.0
  C  C70  1  0.99037000  0.67999000  0.59060000  1.0
  C  C71  1  0.00963000  0.32001000  0.40939000  1.0
  N  N72  1  0.91406000  0.62331000  0.67561000  1.0
  N  N73  1  0.08594000  0.37669000  0.32439000  1.0
  N  N74  1  0.23174000  0.74557000  0.68639000  1.0
  N  N75  1  0.76826000  0.25443000  0.31361000  1.0
  O  O76  1  0.63980000  0.22525000  0.85463000  1.0
  O  O77  1  0.36020000  0.77476000  0.14537000  1.0
  O  O78  1  0.02342000  0.98203000  0.83850000  1.0
  O  O79  1  0.97658000  0.01797000  0.16150000  1.0
  O  O80  1  0.27603000  0.10712000  0.72652000  1.0
  O  O81  1  0.72398000  0.89288000  0.27347000  1.0
  O  O82  1  0.55824000  0.01960000  0.79484000  1.0
  O  O83  1  0.44177000  0.98039000  0.20517000  1.0
  O  O84  1  0.33326000  0.46332000  0.74747000  1.0
  O  O85  1  0.66666667  0.53667000  0.25253000  1.0
  O  O86  1  0.04192000  0.49395000  0.86940000  1.0
  O  O87  1  0.95807000  0.50605000  0.13061000  1.0
  O  O88  1  0.17369000  0.22664000  0.12875000  1.0
  O  O89  1  0.82631000  0.77336000  0.87125000  1.0
  O  O90  1  0.34097000  0.10363000  0.00107000  1.0
  O  O91  1  0.65905000  0.89637000  0.99893000  1.0
  O  O92  1  0.78072000  0.14412000  0.02270000  1.0
  O  O93  1  0.21928000  0.85588000  0.97730000  1.0
  O  O94  1  0.71251000  0.32648000  0.09398000  1.0
  O  O95  1  0.28747000  0.67352000  0.90603000  1.0
