# generated using pymatgen
data_NdH9C7S2O11
_symmetry_space_group_name_H-M   'P 1'
_cell_length_a   6.78338000
_cell_length_b   9.20530000
_cell_length_c   11.36580000
_cell_angle_alpha   113.13500000
_cell_angle_beta   93.93750000
_cell_angle_gamma   104.80600000
_symmetry_Int_Tables_number   1
_chemical_formula_structural   NdH9C7S2O11
_chemical_formula_sum   'Nd2 H18 C14 S4 O22'
_cell_volume   619.45643010
_cell_formula_units_Z   2
loop_
 _symmetry_equiv_pos_site_id
 _symmetry_equiv_pos_as_xyz
  1  'x, y, z'
loop_
 _atom_site_type_symbol
 _atom_site_label
 _atom_site_symmetry_multiplicity
 _atom_site_fract_x
 _atom_site_fract_y
 _atom_site_fract_z
 _atom_site_occupancy
  Nd  Nd0  1  0.66400000  0.17543000  0.77163000  1.0
  Nd  Nd1  1  0.33600000  0.82457000  0.22837000  1.0
  H  H2  1  0.23400000  0.50573000  0.30609000  1.0
  H  H3  1  0.76600000  0.49427000  0.69391000  1.0
  H  H4  1  0.14170000  0.14927000  0.47135000  1.0
  H  H5  1  0.85830000  0.85073000  0.52865000  1.0
  H  H6  1  0.33620000  0.67600000  0.72214000  1.0
  H  H7  1  0.66380000  0.32400000  0.27786000  1.0
  H  H8  1  0.80152000  0.37085000  0.05718000  1.0
  H  H9  1  0.19848000  0.62915000  0.94282000  1.0
  H  H10  1  0.89342000  0.22642000  0.04724000  1.0
  H  H11  1  0.10658000  0.77358000  0.95276000  1.0
  H  H12  1  0.61609000  0.52660000  0.89163000  1.0
  H  H13  1  0.38392000  0.47340000  0.10837000  1.0
  H  H14  1  0.86342000  0.56210000  0.93341000  1.0
  H  H15  1  0.13658000  0.43790000  0.06659000  1.0
  H  H16  1  0.42524000  0.15916000  0.00656000  1.0
  H  H17  1  0.57476000  0.84084000  0.99344000  1.0
  H  H18  1  0.31160000  0.01281000  0.87355000  1.0
  H  H19  1  0.68840000  0.98719000  0.12645000  1.0
  C  C20  1  0.35498000  0.78718000  0.53305000  1.0
  C  C21  1  0.64502000  0.21282000  0.46695000  1.0
  C  C22  1  0.28692000  0.60940000  0.51595000  1.0
  C  C23  1  0.71309000  0.39060000  0.48405000  1.0
  C  C24  1  0.23196000  0.47899000  0.39132000  1.0
  C  C25  1  0.76804000  0.52101000  0.60868000  1.0
  C  C26  1  0.18137000  0.31483000  0.37619000  1.0
  C  C27  1  0.81863000  0.68517000  0.62381000  1.0
  C  C28  1  0.17929000  0.27728000  0.48358000  1.0
  C  C29  1  0.82070000  0.72272000  0.51642000  1.0
  C  C30  1  0.23279000  0.40943000  0.60773000  1.0
  C  C31  1  0.76720000  0.59057000  0.39227000  1.0
  C  C32  1  0.28770000  0.57416000  0.62519000  1.0
  C  C33  1  0.71231000  0.42584000  0.37481000  1.0
  S  S34  1  0.12766000  0.15524000  0.21466000  1.0
  S  S35  1  0.87234000  0.84476000  0.78534000  1.0
  S  S36  1  0.23633000  0.36614000  0.74691000  1.0
  S  S37  1  0.76367000  0.63386000  0.25309000  1.0
  O  O38  1  0.42926000  0.89943000  0.64809000  1.0
  O  O39  1  0.57074000  0.10057000  0.35191000  1.0
  O  O40  1  0.33609000  0.81390000  0.43228000  1.0
  O  O41  1  0.66391000  0.18610000  0.56772000  1.0
  O  O42  1  0.91876000  0.14173000  0.15498000  1.0
  O  O43  1  0.08124000  0.85827000  0.84502000  1.0
  O  O44  1  0.12523000  0.00271000  0.22952000  1.0
  O  O45  1  0.87477000  0.99729000  0.77048000  1.0
  O  O46  1  0.28947000  0.20901000  0.14958000  1.0
  O  O47  1  0.71053000  0.79099000  0.85042000  1.0
  O  O48  1  0.33683000  0.23637000  0.72189000  1.0
  O  O49  1  0.66317000  0.76363000  0.27811000  1.0
  O  O50  1  0.35459000  0.52414000  0.85830000  1.0
  O  O51  1  0.64541000  0.47586000  0.14170000  1.0
  O  O52  1  0.02039000  0.31211000  0.76033000  1.0
  O  O53  1  0.97961000  0.68789000  0.23967000  1.0
  O  O54  1  0.88214000  0.30078000  0.00444000  1.0
  O  O55  1  0.11787000  0.69922000  0.99556000  1.0
  O  O56  1  0.72870000  0.47542000  0.88420000  1.0
  O  O57  1  0.27131000  0.52458000  0.11580000  1.0
  O  O58  1  0.44297000  0.10558000  0.91602000  1.0
  O  O59  1  0.55703000  0.89442000  0.08398000  1.0
