# generated using pymatgen
data_CuP2H18C20(NO3)2
_symmetry_space_group_name_H-M   'P 1'
_cell_length_a   9.72330000
_cell_length_b   11.28270000
_cell_length_c   11.29640000
_cell_angle_alpha   116.23400000
_cell_angle_beta   92.96410000
_cell_angle_gamma   111.63300000
_symmetry_Int_Tables_number   1
_chemical_formula_structural   CuP2H18C20(NO3)2
_chemical_formula_sum   'Cu2 P4 H36 C40 N4 O12'
_cell_volume   998.49101867
_cell_formula_units_Z   2
loop_
 _symmetry_equiv_pos_site_id
 _symmetry_equiv_pos_as_xyz
  1  'x, y, z'
loop_
 _atom_site_type_symbol
 _atom_site_label
 _atom_site_symmetry_multiplicity
 _atom_site_fract_x
 _atom_site_fract_y
 _atom_site_fract_z
 _atom_site_occupancy
  Cu  Cu0  1  0.36431000  0.11229000  0.12538000  1.0
  Cu  Cu1  1  0.63570000  0.88771000  0.87462000  1.0
  P  P2  1  0.32806000  0.78604000  0.97663000  1.0
  P  P3  1  0.67194000  0.21396000  0.02337000  1.0
  P  P4  1  0.74550000  0.99355000  0.20069000  1.0
  P  P5  1  0.25450000  0.00645000  0.79931000  1.0
  H  H6  1  0.48266000  0.76304000  0.10390000  1.0
  H  H7  1  0.51734000  0.23696000  0.89610000  1.0
  H  H8  1  0.67866000  0.17057000  0.23332000  1.0
  H  H9  1  0.32134000  0.82944000  0.76668000  1.0
  H  H10  1  0.33111000  0.30977000  0.01179000  1.0
  H  H11  1  0.66889000  0.69023000  0.98821000  1.0
  H  H12  1  0.28646000  0.53559000  0.11212000  1.0
  H  H13  1  0.71354000  0.46440000  0.88788000  1.0
  H  H14  1  0.24711000  0.63406000  0.34875000  1.0
  H  H15  1  0.75288000  0.36594000  0.65125000  1.0
  H  H16  1  0.24457000  0.61393000  0.56787000  1.0
  H  H17  1  0.75543000  0.38607000  0.43213000  1.0
  H  H18  1  0.28594000  0.49530000  0.69436000  1.0
  H  H19  1  0.71406000  0.50470000  0.30564000  1.0
  H  H20  1  0.34496000  0.28589000  0.69538000  1.0
  H  H21  1  0.65504000  0.71411000  0.30462000  1.0
  H  H22  1  0.40487000  0.07784000  0.56865000  1.0
  H  H23  1  0.59513000  0.92216000  0.43135000  1.0
  H  H24  1  0.42125000  0.00135000  0.32203000  1.0
  H  H25  1  0.57875000  0.99865000  0.67797000  1.0
  H  H26  1  0.08486000  0.74869000  0.87733000  1.0
  H  H27  1  0.91514000  0.25131000  0.12267000  1.0
  H  H28  1  0.07669000  0.58949000  0.87989000  1.0
  H  H29  1  0.92331000  0.41051000  0.12011000  1.0
  H  H30  1  0.02762000  0.92609000  0.05682000  1.0
  H  H31  1  0.97238000  0.07391000  0.94318000  1.0
  H  H32  1  0.94351000  0.88504000  0.41007000  1.0
  H  H33  1  0.05649000  0.11496000  0.58994000  1.0
  H  H34  1  0.01533000  0.67802000  0.32897000  1.0
  H  H35  1  0.98467000  0.32198000  0.67103000  1.0
  H  H36  1  0.09626000  0.59660000  0.11117000  1.0
  H  H37  1  0.90374000  0.40341000  0.88883000  1.0
  H  H38  1  0.94048000  0.08967000  0.39956000  1.0
  H  H39  1  0.05952000  0.91033000  0.60044000  1.0
  H  H40  1  0.01474000  0.13594000  0.27781000  1.0
  H  H41  1  0.98526000  0.86407000  0.72219000  1.0
  C  C42  1  0.31775000  0.35762000  0.11550000  1.0
  C  C43  1  0.68225000  0.64237000  0.88449000  1.0
  C  C44  1  0.28954000  0.48272000  0.17229000  1.0
  C  C45  1  0.71045000  0.51728000  0.82770000  1.0
  C  C46  1  0.26908000  0.53723000  0.30308000  1.0
  C  C47  1  0.73092000  0.46277000  0.69692000  1.0
  C  C48  1  0.28079000  0.46907000  0.37985000  1.0
  C  C49  1  0.71921000  0.53093000  0.62015000  1.0
  C  C50  1  0.26787000  0.51838000  0.51772000  1.0
  C  C51  1  0.73213000  0.48162000  0.48227000  1.0
  C  C52  1  0.28996000  0.45125000  0.58781000  1.0
  C  C53  1  0.71004000  0.54875000  0.41219000  1.0
  C  C54  1  0.32512000  0.32797000  0.52548000  1.0
  C  C55  1  0.67488000  0.67203000  0.47452000  1.0
  C  C56  1  0.35162000  0.25328000  0.59031000  1.0
  C  C57  1  0.64838000  0.74673000  0.40969000  1.0
  C  C58  1  0.38576000  0.13596000  0.51889000  1.0
  C  C59  1  0.61424000  0.86404000  0.48111000  1.0
  C  C60  1  0.39467000  0.09251000  0.38327000  1.0
  C  C61  1  0.60533000  0.90750000  0.61673000  1.0
  C  C62  1  0.33640000  0.27654000  0.38891000  1.0
  C  C63  1  0.66360000  0.72346000  0.61109000  1.0
  C  C64  1  0.31415000  0.34685000  0.31603000  1.0
  C  C65  1  0.68585000  0.65315000  0.68397000  1.0
  C  C66  1  0.12003000  0.70934000  0.94122000  1.0
  C  C67  1  0.87997000  0.29066000  0.05878000  1.0
  C  C68  1  0.06583000  0.75498000  0.06929000  1.0
  C  C69  1  0.93417000  0.24502000  0.93071000  1.0
  C  C70  1  0.02502000  0.87182000  0.11683000  1.0
  C  C71  1  0.97498000  0.12818000  0.88317000  1.0
  C  C72  1  0.98187000  0.92050000  0.23997000  1.0
  C  C73  1  0.01812000  0.07950000  0.76003000  1.0
  C  C74  1  0.97861000  0.84908000  0.31514000  1.0
  C  C75  1  0.02139000  0.15092000  0.68486000  1.0
  C  C76  1  0.01857000  0.73245000  0.26899000  1.0
  C  C77  1  0.98143000  0.26755000  0.73102000  1.0
  C  C78  1  0.06249000  0.68600000  0.14700000  1.0
  C  C79  1  0.93751000  0.31400000  0.85300000  1.0
  C  C80  1  0.93735000  0.04516000  0.29057000  1.0
  C  C81  1  0.06265000  0.95484000  0.70943000  1.0
  N  N82  1  0.37030000  0.16174000  0.32084000  1.0
  N  N83  1  0.62970000  0.83826000  0.67916000  1.0
  N  N84  1  0.32948000  0.29198000  0.18608000  1.0
  N  N85  1  0.67052000  0.70802000  0.81392000  1.0
  O  O86  1  0.75820000  0.97818000  0.06052000  1.0
  O  O87  1  0.24180000  0.02182000  0.93948000  1.0
  O  O88  1  0.39985000  0.94481000  0.09442000  1.0
  O  O89  1  0.60015000  0.05518000  0.90558000  1.0
  O  O90  1  0.37160000  0.76228000  0.84242000  1.0
  O  O91  1  0.62840000  0.23772000  0.15758000  1.0
  O  O92  1  0.37558000  0.69507000  0.03061000  1.0
  O  O93  1  0.62442000  0.30493000  0.96939000  1.0
  O  O94  1  0.63331000  0.85747000  0.20083000  1.0
  O  O95  1  0.36669000  0.14254000  0.79917000  1.0
  O  O96  1  0.71971000  0.13484000  0.29105000  1.0
  O  O97  1  0.28029000  0.86516000  0.70895000  1.0
