# generated using pymatgen
data_CdH12C12N3O5
_symmetry_space_group_name_H-M   'P 1'
_cell_length_a   9.57026000
_cell_length_b   9.84879000
_cell_length_c   9.96897000
_cell_angle_alpha   81.76470000
_cell_angle_beta   65.93640000
_cell_angle_gamma   79.74810000
_symmetry_Int_Tables_number   1
_chemical_formula_structural   CdH12C12N3O5
_chemical_formula_sum   'Cd2 H24 C24 N6 O10'
_cell_volume   841.65699381
_cell_formula_units_Z   2
loop_
 _symmetry_equiv_pos_site_id
 _symmetry_equiv_pos_as_xyz
  1  'x, y, z'
loop_
 _atom_site_type_symbol
 _atom_site_label
 _atom_site_symmetry_multiplicity
 _atom_site_fract_x
 _atom_site_fract_y
 _atom_site_fract_z
 _atom_site_occupancy
  Cd  Cd0  1  0.04255000  0.44553000  0.27835000  1.0
  Cd  Cd1  1  0.95745000  0.55448000  0.72165000  1.0
  H  H2  1  0.81640000  0.21268000  0.00015000  1.0
  H  H3  1  0.17862000  0.99101000  0.12617000  1.0
  H  H4  1  0.50361000  0.33324000  0.33299000  1.0
  H  H5  1  0.27784000  0.68588000  0.58392000  1.0
  H  H6  1  0.55024000  0.10655000  0.56443000  1.0
  H  H7  1  0.57415000  0.92669000  0.60738000  1.0
  H  H8  1  0.81429000  0.01959000  0.41721000  1.0
  H  H9  1  0.71727000  0.06962000  0.29596000  1.0
  H  H10  1  0.75986000  0.62371000  0.15452000  1.0
  H  H11  1  0.95002000  0.76791000  0.41253000  1.0
  H  H12  1  0.30570000  0.53775000  0.03063000  1.0
  H  H13  1  0.17076000  0.57355000  0.96920000  1.0
  H  H14  1  0.18360000  0.78732000  0.99985000  1.0
  H  H15  1  0.82138000  0.00899000  0.87383000  1.0
  H  H16  1  0.49638000  0.66676000  0.66702000  1.0
  H  H17  1  0.72215000  0.31412000  0.41608000  1.0
  H  H18  1  0.44976000  0.89345000  0.43556000  1.0
  H  H19  1  0.42585000  0.07331000  0.39262000  1.0
  H  H20  1  0.18570000  0.98040000  0.58279000  1.0
  H  H21  1  0.28273000  0.93037000  0.70403000  1.0
  H  H22  1  0.24014000  0.37629000  0.84548000  1.0
  H  H23  1  0.04998000  0.23209000  0.58747000  1.0
  H  H24  1  0.69430000  0.46226000  0.96937000  1.0
  H  H25  1  0.82924000  0.42646000  0.03080000  1.0
  C  C26  1  0.99531000  0.23397000  0.14920000  1.0
  C  C27  1  0.99697000  0.11375000  0.07190000  1.0
  C  C28  1  0.89686000  0.11931000  0.99985000  1.0
  C  C29  1  0.10033000  0.99335000  0.07125000  1.0
  C  C30  1  0.24620000  0.52014000  0.40757000  1.0
  C  C31  1  0.37905000  0.51159000  0.45267000  1.0
  C  C32  1  0.50362000  0.40586000  0.40586000  1.0
  C  C33  1  0.37642000  0.60562000  0.54693000  1.0
  C  C34  1  0.56782000  0.00628000  0.51959000  1.0
  C  C35  1  0.72269000  0.99618000  0.38812000  1.0
  C  C36  1  0.78219000  0.68901000  0.22067000  1.0
  C  C37  1  0.88097000  0.76036000  0.35110000  1.0
  C  C38  1  0.00468000  0.76603000  0.85080000  1.0
  C  C39  1  0.00303000  0.88625000  0.92810000  1.0
  C  C40  1  0.10314000  0.88069000  0.00014000  1.0
  C  C41  1  0.89967000  0.00665000  0.92875000  1.0
  C  C42  1  0.75381000  0.47987000  0.59243000  1.0
  C  C43  1  0.62095000  0.48841000  0.54733000  1.0
  C  C44  1  0.49638000  0.59414000  0.59414000  1.0
  C  C45  1  0.62358000  0.39438000  0.45307000  1.0
  C  C46  1  0.43218000  0.99372000  0.48041000  1.0
  C  C47  1  0.27732000  0.00382000  0.61188000  1.0
  C  C48  1  0.21781000  0.31098000  0.77933000  1.0
  C  C49  1  0.11904000  0.23963000  0.64890000  1.0
  N  N50  1  0.77307000  0.85937000  0.33189000  1.0
  N  N51  1  0.70873000  0.81574000  0.24877000  1.0
  N  N52  1  0.88973000  0.65079000  0.28145000  1.0
  N  N53  1  0.22693000  0.14062000  0.66811000  1.0
  N  N54  1  0.29127000  0.18426000  0.75123000  1.0
  N  N55  1  0.11027000  0.34921000  0.71855000  1.0
  O  O56  1  0.91568000  0.34989000  0.13483000  1.0
  O  O57  1  0.07409000  0.21733000  0.22853000  1.0
  O  O58  1  0.26339000  0.44104000  0.30921000  1.0
  O  O59  1  0.12324000  0.60199000  0.46898000  1.0
  O  O60  1  0.21787000  0.50320000  0.02824000  1.0
  O  O61  1  0.08431000  0.65011000  0.86517000  1.0
  O  O62  1  0.92591000  0.78267000  0.77146000  1.0
  O  O63  1  0.73661000  0.55897000  0.69078000  1.0
  O  O64  1  0.87675000  0.39801000  0.53102000  1.0
  O  O65  1  0.78213000  0.49680000  0.97175000  1.0
