# generated using pymatgen
data_ZnH10C16(NO)4
_symmetry_space_group_name_H-M   'P 1'
_cell_length_a   13.91820000
_cell_length_b   13.91820000
_cell_length_c   21.35970000
_cell_angle_alpha   100.54400000
_cell_angle_beta   100.54400000
_cell_angle_gamma   111.61600000
_symmetry_Int_Tables_number   1
_chemical_formula_structural   ZnH10C16(NO)4
_chemical_formula_sum   'Zn8 H80 C128 N32 O32'
_cell_volume   3637.08086308
_cell_formula_units_Z   8
loop_
 _symmetry_equiv_pos_site_id
 _symmetry_equiv_pos_as_xyz
  1  'x, y, z'
loop_
 _atom_site_type_symbol
 _atom_site_label
 _atom_site_symmetry_multiplicity
 _atom_site_fract_x
 _atom_site_fract_y
 _atom_site_fract_z
 _atom_site_occupancy
  Zn  Zn0  1  0.10786000  0.07312000  0.58044000  1.0
  Zn  Zn1  1  0.92688000  0.89214000  0.91956000  1.0
  Zn  Zn2  1  0.89214000  0.92688000  0.41956000  1.0
  Zn  Zn3  1  0.07313000  0.10786000  0.08045000  1.0
  Zn  Zn4  1  0.59787000  0.56509000  0.34340000  1.0
  Zn  Zn5  1  0.43490000  0.40212000  0.15660000  1.0
  Zn  Zn6  1  0.40213000  0.43490000  0.65660000  1.0
  Zn  Zn7  1  0.56510000  0.59788000  0.84340000  1.0
  H  H8  1  0.42138000  0.06324000  0.63025000  1.0
  H  H9  1  0.93676000  0.57862000  0.86975000  1.0
  H  H10  1  0.57862000  0.93675000  0.36975000  1.0
  H  H11  1  0.06325000  0.42139000  0.13025000  1.0
  H  H12  1  0.57318000  0.00931000  0.63633000  1.0
  H  H13  1  0.99069000  0.42682000  0.86367000  1.0
  H  H14  1  0.42681000  0.99068000  0.36367000  1.0
  H  H15  1  0.00932000  0.57319000  0.13633000  1.0
  H  H16  1  0.39651000  0.76409000  0.45108000  1.0
  H  H17  1  0.23591000  0.60349000  0.04892000  1.0
  H  H18  1  0.60349000  0.23591000  0.54891000  1.0
  H  H19  1  0.76409000  0.39651000  0.95108000  1.0
  H  H20  1  0.24770000  0.82283000  0.44498000  1.0
  H  H21  1  0.17716000  0.75229000  0.05501000  1.0
  H  H22  1  0.75230000  0.17716000  0.55501000  1.0
  H  H23  1  0.82284000  0.24770000  0.94499000  1.0
  H  H24  1  0.91497000  0.95360000  0.69293000  1.0
  H  H25  1  0.04640000  0.08503000  0.80707000  1.0
  H  H26  1  0.08503000  0.04640000  0.30707000  1.0
  H  H27  1  0.95360000  0.91497000  0.19293000  1.0
  H  H28  1  0.79544000  0.94371000  0.58610000  1.0
  H  H29  1  0.05629000  0.20456000  0.91391000  1.0
  H  H30  1  0.20456000  0.05629000  0.41390000  1.0
  H  H31  1  0.94370000  0.79543000  0.08609000  1.0
  H  H32  1  0.51748000  0.79560000  0.65452000  1.0
  H  H33  1  0.20441000  0.48252000  0.84548000  1.0
  H  H34  1  0.48253000  0.20440000  0.34548000  1.0
  H  H35  1  0.79560000  0.51748000  0.15453000  1.0
  H  H36  1  0.63778000  0.81606000  0.76302000  1.0
  H  H37  1  0.18394000  0.36222000  0.73698000  1.0
  H  H38  1  0.36223000  0.18395000  0.23699000  1.0
  H  H39  1  0.81606000  0.63778000  0.26302000  1.0
  H  H40  1  0.47727000  0.63637000  0.54973000  1.0
  H  H41  1  0.36363000  0.52273000  0.95026000  1.0
  H  H42  1  0.52273000  0.36362000  0.45027000  1.0
  H  H43  1  0.63638000  0.47727000  0.04973000  1.0
  H  H44  1  0.64722000  0.81793000  0.43301000  1.0
  H  H45  1  0.18207000  0.35278000  0.06699000  1.0
  H  H46  1  0.35278000  0.18207000  0.56699000  1.0
  H  H47  1  0.81793000  0.64723000  0.93301000  1.0
  H  H48  1  0.40507000  0.43064000  0.40100000  1.0
  H  H49  1  0.56936000  0.59492000  0.09900000  1.0
  H  H50  1  0.59493000  0.56936000  0.59900000  1.0
  H  H51  1  0.43064000  0.40508000  0.90100000  1.0
  H  H52  1  0.27972000  0.40770000  0.47159000  1.0
  H  H53  1  0.59230000  0.72027000  0.02842000  1.0
  H  H54  1  0.72028000  0.59230000  0.52842000  1.0
  H  H55  1  0.40770000  0.27973000  0.97158000  1.0
  H  H56  1  0.01742000  0.32272000  0.29870000  1.0
  H  H57  1  0.67728000  0.98258000  0.20130000  1.0
  H  H58  1  0.98259000  0.67728000  0.70130000  1.0
  H  H59  1  0.32272000  0.01742000  0.79870000  1.0
  H  H60  1  0.14510000  0.34774000  0.22848000  1.0
  H  H61  1  0.65226000  0.85490000  0.27152000  1.0
  H  H62  1  0.85491000  0.65226000  0.77152000  1.0
  H  H63  1  0.34775000  0.14510000  0.72848000  1.0
  H  H64  1  0.72965000  0.30466000  0.44056000  1.0
  H  H65  1  0.69533000  0.27034000  0.05943000  1.0
  H  H66  1  0.27035000  0.69534000  0.55944000  1.0
  H  H67  1  0.30466000  0.72965000  0.94056000  1.0
  H  H68  1  0.87870000  0.24816000  0.45859000  1.0
  H  H69  1  0.75184000  0.12130000  0.04141000  1.0
  H  H70  1  0.12130000  0.75184000  0.54141000  1.0
  H  H71  1  0.24816000  0.87870000  0.95859000  1.0
  H  H72  1  0.07058000  0.51461000  0.39379000  1.0
  H  H73  1  0.48539000  0.92941000  0.10621000  1.0
  H  H74  1  0.92942000  0.48539000  0.60621000  1.0
  H  H75  1  0.51460000  0.07059000  0.89379000  1.0
  H  H76  1  0.91857000  0.56797000  0.37478000  1.0
  H  H77  1  0.43203000  0.08142000  0.12522000  1.0
  H  H78  1  0.08144000  0.43204000  0.62522000  1.0
  H  H79  1  0.56797000  0.91858000  0.87479000  1.0
  H  H80  1  0.95761000  0.12591000  0.35718000  1.0
  H  H81  1  0.87410000  0.04239000  0.14282000  1.0
  H  H82  1  0.04239000  0.87409000  0.64282000  1.0
  H  H83  1  0.12590000  0.95762000  0.85718000  1.0
  H  H84  1  0.14871000  0.31110000  0.55389000  1.0
  H  H85  1  0.68890000  0.85129000  0.94611000  1.0
  H  H86  1  0.85129000  0.68889000  0.44611000  1.0
  H  H87  1  0.31110000  0.14871000  0.05389000  1.0
  C  C88  1  0.23144000  0.97647000  0.53248000  1.0
  C  C89  1  0.02352000  0.76855000  0.96752000  1.0
  C  C90  1  0.76855000  0.02352000  0.46752000  1.0
  C  C91  1  0.97648000  0.23145000  0.03248000  1.0
  C  C92  1  0.32400000  0.94574000  0.53722000  1.0
  C  C93  1  0.05426000  0.67599000  0.96278000  1.0
  C  C94  1  0.67599000  0.05426000  0.46278000  1.0
  C  C95  1  0.94575000  0.32401000  0.03722000  1.0
  C  C96  1  0.41654000  0.99797000  0.59100000  1.0
  C  C97  1  0.00203000  0.58346000  0.90899000  1.0
  C  C98  1  0.58345000  0.00203000  0.40899000  1.0
  C  C99  1  0.99798000  0.41655000  0.09101000  1.0
  C  C100  1  0.50131000  0.96758000  0.59477000  1.0
  C  C101  1  0.03242000  0.49869000  0.90523000  1.0
  C  C102  1  0.49869000  0.03241000  0.40523000  1.0
  C  C103  1  0.96758000  0.50131000  0.09477000  1.0
  C  C104  1  0.49444000  0.88180000  0.54500000  1.0
  C  C105  1  0.11820000  0.50556000  0.95500000  1.0
  C  C106  1  0.50556000  0.11819000  0.45500000  1.0
  C  C107  1  0.88181000  0.49444000  0.04500000  1.0
  C  C108  1  0.40271000  0.82969000  0.49054000  1.0
  C  C109  1  0.17031000  0.59729000  0.00945000  1.0
  C  C110  1  0.59729000  0.17030000  0.50945000  1.0
  C  C111  1  0.82970000  0.40271000  0.99055000  1.0
  C  C112  1  0.31920000  0.86235000  0.48700000  1.0
  C  C113  1  0.13765000  0.68080000  0.01300000  1.0
  C  C114  1  0.68079000  0.13765000  0.51300000  1.0
  C  C115  1  0.86235000  0.31921000  0.98700000  1.0
  C  C116  1  0.85498000  0.89028000  0.79674000  1.0
  C  C117  1  0.10972000  0.14502000  0.70326000  1.0
  C  C118  1  0.14504000  0.10973000  0.20326000  1.0
  C  C119  1  0.89028000  0.85497000  0.29674000  1.0
  C  C120  1  0.78314000  0.88502000  0.73376000  1.0
  C  C121  1  0.11498000  0.21686000  0.76625000  1.0
  C  C122  1  0.21687000  0.11498000  0.26625000  1.0
  C  C123  1  0.88502000  0.78313000  0.23375000  1.0
  C  C124  1  0.82785000  0.91989000  0.68395000  1.0
  C  C125  1  0.08011000  0.17214000  0.81605000  1.0
  C  C126  1  0.17215000  0.08012000  0.31605000  1.0
  C  C127  1  0.91988000  0.82785000  0.18395000  1.0
  C  C128  1  0.76158000  0.91326000  0.62440000  1.0
  C  C129  1  0.08674000  0.23842000  0.87560000  1.0
  C  C130  1  0.23842000  0.08674000  0.37561000  1.0
  C  C131  1  0.91325000  0.76158000  0.12440000  1.0
  C  C132  1  0.65037000  0.86842000  0.61450000  1.0
  C  C133  1  0.13159000  0.34963000  0.88550000  1.0
  C  C134  1  0.34963000  0.13159000  0.38550000  1.0
  C  C135  1  0.86841000  0.65036000  0.11450000  1.0
  C  C136  1  0.60457000  0.83284000  0.66373000  1.0
  C  C137  1  0.16716000  0.39542000  0.83627000  1.0
  C  C138  1  0.39543000  0.16716000  0.33627000  1.0
  C  C139  1  0.83283000  0.60457000  0.16373000  1.0
  C  C140  1  0.67146000  0.84317000  0.72391000  1.0
  C  C141  1  0.15683000  0.32854000  0.77609000  1.0
  C  C142  1  0.32855000  0.15684000  0.27610000  1.0
  C  C143  1  0.84316000  0.67145000  0.22390000  1.0
  C  C144  1  0.51819000  0.65633000  0.51186000  1.0
  C  C145  1  0.34368000  0.48181000  0.98814000  1.0
  C  C146  1  0.48181000  0.34367000  0.48814000  1.0
  C  C147  1  0.65633000  0.51819000  0.01186000  1.0
  C  C148  1  0.60392000  0.75066000  0.45119000  1.0
  C  C149  1  0.24934000  0.39609000  0.04881000  1.0
  C  C150  1  0.39609000  0.24934000  0.54881000  1.0
  C  C151  1  0.75067000  0.60392000  0.95119000  1.0
  C  C152  1  0.36352000  0.40961000  0.27144000  1.0
  C  C153  1  0.59039000  0.63648000  0.22857000  1.0
  C  C154  1  0.63648000  0.59039000  0.72857000  1.0
  C  C155  1  0.40961000  0.36352000  0.77143000  1.0
  C  C156  1  0.28358000  0.39252000  0.31095000  1.0
  C  C157  1  0.60748000  0.71642000  0.18906000  1.0
  C  C158  1  0.71642000  0.60748000  0.68906000  1.0
  C  C159  1  0.39252000  0.28358000  0.81094000  1.0
  C  C160  1  0.32014000  0.40602000  0.37883000  1.0
  C  C161  1  0.59398000  0.67985000  0.12118000  1.0
  C  C162  1  0.67985000  0.59398000  0.62118000  1.0
  C  C163  1  0.40602000  0.32015000  0.87882000  1.0
  C  C164  1  0.25003000  0.39324000  0.41830000  1.0
  C  C165  1  0.60675000  0.74997000  0.08171000  1.0
  C  C166  1  0.74997000  0.60676000  0.58170000  1.0
  C  C167  1  0.39324000  0.25003000  0.91830000  1.0
  C  C168  1  0.14147000  0.36374000  0.38911000  1.0
  C  C169  1  0.63626000  0.85853000  0.11089000  1.0
  C  C170  1  0.85853000  0.63626000  0.61089000  1.0
  C  C171  1  0.36374000  0.14147000  0.88910000  1.0
  C  C172  1  0.10277000  0.34740000  0.32090000  1.0
  C  C173  1  0.65259000  0.89723000  0.17910000  1.0
  C  C174  1  0.89724000  0.65259000  0.67910000  1.0
  C  C175  1  0.34741000  0.10277000  0.82089000  1.0
  C  C176  1  0.17415000  0.36243000  0.28182000  1.0
  C  C177  1  0.63757000  0.82585000  0.21818000  1.0
  C  C178  1  0.82586000  0.63757000  0.71818000  1.0
  C  C179  1  0.36243000  0.17415000  0.78182000  1.0
  C  C180  1  0.71869000  0.46571000  0.39144000  1.0
  C  C181  1  0.53428000  0.28130000  0.10856000  1.0
  C  C182  1  0.28131000  0.53428000  0.60856000  1.0
  C  C183  1  0.46572000  0.71870000  0.89144000  1.0
  C  C184  1  0.81310000  0.43837000  0.40531000  1.0
  C  C185  1  0.56162000  0.18689000  0.09468000  1.0
  C  C186  1  0.18691000  0.56164000  0.59469000  1.0
  C  C187  1  0.43837000  0.81311000  0.90531000  1.0
  C  C188  1  0.80437000  0.34968000  0.42983000  1.0
  C  C189  1  0.65032000  0.19563000  0.07017000  1.0
  C  C190  1  0.19563000  0.65032000  0.57017000  1.0
  C  C191  1  0.34968000  0.80437000  0.92983000  1.0
  C  C192  1  0.88821000  0.31748000  0.43938000  1.0
  C  C193  1  0.68251000  0.11179000  0.06062000  1.0
  C  C194  1  0.11180000  0.68252000  0.56062000  1.0
  C  C195  1  0.31748000  0.88821000  0.93938000  1.0
  C  C196  1  0.98337000  0.37505000  0.42422000  1.0
  C  C197  1  0.62495000  0.01662000  0.07578000  1.0
  C  C198  1  0.01663000  0.62496000  0.57578000  1.0
  C  C199  1  0.37504000  0.98338000  0.92422000  1.0
  C  C200  1  0.99517000  0.46761000  0.40298000  1.0
  C  C201  1  0.53238000  0.00483000  0.09701000  1.0
  C  C202  1  0.00484000  0.53239000  0.59701000  1.0
  C  C203  1  0.46761000  0.99517000  0.90299000  1.0
  C  C204  1  0.91034000  0.49791000  0.39302000  1.0
  C  C205  1  0.50208000  0.08965000  0.10698000  1.0
  C  C206  1  0.08966000  0.50209000  0.60698000  1.0
  C  C207  1  0.49792000  0.91035000  0.89302000  1.0
  C  C208  1  0.00077000  0.14863000  0.40905000  1.0
  C  C209  1  0.85137000  0.99923000  0.09096000  1.0
  C  C210  1  0.99923000  0.85137000  0.59095000  1.0
  C  C211  1  0.14862000  0.00077000  0.90904000  1.0
  C  C212  1  0.09934000  0.24317000  0.51042000  1.0
  C  C213  1  0.75684000  0.90066000  0.98958000  1.0
  C  C214  1  0.90065000  0.75683000  0.48958000  1.0
  C  C215  1  0.24316000  0.09934000  0.01042000  1.0
  N  N216  1  0.58017000  0.64793000  0.42616000  1.0
  N  N217  1  0.35207000  0.41983000  0.07384000  1.0
  N  N218  1  0.41983000  0.35206000  0.57384000  1.0
  N  N219  1  0.64794000  0.58017000  0.92616000  1.0
  N  N220  1  0.52743000  0.58856000  0.46447000  1.0
  N  N221  1  0.41144000  0.47257000  0.03552000  1.0
  N  N222  1  0.47257000  0.41143000  0.53552000  1.0
  N  N223  1  0.58857000  0.52744000  0.96447000  1.0
  N  N224  1  0.56586000  0.75874000  0.50546000  1.0
  N  N225  1  0.24126000  0.43414000  0.99454000  1.0
  N  N226  1  0.43414000  0.24125000  0.49454000  1.0
  N  N227  1  0.75875000  0.56586000  0.00545000  1.0
  N  N228  1  0.58236000  0.85359000  0.55034000  1.0
  N  N229  1  0.14641000  0.41764000  0.94966000  1.0
  N  N230  1  0.41763000  0.14641000  0.44966000  1.0
  N  N231  1  0.85359000  0.58236000  0.05034000  1.0
  N  N232  1  0.07198000  0.14058000  0.50653000  1.0
  N  N233  1  0.85942000  0.92802000  0.99347000  1.0
  N  N234  1  0.92802000  0.85941000  0.49347000  1.0
  N  N235  1  0.14058000  0.07198000  0.00653000  1.0
  N  N236  1  0.00971000  0.08133000  0.44322000  1.0
  N  N237  1  0.91868000  0.99029000  0.05678000  1.0
  N  N238  1  0.99029000  0.91867000  0.55678000  1.0
  N  N239  1  0.08133000  0.00971000  0.94322000  1.0
  N  N240  1  0.05542000  0.25090000  0.44980000  1.0
  N  N241  1  0.74910000  0.94458000  0.05020000  1.0
  N  N242  1  0.94458000  0.74910000  0.55020000  1.0
  N  N243  1  0.25090000  0.05542000  0.94980000  1.0
  N  N244  1  0.07051000  0.34507000  0.43126000  1.0
  N  N245  1  0.65494000  0.92949000  0.06874000  1.0
  N  N246  1  0.92949000  0.65493000  0.56874000  1.0
  N  N247  1  0.34506000  0.07051000  0.93126000  1.0
  O  O248  1  0.24159000  0.05343000  0.58273000  1.0
  O  O249  1  0.94657000  0.75840000  0.91726000  1.0
  O  O250  1  0.75841000  0.94657000  0.41726000  1.0
  O  O251  1  0.05343000  0.24159000  0.08274000  1.0
  O  O252  1  0.15068000  0.93067000  0.48352000  1.0
  O  O253  1  0.06931000  0.84932000  0.01648000  1.0
  O  O254  1  0.84931000  0.06930000  0.51648000  1.0
  O  O255  1  0.93069000  0.15068000  0.98352000  1.0
  O  O256  1  0.81253000  0.87983000  0.84583000  1.0
  O  O257  1  0.12017000  0.18747000  0.65417000  1.0
  O  O258  1  0.18749000  0.12018000  0.15417000  1.0
  O  O259  1  0.87983000  0.81252000  0.34583000  1.0
  O  O260  1  0.95038000  0.90343000  0.80054000  1.0
  O  O261  1  0.09657000  0.04962000  0.69946000  1.0
  O  O262  1  0.04963000  0.09657000  0.19945000  1.0
  O  O263  1  0.90344000  0.95038000  0.30055000  1.0
  O  O264  1  0.73251000  0.54828000  0.36701000  1.0
  O  O265  1  0.45172000  0.26748000  0.13300000  1.0
  O  O266  1  0.26749000  0.45172000  0.63300000  1.0
  O  O267  1  0.54828000  0.73252000  0.86700000  1.0
  O  O268  1  0.63264000  0.41158000  0.40249000  1.0
  O  O269  1  0.58840000  0.36734000  0.09751000  1.0
  O  O270  1  0.36735000  0.58841000  0.59751000  1.0
  O  O271  1  0.41160000  0.63266000  0.90249000  1.0
  O  O272  1  0.32888000  0.39309000  0.20899000  1.0
  O  O273  1  0.60692000  0.67113000  0.29102000  1.0
  O  O274  1  0.67113000  0.60692000  0.79101000  1.0
  O  O275  1  0.39309000  0.32888000  0.70899000  1.0
  O  O276  1  0.46144000  0.43648000  0.30120000  1.0
  O  O277  1  0.56351000  0.53856000  0.19881000  1.0
  O  O278  1  0.53856000  0.56351000  0.69880000  1.0
  O  O279  1  0.43648000  0.46144000  0.80120000  1.0
