# generated using pymatgen
data_ZnH9C11N3O4
_symmetry_space_group_name_H-M   'P 1'
_cell_length_a   9.44579000
_cell_length_b   10.30220000
_cell_length_c   12.05910000
_cell_angle_alpha   90.00000000
_cell_angle_beta   94.52440000
_cell_angle_gamma   89.99990000
_symmetry_Int_Tables_number   1
_chemical_formula_structural   ZnH9C11N3O4
_chemical_formula_sum   'Zn4 H36 C44 N12 O16'
_cell_volume   1169.84335154
_cell_formula_units_Z   4
loop_
 _symmetry_equiv_pos_site_id
 _symmetry_equiv_pos_as_xyz
  1  'x, y, z'
loop_
 _atom_site_type_symbol
 _atom_site_label
 _atom_site_symmetry_multiplicity
 _atom_site_fract_x
 _atom_site_fract_y
 _atom_site_fract_z
 _atom_site_occupancy
  Zn  Zn0  1  0.28343000  0.00947000  0.93983000  1.0
  Zn  Zn1  1  0.71657000  0.50947000  0.56017000  1.0
  Zn  Zn2  1  0.71657000  0.99052000  0.06017000  1.0
  Zn  Zn3  1  0.28343000  0.49052000  0.43983000  1.0
  H  H4  1  0.40420000  0.29902000  0.20636000  1.0
  H  H5  1  0.59580000  0.79902000  0.29365000  1.0
  H  H6  1  0.59580000  0.70098000  0.79365000  1.0
  H  H7  1  0.40420000  0.20098000  0.70636000  1.0
  H  H8  1  0.38183000  0.71588000  0.21050000  1.0
  H  H9  1  0.61817000  0.21588000  0.28950000  1.0
  H  H10  1  0.61817000  0.28412000  0.78949000  1.0
  H  H11  1  0.38183000  0.78412000  0.71050000  1.0
  H  H12  1  0.28751000  0.50654000  0.90415000  1.0
  H  H13  1  0.71249000  0.00654000  0.59585000  1.0
  H  H14  1  0.71249000  0.49346000  0.09585000  1.0
  H  H15  1  0.28751000  0.99346000  0.40415000  1.0
  H  H16  1  0.09922000  0.20834000  0.78070000  1.0
  H  H17  1  0.90078000  0.70834000  0.71930000  1.0
  H  H18  1  0.90078000  0.79166000  0.21930000  1.0
  H  H19  1  0.09922000  0.29166000  0.28070000  1.0
  H  H20  1  0.99680000  0.84411000  0.91282000  1.0
  H  H21  1  0.00320000  0.34411000  0.58718000  1.0
  H  H22  1  0.00320000  0.15589000  0.08718000  1.0
  H  H23  1  0.99680000  0.65590000  0.41282000  1.0
  H  H24  1  0.76792000  0.92962000  0.77348000  1.0
  H  H25  1  0.23208000  0.42961000  0.72652000  1.0
  H  H26  1  0.23207000  0.07038000  0.22652000  1.0
  H  H27  1  0.76792000  0.57039000  0.27348000  1.0
  H  H28  1  0.51374000  0.42800000  0.35648000  1.0
  H  H29  1  0.48626000  0.92800000  0.14352000  1.0
  H  H30  1  0.48626000  0.57200000  0.64352000  1.0
  H  H31  1  0.51374000  0.07200000  0.85648000  1.0
  H  H32  1  0.50622000  0.58741000  0.36060000  1.0
  H  H33  1  0.49378000  0.08741000  0.13940000  1.0
  H  H34  1  0.49378000  0.41259000  0.63940000  1.0
  H  H35  1  0.50622000  0.91259000  0.86060000  1.0
  H  H36  1  0.84491000  0.15055000  0.69982000  1.0
  H  H37  1  0.15509000  0.65054000  0.80017000  1.0
  H  H38  1  0.15509000  0.84946000  0.30017000  1.0
  H  H39  1  0.84491000  0.34946000  0.19983000  1.0
  C  C40  1  0.34357000  0.39043000  0.04825000  1.0
  C  C41  1  0.65643000  0.89043000  0.45175000  1.0
  C  C42  1  0.65643000  0.60957000  0.95175000  1.0
  C  C43  1  0.34357000  0.10957000  0.54825000  1.0
  C  C44  1  0.38637000  0.39025000  0.16193000  1.0
  C  C45  1  0.61363000  0.89025000  0.33807000  1.0
  C  C46  1  0.61363000  0.60975000  0.83807000  1.0
  C  C47  1  0.38637000  0.10975000  0.66193000  1.0
  C  C48  1  0.40407000  0.50757000  0.21944000  1.0
  C  C49  1  0.59593000  0.00757000  0.28056000  1.0
  C  C50  1  0.59593000  0.49243000  0.78056000  1.0
  C  C51  1  0.40407000  0.99243000  0.71944000  1.0
  C  C52  1  0.37314000  0.62491000  0.16467000  1.0
  C  C53  1  0.62686000  0.12491000  0.33533000  1.0
  C  C54  1  0.62686000  0.37509000  0.83533000  1.0
  C  C55  1  0.37314000  0.87509000  0.66467000  1.0
  C  C56  1  0.32946000  0.62524000  0.05097000  1.0
  C  C57  1  0.67054000  0.12525000  0.44903000  1.0
  C  C58  1  0.67054000  0.37475000  0.94903000  1.0
  C  C59  1  0.32946000  0.87476000  0.55097000  1.0
  C  C60  1  0.31634000  0.50788000  0.99302000  1.0
  C  C61  1  0.68366000  0.00788000  0.50698000  1.0
  C  C62  1  0.68366000  0.49212000  0.00698000  1.0
  C  C63  1  0.31634000  0.99212000  0.49302000  1.0
  C  C64  1  0.32777000  0.26652000  0.98371000  1.0
  C  C65  1  0.67223000  0.76652000  0.51629000  1.0
  C  C66  1  0.67223000  0.73348000  0.01629000  1.0
  C  C67  1  0.32777000  0.23348000  0.48371000  1.0
  C  C68  1  0.30086000  0.74966000  0.98945000  1.0
  C  C69  1  0.69914000  0.24966000  0.51055000  1.0
  C  C70  1  0.69915000  0.25034000  0.01055000  1.0
  C  C71  1  0.30086000  0.75033000  0.48945000  1.0
  C  C72  1  0.04120000  0.12054000  0.79692000  1.0
  C  C73  1  0.95880000  0.62054000  0.70308000  1.0
  C  C74  1  0.95880000  0.87946000  0.20308000  1.0
  C  C75  1  0.04120000  0.37947000  0.29692000  1.0
  C  C76  1  0.98377000  0.93207000  0.86407000  1.0
  C  C77  1  0.01623000  0.43207000  0.63593000  1.0
  C  C78  1  0.01623000  0.06793000  0.13593000  1.0
  C  C79  1  0.98377000  0.56793000  0.36407000  1.0
  C  C80  1  0.86965000  0.97436000  0.79623000  1.0
  C  C81  1  0.13035000  0.47436000  0.70377000  1.0
  C  C82  1  0.13035000  0.02564000  0.20377000  1.0
  C  C83  1  0.86965000  0.52564000  0.29623000  1.0
  N  N84  1  0.44883000  0.50601000  0.33547000  1.0
  N  N85  1  0.55117000  0.00601000  0.16453000  1.0
  N  N86  1  0.55117000  0.49399000  0.66453000  1.0
  N  N87  1  0.44883000  0.99399000  0.83547000  1.0
  N  N88  1  0.09057000  0.02409000  0.86373000  1.0
  N  N89  1  0.90943000  0.52409000  0.63627000  1.0
  N  N90  1  0.90943000  0.97591000  0.13627000  1.0
  N  N91  1  0.09057000  0.47591000  0.36373000  1.0
  N  N92  1  0.90814000  0.09273000  0.75485000  1.0
  N  N93  1  0.09186000  0.59273000  0.74515000  1.0
  N  N94  1  0.09186000  0.90727000  0.24515000  1.0
  N  N95  1  0.90814000  0.40727000  0.25485000  1.0
  O  O96  1  0.30379000  0.26860000  0.88018000  1.0
  O  O97  1  0.69621000  0.76860000  0.61982000  1.0
  O  O98  1  0.69621000  0.73140000  0.11982000  1.0
  O  O99  1  0.30379000  0.23140000  0.38018000  1.0
  O  O100  1  0.33875000  0.15915000  0.04143000  1.0
  O  O101  1  0.66125000  0.65915000  0.45857000  1.0
  O  O102  1  0.66125000  0.84085000  0.95857000  1.0
  O  O103  1  0.33875000  0.34085000  0.54143000  1.0
  O  O104  1  0.25744000  0.74874000  0.88774000  1.0
  O  O105  1  0.74256000  0.24875000  0.61226000  1.0
  O  O106  1  0.74256000  0.25126000  0.11226000  1.0
  O  O107  1  0.25744000  0.75125000  0.38774000  1.0
  O  O108  1  0.32365000  0.85723000  0.04389000  1.0
  O  O109  1  0.67636000  0.35723000  0.45611000  1.0
  O  O110  1  0.67636000  0.14277000  0.95611000  1.0
  O  O111  1  0.32364000  0.64277000  0.54389000  1.0
