# generated using pymatgen
data_AlH12C27N7O12
_symmetry_space_group_name_H-M   'P 1'
_cell_length_a   3.92933000
_cell_length_b   18.05430000
_cell_length_c   18.13620000
_cell_angle_alpha   119.82400000
_cell_angle_beta   91.15860000
_cell_angle_gamma   90.81270000
_symmetry_Int_Tables_number   1
_chemical_formula_structural   AlH12C27N7O12
_chemical_formula_sum   'Al1 H12 C27 N7 O12'
_cell_volume   1115.53993313
_cell_formula_units_Z   1
loop_
 _symmetry_equiv_pos_site_id
 _symmetry_equiv_pos_as_xyz
  1  'x, y, z'
loop_
 _atom_site_type_symbol
 _atom_site_label
 _atom_site_symmetry_multiplicity
 _atom_site_fract_x
 _atom_site_fract_y
 _atom_site_fract_z
 _atom_site_occupancy
  Al  Al0  1  0.00880000  0.00045000  0.50012000  1.0
  H  H1  1  0.79906000  0.30150000  0.40375000  1.0
  H  H2  1  0.79092000  0.09492000  0.89691000  1.0
  H  H3  1  0.75039000  0.60728000  0.19720000  1.0
  H  H4  1  0.26582000  0.30213000  0.89255000  1.0
  H  H5  1  0.23327000  0.60058000  0.40255000  1.0
  H  H6  1  0.23224000  0.09154000  0.19542000  1.0
  H  H7  1  0.15049000  0.98502000  0.31304000  1.0
  H  H8  1  0.86882000  0.18661000  0.51358000  1.0
  H  H9  1  0.15691000  0.82475000  0.51225000  1.0
  H  H10  1  0.82554000  0.83208000  0.31449000  1.0
  H  H11  1  0.18987000  0.18658000  0.66878000  1.0
  H  H12  1  0.86602000  0.98715000  0.67401000  1.0
  C  C13  1  0.50845000  0.06727000  0.43267000  1.0
  C  C14  1  0.52346000  0.06736000  0.63361000  1.0
  C  C15  1  0.49511000  0.86631000  0.43289000  1.0
  C  C16  1  0.67534000  0.23865000  0.37609000  1.0
  C  C17  1  0.51533000  0.20079000  0.29544000  1.0
  C  C18  1  0.67814000  0.12282000  0.86133000  1.0
  C  C19  1  0.52805000  0.20270000  0.90316000  1.0
  C  C20  1  0.49198000  0.59554000  0.29568000  1.0
  C  C21  1  0.63766000  0.64069000  0.25944000  1.0
  C  C22  1  0.38015000  0.23977000  0.85884000  1.0
  C  C23  1  0.36379000  0.19404000  0.77044000  1.0
  C  C24  1  0.52792000  0.11375000  0.72539000  1.0
  C  C25  1  0.69430000  0.08023000  0.77311000  1.0
  C  C26  1  0.65345000  0.72948000  0.30579000  1.0
  C  C27  1  0.49083000  0.77411000  0.38590000  1.0
  C  C28  1  0.32715000  0.72559000  0.41867000  1.0
  C  C29  1  0.34407000  0.63694000  0.37541000  1.0
  C  C30  1  0.35469000  0.12003000  0.25834000  1.0
  C  C31  1  0.33626000  0.07786000  0.30486000  1.0
  C  C32  1  0.51160000  0.11257000  0.38576000  1.0
  C  C33  1  0.69000000  0.19320000  0.41942000  1.0
  C  C34  1  0.50482000  0.37748000  0.25419000  1.0
  C  C35  1  0.51973000  0.24283000  0.11976000  1.0
  C  C36  1  0.51439000  0.24803000  0.24831000  1.0
  C  C37  1  0.49715000  0.50122000  0.24853000  1.0
  C  C38  1  0.50983000  0.37819000  0.11989000  1.0
  C  C39  1  0.52336000  0.24935000  0.99701000  1.0
  N  N40  1  0.51140000  0.33283000  0.16461000  1.0
  N  N41  1  0.51204000  0.20088000  0.16297000  1.0
  N  N42  1  0.51562000  0.33374000  0.29559000  1.0
  N  N43  1  0.48761000  0.46239000  0.29543000  1.0
  N  N44  1  0.51232000  0.46334000  0.16339000  1.0
  N  N45  1  0.53577000  0.20182000  0.03523000  1.0
  N  N46  1  0.50606000  0.33488000  0.03514000  1.0
  O  O47  1  0.27022000  0.90618000  0.49005000  1.0
  O  O48  1  0.26989000  0.01016000  0.41645000  1.0
  O  O49  1  0.29127000  0.08358000  0.59190000  1.0
  O  O50  1  0.72616000  0.90841000  0.41714000  1.0
  O  O51  1  0.74941000  0.01015000  0.59376000  1.0
  O  O52  1  0.74441000  0.08422000  0.49062000  1.0
  O  O53  1  0.15933000  0.00280000  0.26964000  1.0
  O  O54  1  0.86512000  0.22929000  0.49460000  1.0
  O  O55  1  0.16508000  0.76314000  0.49307000  1.0
  O  O56  1  0.81548000  0.77073000  0.27117000  1.0
  O  O57  1  0.19966000  0.22950000  0.73002000  1.0
  O  O58  1  0.85840000  0.00568000  0.73518000  1.0
