# generated using pymatgen
data_CuMoH9C11N3O5
_symmetry_space_group_name_H-M   'P 1'
_cell_length_a   6.72394000
_cell_length_b   10.06000000
_cell_length_c   10.17600000
_cell_angle_alpha   79.16560000
_cell_angle_beta   77.56150000
_cell_angle_gamma   76.24330000
_symmetry_Int_Tables_number   1
_chemical_formula_structural   CuMoH9C11N3O5
_chemical_formula_sum   'Cu2 Mo2 H18 C22 N6 O10'
_cell_volume   646.07370123
_cell_formula_units_Z   2
loop_
 _symmetry_equiv_pos_site_id
 _symmetry_equiv_pos_as_xyz
  1  'x, y, z'
loop_
 _atom_site_type_symbol
 _atom_site_label
 _atom_site_symmetry_multiplicity
 _atom_site_fract_x
 _atom_site_fract_y
 _atom_site_fract_z
 _atom_site_occupancy
  Cu  Cu0  1  0.30409000  0.76554000  0.57318000  1.0
  Cu  Cu1  1  0.69590000  0.23446000  0.42682000  1.0
  Mo  Mo2  1  0.18089000  0.15276000  0.49566000  1.0
  Mo  Mo3  1  0.81910000  0.84724000  0.50434000  1.0
  H  H4  1  0.47015000  0.92796000  0.72246000  1.0
  H  H5  1  0.52986000  0.07204000  0.27753000  1.0
  H  H6  1  0.41011000  0.97796000  0.95994000  1.0
  H  H7  1  0.58990000  0.02204000  0.04005000  1.0
  H  H8  1  0.13927000  0.87914000  0.13746000  1.0
  H  H9  1  0.86074000  0.12086000  0.86254000  1.0
  H  H10  1  0.00992000  0.69625000  0.82127000  1.0
  H  H11  1  0.99007000  0.30376000  0.17874000  1.0
  H  H12  1  0.60850000  0.77726000  0.31737000  1.0
  H  H13  1  0.39149000  0.22275000  0.68264000  1.0
  H  H14  1  0.14990000  0.55434000  0.48413000  1.0
  H  H15  1  0.85007000  0.44567000  0.51587000  1.0
  H  H16  1  0.22673000  0.42873000  0.28066000  1.0
  H  H17  1  0.77327000  0.57126000  0.71934000  1.0
  H  H18  1  0.52191000  0.47557000  0.09474000  1.0
  H  H19  1  0.47813000  0.52442000  0.90527000  1.0
  H  H20  1  0.88224000  0.76248000  0.18626000  1.0
  H  H21  1  0.11777000  0.23752000  0.81373000  1.0
  C  C22  1  0.35478000  0.88636000  0.80153000  1.0
  C  C23  1  0.64522000  0.11365000  0.19846000  1.0
  C  C24  1  0.32074000  0.91250000  0.93476000  1.0
  C  C25  1  0.67927000  0.08750000  0.06523000  1.0
  C  C26  1  0.17103000  0.85879000  0.03245000  1.0
  C  C27  1  0.82899000  0.14121000  0.96754000  1.0
  C  C28  1  0.05293000  0.77957000  0.99343000  1.0
  C  C29  1  0.94708000  0.22043000  0.00658000  1.0
  C  C30  1  0.09648000  0.75589000  0.85735000  1.0
  C  C31  1  0.90352000  0.24411000  0.14265000  1.0
  C  C32  1  0.76038000  0.65789000  0.07293000  1.0
  C  C33  1  0.23964000  0.34209000  0.92708000  1.0
  C  C34  1  0.59201000  0.62859000  0.19099000  1.0
  C  C35  1  0.40800000  0.37140000  0.80901000  1.0
  C  C36  1  0.53286000  0.69710000  0.30506000  1.0
  C  C37  1  0.46715000  0.30291000  0.69493000  1.0
  C  C38  1  0.27230000  0.57306000  0.39785000  1.0
  C  C39  1  0.72769000  0.42695000  0.60215000  1.0
  C  C40  1  0.31665000  0.50374000  0.28565000  1.0
  C  C41  1  0.68334000  0.49625000  0.71436000  1.0
  C  C42  1  0.48017000  0.53039000  0.18228000  1.0
  C  C43  1  0.51984000  0.46961000  0.81774000  1.0
  N  N44  1  0.24508000  0.80818000  0.76537000  1.0
  N  N45  1  0.75490000  0.19182000  0.23463000  1.0
  N  N46  1  0.89521000  0.73258000  0.09202000  1.0
  N  N47  1  0.10479000  0.26742000  0.90798000  1.0
  N  N48  1  0.37799000  0.66803000  0.40697000  1.0
  N  N49  1  0.62201000  0.33197000  0.59302000  1.0
  O  O50  1  0.77002000  0.61573000  0.96433000  1.0
  O  O51  1  0.22998000  0.38427000  0.03566000  1.0
  O  O52  1  0.24797000  0.98219000  0.45730000  1.0
  O  O53  1  0.75201000  0.01782000  0.54270000  1.0
  O  O54  1  0.40243000  0.23110000  0.44142000  1.0
  O  O55  1  0.59757000  0.76890000  0.55858000  1.0
  O  O56  1  0.98096000  0.25898000  0.40487000  1.0
  O  O57  1  0.01903000  0.74102000  0.59513000  1.0
  O  O58  1  0.10296000  0.15599000  0.67213000  1.0
  O  O59  1  0.89703000  0.84401000  0.32788000  1.0
