# generated using pymatgen
data_CuPH4CO4
_symmetry_space_group_name_H-M   'P 1'
_cell_length_a   7.44458000
_cell_length_b   7.51046000
_cell_length_c   8.00741000
_cell_angle_alpha   89.97030000
_cell_angle_beta   63.61600000
_cell_angle_gamma   89.95600000
_symmetry_Int_Tables_number   1
_chemical_formula_structural   CuPH4CO4
_chemical_formula_sum   'Cu4 P4 H16 C4 O16'
_cell_volume   401.07641678
_cell_formula_units_Z   4
loop_
 _symmetry_equiv_pos_site_id
 _symmetry_equiv_pos_as_xyz
  1  'x, y, z'
loop_
 _atom_site_type_symbol
 _atom_site_label
 _atom_site_symmetry_multiplicity
 _atom_site_fract_x
 _atom_site_fract_y
 _atom_site_fract_z
 _atom_site_occupancy
  Cu  Cu0  1  0.90183000  0.18944000  0.05788000  1.0
  Cu  Cu1  1  0.59788000  0.68936000  0.94241000  1.0
  Cu  Cu2  1  0.09760000  0.81070000  0.94283000  1.0
  Cu  Cu3  1  0.40275000  0.31080000  0.05691000  1.0
  P  P4  1  0.25298000  0.44687000  0.77884000  1.0
  P  P5  1  0.24671000  0.94675000  0.22096000  1.0
  P  P6  1  0.74680000  0.55310000  0.22120000  1.0
  P  P7  1  0.75354000  0.05323000  0.77901000  1.0
  H  H8  1  0.74239000  0.93314000  0.24897000  1.0
  H  H9  1  0.75786000  0.43316000  0.75108000  1.0
  H  H10  1  0.25696000  0.06699000  0.75210000  1.0
  H  H11  1  0.24274000  0.56696000  0.24786000  1.0
  H  H12  1  0.56895000  0.06929000  0.26459000  1.0
  H  H13  1  0.93078000  0.56971000  0.73545000  1.0
  H  H14  1  0.43061000  0.93078000  0.73584000  1.0
  H  H15  1  0.06961000  0.43035000  0.26408000  1.0
  H  H16  1  0.53590000  0.30528000  0.54056000  1.0
  H  H17  1  0.96392000  0.80541000  0.45930000  1.0
  H  H18  1  0.46319000  0.69422000  0.45888000  1.0
  H  H19  1  0.03701000  0.19406000  0.54120000  1.0
  H  H20  1  0.35884000  0.37300000  0.46061000  1.0
  H  H21  1  0.14118000  0.87249000  0.53920000  1.0
  H  H22  1  0.63986000  0.62702000  0.53955000  1.0
  H  H23  1  0.86009000  0.12744000  0.46066000  1.0
  C  C24  1  0.43865000  0.41550000  0.54082000  1.0
  C  C25  1  0.06126000  0.91539000  0.45914000  1.0
  C  C26  1  0.56058000  0.58425000  0.45897000  1.0
  C  C27  1  0.93956000  0.08431000  0.54104000  1.0
  O  O28  1  0.13541000  0.26927000  0.83140000  1.0
  O  O29  1  0.36377000  0.76874000  0.16851000  1.0
  O  O30  1  0.86429000  0.73074000  0.16919000  1.0
  O  O31  1  0.63657000  0.23130000  0.83088000  1.0
  O  O32  1  0.35680000  0.49428000  0.90300000  1.0
  O  O33  1  0.14265000  0.99434000  0.09701000  1.0
  O  O34  1  0.64356000  0.50600000  0.09651000  1.0
  O  O35  1  0.85697000  0.00587000  0.90355000  1.0
  O  O36  1  0.11470000  0.60484000  0.78505000  1.0
  O  O37  1  0.38518000  0.10436000  0.21453000  1.0
  O  O38  1  0.88512000  0.39527000  0.21513000  1.0
  O  O39  1  0.61503000  0.89577000  0.78529000  1.0
  O  O40  1  0.69675000  0.05955000  0.27914000  1.0
  O  O41  1  0.80293000  0.55970000  0.72101000  1.0
  O  O42  1  0.30259000  0.94057000  0.72173000  1.0
  O  O43  1  0.19765000  0.44041000  0.27813000  1.0
