# generated using pymatgen
data_NdH8C6O7
_symmetry_space_group_name_H-M   'P 1'
_cell_length_a   7.78459000
_cell_length_b   8.10907000
_cell_length_c   14.25910000
_cell_angle_alpha   96.95170000
_cell_angle_beta   95.85570000
_cell_angle_gamma   104.04600000
_symmetry_Int_Tables_number   1
_chemical_formula_structural   NdH8C6O7
_chemical_formula_sum   'Nd4 H32 C24 O28'
_cell_volume   858.67793116
_cell_formula_units_Z   4
loop_
 _symmetry_equiv_pos_site_id
 _symmetry_equiv_pos_as_xyz
  1  'x, y, z'
loop_
 _atom_site_type_symbol
 _atom_site_label
 _atom_site_symmetry_multiplicity
 _atom_site_fract_x
 _atom_site_fract_y
 _atom_site_fract_z
 _atom_site_occupancy
  Nd  Nd0  1  0.62786000  0.57720000  0.79224000  1.0
  Nd  Nd1  1  0.37214000  0.42280000  0.20776000  1.0
  Nd  Nd2  1  0.08819000  0.49025000  0.69999000  1.0
  Nd  Nd3  1  0.91181000  0.50975000  0.30001000  1.0
  H  H4  1  0.90075000  0.90854000  0.51548000  1.0
  H  H5  1  0.09925000  0.09145000  0.48452000  1.0
  H  H6  1  0.82562000  0.96399000  0.62516000  1.0
  H  H7  1  0.17438000  0.03601000  0.37484000  1.0
  H  H8  1  0.54744000  0.70651000  0.57293000  1.0
  H  H9  1  0.45256000  0.29349000  0.42707000  1.0
  H  H10  1  0.56290000  0.87611000  0.50577000  1.0
  H  H11  1  0.43710000  0.12389000  0.49423000  1.0
  H  H12  1  0.13728000  0.99209000  0.00434000  1.0
  H  H13  1  0.86272000  0.00792000  0.99566000  1.0
  H  H14  1  0.30769000  0.88290000  0.00666000  1.0
  H  H15  1  0.69231000  0.11709000  0.99334000  1.0
  H  H16  1  0.11773000  0.90210000  0.15317000  1.0
  H  H17  1  0.88227000  0.09790000  0.84683000  1.0
  H  H18  1  0.95734000  0.73008000  0.08130000  1.0
  H  H19  1  0.04266000  0.26992000  0.91870000  1.0
  H  H20  1  0.31363000  0.95705000  0.64571000  1.0
  H  H21  1  0.68637000  0.04295000  0.35429000  1.0
  H  H22  1  0.52407000  0.10643000  0.69456000  1.0
  H  H23  1  0.47593000  0.89357000  0.30544000  1.0
  H  H24  1  0.21224000  0.97127000  0.80489000  1.0
  H  H25  1  0.78776000  0.02873000  0.19511000  1.0
  H  H26  1  0.41871000  0.12238000  0.85626000  1.0
  H  H27  1  0.58129000  0.87762000  0.14374000  1.0
  H  H28  1  0.36042000  0.68812000  0.90121000  1.0
  H  H29  1  0.63957000  0.31188000  0.09879000  1.0
  H  H30  1  0.47151000  0.65732000  0.99026000  1.0
  H  H31  1  0.52850000  0.34268000  0.00974000  1.0
  H  H32  1  0.86498000  0.29710000  0.51425000  1.0
  H  H33  1  0.13502000  0.70290000  0.48575000  1.0
  H  H34  1  0.72267000  0.33531000  0.58591000  1.0
  H  H35  1  0.27733000  0.66469000  0.41409000  1.0
  C  C36  1  0.91225000  0.73732000  0.61587000  1.0
  C  C37  1  0.08775000  0.26268000  0.38413000  1.0
  C  C38  1  0.82104000  0.85644000  0.56924000  1.0
  C  C39  1  0.17896000  0.14355000  0.43076000  1.0
  C  C40  1  0.62748000  0.77530000  0.52352000  1.0
  C  C41  1  0.37252000  0.22470000  0.47648000  1.0
  C  C42  1  0.61216000  0.64816000  0.43358000  1.0
  C  C43  1  0.38784000  0.35183000  0.56642000  1.0
  C  C44  1  0.06144000  0.74872000  0.91500000  1.0
  C  C45  1  0.93856000  0.25128000  0.08500000  1.0
  C  C46  1  0.16330000  0.86494000  0.00496000  1.0
  C  C47  1  0.83670000  0.13506000  0.99504000  1.0
  C  C48  1  0.10087000  0.79620000  0.09447000  1.0
  C  C49  1  0.89913000  0.20380000  0.90553000  1.0
  C  C50  1  0.19960000  0.67493000  0.13267000  1.0
  C  C51  1  0.80040000  0.32507000  0.86733000  1.0
  C  C52  1  0.48619000  0.85922000  0.73764000  1.0
  C  C53  1  0.51381000  0.14078000  0.26236000  1.0
  C  C54  1  0.41323000  0.00488000  0.70957000  1.0
  C  C55  1  0.58677000  0.99512000  0.29043000  1.0
  C  C56  1  0.32227000  0.07500000  0.79126000  1.0
  C  C57  1  0.67773000  0.92500000  0.20874000  1.0
  C  C58  1  0.24419000  0.21742000  0.76230000  1.0
  C  C59  1  0.75581000  0.78258000  0.23770000  1.0
  O  O60  1  0.84574000  0.66124000  0.68293000  1.0
  O  O61  1  0.15425000  0.33876000  0.31707000  1.0
  O  O62  1  0.05989000  0.71409000  0.59294000  1.0
  O  O63  1  0.94010000  0.28590000  0.40706000  1.0
  O  O64  1  0.74400000  0.58550000  0.42252000  1.0
  O  O65  1  0.25600000  0.41450000  0.57748000  1.0
  O  O66  1  0.46772000  0.61020000  0.37459000  1.0
  O  O67  1  0.53228000  0.38980000  0.62541000  1.0
  O  O68  1  0.14779000  0.67328000  0.85910000  1.0
  O  O69  1  0.85221000  0.32672000  0.14090000  1.0
  O  O70  1  0.89461000  0.73213000  0.89988000  1.0
  O  O71  1  0.10538000  0.26787000  0.10012000  1.0
  O  O72  1  0.16153000  0.62080000  0.21153000  1.0
  O  O73  1  0.83847000  0.37921000  0.78847000  1.0
  O  O74  1  0.32036000  0.62679000  0.09155000  1.0
  O  O75  1  0.67964000  0.37321000  0.90845000  1.0
  O  O76  1  0.38313000  0.70463000  0.72380000  1.0
  O  O77  1  0.61687000  0.29537000  0.27620000  1.0
  O  O78  1  0.64672000  0.88674000  0.77501000  1.0
  O  O79  1  0.35329000  0.11326000  0.22499000  1.0
  O  O80  1  0.09651000  0.18126000  0.70901000  1.0
  O  O81  1  0.90349000  0.81874000  0.29099000  1.0
  O  O82  1  0.33000000  0.37677000  0.79160000  1.0
  O  O83  1  0.67000000  0.62323000  0.20840000  1.0
  O  O84  1  0.48600000  0.68907000  0.92679000  1.0
  O  O85  1  0.51400000  0.31093000  0.07321000  1.0
  O  O86  1  0.84184000  0.31283000  0.58172000  1.0
  O  O87  1  0.15816000  0.68717000  0.41828000  1.0
