# generated using pymatgen
data_AgH7C9N2
_symmetry_space_group_name_H-M   'P 1'
_cell_length_a   6.81089000
_cell_length_b   9.90687000
_cell_length_c   12.39650000
_cell_angle_alpha   78.12800000
_cell_angle_beta   89.99970000
_cell_angle_gamma   89.99920000
_symmetry_Int_Tables_number   1
_chemical_formula_structural   AgH7C9N2
_chemical_formula_sum   'Ag4 H28 C36 N8'
_cell_volume   818.55695704
_cell_formula_units_Z   4
loop_
 _symmetry_equiv_pos_site_id
 _symmetry_equiv_pos_as_xyz
  1  'x, y, z'
loop_
 _atom_site_type_symbol
 _atom_site_label
 _atom_site_symmetry_multiplicity
 _atom_site_fract_x
 _atom_site_fract_y
 _atom_site_fract_z
 _atom_site_occupancy
  Ag  Ag0  1  0.61028000  0.99379000  0.37665000  1.0
  Ag  Ag1  1  0.11028000  0.00621000  0.62335000  1.0
  Ag  Ag2  1  0.63054000  0.95873000  0.88122000  1.0
  Ag  Ag3  1  0.13053000  0.04127000  0.11878000  1.0
  H  H4  1  0.58908000  0.70813000  0.30010000  1.0
  H  H5  1  0.08908000  0.29187000  0.69990000  1.0
  H  H6  1  0.57548000  0.68763000  0.07962000  1.0
  H  H7  1  0.07546000  0.31236000  0.92038000  1.0
  H  H8  1  0.49654000  0.16389000  0.93699000  1.0
  H  H9  1  0.99655000  0.83611000  0.06300000  1.0
  H  H10  1  0.57350000  0.40994000  0.87166000  1.0
  H  H11  1  0.07351000  0.59005000  0.12834000  1.0
  H  H12  1  0.76557000  0.53796000  0.98924000  1.0
  H  H13  1  0.26559000  0.46204000  0.01076000  1.0
  H  H14  1  0.88155000  0.41249000  0.17503000  1.0
  H  H15  1  0.38157000  0.58751000  0.82497000  1.0
  H  H16  1  0.81997000  0.16433000  0.23610000  1.0
  H  H17  1  0.31999000  0.83567000  0.76390000  1.0
  H  H18  1  0.53595000  0.26679000  0.48679000  1.0
  H  H19  1  0.03595000  0.73322000  0.51322000  1.0
  H  H20  1  0.57428000  0.24448000  0.71369000  1.0
  H  H21  1  0.07426000  0.75552000  0.28631000  1.0
  H  H22  1  0.44539000  0.78699000  0.51683000  1.0
  H  H23  1  0.94538000  0.21302000  0.48316000  1.0
  H  H24  1  0.52212000  0.54009000  0.52752000  1.0
  H  H25  1  0.02211000  0.45991000  0.47248000  1.0
  H  H26  1  0.77705000  0.42311000  0.65892000  1.0
  H  H27  1  0.27705000  0.57689000  0.34108000  1.0
  H  H28  1  0.94856000  0.55545000  0.78241000  1.0
  H  H29  1  0.44857000  0.44455000  0.21760000  1.0
  H  H30  1  0.87483000  0.80233000  0.76966000  1.0
  H  H31  1  0.37482000  0.19766000  0.23035000  1.0
  C  C32  1  0.59963000  0.78750000  0.22566000  1.0
  C  C33  1  0.09963000  0.21250000  0.77434000  1.0
  C  C34  1  0.59357000  0.77723000  0.11626000  1.0
  C  C35  1  0.09356000  0.22277000  0.88374000  1.0
  C  C36  1  0.63044000  0.99462000  0.12385000  1.0
  C  C37  1  0.13045000  0.00538000  0.87615000  1.0
  C  C38  1  0.65881000  0.14380000  0.08969000  1.0
  C  C39  1  0.15882000  0.85620000  0.91031000  1.0
  C  C40  1  0.58726000  0.21679000  0.98785000  1.0
  C  C41  1  0.08728000  0.78321000  0.01215000  1.0
  C  C42  1  0.62696000  0.35664000  0.95199000  1.0
  C  C43  1  0.12698000  0.64336000  0.04801000  1.0
  C  C44  1  0.73357000  0.42871000  0.01812000  1.0
  C  C45  1  0.23359000  0.57128000  0.98188000  1.0
  C  C46  1  0.79913000  0.35874000  0.12133000  1.0
  C  C47  1  0.29915000  0.64125000  0.87867000  1.0
  C  C48  1  0.76389000  0.21789000  0.15634000  1.0
  C  C49  1  0.26391000  0.78210000  0.84366000  1.0
  C  C50  1  0.56754000  0.17781000  0.55168000  1.0
  C  C51  1  0.06753000  0.82219000  0.44832000  1.0
  C  C52  1  0.58858000  0.16687000  0.66403000  1.0
  C  C53  1  0.08857000  0.83313000  0.33597000  1.0
  C  C54  1  0.62507000  0.96165000  0.62766000  1.0
  C  C55  1  0.12506000  0.03835000  0.37233000  1.0
  C  C56  1  0.65929000  0.81326000  0.64003000  1.0
  C  C57  1  0.15928000  0.18674000  0.35997000  1.0
  C  C58  1  0.55934000  0.73697000  0.57308000  1.0
  C  C59  1  0.05934000  0.26303000  0.42692000  1.0
  C  C60  1  0.60139000  0.59761000  0.57998000  1.0
  C  C61  1  0.10139000  0.40240000  0.42002000  1.0
  C  C62  1  0.74296000  0.53169000  0.65430000  1.0
  C  C63  1  0.24296000  0.46831000  0.34570000  1.0
  C  C64  1  0.83888000  0.60557000  0.72348000  1.0
  C  C65  1  0.33888000  0.39443000  0.27652000  1.0
  C  C66  1  0.79681000  0.74485000  0.71681000  1.0
  C  C67  1  0.29680000  0.25516000  0.28319000  1.0
  N  N68  1  0.62315000  0.92413000  0.22998000  1.0
  N  N69  1  0.12316000  0.07587000  0.77002000  1.0
  N  N70  1  0.61377000  0.90742000  0.05257000  1.0
  N  N71  1  0.11377000  0.09257000  0.94743000  1.0
  N  N72  1  0.59117000  0.04835000  0.52929000  1.0
  N  N73  1  0.09116000  0.95165000  0.47070000  1.0
  N  N74  1  0.62544000  0.03109000  0.71129000  1.0
  N  N75  1  0.12542000  0.96892000  0.28871000  1.0
