# generated using pymatgen
data_ZnH13C14N2O5
_symmetry_space_group_name_H-M   'P 1'
_cell_length_a   7.83301000
_cell_length_b   12.02030000
_cell_length_c   15.79400000
_cell_angle_alpha   90.00000000
_cell_angle_beta   98.18280000
_cell_angle_gamma   90.00000000
_symmetry_Int_Tables_number   1
_chemical_formula_structural   ZnH13C14N2O5
_chemical_formula_sum   'Zn4 H52 C56 N8 O20'
_cell_volume   1471.94610552
_cell_formula_units_Z   4
loop_
 _symmetry_equiv_pos_site_id
 _symmetry_equiv_pos_as_xyz
  1  'x, y, z'
loop_
 _atom_site_type_symbol
 _atom_site_label
 _atom_site_symmetry_multiplicity
 _atom_site_fract_x
 _atom_site_fract_y
 _atom_site_fract_z
 _atom_site_occupancy
  Zn  Zn0  1  0.49836000  0.81060000  0.24839000  1.0
  Zn  Zn1  1  0.50165000  0.31060000  0.25161000  1.0
  Zn  Zn2  1  0.50164000  0.18940000  0.75161000  1.0
  Zn  Zn3  1  0.49836000  0.68940000  0.74839000  1.0
  H  H4  1  0.35050000  0.63996000  0.31650000  1.0
  H  H5  1  0.64950000  0.13996000  0.18350000  1.0
  H  H6  1  0.64950000  0.36004000  0.68350000  1.0
  H  H7  1  0.35050000  0.86004000  0.81650000  1.0
  H  H8  1  0.27232000  0.75371000  0.35088000  1.0
  H  H9  1  0.72768000  0.25371000  0.14913000  1.0
  H  H10  1  0.72768000  0.24630000  0.64912000  1.0
  H  H11  1  0.27232000  0.74629000  0.85088000  1.0
  H  H12  1  0.03391000  0.59468000  0.26280000  1.0
  H  H13  1  0.96608000  0.09468000  0.23720000  1.0
  H  H14  1  0.96608000  0.40532000  0.73721000  1.0
  H  H15  1  0.03392000  0.90532000  0.76279000  1.0
  H  H16  1  0.80752000  0.75135000  0.93833000  1.0
  H  H17  1  0.19248000  0.25135000  0.56167000  1.0
  H  H18  1  0.19249000  0.24864000  0.06167000  1.0
  H  H19  1  0.80751000  0.74865000  0.43833000  1.0
  H  H20  1  0.74413000  0.82700000  0.02675000  1.0
  H  H21  1  0.25587000  0.32700000  0.47325000  1.0
  H  H22  1  0.25587000  0.17300000  0.97325000  1.0
  H  H23  1  0.74413000  0.67300000  0.52675000  1.0
  H  H24  1  0.64489000  0.69996000  0.99661000  1.0
  H  H25  1  0.35511000  0.19996000  0.50339000  1.0
  H  H26  1  0.35511000  0.30004000  0.00340000  1.0
  H  H27  1  0.64489000  0.80004000  0.49661000  1.0
  H  H28  1  0.29622000  0.59738000  0.95669000  1.0
  H  H29  1  0.70378000  0.09738000  0.54331000  1.0
  H  H30  1  0.70378000  0.40262000  0.04331000  1.0
  H  H31  1  0.29622000  0.90261000  0.45669000  1.0
  H  H32  1  0.34738000  0.47927000  0.02472000  1.0
  H  H33  1  0.65262000  0.97927000  0.47528000  1.0
  H  H34  1  0.65262000  0.52073000  0.97528000  1.0
  H  H35  1  0.34739000  0.02072000  0.52472000  1.0
  H  H36  1  0.44258000  0.60856000  0.05469000  1.0
  H  H37  1  0.55742000  0.10856000  0.44531000  1.0
  H  H38  1  0.55742000  0.39144000  0.94532000  1.0
  H  H39  1  0.44258000  0.89144000  0.55469000  1.0
  H  H40  1  0.11568000  0.88539000  0.24026000  1.0
  H  H41  1  0.88433000  0.38539000  0.25974000  1.0
  H  H42  1  0.88432000  0.11461000  0.75974000  1.0
  H  H43  1  0.11568000  0.61460000  0.74027000  1.0
  H  H44  1  0.89668000  0.96983000  0.13337000  1.0
  H  H45  1  0.10333000  0.46983000  0.36663000  1.0
  H  H46  1  0.10332000  0.03017000  0.86663000  1.0
  H  H47  1  0.89668000  0.53017000  0.63337000  1.0
  H  H48  1  0.27129000  0.95855000  0.95538000  1.0
  H  H49  1  0.72871000  0.45855000  0.54462000  1.0
  H  H50  1  0.72871000  0.04145000  0.04462000  1.0
  H  H51  1  0.27129000  0.54145000  0.45538000  1.0
  H  H52  1  0.47441000  0.87305000  0.07130000  1.0
  H  H53  1  0.52559000  0.37306000  0.42870000  1.0
  H  H54  1  0.52560000  0.12695000  0.92870000  1.0
  H  H55  1  0.47441000  0.62695000  0.57130000  1.0
  C  C56  1  0.90624000  0.68497000  0.06104000  1.0
  C  C57  1  0.09376000  0.18496000  0.43896000  1.0
  C  C58  1  0.09376000  0.31503000  0.93897000  1.0
  C  C59  1  0.90624000  0.81504000  0.56103000  1.0
  C  C60  1  0.89955000  0.66520000  0.14893000  1.0
  C  C61  1  0.10045000  0.16520000  0.35107000  1.0
  C  C62  1  0.10044000  0.33481000  0.85107000  1.0
  C  C63  1  0.89955000  0.83480000  0.64893000  1.0
  C  C64  1  0.03792000  0.60868000  0.19506000  1.0
  C  C65  1  0.96208000  0.10867000  0.30494000  1.0
  C  C66  1  0.96209000  0.39132000  0.80494000  1.0
  C  C67  1  0.03792000  0.89133000  0.69506000  1.0
  C  C68  1  0.17629000  0.57056000  0.15687000  1.0
  C  C69  1  0.82371000  0.07056000  0.34313000  1.0
  C  C70  1  0.82371000  0.42944000  0.84313000  1.0
  C  C71  1  0.17629000  0.92944000  0.65687000  1.0
  C  C72  1  0.17615000  0.59709000  0.06958000  1.0
  C  C73  1  0.82385000  0.09709000  0.43043000  1.0
  C  C74  1  0.82385000  0.40291000  0.93043000  1.0
  C  C75  1  0.17615000  0.90291000  0.56957000  1.0
  C  C76  1  0.76866000  0.74399000  0.00201000  1.0
  C  C77  1  0.23134000  0.24398000  0.49799000  1.0
  C  C78  1  0.23135000  0.25601000  0.99799000  1.0
  C  C79  1  0.76866000  0.75601000  0.50201000  1.0
  C  C80  1  0.76277000  0.70392000  0.19988000  1.0
  C  C81  1  0.23722000  0.20392000  0.30011000  1.0
  C  C82  1  0.23723000  0.29608000  0.80012000  1.0
  C  C83  1  0.76278000  0.79608000  0.69989000  1.0
  C  C84  1  0.30969000  0.50239000  0.21099000  1.0
  C  C85  1  0.69030000  0.00239000  0.28901000  1.0
  C  C86  1  0.69031000  0.49761000  0.78902000  1.0
  C  C87  1  0.30970000  0.99761000  0.71099000  1.0
  C  C88  1  0.32371000  0.56902000  0.02309000  1.0
  C  C89  1  0.67629000  0.06902000  0.47692000  1.0
  C  C90  1  0.67630000  0.43098000  0.97692000  1.0
  C  C91  1  0.32371000  0.93098000  0.52308000  1.0
  C  C92  1  0.14564000  0.90325000  0.17627000  1.0
  C  C93  1  0.85437000  0.40326000  0.32373000  1.0
  C  C94  1  0.85436000  0.09674000  0.82373000  1.0
  C  C95  1  0.14564000  0.59674000  0.67628000  1.0
  C  C96  1  0.02282000  0.95146000  0.11532000  1.0
  C  C97  1  0.97718000  0.45147000  0.38468000  1.0
  C  C98  1  0.97717000  0.04853000  0.88468000  1.0
  C  C99  1  0.02283000  0.54854000  0.61532000  1.0
  C  C100  1  0.06332000  0.97415000  0.03333000  1.0
  C  C101  1  0.93668000  0.47416000  0.46667000  1.0
  C  C102  1  0.93668000  0.02584000  0.96666000  1.0
  C  C103  1  0.06333000  0.52584000  0.53334000  1.0
  C  C104  1  0.22942000  0.94494000  0.01742000  1.0
  C  C105  1  0.77057000  0.44494000  0.48258000  1.0
  C  C106  1  0.77058000  0.05506000  0.98258000  1.0
  C  C107  1  0.22943000  0.55506000  0.51742000  1.0
  C  C108  1  0.34505000  0.89718000  0.08165000  1.0
  C  C109  1  0.65496000  0.39719000  0.41834000  1.0
  C  C110  1  0.65496000  0.10282000  0.91835000  1.0
  C  C111  1  0.34504000  0.60282000  0.58166000  1.0
  N  N112  1  0.04482000  0.65329000  0.02492000  1.0
  N  N113  1  0.95518000  0.15329000  0.47508000  1.0
  N  N114  1  0.95518000  0.34671000  0.97509000  1.0
  N  N115  1  0.04482000  0.84671000  0.52491000  1.0
  N  N116  1  0.30454000  0.87660000  0.16036000  1.0
  N  N117  1  0.69546000  0.37661000  0.33964000  1.0
  N  N118  1  0.69545000  0.12340000  0.83964000  1.0
  N  N119  1  0.30455000  0.62339000  0.66036000  1.0
  O  O120  1  0.61660000  0.73861000  0.15875000  1.0
  O  O121  1  0.38341000  0.23861000  0.34125000  1.0
  O  O122  1  0.38340000  0.26140000  0.84125000  1.0
  O  O123  1  0.61659000  0.76139000  0.65874000  1.0
  O  O124  1  0.79312000  0.70369000  0.28004000  1.0
  O  O125  1  0.20688000  0.20369000  0.21996000  1.0
  O  O126  1  0.20688000  0.29631000  0.71996000  1.0
  O  O127  1  0.79312000  0.79631000  0.78004000  1.0
  O  O128  1  0.38687000  0.42608000  0.17439000  1.0
  O  O129  1  0.61312000  0.92608000  0.32561000  1.0
  O  O130  1  0.61313000  0.57392000  0.82561000  1.0
  O  O131  1  0.38687000  0.07392000  0.67439000  1.0
  O  O132  1  0.33510000  0.51867000  0.29173000  1.0
  O  O133  1  0.66489000  0.01867000  0.20828000  1.0
  O  O134  1  0.66491000  0.48133000  0.70828000  1.0
  O  O135  1  0.33510000  0.98133000  0.79172000  1.0
  O  O136  1  0.37563000  0.72262000  0.33237000  1.0
  O  O137  1  0.62437000  0.22262000  0.16763000  1.0
  O  O138  1  0.62437000  0.27738000  0.66763000  1.0
  O  O139  1  0.37563000  0.77738000  0.83237000  1.0
