# generated using pymatgen
data_ZnH11C17N2O5
_symmetry_space_group_name_H-M   'P 1'
_cell_length_a   7.99391000
_cell_length_b   10.94660000
_cell_length_c   24.86360000
_cell_angle_alpha   89.99930000
_cell_angle_beta   89.99990000
_cell_angle_gamma   111.34500000
_symmetry_Int_Tables_number   1
_chemical_formula_structural   ZnH11C17N2O5
_chemical_formula_sum   'Zn4 H44 C68 N8 O20'
_cell_volume   2026.47559810
_cell_formula_units_Z   4
loop_
 _symmetry_equiv_pos_site_id
 _symmetry_equiv_pos_as_xyz
  1  'x, y, z'
loop_
 _atom_site_type_symbol
 _atom_site_label
 _atom_site_symmetry_multiplicity
 _atom_site_fract_x
 _atom_site_fract_y
 _atom_site_fract_z
 _atom_site_occupancy
  Zn  Zn0  1  0.36263000  0.78247000  0.52951000  1.0
  Zn  Zn1  1  0.63737000  0.21752000  0.02950000  1.0
  Zn  Zn2  1  0.61346000  0.69623000  0.46818000  1.0
  Zn  Zn3  1  0.38654000  0.30376000  0.96818000  1.0
  H  H4  1  0.28454000  0.30865000  0.45324000  1.0
  H  H5  1  0.71545000  0.69135000  0.95324000  1.0
  H  H6  1  0.90096000  0.40611000  0.54765000  1.0
  H  H7  1  0.09904000  0.59388000  0.04764000  1.0
  H  H8  1  0.69173000  0.17016000  0.54509000  1.0
  H  H9  1  0.30826000  0.82984000  0.04509000  1.0
  H  H10  1  0.52161000  0.59167000  0.36018000  1.0
  H  H11  1  0.47840000  0.40835000  0.86018000  1.0
  H  H12  1  0.65375000  0.50206000  0.28660000  1.0
  H  H13  1  0.34626000  0.49795000  0.78660000  1.0
  H  H14  1  0.09105000  0.41072000  0.09959000  1.0
  H  H15  1  0.90895000  0.58928000  0.59959000  1.0
  H  H16  1  0.98285000  0.46726000  0.18537000  1.0
  H  H17  1  0.01715000  0.53275000  0.68537000  1.0
  H  H18  1  0.37012000  0.35221000  0.27179000  1.0
  H  H19  1  0.62990000  0.64782000  0.77179000  1.0
  H  H20  1  0.48333000  0.29941000  0.18314000  1.0
  H  H21  1  0.51669000  0.70062000  0.68314000  1.0
  H  H22  1  0.89857000  0.96624000  0.60304000  1.0
  H  H23  1  0.10144000  0.03376000  0.10304000  1.0
  H  H24  1  0.02391000  0.03948000  0.81160000  1.0
  H  H25  1  0.97609000  0.96052000  0.31160000  1.0
  H  H26  1  0.92765000  0.10665000  0.89719000  1.0
  H  H27  1  0.07234000  0.89334000  0.39719000  1.0
  H  H28  1  0.52683000  0.21067000  0.81485000  1.0
  H  H29  1  0.47317000  0.78933000  0.31486000  1.0
  H  H30  1  0.62678000  0.14619000  0.72638000  1.0
  H  H31  1  0.37322000  0.85382000  0.22639000  1.0
  H  H32  1  0.34054000  0.99280000  0.70890000  1.0
  H  H33  1  0.65947000  0.00720000  0.20889000  1.0
  H  H34  1  0.03754000  0.86603000  0.53466000  1.0
  H  H35  1  0.96247000  0.13395000  0.03466000  1.0
  H  H36  1  0.93694000  0.61113000  0.46432000  1.0
  H  H37  1  0.06305000  0.38886000  0.96432000  1.0
  H  H38  1  0.08329000  0.51742000  0.39557000  1.0
  H  H39  1  0.91670000  0.48256000  0.89557000  1.0
  H  H40  1  0.07526000  0.07268000  0.45070000  1.0
  H  H41  1  0.92472000  0.92732000  0.95070000  1.0
  H  H42  1  0.46399000  0.89538000  0.63591000  1.0
  H  H43  1  0.53602000  0.10462000  0.13590000  1.0
  H  H44  1  0.87866000  0.43543000  0.25848000  1.0
  H  H45  1  0.12134000  0.56457000  0.75848000  1.0
  H  H46  1  0.11893000  0.06358000  0.73727000  1.0
  H  H47  1  0.88107000  0.93641000  0.23727000  1.0
  C  C48  1  0.74449000  0.96871000  0.49595000  1.0
  C  C49  1  0.25549000  0.03129000  0.99594000  1.0
  C  C50  1  0.87127000  0.10850000  0.49752000  1.0
  C  C51  1  0.12873000  0.89150000  0.99752000  1.0
  C  C52  1  0.15438000  0.27684000  0.47319000  1.0
  C  C53  1  0.84562000  0.72316000  0.97319000  1.0
  C  C54  1  0.10498000  0.37037000  0.50075000  1.0
  C  C55  1  0.89502000  0.62962000  0.00074000  1.0
  C  C56  1  0.23183000  0.51017000  0.50216000  1.0
  C  C57  1  0.76819000  0.48982000  0.00216000  1.0
  C  C58  1  0.93799000  0.33230000  0.52665000  1.0
  C  C59  1  0.06200000  0.66770000  0.02664000  1.0
  C  C60  1  0.82189000  0.20200000  0.52512000  1.0
  C  C61  1  0.17810000  0.79800000  0.02512000  1.0
  C  C62  1  0.64707000  0.57569000  0.36604000  1.0
  C  C63  1  0.35294000  0.42432000  0.86604000  1.0
  C  C64  1  0.72065000  0.52467000  0.32557000  1.0
  C  C65  1  0.27935000  0.47533000  0.82557000  1.0
  C  C66  1  0.88215000  0.50468000  0.33498000  1.0
  C  C67  1  0.11784000  0.49532000  0.83498000  1.0
  C  C68  1  0.12267000  0.44940000  0.28887000  1.0
  C  C69  1  0.87732000  0.55061000  0.78888000  1.0
  C  C70  1  0.17093000  0.41279000  0.23481000  1.0
  C  C71  1  0.82907000  0.58722000  0.73481000  1.0
  C  C72  1  0.29639000  0.35455000  0.13647000  1.0
  C  C73  1  0.70361000  0.64546000  0.63647000  1.0
  C  C74  1  0.15295000  0.39920000  0.13738000  1.0
  C  C75  1  0.84704000  0.60080000  0.63738000  1.0
  C  C76  1  0.09081000  0.42839000  0.18628000  1.0
  C  C77  1  0.90918000  0.57161000  0.68628000  1.0
  C  C78  1  0.31194000  0.36525000  0.23358000  1.0
  C  C79  1  0.68805000  0.63476000  0.73358000  1.0
  C  C80  1  0.37417000  0.33656000  0.18492000  1.0
  C  C81  1  0.62584000  0.66346000  0.68492000  1.0
  C  C82  1  0.02258000  0.95108000  0.61179000  1.0
  C  C83  1  0.97743000  0.04891000  0.11179000  1.0
  C  C84  1  0.10633000  0.98508000  0.66213000  1.0
  C  C85  1  0.89367000  0.01491000  0.16213000  1.0
  C  C86  1  0.87058000  0.04484000  0.70908000  1.0
  C  C87  1  0.12942000  0.95516000  0.20908000  1.0
  C  C88  1  0.83014000  0.08891000  0.76275000  1.0
  C  C89  1  0.16987000  0.91110000  0.26276000  1.0
  C  C90  1  0.91656000  0.07898000  0.81088000  1.0
  C  C91  1  0.08344000  0.92101000  0.31088000  1.0
  C  C92  1  0.86141000  0.11439000  0.85970000  1.0
  C  C93  1  0.13860000  0.88561000  0.35971000  1.0
  C  C94  1  0.71883000  0.15988000  0.86099000  1.0
  C  C95  1  0.28117000  0.84012000  0.36100000  1.0
  C  C96  1  0.63522000  0.17277000  0.81287000  1.0
  C  C97  1  0.36478000  0.82724000  0.31288000  1.0
  C  C98  1  0.69018000  0.13756000  0.76427000  1.0
  C  C99  1  0.30982000  0.86244000  0.26428000  1.0
  C  C100  1  0.26898000  0.96606000  0.67077000  1.0
  C  C101  1  0.73103000  0.03394000  0.17076000  1.0
  C  C102  1  0.10070000  0.89529000  0.57386000  1.0
  C  C103  1  0.89932000  0.10469000  0.07385000  1.0
  C  C104  1  0.87799000  0.58557000  0.42441000  1.0
  C  C105  1  0.12200000  0.41442000  0.92441000  1.0
  C  C106  1  0.96028000  0.53348000  0.38627000  1.0
  C  C107  1  0.03972000  0.46651000  0.88627000  1.0
  C  C108  1  0.03828000  0.14657000  0.47166000  1.0
  C  C109  1  0.96171000  0.85343000  0.97166000  1.0
  C  C110  1  0.36795000  0.32459000  0.08414000  1.0
  C  C111  1  0.63205000  0.67541000  0.58414000  1.0
  C  C112  1  0.65291000  0.19459000  0.91341000  1.0
  C  C113  1  0.34709000  0.80541000  0.41342000  1.0
  C  C114  1  0.33795000  0.91087000  0.63057000  1.0
  C  C115  1  0.66205000  0.08912000  0.13057000  1.0
  N  N116  1  0.72619000  0.60834000  0.41461000  1.0
  N  N117  1  0.27381000  0.39166000  0.91461000  1.0
  N  N118  1  0.95482000  0.45824000  0.29235000  1.0
  N  N119  1  0.04517000  0.54176000  0.79235000  1.0
  N  N120  1  0.25345000  0.87335000  0.58300000  1.0
  N  N121  1  0.74656000  0.12664000  0.08300000  1.0
  N  N122  1  0.03835000  0.03617000  0.70443000  1.0
  N  N123  1  0.96165000  0.96382000  0.20443000  1.0
  O  O124  1  0.17977000  0.59378000  0.52582000  1.0
  O  O125  1  0.82024000  0.40621000  0.02581000  1.0
  O  O126  1  0.73069000  0.17948000  0.95616000  1.0
  O  O127  1  0.26931000  0.82051000  0.45617000  1.0
  O  O128  1  0.79627000  0.88541000  0.47200000  1.0
  O  O129  1  0.20372000  0.11459000  0.97200000  1.0
  O  O130  1  0.59388000  0.94349000  0.51912000  1.0
  O  O131  1  0.40612000  0.05652000  0.01912000  1.0
  O  O132  1  0.38263000  0.53513000  0.47919000  1.0
  O  O133  1  0.61737000  0.46486000  0.97919000  1.0
  O  O134  1  0.49906000  0.28558000  0.08742000  1.0
  O  O135  1  0.50095000  0.71443000  0.58742000  1.0
  O  O136  1  0.52377000  0.23576000  0.91030000  1.0
  O  O137  1  0.47621000  0.76424000  0.41031000  1.0
  O  O138  1  0.76066000  0.01771000  0.67191000  1.0
  O  O139  1  0.23935000  0.98229000  0.17192000  1.0
  O  O140  1  0.29152000  0.34062000  0.04125000  1.0
  O  O141  1  0.70847000  0.65938000  0.54126000  1.0
  O  O142  1  0.22678000  0.47068000  0.32741000  1.0
  O  O143  1  0.77322000  0.52934000  0.82741000  1.0
