# generated using pymatgen
data_Cd2H18C21N2O11
_symmetry_space_group_name_H-M   'P 1'
_cell_length_a   8.29263000
_cell_length_b   10.48050000
_cell_length_c   13.11630000
_cell_angle_alpha   100.17300000
_cell_angle_beta   94.29580000
_cell_angle_gamma   98.44120000
_symmetry_Int_Tables_number   1
_chemical_formula_structural   Cd2H18C21N2O11
_chemical_formula_sum   'Cd4 H36 C42 N4 O22'
_cell_volume   1103.90531124
_cell_formula_units_Z   2
loop_
 _symmetry_equiv_pos_site_id
 _symmetry_equiv_pos_as_xyz
  1  'x, y, z'
loop_
 _atom_site_type_symbol
 _atom_site_label
 _atom_site_symmetry_multiplicity
 _atom_site_fract_x
 _atom_site_fract_y
 _atom_site_fract_z
 _atom_site_occupancy
  Cd  Cd0  1  0.52066000  0.55274000  0.79292000  1.0
  Cd  Cd1  1  0.47934000  0.44726000  0.20708000  1.0
  Cd  Cd2  1  0.86412000  0.24574000  0.11075000  1.0
  Cd  Cd3  1  0.13588000  0.75426000  0.88925000  1.0
  H  H4  1  0.16454000  0.19126000  0.21478000  1.0
  H  H5  1  0.83546000  0.80875000  0.78522000  1.0
  H  H6  1  0.07420000  0.05234000  0.14044000  1.0
  H  H7  1  0.92580000  0.94766000  0.85956000  1.0
  H  H8  1  0.72581000  0.94785000  0.00431000  1.0
  H  H9  1  0.27419000  0.05215000  0.99569000  1.0
  H  H10  1  0.31727000  0.54503000  0.55943000  1.0
  H  H11  1  0.68273000  0.45497000  0.44057000  1.0
  H  H12  1  0.87591000  0.34958000  0.65304000  1.0
  H  H13  1  0.12409000  0.65041000  0.34696000  1.0
  H  H14  1  0.42937000  0.28554000  0.64037000  1.0
  H  H15  1  0.57063000  0.71446000  0.35964000  1.0
  H  H16  1  0.05097000  0.19327000  0.36195000  1.0
  H  H17  1  0.94903000  0.80673000  0.63805000  1.0
  H  H18  1  0.59206000  0.18740000  0.26048000  1.0
  H  H19  1  0.40794000  0.81260000  0.73951000  1.0
  H  H20  1  0.32710000  0.79246000  0.16269000  1.0
  H  H21  1  0.67290000  0.20754000  0.83730000  1.0
  H  H22  1  0.22836000  0.07255000  0.60817000  1.0
  H  H23  1  0.77164000  0.92745000  0.39184000  1.0
  H  H24  1  0.03243000  0.03666000  0.74001000  1.0
  H  H25  1  0.96757000  0.96334000  0.25999000  1.0
  H  H26  1  0.23523000  0.42344000  0.91271000  1.0
  H  H27  1  0.76477000  0.57656000  0.08729000  1.0
  H  H28  1  0.36932000  0.01273000  0.28549000  1.0
  H  H29  1  0.63069000  0.98727000  0.71451000  1.0
  H  H30  1  0.58855000  0.08417000  0.49961000  1.0
  H  H31  1  0.41145000  0.91583000  0.50039000  1.0
  H  H32  1  0.64407000  0.25861000  0.54578000  1.0
  H  H33  1  0.35593000  0.74139000  0.45422000  1.0
  H  H34  1  0.71975000  0.14615000  0.61869000  1.0
  H  H35  1  0.28024000  0.85385000  0.38130000  1.0
  H  H36  1  0.73482000  0.41645000  0.90684000  1.0
  H  H37  1  0.26518000  0.58355000  0.09316000  1.0
  H  H38  1  0.83961000  0.47785000  0.82327000  1.0
  H  H39  1  0.16039000  0.52214000  0.17673000  1.0
  C  C40  1  0.49358000  0.73122000  0.99184000  1.0
  C  C41  1  0.50642000  0.26878000  0.00816000  1.0
  C  C42  1  0.64555000  0.95782000  0.06636000  1.0
  C  C43  1  0.35446000  0.04218000  0.93364000  1.0
  C  C44  1  0.21550000  0.46397000  0.54514000  1.0
  C  C45  1  0.78450000  0.53603000  0.45486000  1.0
  C  C46  1  0.10127000  0.45355000  0.61724000  1.0
  C  C47  1  0.89873000  0.54645000  0.38276000  1.0
  C  C48  1  0.52291000  0.85414000  0.07409000  1.0
  C  C49  1  0.47709000  0.14587000  0.92592000  1.0
  C  C50  1  0.00819000  0.21327000  0.92065000  1.0
  C  C51  1  0.99181000  0.78673000  0.07935000  1.0
  C  C52  1  0.96638000  0.35177000  0.59720000  1.0
  C  C53  1  0.03362000  0.64823000  0.40280000  1.0
  C  C54  1  0.12145000  0.55313000  0.71527000  1.0
  C  C55  1  0.87855000  0.44687000  0.28473000  1.0
  C  C56  1  0.33921000  0.26477000  0.69405000  1.0
  C  C57  1  0.66079000  0.73523000  0.30595000  1.0
  C  C58  1  0.11787000  0.22797000  0.83607000  1.0
  C  C59  1  0.88213000  0.77203000  0.16393000  1.0
  C  C60  1  0.06785000  0.26534000  0.43434000  1.0
  C  C61  1  0.93215000  0.73466000  0.56566000  1.0
  C  C62  1  0.31184000  0.39068000  0.37186000  1.0
  C  C63  1  0.68816000  0.60932000  0.62814000  1.0
  C  C64  1  0.95051000  0.25802000  0.50548000  1.0
  C  C65  1  0.04949000  0.74198000  0.49452000  1.0
  C  C66  1  0.56991000  0.09150000  0.20943000  1.0
  C  C67  1  0.43009000  0.90850000  0.79057000  1.0
  C  C68  1  0.42213000  0.87231000  0.15454000  1.0
  C  C69  1  0.57787000  0.12769000  0.84546000  1.0
  C  C70  1  0.22806000  0.14828000  0.67664000  1.0
  C  C71  1  0.77194000  0.85172000  0.32336000  1.0
  C  C72  1  0.19821000  0.37023000  0.45307000  1.0
  C  C73  1  0.80179000  0.62977000  0.54693000  1.0
  C  C74  1  0.11692000  0.12890000  0.74926000  1.0
  C  C75  1  0.88307000  0.87110000  0.25074000  1.0
  C  C76  1  0.23129000  0.34348000  0.84664000  1.0
  C  C77  1  0.76870000  0.65653000  0.15336000  1.0
  C  C78  1  0.44658000  0.99279000  0.22290000  1.0
  C  C79  1  0.55342000  0.00722000  0.77710000  1.0
  C  C80  1  0.68619000  0.16292000  0.53982000  1.0
  C  C81  1  0.31381000  0.83708000  0.46018000  1.0
  N  N82  1  0.34076000  0.36033000  0.77794000  1.0
  N  N83  1  0.65924000  0.63967000  0.22206000  1.0
  N  N84  1  0.66782000  0.07426000  0.13211000  1.0
  N  N85  1  0.33218000  0.92574000  0.86789000  1.0
  O  O86  1  0.82057000  0.15688000  0.47774000  1.0
  O  O87  1  0.17943000  0.84312000  0.52226000  1.0
  O  O88  1  0.05802000  0.13834000  0.18176000  1.0
  O  O89  1  0.94198000  0.86167000  0.81824000  1.0
  O  O90  1  0.35876000  0.65235000  0.98432000  1.0
  O  O91  1  0.64124000  0.34765000  0.01568000  1.0
  O  O92  1  0.25874000  0.63073000  0.74198000  1.0
  O  O93  1  0.74126000  0.36927000  0.25802000  1.0
  O  O94  1  0.00269000  0.56225000  0.77118000  1.0
  O  O95  1  0.99731000  0.43775000  0.22882000  1.0
  O  O96  1  0.92744000  0.10170000  0.92479000  1.0
  O  O97  1  0.07256000  0.89831000  0.07522000  1.0
  O  O98  1  0.00416000  0.31751000  0.98689000  1.0
  O  O99  1  0.99584000  0.68249000  0.01311000  1.0
  O  O100  1  0.60406000  0.71672000  0.93033000  1.0
  O  O101  1  0.39594000  0.28328000  0.06967000  1.0
  O  O102  1  0.39455000  0.50457000  0.37777000  1.0
  O  O103  1  0.60544000  0.49543000  0.62222000  1.0
  O  O104  1  0.32093000  0.29548000  0.29696000  1.0
  O  O105  1  0.67907000  0.70452000  0.70304000  1.0
  O  O106  1  0.73099000  0.43302000  0.83509000  1.0
  O  O107  1  0.26901000  0.56698000  0.16491000  1.0
