# generated using pymatgen
data_NaB2H14C3NO
_symmetry_space_group_name_H-M   'P 1'
_cell_length_a   8.16894000
_cell_length_b   9.78577000
_cell_length_c   10.53020000
_cell_angle_alpha   91.47010000
_cell_angle_beta   97.95820000
_cell_angle_gamma   114.07800000
_symmetry_Int_Tables_number   1
_chemical_formula_structural   NaB2H14C3NO
_chemical_formula_sum   'Na4 B8 H56 C12 N4 O4'
_cell_volume   757.98658667
_cell_formula_units_Z   4
loop_
 _symmetry_equiv_pos_site_id
 _symmetry_equiv_pos_as_xyz
  1  'x, y, z'
loop_
 _atom_site_type_symbol
 _atom_site_label
 _atom_site_symmetry_multiplicity
 _atom_site_fract_x
 _atom_site_fract_y
 _atom_site_fract_z
 _atom_site_occupancy
  Na  Na0  1  0.45681000  0.30272000  0.02476000  1.0
  Na  Na1  1  0.54319000  0.69729000  0.97524000  1.0
  Na  Na2  1  0.41310000  0.00787000  0.65200000  1.0
  Na  Na3  1  0.58690000  0.99213000  0.34800000  1.0
  B  B4  1  0.62410000  0.23018000  0.83954000  1.0
  B  B5  1  0.37590000  0.76982000  0.16046000  1.0
  B  B6  1  0.63031000  0.50150000  0.84446000  1.0
  B  B7  1  0.36968000  0.49850000  0.15554000  1.0
  B  B8  1  0.64389000  0.26604000  0.25148000  1.0
  B  B9  1  0.35611000  0.73396000  0.74852000  1.0
  B  B10  1  0.51757000  0.21261000  0.47138000  1.0
  B  B11  1  0.48243000  0.78739000  0.52862000  1.0
  H  H12  1  0.45689000  0.17806000  0.82235000  1.0
  H  H13  1  0.54311000  0.82194000  0.17765000  1.0
  H  H14  1  0.68424000  0.24648000  0.95421000  1.0
  H  H15  1  0.31576000  0.75352000  0.04579000  1.0
  H  H16  1  0.67676000  0.14736000  0.78488000  1.0
  H  H17  1  0.32324000  0.85264000  0.21512000  1.0
  H  H18  1  0.46364000  0.44624000  0.82726000  1.0
  H  H19  1  0.53636000  0.55376000  0.17274000  1.0
  H  H20  1  0.69099000  0.52543000  0.96048000  1.0
  H  H21  1  0.30901000  0.47457000  0.03952000  1.0
  H  H22  1  0.68919000  0.62230000  0.79640000  1.0
  H  H23  1  0.31081000  0.37770000  0.20360000  1.0
  H  H24  1  0.64132000  0.36739000  0.68718000  1.0
  H  H25  1  0.35868000  0.63261000  0.31282000  1.0
  H  H26  1  0.94530000  0.56274000  0.74912000  1.0
  H  H27  1  0.05470000  0.43726000  0.25088000  1.0
  H  H28  1  0.93790000  0.37673000  0.74187000  1.0
  H  H29  1  0.06210000  0.62327000  0.25813000  1.0
  H  H30  1  0.95953000  0.47385000  0.89286000  1.0
  H  H31  1  0.04046000  0.52615000  0.10714000  1.0
  H  H32  1  0.92589000  0.11075000  0.86799000  1.0
  H  H33  1  0.07411000  0.88925000  0.13201000  1.0
  H  H34  1  0.03724000  0.25670000  0.99694000  1.0
  H  H35  1  0.96276000  0.74330000  0.00306000  1.0
  H  H36  1  0.25407000  0.95162000  0.95676000  1.0
  H  H37  1  0.74593000  0.04838000  0.04323000  1.0
  H  H38  1  0.05890000  0.92880000  0.84240000  1.0
  H  H39  1  0.94110000  0.07120000  0.15760000  1.0
  H  H40  1  0.76641000  0.22998000  0.29344000  1.0
  H  H41  1  0.23359000  0.77002000  0.70656000  1.0
  H  H42  1  0.51148000  0.15716000  0.19478000  1.0
  H  H43  1  0.48851000  0.84284000  0.80521000  1.0
  H  H44  1  0.70275000  0.36558000  0.18064000  1.0
  H  H45  1  0.29725000  0.63442000  0.81936000  1.0
  H  H46  1  0.47600000  0.35164000  0.32794000  1.0
  H  H47  1  0.52400000  0.64836000  0.67205000  1.0
  H  H48  1  0.68213000  0.52031000  0.50565000  1.0
  H  H49  1  0.31787000  0.47969000  0.49435000  1.0
  H  H50  1  0.76638000  0.55317000  0.35572000  1.0
  H  H51  1  0.23362000  0.44683000  0.64428000  1.0
  H  H52  1  0.84601000  0.45349000  0.47054000  1.0
  H  H53  1  0.15399000  0.54651000  0.52946000  1.0
  H  H54  1  0.39585000  0.09481000  0.41869000  1.0
  H  H55  1  0.60415000  0.90519000  0.58131000  1.0
  H  H56  1  0.64841000  0.19071000  0.52293000  1.0
  H  H57  1  0.35159000  0.80929000  0.47707000  1.0
  H  H58  1  0.45757000  0.26210000  0.55340000  1.0
  H  H59  1  0.54242000  0.73790000  0.44660000  1.0
  H  H60  1  0.02595000  0.76601000  0.53014000  1.0
  H  H61  1  0.97405000  0.23399000  0.46986000  1.0
  H  H62  1  0.84848000  0.81460000  0.57082000  1.0
  H  H63  1  0.15152000  0.18540000  0.42918000  1.0
  H  H64  1  0.93751000  0.07533000  0.65244000  1.0
  H  H65  1  0.06249000  0.92466000  0.34756000  1.0
  H  H66  1  0.17416000  0.19963000  0.66728000  1.0
  H  H67  1  0.82585000  0.80037000  0.33272000  1.0
  C  C68  1  0.89649000  0.45467000  0.79128000  1.0
  C  C69  1  0.10351000  0.54533000  0.20872000  1.0
  C  C70  1  0.99784000  0.13758000  0.96824000  1.0
  C  C71  1  0.00216000  0.86242000  0.03176000  1.0
  C  C72  1  0.12379000  0.96128000  0.94410000  1.0
  C  C73  1  0.87621000  0.03872000  0.05589000  1.0
  C  C74  1  0.72762000  0.47319000  0.42887000  1.0
  C  C75  1  0.27238000  0.52681000  0.57113000  1.0
  C  C76  1  0.97419000  0.85351000  0.52840000  1.0
  C  C77  1  0.02582000  0.14649000  0.47160000  1.0
  C  C78  1  0.06092000  0.10608000  0.60767000  1.0
  C  C79  1  0.93908000  0.89392000  0.39233000  1.0
  N  N80  1  0.69672000  0.38895000  0.78335000  1.0
  N  N81  1  0.30328000  0.61105000  0.21665000  1.0
  N  N82  1  0.58302000  0.32862000  0.36871000  1.0
  N  N83  1  0.41698000  0.67138000  0.63129000  1.0
  O  O84  1  0.16356000  0.11696000  0.97588000  1.0
  O  O85  1  0.83644000  0.88304000  0.02411000  1.0
  O  O86  1  0.11248000  0.98189000  0.60732000  1.0
  O  O87  1  0.88752000  0.01811000  0.39268000  1.0
