# generated using pymatgen
data_AlH12C21S6NO24
_symmetry_space_group_name_H-M   'P 1'
_cell_length_a   4.54502000
_cell_length_b   13.66493419
_cell_length_c   13.66670000
_cell_angle_alpha   60.00717881
_cell_angle_beta   89.97850000
_cell_angle_gamma   89.96049410
_symmetry_Int_Tables_number   1
_chemical_formula_structural   AlH12C21S6NO24
_chemical_formula_sum   'Al1 H12 C21 S6 N1 O24'
_cell_volume   735.13812156
_cell_formula_units_Z   1
loop_
 _symmetry_equiv_pos_site_id
 _symmetry_equiv_pos_as_xyz
  1  'x, y, z'
loop_
 _atom_site_type_symbol
 _atom_site_label
 _atom_site_symmetry_multiplicity
 _atom_site_fract_x
 _atom_site_fract_y
 _atom_site_fract_z
 _atom_site_occupancy
  Al  Al0  1  0.00077000  0.49999000  0.99999000  1.0
  H  H1  1  0.75836000  0.89690000  0.13261000  1.0
  H  H2  1  0.24082000  0.63257000  0.39688000  1.0
  H  H3  1  0.23974000  0.97063000  0.13279000  1.0
  H  H4  1  0.75828000  0.97043000  0.39695000  1.0
  H  H5  1  0.23889000  0.89649000  0.47066000  1.0
  H  H6  1  0.76006000  0.63292000  0.47043000  1.0
  H  H7  1  0.61206000  0.42158000  0.42809000  1.0
  H  H8  1  0.38782000  0.92776000  0.92169000  1.0
  H  H9  1  0.61140000  0.15022000  0.92164000  1.0
  H  H10  1  0.38798000  0.15035000  0.42797000  1.0
  H  H11  1  0.60961000  0.92861000  0.64980000  1.0
  H  H12  1  0.39035000  0.42176000  0.64990000  1.0
  C  C13  1  0.50053000  0.32678000  0.08656000  1.0
  C  C14  1  0.50075000  0.58664000  0.82677000  1.0
  C  C15  1  0.50059000  0.58656000  0.08665000  1.0
  C  C16  1  0.63584000  0.75789000  0.11046000  1.0
  C  C17  1  0.64468000  0.81594000  0.17005000  1.0
  C  C18  1  0.49949000  0.77358000  0.27359000  1.0
  C  C19  1  0.35469000  0.67000000  0.31594000  1.0
  C  C20  1  0.36422000  0.61034000  0.25796000  1.0
  C  C21  1  0.50027000  0.65165000  0.15178000  1.0
  C  C22  1  0.35406000  0.01410000  0.17015000  1.0
  C  C23  1  0.36384000  0.13172000  0.11045000  1.0
  C  C24  1  0.50017000  0.19657000  0.15170000  1.0
  C  C25  1  0.63578000  0.13163000  0.25796000  1.0
  C  C26  1  0.64459000  0.01398000  0.31600000  1.0
  C  C27  1  0.49924000  0.95284000  0.27366000  1.0
  C  C28  1  0.35363000  0.81571000  0.51414000  1.0
  C  C29  1  0.36347000  0.75781000  0.63176000  1.0
  C  C30  1  0.50035000  0.65177000  0.69657000  1.0
  C  C31  1  0.63669000  0.61055000  0.63163000  1.0
  C  C32  1  0.64561000  0.67020000  0.51399000  1.0
  C  C33  1  0.49943000  0.77355000  0.45287000  1.0
  S  S34  1  0.20924000  0.47215000  0.33494000  1.0
  S  S35  1  0.79113000  0.83481000  0.97229000  1.0
  S  S36  1  0.20882000  0.19297000  0.97222000  1.0
  S  S37  1  0.79101000  0.19282000  0.33491000  1.0
  S  S38  1  0.20803000  0.83486000  0.69293000  1.0
  S  S39  1  0.79236000  0.47237000  0.69278000  1.0
  N  N40  1  0.49913000  0.83332000  0.33337000  1.0
  O  O41  1  0.26212000  0.59045000  0.03735000  1.0
  O  O42  1  0.26190000  0.37227000  0.09040000  1.0
  O  O43  1  0.26227000  0.53738000  0.87223000  1.0
  O  O44  1  0.73924000  0.53728000  0.09048000  1.0
  O  O45  1  0.73941000  0.59043000  0.87213000  1.0
  O  O46  1  0.73910000  0.37213000  0.03732000  1.0
  O  O47  1  0.92010000  0.48459000  0.37281000  1.0
  O  O48  1  0.24705000  0.41572000  0.27209000  1.0
  O  O49  1  0.39513000  0.41466000  0.44691000  1.0
  O  O50  1  0.07992000  0.87284000  0.98472000  1.0
  O  O51  1  0.75422000  0.77174000  0.91606000  1.0
  O  O52  1  0.60471000  0.94667000  0.91465000  1.0
  O  O53  1  0.91950000  0.14293000  0.98460000  1.0
  O  O54  1  0.24725000  0.31222000  0.91575000  1.0
  O  O55  1  0.39452000  0.13820000  0.91489000  1.0
  O  O56  1  0.08003000  0.14241000  0.37285000  1.0
  O  O57  1  0.75355000  0.31211000  0.27199000  1.0
  O  O58  1  0.60491000  0.13849000  0.44681000  1.0
  O  O59  1  0.91819000  0.87216000  0.64323000  1.0
  O  O60  1  0.24775000  0.77237000  0.81212000  1.0
  O  O61  1  0.39265000  0.94717000  0.63774000  1.0
  O  O62  1  0.08190000  0.48484000  0.64280000  1.0
  O  O63  1  0.75356000  0.41577000  0.81200000  1.0
  O  O64  1  0.60729000  0.41509000  0.63788000  1.0
