# generated using pymatgen
data_CaH8C10(N2O5)2
_symmetry_space_group_name_H-M   'P 1'
_cell_length_a   7.58192000
_cell_length_b   8.18053000
_cell_length_c   10.81970000
_cell_angle_alpha   91.36050000
_cell_angle_beta   102.81700000
_cell_angle_gamma   93.16310000
_symmetry_Int_Tables_number   1
_chemical_formula_structural   CaH8C10(N2O5)2
_chemical_formula_sum   'Ca2 H16 C20 N8 O20'
_cell_volume   652.91812572
_cell_formula_units_Z   2
loop_
 _symmetry_equiv_pos_site_id
 _symmetry_equiv_pos_as_xyz
  1  'x, y, z'
loop_
 _atom_site_type_symbol
 _atom_site_label
 _atom_site_symmetry_multiplicity
 _atom_site_fract_x
 _atom_site_fract_y
 _atom_site_fract_z
 _atom_site_occupancy
  Ca  Ca0  1  0.22744000  0.36161000  0.83631000  1.0
  Ca  Ca1  1  0.77256000  0.63839000  0.16369000  1.0
  H  H2  1  0.31774000  0.99111000  0.88872000  1.0
  H  H3  1  0.68226000  0.00889000  0.11128000  1.0
  H  H4  1  0.21360000  0.17665000  0.13194000  1.0
  H  H5  1  0.78640000  0.82335000  0.86806000  1.0
  H  H6  1  0.00471000  0.14398000  0.62884000  1.0
  H  H7  1  0.99529000  0.85602000  0.37116000  1.0
  H  H8  1  0.11055000  0.28406000  0.56364000  1.0
  H  H9  1  0.88945000  0.71594000  0.43636000  1.0
  H  H10  1  0.89686000  0.14773000  0.85789000  1.0
  H  H11  1  0.10314000  0.85227000  0.14212000  1.0
  H  H12  1  0.90437000  0.29864000  0.95225000  1.0
  H  H13  1  0.09563000  0.70137000  0.04775000  1.0
  H  H14  1  0.40891000  0.86057000  0.49490000  1.0
  H  H15  1  0.59109000  0.13943000  0.50510000  1.0
  H  H16  1  0.40314000  0.67538000  0.33227000  1.0
  H  H17  1  0.59686000  0.32462000  0.66773000  1.0
  C  C18  1  0.23502000  0.75875000  0.87123000  1.0
  C  C19  1  0.76498000  0.24124000  0.12877000  1.0
  C  C20  1  0.27839000  0.53093000  0.45791000  1.0
  C  C21  1  0.72161000  0.46907000  0.54209000  1.0
  C  C22  1  0.27856000  0.75413000  0.74507000  1.0
  C  C23  1  0.72144000  0.24587000  0.25493000  1.0
  C  C24  1  0.30284000  0.42913000  0.27212000  1.0
  C  C25  1  0.69716000  0.57087000  0.72788000  1.0
  C  C26  1  0.35222000  0.87672000  0.67980000  1.0
  C  C27  1  0.64778000  0.12328000  0.32020000  1.0
  C  C28  1  0.15812000  0.13938000  0.30135000  1.0
  C  C29  1  0.84188000  0.86062000  0.69865000  1.0
  C  C30  1  0.21982000  0.31185000  0.33665000  1.0
  C  C31  1  0.78018000  0.68815000  0.66335000  1.0
  C  C32  1  0.29229000  0.64532000  0.56399000  1.0
  C  C33  1  0.70771000  0.35468000  0.43601000  1.0
  C  C34  1  0.41447000  0.04967000  0.71365000  1.0
  C  C35  1  0.58553000  0.95033000  0.28635000  1.0
  C  C36  1  0.36096000  0.42676000  0.15014000  1.0
  C  C37  1  0.63904000  0.57324000  0.84986000  1.0
  N  N38  1  0.33926000  0.56516000  0.35131000  1.0
  N  N39  1  0.66074000  0.43484000  0.64869000  1.0
  N  N40  1  0.20717000  0.37719000  0.45181000  1.0
  N  N41  1  0.79283000  0.62281000  0.54819000  1.0
  N  N42  1  0.35893000  0.80430000  0.56599000  1.0
  N  N43  1  0.64107000  0.19570000  0.43401000  1.0
  N  N44  1  0.24409000  0.61110000  0.67275000  1.0
  N  N45  1  0.75591000  0.38889000  0.32725000  1.0
  O  O46  1  0.16586000  0.63251000  0.91013000  1.0
  O  O47  1  0.83414000  0.36750000  0.08987000  1.0
  O  O48  1  0.26546000  0.89514000  0.93937000  1.0
  O  O49  1  0.73454000  0.10486000  0.06063000  1.0
  O  O50  1  0.10212000  0.05085000  0.37724000  1.0
  O  O51  1  0.89788000  0.94915000  0.62276000  1.0
  O  O52  1  0.16526000  0.08438000  0.18594000  1.0
  O  O53  1  0.83473000  0.91561000  0.81406000  1.0
  O  O54  1  0.38020000  0.10983000  0.81629000  1.0
  O  O55  1  0.61980000  0.89017000  0.18371000  1.0
  O  O56  1  0.49517000  0.12793000  0.64164000  1.0
  O  O57  1  0.50483000  0.87207000  0.35836000  1.0
  O  O58  1  0.29529000  0.30738000  0.06980000  1.0
  O  O59  1  0.70471000  0.69262000  0.93020000  1.0
  O  O60  1  0.46955000  0.54062000  0.13352000  1.0
  O  O61  1  0.53045000  0.45938000  0.86648000  1.0
  O  O62  1  0.06453000  0.25545000  0.64097000  1.0
  O  O63  1  0.93547000  0.74455000  0.35903000  1.0
  O  O64  1  0.94748000  0.26092000  0.87708000  1.0
  O  O65  1  0.05252000  0.73908000  0.12292000  1.0
