# generated using pymatgen
data_ZnH16C20N6(OF2)2
_symmetry_space_group_name_H-M   'P 1'
_cell_length_a   7.09417000
_cell_length_b   8.48796000
_cell_length_c   9.51244000
_cell_angle_alpha   80.73550000
_cell_angle_beta   74.85160000
_cell_angle_gamma   74.26870000
_symmetry_Int_Tables_number   1
_chemical_formula_structural   ZnH16C20N6(OF2)2
_chemical_formula_sum   'Zn1 H16 C20 N6 O2 F4'
_cell_volume   529.66888504
_cell_formula_units_Z   1
loop_
 _symmetry_equiv_pos_site_id
 _symmetry_equiv_pos_as_xyz
  1  'x, y, z'
loop_
 _atom_site_type_symbol
 _atom_site_label
 _atom_site_symmetry_multiplicity
 _atom_site_fract_x
 _atom_site_fract_y
 _atom_site_fract_z
 _atom_site_occupancy
  Zn  Zn0  1  0.50000000  0.50000000  0.50000000  1.0
  H  H1  1  0.36068000  0.46593000  0.95425000  1.0
  H  H2  1  0.63931000  0.53407000  0.04575000  1.0
  H  H3  1  0.81351000  0.84857000  0.79566000  1.0
  H  H4  1  0.18648000  0.15143000  0.20434000  1.0
  H  H5  1  0.63591000  0.72683000  0.82314000  1.0
  H  H6  1  0.36408000  0.27318000  0.17687000  1.0
  H  H7  1  0.86237000  0.68489000  0.68620000  1.0
  H  H8  1  0.13762000  0.31511000  0.31380000  1.0
  H  H9  1  0.24529000  0.67110000  0.72537000  1.0
  H  H10  1  0.75471000  0.32890000  0.27463000  1.0
  H  H11  1  0.36680000  0.88007000  0.46119000  1.0
  H  H12  1  0.63320000  0.11993000  0.53881000  1.0
  H  H13  1  0.24945000  0.95834000  0.63408000  1.0
  H  H14  1  0.75055000  0.04166000  0.36592000  1.0
  H  H15  1  0.11381000  0.86926000  0.54626000  1.0
  H  H16  1  0.88619000  0.13074000  0.45374000  1.0
  C  C17  1  0.19807000  0.48149000  0.97601000  1.0
  C  C18  1  0.80193000  0.51852000  0.02399000  1.0
  C  C19  1  0.90192000  0.60793000  0.90430000  1.0
  C  C20  1  0.09807000  0.39208000  0.09570000  1.0
  C  C21  1  0.79646000  0.72328000  0.79717000  1.0
  C  C22  1  0.20353000  0.27672000  0.20283000  1.0
  C  C23  1  0.81167000  0.32811000  0.70387000  1.0
  C  C24  1  0.18834000  0.67189000  0.29613000  1.0
  C  C25  1  0.17465000  0.02969000  0.91016000  1.0
  C  C26  1  0.82536000  0.97031000  0.08984000  1.0
  C  C27  1  0.82029000  0.09035000  0.97234000  1.0
  C  C28  1  0.17972000  0.90965000  0.02765000  1.0
  C  C29  1  0.15301000  0.30990000  0.67289000  1.0
  C  C30  1  0.84699000  0.69010000  0.32712000  1.0
  C  C31  1  0.99416000  0.12589000  0.87593000  1.0
  C  C32  1  0.00586000  0.87411000  0.12407000  1.0
  C  C33  1  0.98660000  0.25183000  0.75272000  1.0
  C  C34  1  0.01341000  0.74817000  0.24727000  1.0
  C  C35  1  0.26239000  0.86102000  0.56644000  1.0
  C  C36  1  0.73761000  0.13898000  0.43356000  1.0
  N  N37  1  0.10214000  0.58784000  0.88272000  1.0
  N  N38  1  0.89785000  0.41216000  0.11728000  1.0
  N  N39  1  0.67089000  0.39894000  0.65721000  1.0
  N  N40  1  0.32912000  0.60106000  0.34279000  1.0
  N  N41  1  0.28627000  0.36534000  0.60225000  1.0
  N  N42  1  0.71375000  0.63466000  0.39775000  1.0
  O  O43  1  0.34363000  0.70269000  0.63418000  1.0
  O  O44  1  0.65637000  0.29731000  0.36582000  1.0
  F  F45  1  0.63623000  0.17891000  0.95262000  1.0
  F  F46  1  0.36377000  0.82109000  0.04738000  1.0
  F  F47  1  0.35390000  0.05214000  0.82499000  1.0
  F  F48  1  0.64611000  0.94786000  0.17501000  1.0
