# generated using pymatgen
data_CdH56C72N4(ClO6)2
_symmetry_space_group_name_H-M   'P 1'
_cell_length_a   14.38320000
_cell_length_b   17.58820000
_cell_length_c   19.31890000
_cell_angle_alpha   90.00000000
_cell_angle_beta   90.00010000
_cell_angle_gamma   90.00000000
_symmetry_Int_Tables_number   1
_chemical_formula_structural   CdH56C72N4(ClO6)2
_chemical_formula_sum   'Cd2 H112 C144 N8 Cl4 O24'
_cell_volume   4887.19096593
_cell_formula_units_Z   2
loop_
 _symmetry_equiv_pos_site_id
 _symmetry_equiv_pos_as_xyz
  1  'x, y, z'
loop_
 _atom_site_type_symbol
 _atom_site_label
 _atom_site_symmetry_multiplicity
 _atom_site_fract_x
 _atom_site_fract_y
 _atom_site_fract_z
 _atom_site_occupancy
  Cd  Cd0  1  0.50000000  0.00000000  0.43226000  1.0
  Cd  Cd1  1  0.00000000  0.50000000  0.56774000  1.0
  H  H2  1  0.04924000  0.30720000  0.99823000  1.0
  H  H3  1  0.95076000  0.69280000  0.99822000  1.0
  H  H4  1  0.45076000  0.80720000  0.00178000  1.0
  H  H5  1  0.54924000  0.19280000  0.00177000  1.0
  H  H6  1  0.03466000  0.44649000  0.98521000  1.0
  H  H7  1  0.96534000  0.55351000  0.98521000  1.0
  H  H8  1  0.46534000  0.94649000  0.01479000  1.0
  H  H9  1  0.53466000  0.05351000  0.01479000  1.0
  H  H10  1  0.09990000  0.51190000  0.88088000  1.0
  H  H11  1  0.90011000  0.48810000  0.88088000  1.0
  H  H12  1  0.40011000  0.01190000  0.11913000  1.0
  H  H13  1  0.59989000  0.98810000  0.11912000  1.0
  H  H14  1  0.18083000  0.43695000  0.79028000  1.0
  H  H15  1  0.81917000  0.56304000  0.79028000  1.0
  H  H16  1  0.31917000  0.93695000  0.20972000  1.0
  H  H17  1  0.68083000  0.06305000  0.20972000  1.0
  H  H18  1  0.53474000  0.10075000  0.29470000  1.0
  H  H19  1  0.46526000  0.89925000  0.29470000  1.0
  H  H20  1  0.96526000  0.60075000  0.70530000  1.0
  H  H21  1  0.03474000  0.39925000  0.70530000  1.0
  H  H22  1  0.28968000  0.02930000  0.38803000  1.0
  H  H23  1  0.71032000  0.97070000  0.38803000  1.0
  H  H24  1  0.21032000  0.52930000  0.61197000  1.0
  H  H25  1  0.78968000  0.47070000  0.61197000  1.0
  H  H26  1  0.44991000  0.14604000  0.19011000  1.0
  H  H27  1  0.55009000  0.85396000  0.19011000  1.0
  H  H28  1  0.05010000  0.64604000  0.80989000  1.0
  H  H29  1  0.94990000  0.35396000  0.80989000  1.0
  H  H30  1  0.19499000  0.07231000  0.28916000  1.0
  H  H31  1  0.80501000  0.92769000  0.28916000  1.0
  H  H32  1  0.30501000  0.57231000  0.71084000  1.0
  H  H33  1  0.69499000  0.42769000  0.71084000  1.0
  H  H34  1  0.30354000  0.16906000  0.12961000  1.0
  H  H35  1  0.69646000  0.83094000  0.12961000  1.0
  H  H36  1  0.19646000  0.66907000  0.87039000  1.0
  H  H37  1  0.80354000  0.33094000  0.87039000  1.0
  H  H38  1  0.14330000  0.07223000  0.18719000  1.0
  H  H39  1  0.85670000  0.92776000  0.18719000  1.0
  H  H40  1  0.35670000  0.57224000  0.81281000  1.0
  H  H41  1  0.64330000  0.42776000  0.81281000  1.0
  H  H42  1  0.23319000  0.31501000  0.74524000  1.0
  H  H43  1  0.76681000  0.68499000  0.74523000  1.0
  H  H44  1  0.26681000  0.81501000  0.25476000  1.0
  H  H45  1  0.73319000  0.18499000  0.25476000  1.0
  H  H46  1  0.26830000  0.10094000  0.75638000  1.0
  H  H47  1  0.73170000  0.89906000  0.75638000  1.0
  H  H48  1  0.23170000  0.60094000  0.24362000  1.0
  H  H49  1  0.76829000  0.39906000  0.24362000  1.0
  H  H50  1  0.27550000  0.24571000  0.66623000  1.0
  H  H51  1  0.72450000  0.75429000  0.66623000  1.0
  H  H52  1  0.22450000  0.74571000  0.33377000  1.0
  H  H53  1  0.77550000  0.25429000  0.33377000  1.0
  H  H54  1  0.39065000  0.96136000  0.57440000  1.0
  H  H55  1  0.60935000  0.03864000  0.57440000  1.0
  H  H56  1  0.10935000  0.46136000  0.42560000  1.0
  H  H57  1  0.89065000  0.53864000  0.42560000  1.0
  H  H58  1  0.32082000  0.02878000  0.67451000  1.0
  H  H59  1  0.67918000  0.97122000  0.67451000  1.0
  H  H60  1  0.17918000  0.52878000  0.32549000  1.0
  H  H61  1  0.82082000  0.47122000  0.32549000  1.0
  H  H62  1  0.41954000  0.16134000  0.46322000  1.0
  H  H63  1  0.58046000  0.83866000  0.46321000  1.0
  H  H64  1  0.08046000  0.66134000  0.53678000  1.0
  H  H65  1  0.91954000  0.33866000  0.53679000  1.0
  H  H66  1  0.34677000  0.23763000  0.55753000  1.0
  H  H67  1  0.65323000  0.76237000  0.55753000  1.0
  H  H68  1  0.15323000  0.73763000  0.44247000  1.0
  H  H69  1  0.84677000  0.26237000  0.44247000  1.0
  H  H70  1  0.00374000  0.07254000  0.13744000  1.0
  H  H71  1  0.99626000  0.92745000  0.13744000  1.0
  H  H72  1  0.49626000  0.57254000  0.86256000  1.0
  H  H73  1  0.50374000  0.42745000  0.86256000  1.0
  H  H74  1  0.84733000  0.06292000  0.08690000  1.0
  H  H75  1  0.15267000  0.93708000  0.08690000  1.0
  H  H76  1  0.65267000  0.56292000  0.91310000  1.0
  H  H77  1  0.34733000  0.43708000  0.91310000  1.0
  H  H78  1  0.95959000  0.19733000  0.87522000  1.0
  H  H79  1  0.04041000  0.80267000  0.87522000  1.0
  H  H80  1  0.54041000  0.69733000  0.12478000  1.0
  H  H81  1  0.45959000  0.30267000  0.12478000  1.0
  H  H82  1  0.73803000  0.09236000  0.99182000  1.0
  H  H83  1  0.26197000  0.90764000  0.99182000  1.0
  H  H84  1  0.76197000  0.59236000  0.00818000  1.0
  H  H85  1  0.23803000  0.40764000  0.00818000  1.0
  H  H86  1  0.79388000  0.16114000  0.88659000  1.0
  H  H87  1  0.20612000  0.83886000  0.88659000  1.0
  H  H88  1  0.70612000  0.66114000  0.11341000  1.0
  H  H89  1  0.29388000  0.33886000  0.11341000  1.0
  H  H90  1  0.38048000  0.15760000  0.00285000  1.0
  H  H91  1  0.61952000  0.84240000  0.00284000  1.0
  H  H92  1  0.11952000  0.65760000  0.99716000  1.0
  H  H93  1  0.88048000  0.34240000  0.99716000  1.0
  H  H94  1  0.29903000  0.10855000  0.94756000  1.0
  H  H95  1  0.70097000  0.89145000  0.94756000  1.0
  H  H96  1  0.20097000  0.60855000  0.05244000  1.0
  H  H97  1  0.79903000  0.39145000  0.05244000  1.0
  H  H98  1  0.31385000  0.07918000  0.03572000  1.0
  H  H99  1  0.68615000  0.92082000  0.03572000  1.0
  H  H100  1  0.18615000  0.57918000  0.96428000  1.0
  H  H101  1  0.81385000  0.42082000  0.96428000  1.0
  H  H102  1  0.13321000  0.98774000  0.84624000  1.0
  H  H103  1  0.86679000  0.01225000  0.84624000  1.0
  H  H104  1  0.36679000  0.48774000  0.15376000  1.0
  H  H105  1  0.63321000  0.51226000  0.15376000  1.0
  H  H106  1  0.09992000  0.05761000  0.78258000  1.0
  H  H107  1  0.90008000  0.94238000  0.78258000  1.0
  H  H108  1  0.40008000  0.55762000  0.21742000  1.0
  H  H109  1  0.59992000  0.44238000  0.21742000  1.0
  H  H110  1  0.04923000  0.05921000  0.86767000  1.0
  H  H111  1  0.95077000  0.94078000  0.86767000  1.0
  H  H112  1  0.45077000  0.55921000  0.13233000  1.0
  H  H113  1  0.54923000  0.44079000  0.13233000  1.0
  C  C114  1  0.16086000  0.32876000  0.84186000  1.0
  C  C115  1  0.83914000  0.67124000  0.84186000  1.0
  C  C116  1  0.33914000  0.82876000  0.15814000  1.0
  C  C117  1  0.66085000  0.17125000  0.15813000  1.0
  C  C118  1  0.12286000  0.29130000  0.90154000  1.0
  C  C119  1  0.87714000  0.70870000  0.90154000  1.0
  C  C120  1  0.37714000  0.79130000  0.09846000  1.0
  C  C121  1  0.62286000  0.20870000  0.09846000  1.0
  C  C122  1  0.07737000  0.33563000  0.95263000  1.0
  C  C123  1  0.92263000  0.66437000  0.95263000  1.0
  C  C124  1  0.42263000  0.83563000  0.04737000  1.0
  C  C125  1  0.57737000  0.16437000  0.04736000  1.0
  C  C126  1  0.06961000  0.41343000  0.94518000  1.0
  C  C127  1  0.93039000  0.58657000  0.94518000  1.0
  C  C128  1  0.43039000  0.91343000  0.05482000  1.0
  C  C129  1  0.56961000  0.08657000  0.05482000  1.0
  C  C130  1  0.10722000  0.45057000  0.88651000  1.0
  C  C131  1  0.89278000  0.54943000  0.88651000  1.0
  C  C132  1  0.39278000  0.95057000  0.11349000  1.0
  C  C133  1  0.60722000  0.04943000  0.11349000  1.0
  C  C134  1  0.15208000  0.40905000  0.83603000  1.0
  C  C135  1  0.84792000  0.59095000  0.83603000  1.0
  C  C136  1  0.34792000  0.90905000  0.16397000  1.0
  C  C137  1  0.65208000  0.09095000  0.16397000  1.0
  C  C138  1  0.45930000  0.09507000  0.29084000  1.0
  C  C139  1  0.54070000  0.90493000  0.29084000  1.0
  C  C140  1  0.04070000  0.59507000  0.70916000  1.0
  C  C141  1  0.95930000  0.40493000  0.70916000  1.0
  C  C142  1  0.32272000  0.05535000  0.34304000  1.0
  C  C143  1  0.67728000  0.94465000  0.34304000  1.0
  C  C144  1  0.17728000  0.55535000  0.65696000  1.0
  C  C145  1  0.82272000  0.44465000  0.65696000  1.0
  C  C146  1  0.41138000  0.12074000  0.23297000  1.0
  C  C147  1  0.58862000  0.87926000  0.23297000  1.0
  C  C148  1  0.08862000  0.62074000  0.76703000  1.0
  C  C149  1  0.91138000  0.37926000  0.76703000  1.0
  C  C150  1  0.27017000  0.07918000  0.28700000  1.0
  C  C151  1  0.72983000  0.92082000  0.28699000  1.0
  C  C152  1  0.22983000  0.57918000  0.71300000  1.0
  C  C153  1  0.77017000  0.42082000  0.71300000  1.0
  C  C154  1  0.31417000  0.11154000  0.22884000  1.0
  C  C155  1  0.68583000  0.88846000  0.22884000  1.0
  C  C156  1  0.18583000  0.61154000  0.77116000  1.0
  C  C157  1  0.81417000  0.38846000  0.77116000  1.0
  C  C158  1  0.26538000  0.13306000  0.16568000  1.0
  C  C159  1  0.73462000  0.86694000  0.16568000  1.0
  C  C160  1  0.23462000  0.63306000  0.83432000  1.0
  C  C161  1  0.76538000  0.36694000  0.83431000  1.0
  C  C162  1  0.17881000  0.10836000  0.14933000  1.0
  C  C163  1  0.82120000  0.89164000  0.14933000  1.0
  C  C164  1  0.32120000  0.60836000  0.85067000  1.0
  C  C165  1  0.67880000  0.39164000  0.85067000  1.0
  C  C166  1  0.21391000  0.20687000  0.79546000  1.0
  C  C167  1  0.78609000  0.79312000  0.79546000  1.0
  C  C168  1  0.28609000  0.70687000  0.20454000  1.0
  C  C169  1  0.71390000  0.29313000  0.20454000  1.0
  C  C170  1  0.20576000  0.28543000  0.79039000  1.0
  C  C171  1  0.79424000  0.71457000  0.79039000  1.0
  C  C172  1  0.29424000  0.78543000  0.20961000  1.0
  C  C173  1  0.70576000  0.21457000  0.20961000  1.0
  C  C174  1  0.17634000  0.17045000  0.85566000  1.0
  C  C175  1  0.82366000  0.82955000  0.85566000  1.0
  C  C176  1  0.32366000  0.67045000  0.14434000  1.0
  C  C177  1  0.67633000  0.32955000  0.14434000  1.0
  C  C178  1  0.13237000  0.21082000  0.90779000  1.0
  C  C179  1  0.86763000  0.78918000  0.90779000  1.0
  C  C180  1  0.36763000  0.71082000  0.09221000  1.0
  C  C181  1  0.63237000  0.28918000  0.09221000  1.0
  C  C182  1  0.25868000  0.16061000  0.74259000  1.0
  C  C183  1  0.74132000  0.83939000  0.74259000  1.0
  C  C184  1  0.24132000  0.66061000  0.25741000  1.0
  C  C185  1  0.75868000  0.33939000  0.25741000  1.0
  C  C186  1  0.28667000  0.18621000  0.67996000  1.0
  C  C187  1  0.71333000  0.81379000  0.67996000  1.0
  C  C188  1  0.21333000  0.68621000  0.32004000  1.0
  C  C189  1  0.78667000  0.31379000  0.32004000  1.0
  C  C190  1  0.32860000  0.14057000  0.62550000  1.0
  C  C191  1  0.67141000  0.85943000  0.62550000  1.0
  C  C192  1  0.17140000  0.64057000  0.37450000  1.0
  C  C193  1  0.82860000  0.35943000  0.37450000  1.0
  C  C194  1  0.38065000  0.02286000  0.57346000  1.0
  C  C195  1  0.61936000  0.97715000  0.57346000  1.0
  C  C196  1  0.11936000  0.52286000  0.42654000  1.0
  C  C197  1  0.88065000  0.47715000  0.42654000  1.0
  C  C198  1  0.34166000  0.06118000  0.62903000  1.0
  C  C199  1  0.65834000  0.93882000  0.62903000  1.0
  C  C200  1  0.15834000  0.56118000  0.37097000  1.0
  C  C201  1  0.84166000  0.43882000  0.37097000  1.0
  C  C202  1  0.39582000  0.13442000  0.51090000  1.0
  C  C203  1  0.60418000  0.86558000  0.51089000  1.0
  C  C204  1  0.10418000  0.63442000  0.48910000  1.0
  C  C205  1  0.89582000  0.36558000  0.48911000  1.0
  C  C206  1  0.35697000  0.17676000  0.56400000  1.0
  C  C207  1  0.64303000  0.82324000  0.56400000  1.0
  C  C208  1  0.14303000  0.67676000  0.43600000  1.0
  C  C209  1  0.85697000  0.32324000  0.43600000  1.0
  C  C210  1  0.09581000  0.17168000  0.97051000  1.0
  C  C211  1  0.90419000  0.82831000  0.97051000  1.0
  C  C212  1  0.40419000  0.67169000  0.02950000  1.0
  C  C213  1  0.59581000  0.32832000  0.02949000  1.0
  C  C214  1  0.15505000  0.15795000  0.02570000  1.0
  C  C215  1  0.84495000  0.84205000  0.02570000  1.0
  C  C216  1  0.34495000  0.65795000  0.97430000  1.0
  C  C217  1  0.65505000  0.34205000  0.97430000  1.0
  C  C218  1  0.99967000  0.15145000  0.97500000  1.0
  C  C219  1  0.00033000  0.84855000  0.97500000  1.0
  C  C220  1  0.50033000  0.65145000  0.02500000  1.0
  C  C221  1  0.49967000  0.34855000  0.02500000  1.0
  C  C222  1  0.96681000  0.11362000  0.03608000  1.0
  C  C223  1  0.03319000  0.88638000  0.03608000  1.0
  C  C224  1  0.53319000  0.61362000  0.96392000  1.0
  C  C225  1  0.46681000  0.38638000  0.96392000  1.0
  C  C226  1  0.02981000  0.09995000  0.09057000  1.0
  C  C227  1  0.97019000  0.90005000  0.09057000  1.0
  C  C228  1  0.47019000  0.59995000  0.90943000  1.0
  C  C229  1  0.52981000  0.40005000  0.90943000  1.0
  C  C230  1  0.12274000  0.12221000  0.08804000  1.0
  C  C231  1  0.87726000  0.87779000  0.08804000  1.0
  C  C232  1  0.37726000  0.62221000  0.91196000  1.0
  C  C233  1  0.62274000  0.37779000  0.91196000  1.0
  C  C234  1  0.87179000  0.09209000  0.04045000  1.0
  C  C235  1  0.12821000  0.90791000  0.04045000  1.0
  C  C236  1  0.62821000  0.59209000  0.95955000  1.0
  C  C237  1  0.37179000  0.40791000  0.95955000  1.0
  C  C238  1  0.93514000  0.16782000  0.92143000  1.0
  C  C239  1  0.06486000  0.83218000  0.92143000  1.0
  C  C240  1  0.56485000  0.66782000  0.07857000  1.0
  C  C241  1  0.43514000  0.33218000  0.07857000  1.0
  C  C242  1  0.81094000  0.10836000  0.98738000  1.0
  C  C243  1  0.18906000  0.89164000  0.98738000  1.0
  C  C244  1  0.68906000  0.60836000  0.01263000  1.0
  C  C245  1  0.31094000  0.39164000  0.01262000  1.0
  C  C246  1  0.84286000  0.14707000  0.92774000  1.0
  C  C247  1  0.15714000  0.85293000  0.92774000  1.0
  C  C248  1  0.65714000  0.64707000  0.07226000  1.0
  C  C249  1  0.34286000  0.35293000  0.07226000  1.0
  C  C250  1  0.31333000  0.12831000  0.00037000  1.0
  C  C251  1  0.68667000  0.87169000  0.00037000  1.0
  C  C252  1  0.18667000  0.62831000  0.99963000  1.0
  C  C253  1  0.81333000  0.37169000  0.99963000  1.0
  C  C254  1  0.11278000  0.04708000  0.83803000  1.0
  C  C255  1  0.88722000  0.95292000  0.83803000  1.0
  C  C256  1  0.38722000  0.54708000  0.16197000  1.0
  C  C257  1  0.61278000  0.45292000  0.16197000  1.0
  N  N258  1  0.40774000  0.05865000  0.51515000  1.0
  N  N259  1  0.59226000  0.94135000  0.51515000  1.0
  N  N260  1  0.09226000  0.55865000  0.48485000  1.0
  N  N261  1  0.90774000  0.44135000  0.48485000  1.0
  N  N262  1  0.41611000  0.06194000  0.34488000  1.0
  N  N263  1  0.58389000  0.93807000  0.34488000  1.0
  N  N264  1  0.08389000  0.56194000  0.65512000  1.0
  N  N265  1  0.91611000  0.43807000  0.65512000  1.0
  Cl  Cl266  1  0.32068000  0.85997000  0.42846000  1.0
  Cl  Cl267  1  0.67932000  0.14003000  0.42846000  1.0
  Cl  Cl268  1  0.17932000  0.35997000  0.57154000  1.0
  Cl  Cl269  1  0.82068000  0.64003000  0.57154000  1.0
  O  O270  1  0.18893000  0.09265000  0.86264000  1.0
  O  O271  1  0.81107000  0.90735000  0.86264000  1.0
  O  O272  1  0.31107000  0.59265000  0.13736000  1.0
  O  O273  1  0.68893000  0.40735000  0.13736000  1.0
  O  O274  1  0.24539000  0.18387000  0.02159000  1.0
  O  O275  1  0.75461000  0.81613000  0.02159000  1.0
  O  O276  1  0.25461000  0.68387000  0.97841000  1.0
  O  O277  1  0.74539000  0.31613000  0.97841000  1.0
  O  O278  1  0.41530000  0.88454000  0.45033000  1.0
  O  O279  1  0.58470000  0.11547000  0.45033000  1.0
  O  O280  1  0.08470000  0.38454000  0.54968000  1.0
  O  O281  1  0.91530000  0.61547000  0.54967000  1.0
  O  O282  1  0.25172000  0.90157000  0.46822000  1.0
  O  O283  1  0.74828000  0.09843000  0.46822000  1.0
  O  O284  1  0.24828000  0.40157000  0.53178000  1.0
  O  O285  1  0.75172000  0.59843000  0.53178000  1.0
  O  O286  1  0.31404000  0.77889000  0.44062000  1.0
  O  O287  1  0.68597000  0.22111000  0.44063000  1.0
  O  O288  1  0.18596000  0.27889000  0.55937000  1.0
  O  O289  1  0.81404000  0.72111000  0.55938000  1.0
  O  O290  1  0.30996000  0.87698000  0.35454000  1.0
  O  O291  1  0.69004000  0.12302000  0.35454000  1.0
  O  O292  1  0.19004000  0.37698000  0.64546000  1.0
  O  O293  1  0.80996000  0.62302000  0.64546000  1.0
