# generated using pymatgen
data_CdH4C7N3ClO2
_symmetry_space_group_name_H-M   'P 1'
_cell_length_a   7.28765000
_cell_length_b   10.64150000
_cell_length_c   10.93080000
_cell_angle_alpha   89.99910000
_cell_angle_beta   71.77100000
_cell_angle_gamma   89.99890000
_symmetry_Int_Tables_number   1
_chemical_formula_structural   CdH4C7N3ClO2
_chemical_formula_sum   'Cd4 H16 C28 N12 Cl4 O8'
_cell_volume   805.15741912
_cell_formula_units_Z   4
loop_
 _symmetry_equiv_pos_site_id
 _symmetry_equiv_pos_as_xyz
  1  'x, y, z'
loop_
 _atom_site_type_symbol
 _atom_site_label
 _atom_site_symmetry_multiplicity
 _atom_site_fract_x
 _atom_site_fract_y
 _atom_site_fract_z
 _atom_site_occupancy
  Cd  Cd0  1  0.99128000  0.92239000  0.35130000  1.0
  Cd  Cd1  1  0.00873000  0.42238000  0.14870000  1.0
  Cd  Cd2  1  0.00872000  0.07761000  0.64870000  1.0
  Cd  Cd3  1  0.99128000  0.57761000  0.85130000  1.0
  H  H4  1  0.10963000  0.28672000  0.87823000  1.0
  H  H5  1  0.89037000  0.78671000  0.62177000  1.0
  H  H6  1  0.89037000  0.71328000  0.12177000  1.0
  H  H7  1  0.10963000  0.21328000  0.37823000  1.0
  H  H8  1  0.31023000  0.72938000  0.14104000  1.0
  H  H9  1  0.68977000  0.22938000  0.35895000  1.0
  H  H10  1  0.68978000  0.27062000  0.85895000  1.0
  H  H11  1  0.31022000  0.77062000  0.64105000  1.0
  H  H12  1  0.50298000  0.72674000  0.90675000  1.0
  H  H13  1  0.49702000  0.22674000  0.59325000  1.0
  H  H14  1  0.49704000  0.27326000  0.09324000  1.0
  H  H15  1  0.50297000  0.77326000  0.40676000  1.0
  H  H16  1  0.46677000  0.91082000  0.76774000  1.0
  H  H17  1  0.53325000  0.41083000  0.73226000  1.0
  H  H18  1  0.53324000  0.08918000  0.23226000  1.0
  H  H19  1  0.46675000  0.58918000  0.26775000  1.0
  C  C20  1  0.31116000  0.81067000  0.08019000  1.0
  C  C21  1  0.68885000  0.31067000  0.41981000  1.0
  C  C22  1  0.68884000  0.18933000  0.91980000  1.0
  C  C23  1  0.31115000  0.68934000  0.58019000  1.0
  C  C24  1  0.41434000  0.80808000  0.94797000  1.0
  C  C25  1  0.58567000  0.30808000  0.55204000  1.0
  C  C26  1  0.58566000  0.19191000  0.05203000  1.0
  C  C27  1  0.41432000  0.69192000  0.44796000  1.0
  C  C28  1  0.39458000  0.90795000  0.87163000  1.0
  C  C29  1  0.60544000  0.40795000  0.62837000  1.0
  C  C30  1  0.60544000  0.09205000  0.12837000  1.0
  C  C31  1  0.39457000  0.59204000  0.37163000  1.0
  C  C32  1  0.27912000  0.01027000  0.93106000  1.0
  C  C33  1  0.72087000  0.51027000  0.56894000  1.0
  C  C34  1  0.72088000  0.98973000  0.06894000  1.0
  C  C35  1  0.27912000  0.48973000  0.43106000  1.0
  C  C36  1  0.23757000  0.11471000  0.85702000  1.0
  C  C37  1  0.76245000  0.61470000  0.64298000  1.0
  C  C38  1  0.76244000  0.88529000  0.14298000  1.0
  C  C39  1  0.23755000  0.38530000  0.35702000  1.0
  C  C40  1  0.08910000  0.12227000  0.13111000  1.0
  C  C41  1  0.91089000  0.62228000  0.36889000  1.0
  C  C42  1  0.91090000  0.87772000  0.86889000  1.0
  C  C43  1  0.08909000  0.37773000  0.63111000  1.0
  C  C44  1  0.19305000  0.00998000  0.06531000  1.0
  C  C45  1  0.80694000  0.50999000  0.43469000  1.0
  C  C46  1  0.80695000  0.99001000  0.93468000  1.0
  C  C47  1  0.19305000  0.49002000  0.56531000  1.0
  N  N48  1  0.20469000  0.90904000  0.13765000  1.0
  N  N49  1  0.79531000  0.40904000  0.36236000  1.0
  N  N50  1  0.79532000  0.09096000  0.86235000  1.0
  N  N51  1  0.20468000  0.59096000  0.63765000  1.0
  N  N52  1  0.07527000  0.22160000  0.05972000  1.0
  N  N53  1  0.92473000  0.72160000  0.44028000  1.0
  N  N54  1  0.92473000  0.77839000  0.94028000  1.0
  N  N55  1  0.07527000  0.27840000  0.55972000  1.0
  N  N56  1  0.14552000  0.21329000  0.92832000  1.0
  N  N57  1  0.85448000  0.71329000  0.57168000  1.0
  N  N58  1  0.85447000  0.78671000  0.07168000  1.0
  N  N59  1  0.14552000  0.28671000  0.42832000  1.0
  Cl  Cl60  1  0.73482000  0.01100000  0.55441000  1.0
  Cl  Cl61  1  0.26518000  0.51100000  0.94559000  1.0
  Cl  Cl62  1  0.26518000  0.98900000  0.44559000  1.0
  Cl  Cl63  1  0.73482000  0.48900000  0.05441000  1.0
  O  O64  1  0.01633000  0.12601000  0.25412000  1.0
  O  O65  1  0.98367000  0.62603000  0.24589000  1.0
  O  O66  1  0.98367000  0.87398000  0.74589000  1.0
  O  O67  1  0.01633000  0.37398000  0.75411000  1.0
  O  O68  1  0.27592000  0.11358000  0.73605000  1.0
  O  O69  1  0.72409000  0.61358000  0.76394000  1.0
  O  O70  1  0.72407000  0.88642000  0.26394000  1.0
  O  O71  1  0.27591000  0.38643000  0.23607000  1.0
