# generated using pymatgen
data_Mn3H48C60N6O17
_symmetry_space_group_name_H-M   'P 1'
_cell_length_a   11.48100000
_cell_length_b   11.48100000
_cell_length_c   24.95640000
_cell_angle_alpha   92.92970000
_cell_angle_beta   92.93020000
_cell_angle_gamma   102.49900000
_symmetry_Int_Tables_number   1
_chemical_formula_structural   Mn3H48C60N6O17
_chemical_formula_sum   'Mn6 H96 C120 N12 O34'
_cell_volume   3200.89636885
_cell_formula_units_Z   2
loop_
 _symmetry_equiv_pos_site_id
 _symmetry_equiv_pos_as_xyz
  1  'x, y, z'
loop_
 _atom_site_type_symbol
 _atom_site_label
 _atom_site_symmetry_multiplicity
 _atom_site_fract_x
 _atom_site_fract_y
 _atom_site_fract_z
 _atom_site_occupancy
  Mn  Mn0  1  0.81785000  0.18848000  0.51012000  1.0
  Mn  Mn1  1  0.81150000  0.18215000  0.98988000  1.0
  Mn  Mn2  1  0.18214000  0.81152000  0.48988000  1.0
  Mn  Mn3  1  0.18848000  0.81785000  0.01012000  1.0
  Mn  Mn4  1  0.50000000  0.00001000  0.50000000  1.0
  Mn  Mn5  1  0.00001000  0.50000000  0.00000000  1.0
  H  H6  1  0.87425000  0.97095000  0.65523000  1.0
  H  H7  1  0.02905000  0.12574000  0.84477000  1.0
  H  H8  1  0.12575000  0.02904000  0.34476000  1.0
  H  H9  1  0.97095000  0.87425000  0.15523000  1.0
  H  H10  1  0.83526000  0.88931000  0.74505000  1.0
  H  H11  1  0.11069000  0.16474000  0.75496000  1.0
  H  H12  1  0.16474000  0.11068000  0.25495000  1.0
  H  H13  1  0.88932000  0.83526000  0.24505000  1.0
  H  H14  1  0.47611000  0.94530000  0.72916000  1.0
  H  H15  1  0.05471000  0.52389000  0.77084000  1.0
  H  H16  1  0.52390000  0.05470000  0.27083000  1.0
  H  H17  1  0.94529000  0.47610000  0.22916000  1.0
  H  H18  1  0.51588000  0.02470000  0.63825000  1.0
  H  H19  1  0.97531000  0.48412000  0.86176000  1.0
  H  H20  1  0.48413000  0.97530000  0.36175000  1.0
  H  H21  1  0.02469000  0.51587000  0.13825000  1.0
  H  H22  1  0.79525000  0.01749000  0.85222000  1.0
  H  H23  1  0.98250000  0.20473000  0.64779000  1.0
  H  H24  1  0.20475000  0.98250000  0.14778000  1.0
  H  H25  1  0.01750000  0.79526000  0.35221000  1.0
  H  H26  1  0.94359000  0.95664000  0.91298000  1.0
  H  H27  1  0.04336000  0.05640000  0.58702000  1.0
  H  H28  1  0.05640000  0.04335000  0.08702000  1.0
  H  H29  1  0.95665000  0.94360000  0.41297000  1.0
  H  H30  1  0.79102000  0.58735000  0.86909000  1.0
  H  H31  1  0.41265000  0.20899000  0.63091000  1.0
  H  H32  1  0.20896000  0.41265000  0.13091000  1.0
  H  H33  1  0.58736000  0.79102000  0.36909000  1.0
  H  H34  1  0.64340000  0.64798000  0.80303000  1.0
  H  H35  1  0.35201000  0.35660000  0.69697000  1.0
  H  H36  1  0.35659000  0.35202000  0.19696000  1.0
  H  H37  1  0.64799000  0.64340000  0.30303000  1.0
  H  H38  1  0.60968000  0.74063000  0.60800000  1.0
  H  H39  1  0.25937000  0.39031000  0.89200000  1.0
  H  H40  1  0.39032000  0.25936000  0.39200000  1.0
  H  H41  1  0.74063000  0.60969000  0.10799000  1.0
  H  H42  1  0.63706000  0.64045000  0.69283000  1.0
  H  H43  1  0.35955000  0.36292000  0.80717000  1.0
  H  H44  1  0.36294000  0.35955000  0.30716000  1.0
  H  H45  1  0.64045000  0.63708000  0.19283000  1.0
  H  H46  1  0.25698000  0.56822000  0.70893000  1.0
  H  H47  1  0.43178000  0.74301000  0.79107000  1.0
  H  H48  1  0.74302000  0.43180000  0.29107000  1.0
  H  H49  1  0.56823000  0.25700000  0.20893000  1.0
  H  H50  1  0.23033000  0.66434000  0.62283000  1.0
  H  H51  1  0.33567000  0.76966000  0.87717000  1.0
  H  H52  1  0.76967000  0.33568000  0.37717000  1.0
  H  H53  1  0.66433000  0.23034000  0.12283000  1.0
  H  H54  1  0.02972000  0.09931000  0.46737000  1.0
  H  H55  1  0.90068000  0.97028000  0.03262000  1.0
  H  H56  1  0.97029000  0.90070000  0.53262000  1.0
  H  H57  1  0.09931000  0.02972000  0.96738000  1.0
  H  H58  1  0.25218000  0.16243000  0.46681000  1.0
  H  H59  1  0.83757000  0.74783000  0.03319000  1.0
  H  H60  1  0.74784000  0.83759000  0.53320000  1.0
  H  H61  1  0.16242000  0.25217000  0.96681000  1.0
  H  H62  1  0.22445000  0.51229000  0.53087000  1.0
  H  H63  1  0.48770000  0.77555000  0.96913000  1.0
  H  H64  1  0.77555000  0.48772000  0.46913000  1.0
  H  H65  1  0.51229000  0.22445000  0.03087000  1.0
  H  H66  1  0.00369000  0.42937000  0.53413000  1.0
  H  H67  1  0.57062000  0.99631000  0.96587000  1.0
  H  H68  1  0.99631000  0.57064000  0.46587000  1.0
  H  H69  1  0.42936000  0.00369000  0.03413000  1.0
  H  H70  1  0.43699000  0.30932000  0.49647000  1.0
  H  H71  1  0.69068000  0.56302000  0.00353000  1.0
  H  H72  1  0.56302000  0.69070000  0.50354000  1.0
  H  H73  1  0.30930000  0.43698000  0.99647000  1.0
  H  H74  1  0.65965000  0.36951000  0.56920000  1.0
  H  H75  1  0.63048000  0.34034000  0.93079000  1.0
  H  H76  1  0.34035000  0.63049000  0.43080000  1.0
  H  H77  1  0.36951000  0.65965000  0.06920000  1.0
  H  H78  1  0.55209000  0.38752000  0.63798000  1.0
  H  H79  1  0.61248000  0.44790000  0.86202000  1.0
  H  H80  1  0.44791000  0.61248000  0.36202000  1.0
  H  H81  1  0.38751000  0.55209000  0.13798000  1.0
  H  H82  1  0.62732000  0.43558000  0.70212000  1.0
  H  H83  1  0.56442000  0.37268000  0.79788000  1.0
  H  H84  1  0.37269000  0.56441000  0.29788000  1.0
  H  H85  1  0.43558000  0.62731000  0.20211000  1.0
  H  H86  1  0.57065000  0.27996000  0.68538000  1.0
  H  H87  1  0.72004000  0.42934000  0.81462000  1.0
  H  H88  1  0.42935000  0.72004000  0.31462000  1.0
  H  H89  1  0.27995000  0.57065000  0.18538000  1.0
  H  H90  1  0.81119000  0.24099000  0.68921000  1.0
  H  H91  1  0.75901000  0.18880000  0.81078000  1.0
  H  H92  1  0.18881000  0.75902000  0.31079000  1.0
  H  H93  1  0.24099000  0.81119000  0.18921000  1.0
  H  H94  1  0.81493000  0.38242000  0.72322000  1.0
  H  H95  1  0.61758000  0.18506000  0.77678000  1.0
  H  H96  1  0.18507000  0.61758000  0.27678000  1.0
  H  H97  1  0.38243000  0.81493000  0.22322000  1.0
  H  H98  1  0.90672000  0.37280000  0.66803000  1.0
  H  H99  1  0.62720000  0.09327000  0.83196000  1.0
  H  H100  1  0.09329000  0.62720000  0.33196000  1.0
  H  H101  1  0.37281000  0.90672000  0.16804000  1.0
  C  C102  1  0.72473000  0.05605000  0.58929000  1.0
  C  C103  1  0.94395000  0.27528000  0.91072000  1.0
  C  C104  1  0.27528000  0.94396000  0.41071000  1.0
  C  C105  1  0.05605000  0.72472000  0.08929000  1.0
  C  C106  1  0.69804000  0.00410000  0.64165000  1.0
  C  C107  1  0.99592000  0.30197000  0.85835000  1.0
  C  C108  1  0.30197000  0.99591000  0.35835000  1.0
  C  C109  1  0.00408000  0.69803000  0.14165000  1.0
  C  C110  1  0.78733000  0.96531000  0.67179000  1.0
  C  C111  1  0.03470000  0.21267000  0.82821000  1.0
  C  C112  1  0.21267000  0.03469000  0.32821000  1.0
  C  C113  1  0.96531000  0.78733000  0.17179000  1.0
  C  C114  1  0.76602000  0.92007000  0.72189000  1.0
  C  C115  1  0.07994000  0.23397000  0.77811000  1.0
  C  C116  1  0.23399000  0.07993000  0.27810000  1.0
  C  C117  1  0.92007000  0.76602000  0.22189000  1.0
  C  C118  1  0.65368000  0.91432000  0.74227000  1.0
  C  C119  1  0.08569000  0.34631000  0.75773000  1.0
  C  C120  1  0.34632000  0.08569000  0.25772000  1.0
  C  C121  1  0.91431000  0.65368000  0.24227000  1.0
  C  C122  1  0.56338000  0.95286000  0.71271000  1.0
  C  C123  1  0.04715000  0.43662000  0.78730000  1.0
  C  C124  1  0.43662000  0.04715000  0.28729000  1.0
  C  C125  1  0.95285000  0.56338000  0.21270000  1.0
  C  C126  1  0.58547000  0.99669000  0.66251000  1.0
  C  C127  1  0.00332000  0.41453000  0.83749000  1.0
  C  C128  1  0.41454000  0.00332000  0.33749000  1.0
  C  C129  1  0.99668000  0.58547000  0.16251000  1.0
  C  C130  1  0.71200000  0.83555000  0.82377000  1.0
  C  C131  1  0.16444000  0.28800000  0.67623000  1.0
  C  C132  1  0.28799000  0.16445000  0.17623000  1.0
  C  C133  1  0.83555000  0.71199000  0.32377000  1.0
  C  C134  1  0.79549000  0.92315000  0.85436000  1.0
  C  C135  1  0.07684000  0.20451000  0.64565000  1.0
  C  C136  1  0.20451000  0.07684000  0.14564000  1.0
  C  C137  1  0.92316000  0.79549000  0.35435000  1.0
  C  C138  1  0.87879000  0.88847000  0.88892000  1.0
  C  C139  1  0.11153000  0.12122000  0.61108000  1.0
  C  C140  1  0.12121000  0.11154000  0.11108000  1.0
  C  C141  1  0.88847000  0.87878000  0.38892000  1.0
  C  C142  1  0.87702000  0.76733000  0.89423000  1.0
  C  C143  1  0.23267000  0.12300000  0.60577000  1.0
  C  C144  1  0.12298000  0.23267000  0.10577000  1.0
  C  C145  1  0.76734000  0.87701000  0.39423000  1.0
  C  C146  1  0.79170000  0.68089000  0.86356000  1.0
  C  C147  1  0.31911000  0.20831000  0.63643000  1.0
  C  C148  1  0.20828000  0.31911000  0.13644000  1.0
  C  C149  1  0.68089000  0.79169000  0.36357000  1.0
  C  C150  1  0.70972000  0.71422000  0.82754000  1.0
  C  C151  1  0.28577000  0.29029000  0.67246000  1.0
  C  C152  1  0.29028000  0.28578000  0.17246000  1.0
  C  C153  1  0.71422000  0.70971000  0.32754000  1.0
  C  C154  1  0.96292000  0.73087000  0.93396000  1.0
  C  C155  1  0.26914000  0.03709000  0.56604000  1.0
  C  C156  1  0.03707000  0.26913000  0.06604000  1.0
  C  C157  1  0.73087000  0.96292000  0.43396000  1.0
  C  C158  1  0.39829000  0.76430000  0.55853000  1.0
  C  C159  1  0.23571000  0.60171000  0.94147000  1.0
  C  C160  1  0.60171000  0.23571000  0.44147000  1.0
  C  C161  1  0.76429000  0.39829000  0.05853000  1.0
  C  C162  1  0.41794000  0.70676000  0.60963000  1.0
  C  C163  1  0.29324000  0.58205000  0.89037000  1.0
  C  C164  1  0.58206000  0.29324000  0.39037000  1.0
  C  C165  1  0.70676000  0.41795000  0.10963000  1.0
  C  C166  1  0.53247000  0.70040000  0.62955000  1.0
  C  C167  1  0.29960000  0.46752000  0.87045000  1.0
  C  C168  1  0.46753000  0.29960000  0.37045000  1.0
  C  C169  1  0.70039000  0.53248000  0.12955000  1.0
  C  C170  1  0.54811000  0.64510000  0.67698000  1.0
  C  C171  1  0.35490000  0.45187000  0.82302000  1.0
  C  C172  1  0.45188000  0.35491000  0.32302000  1.0
  C  C173  1  0.64509000  0.54813000  0.17697000  1.0
  C  C174  1  0.44834000  0.59789000  0.70505000  1.0
  C  C175  1  0.40211000  0.55164000  0.79494000  1.0
  C  C176  1  0.55166000  0.40212000  0.29494000  1.0
  C  C177  1  0.59789000  0.44836000  0.20505000  1.0
  C  C178  1  0.33366000  0.60625000  0.68665000  1.0
  C  C179  1  0.39376000  0.66633000  0.81335000  1.0
  C  C180  1  0.66634000  0.39377000  0.31335000  1.0
  C  C181  1  0.60624000  0.33368000  0.18665000  1.0
  C  C182  1  0.31915000  0.65921000  0.63868000  1.0
  C  C183  1  0.34080000  0.68084000  0.86132000  1.0
  C  C184  1  0.68085000  0.34080000  0.36132000  1.0
  C  C185  1  0.65921000  0.31916000  0.13868000  1.0
  C  C186  1  0.07660000  0.18947000  0.48143000  1.0
  C  C187  1  0.81053000  0.92340000  0.01857000  1.0
  C  C188  1  0.92341000  0.81054000  0.51857000  1.0
  C  C189  1  0.18946000  0.07659000  0.98143000  1.0
  C  C190  1  0.20000000  0.22549000  0.48073000  1.0
  C  C191  1  0.77451000  0.80001000  0.01927000  1.0
  C  C192  1  0.80001000  0.77453000  0.51927000  1.0
  C  C193  1  0.22548000  0.19999000  0.98074000  1.0
  C  C194  1  0.25618000  0.34308000  0.49867000  1.0
  C  C195  1  0.65692000  0.74382000  0.00134000  1.0
  C  C196  1  0.74382000  0.65693000  0.50134000  1.0
  C  C197  1  0.34307000  0.25618000  0.99867000  1.0
  C  C198  1  0.18451000  0.41992000  0.51701000  1.0
  C  C199  1  0.58008000  0.81549000  0.98300000  1.0
  C  C200  1  0.81550000  0.58009000  0.48299000  1.0
  C  C201  1  0.41991000  0.18450000  0.01701000  1.0
  C  C202  1  0.06235000  0.37513000  0.51798000  1.0
  C  C203  1  0.62486000  0.93765000  0.98202000  1.0
  C  C204  1  0.93766000  0.62488000  0.48202000  1.0
  C  C205  1  0.37513000  0.06234000  0.01799000  1.0
  C  C206  1  0.38586000  0.37987000  0.49865000  1.0
  C  C207  1  0.62012000  0.61414000  0.00135000  1.0
  C  C208  1  0.61415000  0.62014000  0.50135000  1.0
  C  C209  1  0.37986000  0.38585000  0.99865000  1.0
  C  C210  1  0.73719000  0.35461000  0.59388000  1.0
  C  C211  1  0.64538000  0.26279000  0.90611000  1.0
  C  C212  1  0.26280000  0.64539000  0.40612000  1.0
  C  C213  1  0.35461000  0.73719000  0.09388000  1.0
  C  C214  1  0.61269000  0.36554000  0.66935000  1.0
  C  C215  1  0.63446000  0.38730000  0.83065000  1.0
  C  C216  1  0.38731000  0.63446000  0.33066000  1.0
  C  C217  1  0.36554000  0.61269000  0.16934000  1.0
  C  C218  1  0.81995000  0.33713000  0.68392000  1.0
  C  C219  1  0.66287000  0.18004000  0.81607000  1.0
  C  C220  1  0.18005000  0.66288000  0.31607000  1.0
  C  C221  1  0.33714000  0.81995000  0.18392000  1.0
  N  N222  1  0.00810000  0.26217000  0.50031000  1.0
  N  N223  1  0.73783000  0.99190000  0.99969000  1.0
  N  N224  1  0.99190000  0.73784000  0.49969000  1.0
  N  N225  1  0.26216000  0.00810000  0.00032000  1.0
  N  N226  1  0.43820000  0.49201000  0.50015000  1.0
  N  N227  1  0.50799000  0.56181000  0.99987000  1.0
  N  N228  1  0.56181000  0.50800000  0.49987000  1.0
  N  N229  1  0.49200000  0.43819000  0.00014000  1.0
  N  N230  1  0.72506000  0.35762000  0.64711000  1.0
  N  N231  1  0.64238000  0.27493000  0.85289000  1.0
  N  N232  1  0.27494000  0.64238000  0.35289000  1.0
  N  N233  1  0.35762000  0.72506000  0.14711000  1.0
  O  O234  1  0.83258000  0.07462000  0.57524000  1.0
  O  O235  1  0.92537000  0.16742000  0.92476000  1.0
  O  O236  1  0.16743000  0.92538000  0.42475000  1.0
  O  O237  1  0.07463000  0.83258000  0.07525000  1.0
  O  O238  1  0.64271000  0.08743000  0.56024000  1.0
  O  O239  1  0.91257000  0.35730000  0.93976000  1.0
  O  O240  1  0.35731000  0.91257000  0.43976000  1.0
  O  O241  1  0.08743000  0.64270000  0.06024000  1.0
  O  O242  1  0.62380000  0.86884000  0.79089000  1.0
  O  O243  1  0.13116000  0.37620000  0.70912000  1.0
  O  O244  1  0.37620000  0.13115000  0.20911000  1.0
  O  O245  1  0.86884000  0.62379000  0.29089000  1.0
  O  O246  1  0.94241000  0.62238000  0.94571000  1.0
  O  O247  1  0.37762000  0.05760000  0.55430000  1.0
  O  O248  1  0.05759000  0.37762000  0.05429000  1.0
  O  O249  1  0.62238000  0.94241000  0.44570000  1.0
  O  O250  1  0.04962000  0.81423000  0.95324000  1.0
  O  O251  1  0.18577000  0.95038000  0.54676000  1.0
  O  O252  1  0.95036000  0.18577000  0.04676000  1.0
  O  O253  1  0.81424000  0.04962000  0.45325000  1.0
  O  O254  1  0.48606000  0.83660000  0.54087000  1.0
  O  O255  1  0.16341000  0.51394000  0.95914000  1.0
  O  O256  1  0.51394000  0.16341000  0.45913000  1.0
  O  O257  1  0.83661000  0.48607000  0.04086000  1.0
  O  O258  1  0.29247000  0.73455000  0.53619000  1.0
  O  O259  1  0.26546000  0.70752000  0.96381000  1.0
  O  O260  1  0.70752000  0.26546000  0.46381000  1.0
  O  O261  1  0.73454000  0.29249000  0.03618000  1.0
  O  O262  1  0.46533000  0.53466000  0.75000000  1.0
  O  O263  1  0.53467000  0.46534000  0.25000000  1.0
  O  O264  1  0.82966000  0.33711000  0.57315000  1.0
  O  O265  1  0.66288000  0.17033000  0.92685000  1.0
  O  O266  1  0.17033000  0.66288000  0.42685000  1.0
  O  O267  1  0.33710000  0.82966000  0.07315000  1.0
