# generated using pymatgen
data_CdH4C8(NO)4
_symmetry_space_group_name_H-M   'P 1'
_cell_length_a   7.32182000
_cell_length_b   11.84150000
_cell_length_c   12.18662468
_cell_angle_alpha   84.66867288
_cell_angle_beta   72.51793153
_cell_angle_gamma   71.98980000
_symmetry_Int_Tables_number   1
_chemical_formula_structural   CdH4C8(NO)4
_chemical_formula_sum   'Cd4 H16 C32 N16 O16'
_cell_volume   958.41308239
_cell_formula_units_Z   4
loop_
 _symmetry_equiv_pos_site_id
 _symmetry_equiv_pos_as_xyz
  1  'x, y, z'
loop_
 _atom_site_type_symbol
 _atom_site_label
 _atom_site_symmetry_multiplicity
 _atom_site_fract_x
 _atom_site_fract_y
 _atom_site_fract_z
 _atom_site_occupancy
  Cd  Cd0  1  0.19709000  0.32946000  0.02337000  1.0
  Cd  Cd1  1  0.55017000  0.67053000  0.97668000  1.0
  Cd  Cd2  1  0.27702000  0.17042000  0.52326000  1.0
  Cd  Cd3  1  0.97076000  0.82952000  0.47673000  1.0
  H  H4  1  0.92501000  0.13688000  0.43167000  1.0
  H  H5  1  0.49331000  0.86316000  0.56842000  1.0
  H  H6  1  0.81150000  0.36332000  0.93126000  1.0
  H  H7  1  0.10623000  0.63670000  0.06867000  1.0
  H  H8  1  0.78896000  0.16890000  0.11418000  1.0
  H  H9  1  0.07207000  0.83102000  0.88594000  1.0
  H  H10  1  0.70817000  0.33072000  0.61371000  1.0
  H  H11  1  0.65257000  0.66936000  0.38613000  1.0
  H  H12  1  0.71733000  0.08820000  0.31915000  1.0
  H  H13  1  0.12459000  0.91170000  0.68099000  1.0
  H  H14  1  0.55546000  0.41163000  0.81861000  1.0
  H  H15  1  0.78589000  0.58842000  0.18122000  1.0
  H  H16  1  0.61230000  0.46936000  0.29907000  1.0
  H  H17  1  0.38087000  0.53057000  0.70082000  1.0
  H  H18  1  0.83149000  0.03061000  0.79923000  1.0
  H  H19  1  0.66147000  0.96931000  0.20082000  1.0
  C  C20  1  0.48979000  0.47680000  0.14632000  1.0
  C  C21  1  0.11300000  0.52319000  0.85365000  1.0
  C  C22  1  0.71666000  0.02326000  0.64645000  1.0
  C  C23  1  0.38638000  0.97672000  0.35359000  1.0
  C  C24  1  0.37974000  0.40030000  0.22216000  1.0
  C  C25  1  0.00232000  0.59965000  0.77781000  1.0
  C  C26  1  0.53002000  0.09974000  0.72220000  1.0
  C  C27  1  0.35195000  0.90032000  0.27778000  1.0
  C  C28  1  0.38440000  0.35451000  0.33257000  1.0
  C  C29  1  0.07153000  0.64539000  0.66738000  1.0
  C  C30  1  0.48862000  0.14545000  0.83267000  1.0
  C  C31  1  0.46685000  0.85454000  0.16735000  1.0
  C  C32  1  0.49889000  0.36386000  0.41046000  1.0
  C  C33  1  0.27322000  0.63614000  0.58951000  1.0
  C  C34  1  0.61239000  0.13614000  0.91059000  1.0
  C  C35  1  0.65922000  0.86387000  0.08942000  1.0
  C  C36  1  0.18000000  0.28966000  0.27676000  1.0
  C  C37  1  0.74647000  0.71037000  0.72327000  1.0
  C  C38  1  0.21957000  0.21036000  0.77667000  1.0
  C  C39  1  0.20666000  0.78967000  0.22330000  1.0
  C  C40  1  0.04042000  0.23006000  0.26715000  1.0
  C  C41  1  0.53766000  0.77002000  0.73294000  1.0
  C  C42  1  0.02046000  0.26994000  0.76691000  1.0
  C  C43  1  0.05743000  0.73005000  0.23304000  1.0
  C  C44  1  0.93263000  0.16426000  0.34373000  1.0
  C  C45  1  0.44054000  0.83578000  0.65638000  1.0
  C  C46  1  0.84675000  0.33580000  0.84334000  1.0
  C  C47  1  0.02604000  0.66422000  0.15657000  1.0
  C  C48  1  0.85951000  0.17980000  0.17775000  1.0
  C  C49  1  0.21708000  0.82016000  0.82237000  1.0
  C  C50  1  0.78950000  0.31998000  0.67733000  1.0
  C  C51  1  0.78682000  0.68009000  0.32255000  1.0
  N  N52  1  0.24905000  0.35908000  0.18972000  1.0
  N  N53  1  0.79794000  0.64097000  0.81031000  1.0
  N  N54  1  0.35822000  0.14102000  0.68964000  1.0
  N  N55  1  0.18881000  0.85909000  0.31030000  1.0
  N  N56  1  0.25845000  0.28462000  0.36485000  1.0
  N  N57  1  0.90796000  0.71531000  0.63511000  1.0
  N  N58  1  0.29270000  0.21528000  0.86492000  1.0
  N  N59  1  0.37310000  0.78464000  0.13514000  1.0
  N  N60  1  0.99276000  0.23870000  0.16371000  1.0
  N  N61  1  0.39525000  0.76135000  0.83639000  1.0
  N  N62  1  0.98165000  0.26117000  0.66342000  1.0
  N  N63  1  0.90626000  0.73886000  0.33650000  1.0
  N  N64  1  0.82063000  0.13394000  0.28577000  1.0
  N  N65  1  0.24028000  0.86601000  0.71436000  1.0
  N  N66  1  0.70456000  0.36596000  0.78528000  1.0
  N  N67  1  0.85589000  0.63411000  0.21459000  1.0
  O  O68  1  0.46496000  0.50253000  0.04664000  1.0
  O  O69  1  0.01414000  0.49763000  0.95338000  1.0
  O  O70  1  0.71772000  0.99757000  0.54672000  1.0
  O  O71  1  0.26203000  0.00232000  0.45334000  1.0
  O  O72  1  0.60507000  0.51498000  0.18444000  1.0
  O  O73  1  0.30454000  0.48485000  0.81550000  1.0
  O  O74  1  0.87001000  0.98496000  0.68465000  1.0
  O  O75  1  0.53975000  0.01493000  0.31545000  1.0
  O  O76  1  0.61724000  0.43230000  0.37998000  1.0
  O  O77  1  0.42962000  0.56776000  0.62000000  1.0
  O  O78  1  0.79924000  0.06779000  0.88013000  1.0
  O  O79  1  0.74726000  0.93219000  0.11993000  1.0
  O  O80  1  0.48618000  0.30645000  0.50237000  1.0
  O  O81  1  0.29499000  0.69361000  0.49764000  1.0
  O  O82  1  0.54220000  0.19360000  0.00247000  1.0
  O  O83  1  0.73825000  0.80654000  0.99746000  1.0
