# generated using pymatgen
data_CuBH20(C2N)8
_symmetry_space_group_name_H-M   'P 1'
_cell_length_a   15.94460000
_cell_length_b   15.94460000
_cell_length_c   15.94470000
_cell_angle_alpha   90.00000000
_cell_angle_beta   90.00000000
_cell_angle_gamma   90.00000000
_symmetry_Int_Tables_number   1
_chemical_formula_structural   CuBH20(C2N)8
_chemical_formula_sum   'Cu6 B6 H120 C96 N48'
_cell_volume   4053.62537268
_cell_formula_units_Z   6
loop_
 _symmetry_equiv_pos_site_id
 _symmetry_equiv_pos_as_xyz
  1  'x, y, z'
loop_
 _atom_site_type_symbol
 _atom_site_label
 _atom_site_symmetry_multiplicity
 _atom_site_fract_x
 _atom_site_fract_y
 _atom_site_fract_z
 _atom_site_occupancy
  Cu  Cu0  1  0.50000000  0.00000000  0.25000000  1.0
  Cu  Cu1  1  0.50000000  0.00000000  0.75000000  1.0
  Cu  Cu2  1  0.25000000  0.50000000  0.00000000  1.0
  Cu  Cu3  1  0.75000000  0.50000000  0.00000000  1.0
  Cu  Cu4  1  0.00000000  0.25000000  0.50000000  1.0
  Cu  Cu5  1  0.00000000  0.75000000  0.50000000  1.0
  B  B6  1  0.25000000  0.00000000  0.50000000  1.0
  B  B7  1  0.75000000  0.00000000  0.50000000  1.0
  B  B8  1  0.50000000  0.25000000  0.00000000  1.0
  B  B9  1  0.50000000  0.75000000  0.00000000  1.0
  B  B10  1  0.00000000  0.50000000  0.25000000  1.0
  B  B11  1  0.00000000  0.50000000  0.75000000  1.0
  H  H12  1  0.25829000  0.15558000  0.40634000  1.0
  H  H13  1  0.74171000  0.84442000  0.40634000  1.0
  H  H14  1  0.74171000  0.15558000  0.59366000  1.0
  H  H15  1  0.25829000  0.84442000  0.59366000  1.0
  H  H16  1  0.40633000  0.25829000  0.15558000  1.0
  H  H17  1  0.40633000  0.74171000  0.84442000  1.0
  H  H18  1  0.59367000  0.74171000  0.15558000  1.0
  H  H19  1  0.59367000  0.25829000  0.84442000  1.0
  H  H20  1  0.15558000  0.40633000  0.25829000  1.0
  H  H21  1  0.84442000  0.40633000  0.74171000  1.0
  H  H22  1  0.15558000  0.59367000  0.74171000  1.0
  H  H23  1  0.84442000  0.59367000  0.25829000  1.0
  H  H24  1  0.65558000  0.75829000  0.90634000  1.0
  H  H25  1  0.34442000  0.24171000  0.90633000  1.0
  H  H26  1  0.65558000  0.24171000  0.09366000  1.0
  H  H27  1  0.34442000  0.75829000  0.09367000  1.0
  H  H28  1  0.75829000  0.90633000  0.65558000  1.0
  H  H29  1  0.24171000  0.90633000  0.34442000  1.0
  H  H30  1  0.24171000  0.09367000  0.65558000  1.0
  H  H31  1  0.75829000  0.09367000  0.34442000  1.0
  H  H32  1  0.90633000  0.65558000  0.75829000  1.0
  H  H33  1  0.90633000  0.34442000  0.24171000  1.0
  H  H34  1  0.09367000  0.65558000  0.24171000  1.0
  H  H35  1  0.09367000  0.34442000  0.75829000  1.0
  H  H36  1  0.37638000  0.15560000  0.27901000  1.0
  H  H37  1  0.62362000  0.84440000  0.27901000  1.0
  H  H38  1  0.62362000  0.15560000  0.72099000  1.0
  H  H39  1  0.37638000  0.84440000  0.72099000  1.0
  H  H40  1  0.27901000  0.37638000  0.15560000  1.0
  H  H41  1  0.27901000  0.62362000  0.84440000  1.0
  H  H42  1  0.72099000  0.62362000  0.15560000  1.0
  H  H43  1  0.72099000  0.37638000  0.84440000  1.0
  H  H44  1  0.15560000  0.27901000  0.37638000  1.0
  H  H45  1  0.84440000  0.27901000  0.62362000  1.0
  H  H46  1  0.15560000  0.72099000  0.62362000  1.0
  H  H47  1  0.84440000  0.72099000  0.37638000  1.0
  H  H48  1  0.65560000  0.87638000  0.77901000  1.0
  H  H49  1  0.34440000  0.12362000  0.77901000  1.0
  H  H50  1  0.65560000  0.12362000  0.22099000  1.0
  H  H51  1  0.34440000  0.87638000  0.22099000  1.0
  H  H52  1  0.87638000  0.77901000  0.65560000  1.0
  H  H53  1  0.12362000  0.77901000  0.34440000  1.0
  H  H54  1  0.12362000  0.22099000  0.65560000  1.0
  H  H55  1  0.87638000  0.22099000  0.34440000  1.0
  H  H56  1  0.77901000  0.65560000  0.87638000  1.0
  H  H57  1  0.77901000  0.34440000  0.12362000  1.0
  H  H58  1  0.22099000  0.65560000  0.12362000  1.0
  H  H59  1  0.22099000  0.34440000  0.87638000  1.0
  H  H60  1  0.45415000  0.88588000  0.37257000  1.0
  H  H61  1  0.54585000  0.11412000  0.37257000  1.0
  H  H62  1  0.54585000  0.88588000  0.62743000  1.0
  H  H63  1  0.45415000  0.11412000  0.62743000  1.0
  H  H64  1  0.37257000  0.45416000  0.88588000  1.0
  H  H65  1  0.37257000  0.54584000  0.11412000  1.0
  H  H66  1  0.62743000  0.54584000  0.88588000  1.0
  H  H67  1  0.62743000  0.45416000  0.11412000  1.0
  H  H68  1  0.88588000  0.37257000  0.45416000  1.0
  H  H69  1  0.11412000  0.37257000  0.54584000  1.0
  H  H70  1  0.88588000  0.62743000  0.54584000  1.0
  H  H71  1  0.11412000  0.62743000  0.45416000  1.0
  H  H72  1  0.38588000  0.95415000  0.87257000  1.0
  H  H73  1  0.61412000  0.04585000  0.87257000  1.0
  H  H74  1  0.38588000  0.04585000  0.12743000  1.0
  H  H75  1  0.61412000  0.95415000  0.12743000  1.0
  H  H76  1  0.95416000  0.87257000  0.38588000  1.0
  H  H77  1  0.04584000  0.87257000  0.61412000  1.0
  H  H78  1  0.04584000  0.12743000  0.38588000  1.0
  H  H79  1  0.95416000  0.12743000  0.61412000  1.0
  H  H80  1  0.87257000  0.38588000  0.95416000  1.0
  H  H81  1  0.87257000  0.61412000  0.04584000  1.0
  H  H82  1  0.12743000  0.38588000  0.04584000  1.0
  H  H83  1  0.12743000  0.61412000  0.95416000  1.0
  H  H84  1  0.35534000  0.85459000  0.41521000  1.0
  H  H85  1  0.64466000  0.14541000  0.41521000  1.0
  H  H86  1  0.64466000  0.85459000  0.58479000  1.0
  H  H87  1  0.35534000  0.14541000  0.58479000  1.0
  H  H88  1  0.41521000  0.35534000  0.85459000  1.0
  H  H89  1  0.41521000  0.64466000  0.14541000  1.0
  H  H90  1  0.58479000  0.64466000  0.85459000  1.0
  H  H91  1  0.58479000  0.35534000  0.14541000  1.0
  H  H92  1  0.85459000  0.41521000  0.35534000  1.0
  H  H93  1  0.14541000  0.41521000  0.64466000  1.0
  H  H94  1  0.85459000  0.58479000  0.64466000  1.0
  H  H95  1  0.14541000  0.58479000  0.35534000  1.0
  H  H96  1  0.35459000  0.85534000  0.91521000  1.0
  H  H97  1  0.64541000  0.14466000  0.91521000  1.0
  H  H98  1  0.35459000  0.14466000  0.08479000  1.0
  H  H99  1  0.64541000  0.85534000  0.08479000  1.0
  H  H100  1  0.85534000  0.91521000  0.35459000  1.0
  H  H101  1  0.14466000  0.91521000  0.64541000  1.0
  H  H102  1  0.14466000  0.08479000  0.35459000  1.0
  H  H103  1  0.85534000  0.08479000  0.64541000  1.0
  H  H104  1  0.91521000  0.35459000  0.85534000  1.0
  H  H105  1  0.91521000  0.64541000  0.14466000  1.0
  H  H106  1  0.08479000  0.35459000  0.14466000  1.0
  H  H107  1  0.08479000  0.64541000  0.85534000  1.0
  H  H108  1  0.42910000  0.90577000  0.47975000  1.0
  H  H109  1  0.57090000  0.09423000  0.47975000  1.0
  H  H110  1  0.57090000  0.90577000  0.52025000  1.0
  H  H111  1  0.42910000  0.09423000  0.52025000  1.0
  H  H112  1  0.47975000  0.42910000  0.90576000  1.0
  H  H113  1  0.47975000  0.57090000  0.09423000  1.0
  H  H114  1  0.52025000  0.57090000  0.90576000  1.0
  H  H115  1  0.52025000  0.42910000  0.09423000  1.0
  H  H116  1  0.90577000  0.47975000  0.42910000  1.0
  H  H117  1  0.09423000  0.47975000  0.57090000  1.0
  H  H118  1  0.90577000  0.52025000  0.57090000  1.0
  H  H119  1  0.09423000  0.52025000  0.42910000  1.0
  H  H120  1  0.40577000  0.92910000  0.97975000  1.0
  H  H121  1  0.59423000  0.07091000  0.97975000  1.0
  H  H122  1  0.40577000  0.07090000  0.02025000  1.0
  H  H123  1  0.59423000  0.92910000  0.02025000  1.0
  H  H124  1  0.92910000  0.97975000  0.40577000  1.0
  H  H125  1  0.07090000  0.97975000  0.59424000  1.0
  H  H126  1  0.07090000  0.02025000  0.40577000  1.0
  H  H127  1  0.92910000  0.02025000  0.59423000  1.0
  H  H128  1  0.97975000  0.40577000  0.92910000  1.0
  H  H129  1  0.97975000  0.59424000  0.07090000  1.0
  H  H130  1  0.02025000  0.40577000  0.07090000  1.0
  H  H131  1  0.02025000  0.59424000  0.92910000  1.0
  C  C132  1  0.30181000  0.10743000  0.38647000  1.0
  C  C133  1  0.69819000  0.89257000  0.38647000  1.0
  C  C134  1  0.69819000  0.10743000  0.61353000  1.0
  C  C135  1  0.30181000  0.89257000  0.61353000  1.0
  C  C136  1  0.38647000  0.30181000  0.10743000  1.0
  C  C137  1  0.38647000  0.69819000  0.89257000  1.0
  C  C138  1  0.61353000  0.69819000  0.10743000  1.0
  C  C139  1  0.61353000  0.30181000  0.89257000  1.0
  C  C140  1  0.10743000  0.38647000  0.30181000  1.0
  C  C141  1  0.89257000  0.38647000  0.69819000  1.0
  C  C142  1  0.10743000  0.61353000  0.69819000  1.0
  C  C143  1  0.89257000  0.61353000  0.30181000  1.0
  C  C144  1  0.60743000  0.80181000  0.88647000  1.0
  C  C145  1  0.39257000  0.19819000  0.88647000  1.0
  C  C146  1  0.60743000  0.19819000  0.11353000  1.0
  C  C147  1  0.39257000  0.80181000  0.11353000  1.0
  C  C148  1  0.80181000  0.88647000  0.60743000  1.0
  C  C149  1  0.19819000  0.88647000  0.39257000  1.0
  C  C150  1  0.19819000  0.11353000  0.60743000  1.0
  C  C151  1  0.80181000  0.11353000  0.39257000  1.0
  C  C152  1  0.88647000  0.60743000  0.80181000  1.0
  C  C153  1  0.88647000  0.39257000  0.19819000  1.0
  C  C154  1  0.11353000  0.60743000  0.19819000  1.0
  C  C155  1  0.11353000  0.39257000  0.80181000  1.0
  C  C156  1  0.36102000  0.10709000  0.32416000  1.0
  C  C157  1  0.63899000  0.89291000  0.32416000  1.0
  C  C158  1  0.63899000  0.10708000  0.67584000  1.0
  C  C159  1  0.36101000  0.89292000  0.67584000  1.0
  C  C160  1  0.32416000  0.36102000  0.10709000  1.0
  C  C161  1  0.32416000  0.63898000  0.89291000  1.0
  C  C162  1  0.67584000  0.63898000  0.10709000  1.0
  C  C163  1  0.67584000  0.36102000  0.89291000  1.0
  C  C164  1  0.10709000  0.32416000  0.36102000  1.0
  C  C165  1  0.89291000  0.32416000  0.63898000  1.0
  C  C166  1  0.10709000  0.67584000  0.63898000  1.0
  C  C167  1  0.89291000  0.67584000  0.36102000  1.0
  C  C168  1  0.60709000  0.86102000  0.82416000  1.0
  C  C169  1  0.39292000  0.13898000  0.82416000  1.0
  C  C170  1  0.60709000  0.13898000  0.17584000  1.0
  C  C171  1  0.39291000  0.86102000  0.17584000  1.0
  C  C172  1  0.86102000  0.82416000  0.60709000  1.0
  C  C173  1  0.13898000  0.82416000  0.39291000  1.0
  C  C174  1  0.13898000  0.17584000  0.60709000  1.0
  C  C175  1  0.86102000  0.17584000  0.39291000  1.0
  C  C176  1  0.82416000  0.60709000  0.86102000  1.0
  C  C177  1  0.82416000  0.39291000  0.13898000  1.0
  C  C178  1  0.17584000  0.60709000  0.13898000  1.0
  C  C179  1  0.17584000  0.39291000  0.86102000  1.0
  C  C180  1  0.37096000  0.98706000  0.38906000  1.0
  C  C181  1  0.62904000  0.01294000  0.38906000  1.0
  C  C182  1  0.62905000  0.98706000  0.61094000  1.0
  C  C183  1  0.37095000  0.01294000  0.61094000  1.0
  C  C184  1  0.38906000  0.37096000  0.98706000  1.0
  C  C185  1  0.38906000  0.62904000  0.01294000  1.0
  C  C186  1  0.61094000  0.62904000  0.98706000  1.0
  C  C187  1  0.61094000  0.37096000  0.01294000  1.0
  C  C188  1  0.98706000  0.38906000  0.37096000  1.0
  C  C189  1  0.01294000  0.38906000  0.62904000  1.0
  C  C190  1  0.98706000  0.61094000  0.62904000  1.0
  C  C191  1  0.01294000  0.61094000  0.37096000  1.0
  C  C192  1  0.48706000  0.87095000  0.88906000  1.0
  C  C193  1  0.51294000  0.12905000  0.88906000  1.0
  C  C194  1  0.48706000  0.12905000  0.11094000  1.0
  C  C195  1  0.51294000  0.87096000  0.11094000  1.0
  C  C196  1  0.87096000  0.88906000  0.48706000  1.0
  C  C197  1  0.12904000  0.88906000  0.51294000  1.0
  C  C198  1  0.12904000  0.11094000  0.48706000  1.0
  C  C199  1  0.87096000  0.11094000  0.51294000  1.0
  C  C200  1  0.88906000  0.48706000  0.87096000  1.0
  C  C201  1  0.88906000  0.51294000  0.12904000  1.0
  C  C202  1  0.11094000  0.48706000  0.12904000  1.0
  C  C203  1  0.11094000  0.51294000  0.87096000  1.0
  C  C204  1  0.40366000  0.90367000  0.41571000  1.0
  C  C205  1  0.59634000  0.09633000  0.41571000  1.0
  C  C206  1  0.59634000  0.90367000  0.58429000  1.0
  C  C207  1  0.40366000  0.09633000  0.58429000  1.0
  C  C208  1  0.41571000  0.40367000  0.90367000  1.0
  C  C209  1  0.41571000  0.59633000  0.09633000  1.0
  C  C210  1  0.58429000  0.59633000  0.90367000  1.0
  C  C211  1  0.58429000  0.40367000  0.09633000  1.0
  C  C212  1  0.90367000  0.41571000  0.40367000  1.0
  C  C213  1  0.09633000  0.41571000  0.59633000  1.0
  C  C214  1  0.90367000  0.58429000  0.59633000  1.0
  C  C215  1  0.09633000  0.58429000  0.40367000  1.0
  C  C216  1  0.40367000  0.90366000  0.91571000  1.0
  C  C217  1  0.59633000  0.09634000  0.91571000  1.0
  C  C218  1  0.40367000  0.09634000  0.08429000  1.0
  C  C219  1  0.59633000  0.90366000  0.08429000  1.0
  C  C220  1  0.90367000  0.91571000  0.40367000  1.0
  C  C221  1  0.09633000  0.91571000  0.59633000  1.0
  C  C222  1  0.09633000  0.08429000  0.40367000  1.0
  C  C223  1  0.90367000  0.08429000  0.59633000  1.0
  C  C224  1  0.91571000  0.40367000  0.90367000  1.0
  C  C225  1  0.91571000  0.59633000  0.09633000  1.0
  C  C226  1  0.08429000  0.40367000  0.09633000  1.0
  C  C227  1  0.08429000  0.59633000  0.90367000  1.0
  N  N228  1  0.40371000  0.03172000  0.32578000  1.0
  N  N229  1  0.59629000  0.96828000  0.32578000  1.0
  N  N230  1  0.59629000  0.03172000  0.67422000  1.0
  N  N231  1  0.40371000  0.96828000  0.67422000  1.0
  N  N232  1  0.32577000  0.40371000  0.03172000  1.0
  N  N233  1  0.32577000  0.59629000  0.96828000  1.0
  N  N234  1  0.67422000  0.59629000  0.03172000  1.0
  N  N235  1  0.67423000  0.40371000  0.96828000  1.0
  N  N236  1  0.03172000  0.32578000  0.40371000  1.0
  N  N237  1  0.96828000  0.32578000  0.59629000  1.0
  N  N238  1  0.03172000  0.67422000  0.59629000  1.0
  N  N239  1  0.96828000  0.67422000  0.40371000  1.0
  N  N240  1  0.53172000  0.90371000  0.82578000  1.0
  N  N241  1  0.46828000  0.09629000  0.82578000  1.0
  N  N242  1  0.53172000  0.09629000  0.17422000  1.0
  N  N243  1  0.46828000  0.90371000  0.17422000  1.0
  N  N244  1  0.90371000  0.82577000  0.53172000  1.0
  N  N245  1  0.09629000  0.82578000  0.46828000  1.0
  N  N246  1  0.09629000  0.17422000  0.53172000  1.0
  N  N247  1  0.90371000  0.17422000  0.46828000  1.0
  N  N248  1  0.82578000  0.53172000  0.90371000  1.0
  N  N249  1  0.82578000  0.46828000  0.09629000  1.0
  N  N250  1  0.17422000  0.53172000  0.09629000  1.0
  N  N251  1  0.17422000  0.46828000  0.90371000  1.0
  N  N252  1  0.30695000  0.03086000  0.42727000  1.0
  N  N253  1  0.69305000  0.96914000  0.42727000  1.0
  N  N254  1  0.69305000  0.03086000  0.57273000  1.0
  N  N255  1  0.30695000  0.96914000  0.57273000  1.0
  N  N256  1  0.42727000  0.30695000  0.03086000  1.0
  N  N257  1  0.42727000  0.69305000  0.96914000  1.0
  N  N258  1  0.57273000  0.69305000  0.03086000  1.0
  N  N259  1  0.57273000  0.30695000  0.96914000  1.0
  N  N260  1  0.03086000  0.42727000  0.30695000  1.0
  N  N261  1  0.96914000  0.42727000  0.69305000  1.0
  N  N262  1  0.03086000  0.57273000  0.69305000  1.0
  N  N263  1  0.96914000  0.57273000  0.30695000  1.0
  N  N264  1  0.53086000  0.80695000  0.92727000  1.0
  N  N265  1  0.46914000  0.19305000  0.92727000  1.0
  N  N266  1  0.53086000  0.19305000  0.07273000  1.0
  N  N267  1  0.46914000  0.80695000  0.07273000  1.0
  N  N268  1  0.80695000  0.92727000  0.53086000  1.0
  N  N269  1  0.19305000  0.92727000  0.46914000  1.0
  N  N270  1  0.19305000  0.07273000  0.53086000  1.0
  N  N271  1  0.80695000  0.07273000  0.46914000  1.0
  N  N272  1  0.92727000  0.53086000  0.80695000  1.0
  N  N273  1  0.92727000  0.46914000  0.19305000  1.0
  N  N274  1  0.07273000  0.53086000  0.19305000  1.0
  N  N275  1  0.07273000  0.46914000  0.80695000  1.0
