# generated using pymatgen
data_La2H24(CO)15
_symmetry_space_group_name_H-M   'P 1'
_cell_length_a   8.93507000
_cell_length_b   9.86473000
_cell_length_c   16.32790000
_cell_angle_alpha   104.05400000
_cell_angle_beta   103.67100000
_cell_angle_gamma   98.31280000
_symmetry_Int_Tables_number   1
_chemical_formula_structural   La2H24(CO)15
_chemical_formula_sum   'La4 H48 C30 O30'
_cell_volume   1325.03579692
_cell_formula_units_Z   2
loop_
 _symmetry_equiv_pos_site_id
 _symmetry_equiv_pos_as_xyz
  1  'x, y, z'
loop_
 _atom_site_type_symbol
 _atom_site_label
 _atom_site_symmetry_multiplicity
 _atom_site_fract_x
 _atom_site_fract_y
 _atom_site_fract_z
 _atom_site_occupancy
  La  La0  1  0.68951000  0.45596000  0.59113000  1.0
  La  La1  1  0.85456000  0.42425000  0.86411000  1.0
  La  La2  1  0.31049000  0.54404000  0.40888000  1.0
  La  La3  1  0.14544000  0.57574000  0.13589000  1.0
  H  H4  1  0.98098000  0.74387000  0.87477000  1.0
  H  H5  1  0.10933000  0.71960000  0.95423000  1.0
  H  H6  1  0.84477000  0.18756000  0.59113000  1.0
  H  H7  1  0.85602000  0.23604000  0.50812000  1.0
  H  H8  1  0.37036000  0.03159000  0.59953000  1.0
  H  H9  1  0.39096000  0.06693000  0.71380000  1.0
  H  H10  1  0.60647000  0.93492000  0.73238000  1.0
  H  H11  1  0.43579000  0.82520000  0.64974000  1.0
  H  H12  1  0.56292000  0.90379000  0.53619000  1.0
  H  H13  1  0.73997000  0.97710000  0.62590000  1.0
  H  H14  1  0.52915000  0.12303000  0.99317000  1.0
  H  H15  1  0.51548000  0.03209000  0.88428000  1.0
  H  H16  1  0.31104000  0.17456000  0.83156000  1.0
  H  H17  1  0.24680000  0.05110000  0.88431000  1.0
  H  H18  1  0.28547000  0.24397000  0.02078000  1.0
  H  H19  1  0.39238000  0.36768000  0.98332000  1.0
  H  H20  1  0.52579000  0.77184000  0.85124000  1.0
  H  H21  1  0.47788000  0.60573000  0.87131000  1.0
  H  H22  1  0.28149000  0.69791000  0.72011000  1.0
  H  H23  1  0.23831000  0.70556000  0.82101000  1.0
  H  H24  1  0.26060000  0.42890000  0.69399000  1.0
  H  H25  1  0.20409000  0.44322000  0.79243000  1.0
  H  H26  1  0.66023000  0.42217000  0.39637000  1.0
  H  H27  1  0.84870000  0.45773000  0.42993000  1.0
  H  H28  1  0.01902000  0.25613000  0.12523000  1.0
  H  H29  1  0.89067000  0.28039000  0.04577000  1.0
  H  H30  1  0.15523000  0.81244000  0.40887000  1.0
  H  H31  1  0.14398000  0.76396000  0.49189000  1.0
  H  H32  1  0.62964000  0.96840000  0.40047000  1.0
  H  H33  1  0.60905000  0.93307000  0.28621000  1.0
  H  H34  1  0.39354000  0.06509000  0.26761000  1.0
  H  H35  1  0.56423000  0.17480000  0.35026000  1.0
  H  H36  1  0.43709000  0.09621000  0.46380000  1.0
  H  H37  1  0.26004000  0.02290000  0.37410000  1.0
  H  H38  1  0.47084000  0.87697000  0.00683000  1.0
  H  H39  1  0.48452000  0.96790000  0.11573000  1.0
  H  H40  1  0.68896000  0.82544000  0.16844000  1.0
  H  H41  1  0.75320000  0.94890000  0.11569000  1.0
  H  H42  1  0.71453000  0.75604000  0.97922000  1.0
  H  H43  1  0.60762000  0.63232000  0.01668000  1.0
  H  H44  1  0.47421000  0.22816000  0.14875000  1.0
  H  H45  1  0.52211000  0.39428000  0.12869000  1.0
  H  H46  1  0.71851000  0.30209000  0.27989000  1.0
  H  H47  1  0.76169000  0.29444000  0.17899000  1.0
  H  H48  1  0.73940000  0.57110000  0.30602000  1.0
  H  H49  1  0.79591000  0.55678000  0.20757000  1.0
  H  H50  1  0.33976000  0.57783000  0.60363000  1.0
  H  H51  1  0.15129000  0.54226000  0.57007000  1.0
  C  C52  1  0.57664000  0.18714000  0.68397000  1.0
  C  C53  1  0.45575000  0.04969000  0.66374000  1.0
  C  C54  1  0.53027000  0.92012000  0.66590000  1.0
  C  C55  1  0.62932000  0.89610000  0.60013000  1.0
  C  C56  1  0.66658000  0.74990000  0.58702000  1.0
  C  C57  1  0.62546000  0.25008000  0.92155000  1.0
  C  C58  1  0.49953000  0.13235000  0.92558000  1.0
  C  C59  1  0.33060000  0.15156000  0.89531000  1.0
  C  C60  1  0.29522000  0.27272000  0.96088000  1.0
  C  C61  1  0.14829000  0.32361000  0.92654000  1.0
  C  C62  1  0.56139000  0.59696000  0.75959000  1.0
  C  C63  1  0.46555000  0.65879000  0.81892000  1.0
  C  C64  1  0.29250000  0.64738000  0.77358000  1.0
  C  C65  1  0.20240000  0.49037000  0.73804000  1.0
  C  C66  1  0.03376000  0.47455000  0.68678000  1.0
  C  C67  1  0.42336000  0.81287000  0.31603000  1.0
  C  C68  1  0.54425000  0.95032000  0.33626000  1.0
  C  C69  1  0.46974000  0.07988000  0.33410000  1.0
  C  C70  1  0.37069000  0.10390000  0.39987000  1.0
  C  C71  1  0.33343000  0.25010000  0.41298000  1.0
  C  C72  1  0.37454000  0.74991000  0.07845000  1.0
  C  C73  1  0.50046000  0.86765000  0.07442000  1.0
  C  C74  1  0.66940000  0.84845000  0.10469000  1.0
  C  C75  1  0.70477000  0.72729000  0.03912000  1.0
  C  C76  1  0.85171000  0.67639000  0.07346000  1.0
  C  C77  1  0.43861000  0.40303000  0.24041000  1.0
  C  C78  1  0.53445000  0.34121000  0.18107000  1.0
  C  C79  1  0.70750000  0.35262000  0.22642000  1.0
  C  C80  1  0.79760000  0.50963000  0.26195000  1.0
  C  C81  1  0.96623000  0.52545000  0.31322000  1.0
  O  O82  1  0.03700000  0.67402000  0.89314000  1.0
  O  O83  1  0.70243000  0.20977000  0.74606000  1.0
  O  O84  1  0.78211000  0.20598000  0.53900000  1.0
  O  O85  1  0.54641000  0.27228000  0.63791000  1.0
  O  O86  1  0.78781000  0.72778000  0.63599000  1.0
  O  O87  1  0.75117000  0.42223000  0.44543000  1.0
  O  O88  1  0.56584000  0.64372000  0.52696000  1.0
  O  O89  1  0.77085000  0.24095000  0.94599000  1.0
  O  O90  1  0.58664000  0.35045000  0.89070000  1.0
  O  O91  1  0.11360000  0.42679000  0.97987000  1.0
  O  O92  1  0.06225000  0.27072000  0.84813000  1.0
  O  O93  1  0.69584000  0.57556000  0.79510000  1.0
  O  O94  1  0.50807000  0.57051000  0.67650000  1.0
  O  O95  1  0.92074000  0.44049000  0.71895000  1.0
  O  O96  1  0.00150000  0.49368000  0.61033000  1.0
  O  O97  1  0.96300000  0.32598000  0.10686000  1.0
  O  O98  1  0.29759000  0.79024000  0.25393000  1.0
  O  O99  1  0.21789000  0.79402000  0.46101000  1.0
  O  O100  1  0.45357000  0.72772000  0.36209000  1.0
  O  O101  1  0.21219000  0.27221000  0.36402000  1.0
  O  O102  1  0.24882000  0.57776000  0.55457000  1.0
  O  O103  1  0.43417000  0.35628000  0.47304000  1.0
  O  O104  1  0.22915000  0.75904000  0.05401000  1.0
  O  O105  1  0.41336000  0.64955000  0.10931000  1.0
  O  O106  1  0.88640000  0.57321000  0.02013000  1.0
  O  O107  1  0.93776000  0.72929000  0.15187000  1.0
  O  O108  1  0.30414000  0.42443000  0.20490000  1.0
  O  O109  1  0.49193000  0.42949000  0.32350000  1.0
  O  O110  1  0.07925000  0.55952000  0.28105000  1.0
  O  O111  1  0.99850000  0.50631000  0.38966000  1.0
