# generated using pymatgen
data_HgH7C8N3Cl2O
_symmetry_space_group_name_H-M   'P 1'
_cell_length_a   6.14596000
_cell_length_b   7.94984000
_cell_length_c   23.18990000
_cell_angle_alpha   90.00040000
_cell_angle_beta   90.00020000
_cell_angle_gamma   70.95700000
_symmetry_Int_Tables_number   1
_chemical_formula_structural   HgH7C8N3Cl2O
_chemical_formula_sum   'Hg4 H28 C32 N12 Cl8 O4'
_cell_volume   1071.03754120
_cell_formula_units_Z   4
loop_
 _symmetry_equiv_pos_site_id
 _symmetry_equiv_pos_as_xyz
  1  'x, y, z'
loop_
 _atom_site_type_symbol
 _atom_site_label
 _atom_site_symmetry_multiplicity
 _atom_site_fract_x
 _atom_site_fract_y
 _atom_site_fract_z
 _atom_site_occupancy
  Hg  Hg0  1  0.33175000  0.98955000  0.28573000  1.0
  Hg  Hg1  1  0.66826000  0.51045000  0.78573000  1.0
  Hg  Hg2  1  0.66824000  0.01046000  0.71427000  1.0
  Hg  Hg3  1  0.33174000  0.48955000  0.21427000  1.0
  H  H4  1  0.92487000  0.11350000  0.46250000  1.0
  H  H5  1  0.07514000  0.38650000  0.96251000  1.0
  H  H6  1  0.07514000  0.88650000  0.53749000  1.0
  H  H7  1  0.92485000  0.61351000  0.03749000  1.0
  H  H8  1  0.43333000  0.35266000  0.51212000  1.0
  H  H9  1  0.56669000  0.14734000  0.01213000  1.0
  H  H10  1  0.56664000  0.64737000  0.48788000  1.0
  H  H11  1  0.43334000  0.85264000  0.98788000  1.0
  H  H12  1  0.33612000  0.54710000  0.42483000  1.0
  H  H13  1  0.66386000  0.95292000  0.92483000  1.0
  H  H14  1  0.66385000  0.45293000  0.57517000  1.0
  H  H15  1  0.33615000  0.04707000  0.07517000  1.0
  H  H16  1  0.05111000  0.51716000  0.35437000  1.0
  H  H17  1  0.94888000  0.98286000  0.85437000  1.0
  H  H18  1  0.94888000  0.48285000  0.64563000  1.0
  H  H19  1  0.05112000  0.01713000  0.14564000  1.0
  H  H20  1  0.67164000  0.55479000  0.32540000  1.0
  H  H21  1  0.32835000  0.94521000  0.82540000  1.0
  H  H22  1  0.32836000  0.44521000  0.67460000  1.0
  H  H23  1  0.67163000  0.05480000  0.17460000  1.0
  H  H24  1  0.83568000  0.01440000  0.37398000  1.0
  H  H25  1  0.16433000  0.48559000  0.87399000  1.0
  H  H26  1  0.16434000  0.98559000  0.62602000  1.0
  H  H27  1  0.83567000  0.51441000  0.12602000  1.0
  H  H28  1  0.35590000  0.12717000  0.56270000  1.0
  H  H29  1  0.64412000  0.37282000  0.06271000  1.0
  H  H30  1  0.64411000  0.87283000  0.43730000  1.0
  H  H31  1  0.35589000  0.62717000  0.93729000  1.0
  C  C32  1  0.97063000  0.31400000  0.40481000  1.0
  C  C33  1  0.02937000  0.18600000  0.90482000  1.0
  C  C34  1  0.02935000  0.68601000  0.59518000  1.0
  C  C35  1  0.97064000  0.81399000  0.09518000  1.0
  C  C36  1  0.01637000  0.20737000  0.45392000  1.0
  C  C37  1  0.98363000  0.29263000  0.95393000  1.0
  C  C38  1  0.98362000  0.79264000  0.54607000  1.0
  C  C39  1  0.01637000  0.70736000  0.04607000  1.0
  C  C40  1  0.18621000  0.22024000  0.49221000  1.0
  C  C41  1  0.81381000  0.27975000  0.99221000  1.0
  C  C42  1  0.81377000  0.77978000  0.50779000  1.0
  C  C43  1  0.18623000  0.72022000  0.00779000  1.0
  C  C44  1  0.30218000  0.34278000  0.48188000  1.0
  C  C45  1  0.69783000  0.15723000  0.98188000  1.0
  C  C46  1  0.69780000  0.65725000  0.51812000  1.0
  C  C47  1  0.30221000  0.84275000  0.01812000  1.0
  C  C48  1  0.24849000  0.45037000  0.43302000  1.0
  C  C49  1  0.75150000  0.04965000  0.93302000  1.0
  C  C50  1  0.75149000  0.54965000  0.56699000  1.0
  C  C51  1  0.24851000  0.95034000  0.06699000  1.0
  C  C52  1  0.08425000  0.43664000  0.39340000  1.0
  C  C53  1  0.91574000  0.06336000  0.89340000  1.0
  C  C54  1  0.91574000  0.56338000  0.60660000  1.0
  C  C55  1  0.08427000  0.93661000  0.10660000  1.0
  C  C56  1  0.67615000  0.41741000  0.32679000  1.0
  C  C57  1  0.32385000  0.08258000  0.82679000  1.0
  C  C58  1  0.32385000  0.58260000  0.67321000  1.0
  C  C59  1  0.67616000  0.91741000  0.17321000  1.0
  C  C60  1  0.75672000  0.14008000  0.35205000  1.0
  C  C61  1  0.24329000  0.35992000  0.85205000  1.0
  C  C62  1  0.24327000  0.85993000  0.64795000  1.0
  C  C63  1  0.75673000  0.64007000  0.14795000  1.0
  N  N64  1  0.60406000  0.17066000  0.31000000  1.0
  N  N65  1  0.39594000  0.32934000  0.81000000  1.0
  N  N66  1  0.39595000  0.82934000  0.69000000  1.0
  N  N67  1  0.60405000  0.67066000  0.19000000  1.0
  N  N68  1  0.55319000  0.34557000  0.29453000  1.0
  N  N69  1  0.44681000  0.15443000  0.79453000  1.0
  N  N70  1  0.44681000  0.65443000  0.70546000  1.0
  N  N71  1  0.55318000  0.84558000  0.20546000  1.0
  N  N72  1  0.80633000  0.29253000  0.36416000  1.0
  N  N73  1  0.19367000  0.20745000  0.86417000  1.0
  N  N74  1  0.19368000  0.70746000  0.63583000  1.0
  N  N75  1  0.80631000  0.79255000  0.13583000  1.0
  Cl  Cl76  1  0.40120000  0.84326000  0.37960000  1.0
  Cl  Cl77  1  0.59881000  0.65674000  0.87960000  1.0
  Cl  Cl78  1  0.59879000  0.15674000  0.62040000  1.0
  Cl  Cl79  1  0.40120000  0.34326000  0.12040000  1.0
  Cl  Cl80  1  0.06625000  0.23845000  0.23222000  1.0
  Cl  Cl81  1  0.93375000  0.26156000  0.73222000  1.0
  Cl  Cl82  1  0.93375000  0.76155000  0.76777000  1.0
  Cl  Cl83  1  0.06625000  0.73845000  0.26778000  1.0
  O  O84  1  0.23124000  0.10963000  0.53867000  1.0
  O  O85  1  0.76879000  0.39036000  0.03868000  1.0
  O  O86  1  0.76876000  0.89037000  0.46132000  1.0
  O  O87  1  0.23123000  0.60963000  0.96132000  1.0
