# generated using pymatgen
data_CuSiH4C8S4(N2F3)2
_symmetry_space_group_name_H-M   'P 1'
_cell_length_a   7.73035000
_cell_length_b   8.54344000
_cell_length_c   8.54342000
_cell_angle_alpha   92.11810000
_cell_angle_beta   95.53450000
_cell_angle_gamma   95.53530000
_symmetry_Int_Tables_number   1
_chemical_formula_structural   CuSiH4C8S4(N2F3)2
_chemical_formula_sum   'Cu1 Si1 H4 C8 S4 N4 F6'
_cell_volume   558.38084341
_cell_formula_units_Z   1
loop_
 _symmetry_equiv_pos_site_id
 _symmetry_equiv_pos_as_xyz
  1  'x, y, z'
loop_
 _atom_site_type_symbol
 _atom_site_label
 _atom_site_symmetry_multiplicity
 _atom_site_fract_x
 _atom_site_fract_y
 _atom_site_fract_z
 _atom_site_occupancy
  Cu  Cu0  1  0.50003000  0.50002000  0.50003000  1.0
  Si  Si1  1  0.00002000  0.50000000  0.50000000  1.0
  H  H2  1  0.24237000  0.42359000  0.75007000  1.0
  H  H3  1  0.75761000  0.57642000  0.24994000  1.0
  H  H4  1  0.24236000  0.75006000  0.42358000  1.0
  H  H5  1  0.75762000  0.24993000  0.57643000  1.0
  C  C6  1  0.36966000  0.46048000  0.81454000  1.0
  C  C7  1  0.63031000  0.53952000  0.18547000  1.0
  C  C8  1  0.58877000  0.52622000  0.02047000  1.0
  C  C9  1  0.41121000  0.47378000  0.97955000  1.0
  C  C10  1  0.36967000  0.81454000  0.46048000  1.0
  C  C11  1  0.63031000  0.18547000  0.53952000  1.0
  C  C12  1  0.58877000  0.02047000  0.52622000  1.0
  C  C13  1  0.41121000  0.97954000  0.47378000  1.0
  S  S14  1  0.69289000  0.55359000  0.85396000  1.0
  S  S15  1  0.30709000  0.44643000  0.14607000  1.0
  S  S16  1  0.69288000  0.85396000  0.55359000  1.0
  S  S17  1  0.30710000  0.14606000  0.44642000  1.0
  N  N18  1  0.50686000  0.50058000  0.73689000  1.0
  N  N19  1  0.49313000  0.49944000  0.26314000  1.0
  N  N20  1  0.50685000  0.73688000  0.50057000  1.0
  N  N21  1  0.49314000  0.26313000  0.49944000  1.0
  F  F22  1  0.20317000  0.45004000  0.45004000  1.0
  F  F23  1  0.79691000  0.55001000  0.54999000  1.0
  F  F24  1  0.00004000  0.63978000  0.36018000  1.0
  F  F25  1  0.00001000  0.36017000  0.63976000  1.0
  F  F26  1  0.89813000  0.36392000  0.36391000  1.0
  F  F27  1  0.10194000  0.63607000  0.63608000  1.0
