# generated using pymatgen
data_Zn3H11C20Br2(NO6)3
_symmetry_space_group_name_H-M   'P 1'
_cell_length_a   18.76090000
_cell_length_b   18.79940000
_cell_length_c   18.81650000
_cell_angle_alpha   109.60900000
_cell_angle_beta   109.15000000
_cell_angle_gamma   108.68100000
_symmetry_Int_Tables_number   1
_chemical_formula_structural   Zn3H11C20Br2(NO6)3
_chemical_formula_sum   'Zn6 H22 C40 Br4 N6 O36'
_cell_volume   5168.97104897
_cell_formula_units_Z   2
loop_
 _symmetry_equiv_pos_site_id
 _symmetry_equiv_pos_as_xyz
  1  'x, y, z'
loop_
 _atom_site_type_symbol
 _atom_site_label
 _atom_site_symmetry_multiplicity
 _atom_site_fract_x
 _atom_site_fract_y
 _atom_site_fract_z
 _atom_site_occupancy
  Zn  Zn0  1  0.57982000  0.07834000  0.99882000  1.0
  Zn  Zn1  1  0.45475000  0.95090000  0.99704000  1.0
  Zn  Zn2  1  0.55572000  0.49256000  0.56283000  1.0
  Zn  Zn3  1  0.43180000  0.47998000  0.42526000  1.0
  Zn  Zn4  1  0.98995000  0.05940000  0.56511000  1.0
  Zn  Zn5  1  0.98544000  0.93346000  0.43645000  1.0
  H  H6  1  0.48008000  0.24963000  0.12344000  1.0
  H  H7  1  0.58302000  0.26965000  0.19050000  1.0
  H  H8  1  0.59237000  0.36830000  0.31524000  1.0
  H  H9  1  0.50426000  0.36825000  0.24219000  1.0
  H  H10  1  0.35275000  0.13379000  0.08786000  1.0
  H  H11  1  0.35663000  0.25057000  0.18332000  1.0
  H  H12  1  0.60079000  0.22262000  0.29198000  1.0
  H  H13  1  0.56721000  0.28637000  0.39918000  1.0
  H  H14  1  0.46464000  0.19562000  0.34686000  1.0
  H  H15  1  0.88656000  0.16923000  0.39635000  1.0
  H  H16  1  0.75372000  0.97509000  0.30133000  1.0
  H  H17  1  0.47744000  0.62438000  0.72110000  1.0
  H  H18  1  0.43393000  0.70817000  0.81695000  1.0
  H  H19  1  0.51040000  0.84097000  0.76506000  1.0
  H  H20  1  0.19672000  0.93863000  0.61992000  1.0
  H  H21  1  0.20611000  0.07861000  0.77302000  1.0
  H  H22  1  0.75471000  0.69318000  0.36084000  1.0
  H  H23  1  0.80914000  0.81859000  0.54773000  1.0
  H  H24  1  0.62417000  0.61274000  0.37284000  1.0
  H  H25  1  0.76612000  0.68104000  0.55708000  1.0
  H  H26  1  0.15821000  0.24667000  0.54002000  1.0
  H  H27  1  0.20403000  0.12056000  0.43441000  1.0
  C  C28  1  0.65706000  0.04200000  0.11515000  1.0
  C  C29  1  0.48711000  0.10056000  0.11322000  1.0
  C  C30  1  0.43320000  0.05278000  0.88972000  1.0
  C  C31  1  0.48845000  0.87858000  0.87470000  1.0
  C  C32  1  0.51958000  0.25551000  0.18522000  1.0
  C  C33  1  0.52570000  0.32664000  0.26171000  1.0
  C  C34  1  0.38360000  0.14324000  0.15316000  1.0
  C  C35  1  0.53303000  0.18634000  0.27470000  1.0
  C  C36  1  0.47931000  0.16687000  0.18088000  1.0
  C  C37  1  0.46973000  0.28447000  0.29624000  1.0
  C  C38  1  0.38043000  0.21908000  0.21762000  1.0
  C  C39  1  0.50994000  0.23858000  0.33609000  1.0
  C  C40  1  0.82874000  0.10838000  0.34509000  1.0
  C  C41  1  0.81198000  0.03609000  0.35098000  1.0
  C  C42  1  0.77208000  0.10993000  0.27181000  1.0
  C  C43  1  0.72647000  0.04728000  0.18854000  1.0
  C  C44  1  0.45831000  0.66990000  0.70821000  1.0
  C  C45  1  0.44010000  0.66004000  0.62865000  1.0
  C  C46  1  0.45470000  0.73062000  0.77697000  1.0
  C  C47  1  0.48324000  0.81452000  0.79919000  1.0
  C  C48  1  0.22366000  0.98570000  0.68755000  1.0
  C  C49  1  0.18495000  0.03282000  0.70696000  1.0
  C  C50  1  0.29572000  0.98839000  0.75080000  1.0
  C  C51  1  0.36620000  0.05729000  0.82393000  1.0
  C  C52  1  0.63159000  0.58998000  0.50705000  1.0
  C  C53  1  0.46776000  0.35708000  0.36190000  1.0
  C  C54  1  0.41028000  0.37688000  0.53131000  1.0
  C  C55  1  0.45299000  0.59562000  0.56928000  1.0
  C  C56  1  0.87664000  0.85937000  0.48277000  1.0
  C  C57  1  0.87528000  0.03023000  0.41781000  1.0
  C  C58  1  0.10175000  0.08059000  0.46916000  1.0
  C  C59  1  0.11093000  0.02501000  0.63853000  1.0
  C  C60  1  0.75490000  0.71326000  0.42264000  1.0
  C  C61  1  0.81231000  0.79430000  0.48807000  1.0
  C  C62  1  0.68869000  0.65400000  0.42941000  1.0
  C  C63  1  0.70195000  0.64687000  0.50110000  1.0
  C  C64  1  0.19614000  0.22869000  0.51131000  1.0
  C  C65  1  0.17356000  0.14464000  0.46982000  1.0
  C  C66  1  0.26533000  0.29737000  0.51744000  1.0
  C  C67  1  0.34543000  0.31009000  0.53590000  1.0
  Br  Br68  1  0.76265000  0.21305000  0.30303000  1.0
  Br  Br69  1  0.39395000  0.72064000  0.58306000  1.0
  Br  Br70  1  0.28478000  0.87559000  0.71767000  1.0
  Br  Br71  1  0.38946000  0.17251000  0.85323000  1.0
  N  N72  1  0.32949000  0.05658000  0.14316000  1.0
  N  N73  1  0.31077000  0.18653000  0.24182000  1.0
  N  N74  1  0.73995000  0.97057000  0.16170000  1.0
  N  N75  1  0.24216000  0.36292000  0.50407000  1.0
  N  N76  1  0.37486000  0.25472000  0.56322000  1.0
  N  N77  1  0.53459000  0.10978000  0.28677000  1.0
  O  O78  1  0.68221000  0.09509000  0.08880000  1.0
  O  O79  1  0.58107000  0.98538000  0.08530000  1.0
  O  O80  1  0.54489000  0.12913000  0.09455000  1.0
  O  O81  1  0.43213000  0.02091000  0.07887000  1.0
  O  O82  1  0.51283000  0.10439000  0.91822000  1.0
  O  O83  1  0.40642000  0.00001000  0.91438000  1.0
  O  O84  1  0.54212000  0.95708000  0.90486000  1.0
  O  O85  1  0.43929000  0.85244000  0.90538000  1.0
  O  O86  1  0.65509000  0.57314000  0.56960000  1.0
  O  O87  1  0.55378000  0.56144000  0.45237000  1.0
  O  O88  1  0.52137000  0.39182000  0.44068000  1.0
  O  O89  1  0.41466000  0.38221000  0.33025000  1.0
  O  O90  1  0.48986000  0.40740000  0.58514000  1.0
  O  O91  1  0.38134000  0.39695000  0.47498000  1.0
  O  O92  1  0.50878000  0.57626000  0.60431000  1.0
  O  O93  1  0.40759000  0.56479000  0.48746000  1.0
  O  O94  1  0.90477000  0.93775000  0.53635000  1.0
  O  O95  1  0.89965000  0.83364000  0.42559000  1.0
  O  O96  1  0.90798000  0.08448000  0.49815000  1.0
  O  O97  1  0.89247000  0.97029000  0.38864000  1.0
  O  O98  1  0.07446000  0.10847000  0.51994000  1.0
  O  O99  1  0.07222000  0.00030000  0.41660000  1.0
  O  O100  1  0.08281000  0.07761000  0.66494000  1.0
  O  O101  1  0.08017000  0.96982000  0.56023000  1.0
  O  O102  1  0.26765000  0.00141000  0.07134000  1.0
  O  O103  1  0.35200000  0.04928000  0.20879000  1.0
  O  O104  1  0.23658000  0.13970000  0.18061000  1.0
  O  O105  1  0.33237000  0.21064000  0.31868000  1.0
  O  O106  1  0.67988000  0.90054000  0.13798000  1.0
  O  O107  1  0.80888000  0.98295000  0.16230000  1.0
  O  O108  1  0.17817000  0.33478000  0.43496000  1.0
  O  O109  1  0.28556000  0.43790000  0.56450000  1.0
  O  O110  1  0.38206000  0.20129000  0.51025000  1.0
  O  O111  1  0.39160000  0.26824000  0.63710000  1.0
  O  O112  1  0.52341000  0.10220000  0.34523000  1.0
  O  O113  1  0.55466000  0.06533000  0.24036000  1.0
