# generated using pymatgen
data_VH22C28N2O3
_symmetry_space_group_name_H-M   'P 1'
_cell_length_a   7.44427000
_cell_length_b   12.95260000
_cell_length_c   13.14180000
_cell_angle_alpha   97.82510000
_cell_angle_beta   90.11640000
_cell_angle_gamma   94.89250000
_symmetry_Int_Tables_number   1
_chemical_formula_structural   VH22C28N2O3
_chemical_formula_sum   'V2 H44 C56 N4 O6'
_cell_volume   1250.67425534
_cell_formula_units_Z   2
loop_
 _symmetry_equiv_pos_site_id
 _symmetry_equiv_pos_as_xyz
  1  'x, y, z'
loop_
 _atom_site_type_symbol
 _atom_site_label
 _atom_site_symmetry_multiplicity
 _atom_site_fract_x
 _atom_site_fract_y
 _atom_site_fract_z
 _atom_site_occupancy
  V  V0  1  0.71677000  0.83959000  0.88795000  1.0
  V  V1  1  0.21906000  0.85046000  0.86102000  1.0
  H  H2  1  0.57804000  0.55488000  0.04277000  1.0
  H  H3  1  0.16090000  0.13247000  0.70360000  1.0
  H  H4  1  0.50531000  0.37161000  0.96345000  1.0
  H  H5  1  0.14203000  0.31618000  0.78037000  1.0
  H  H6  1  0.49529000  0.32583000  0.77221000  1.0
  H  H7  1  0.13022000  0.36321000  0.97172000  1.0
  H  H8  1  0.53591000  0.46891000  0.66359000  1.0
  H  H9  1  0.13770000  0.22243000  0.08208000  1.0
  H  H10  1  0.55954000  0.63801000  0.63979000  1.0
  H  H11  1  0.12368000  0.05402000  0.10810000  1.0
  H  H12  1  0.72735000  0.02236000  0.20588000  1.0
  H  H13  1  0.18002000  0.66355000  0.54478000  1.0
  H  H14  1  0.69941000  0.21156000  0.25759000  1.0
  H  H15  1  0.05462000  0.48004000  0.49382000  1.0
  H  H16  1  0.67731000  0.33070000  0.12317000  1.0
  H  H17  1  0.94476000  0.36999000  0.62823000  1.0
  H  H18  1  0.68810000  0.25582000  0.93896000  1.0
  H  H19  1  0.97755000  0.44559000  0.81246000  1.0
  H  H20  1  0.71533000  0.12890000  0.81048000  1.0
  H  H21  1  0.09466000  0.56522000  0.94074000  1.0
  H  H22  1  0.47198000  0.86359000  0.67915000  1.0
  H  H23  1  0.96817000  0.82881000  0.07033000  1.0
  H  H24  1  0.90357000  0.75095000  0.58315000  1.0
  H  H25  1  0.88320000  0.85676000  0.23741000  1.0
  H  H26  1  0.94060000  0.67717000  0.40013000  1.0
  H  H27  1  0.94365000  0.92871000  0.41988000  1.0
  H  H28  1  0.69616000  0.68288000  0.27308000  1.0
  H  H29  1  0.25096000  0.01199000  0.47486000  1.0
  H  H30  1  0.41188000  0.76275000  0.32926000  1.0
  H  H31  1  0.49462000  0.01863000  0.34718000  1.0
  H  H32  1  0.37417000  0.83349000  0.51226000  1.0
  H  H33  1  0.43396000  0.94313000  0.16438000  1.0
  H  H34  1  0.87879000  0.92261000  0.69021000  1.0
  H  H35  1  0.35672000  0.76889000  0.05661000  1.0
  H  H36  1  0.42789000  0.04080000  0.69005000  1.0
  H  H37  1  0.86934000  0.65455000  0.07002000  1.0
  H  H38  1  0.37399000  0.18298000  0.58741000  1.0
  H  H39  1  0.78285000  0.51258000  0.17424000  1.0
  H  H40  1  0.61288000  0.24770000  0.47403000  1.0
  H  H41  1  0.01392000  0.44291000  0.27709000  1.0
  H  H42  1  0.91047000  0.17087000  0.46582000  1.0
  H  H43  1  0.33494000  0.51707000  0.27558000  1.0
  H  H44  1  0.96716000  0.03358000  0.57428000  1.0
  H  H45  1  0.42181000  0.65591000  0.16688000  1.0
  C  C46  1  0.60353000  0.61784000  0.89994000  1.0
  C  C47  1  0.16884000  0.07161000  0.84735000  1.0
  C  C48  1  0.57236000  0.53495000  0.95952000  1.0
  C  C49  1  0.15933000  0.15335000  0.78671000  1.0
  C  C50  1  0.53320000  0.43245000  0.91459000  1.0
  C  C51  1  0.14637000  0.25588000  0.83033000  1.0
  C  C52  1  0.52449000  0.40673000  0.80718000  1.0
  C  C53  1  0.14086000  0.28251000  0.93746000  1.0
  C  C54  1  0.54809000  0.48652000  0.74710000  1.0
  C  C55  1  0.14719000  0.20401000  0.99878000  1.0
  C  C56  1  0.58631000  0.59233000  0.79029000  1.0
  C  C57  1  0.16085000  0.09844000  0.95693000  1.0
  C  C58  1  0.59485000  0.66870000  0.72005000  1.0
  C  C59  1  0.14908000  0.02278000  0.02796000  1.0
  C  C60  1  0.71246000  0.02857000  0.04343000  1.0
  C  C61  1  0.14608000  0.66151000  0.70693000  1.0
  C  C62  1  0.71418000  0.07409000  0.14794000  1.0
  C  C63  1  0.13437000  0.61488000  0.60278000  1.0
  C  C64  1  0.70010000  0.18027000  0.17609000  1.0
  C  C65  1  0.06457000  0.51203000  0.57514000  1.0
  C  C66  1  0.68705000  0.24720000  0.10128000  1.0
  C  C67  1  0.00437000  0.44980000  0.65004000  1.0
  C  C68  1  0.69102000  0.20518000  0.99868000  1.0
  C  C69  1  0.02262000  0.49213000  0.75258000  1.0
  C  C70  1  0.70271000  0.09744000  0.96711000  1.0
  C  C71  1  0.09596000  0.59578000  0.78370000  1.0
  C  C72  1  0.71319000  0.06539000  0.85804000  1.0
  C  C73  1  0.12325000  0.62729000  0.89242000  1.0
  C  C74  1  0.61150000  0.84189000  0.66977000  1.0
  C  C75  1  0.11443000  0.85008000  0.07921000  1.0
  C  C76  1  0.63610000  0.79708000  0.55926000  1.0
  C  C77  1  0.15421000  0.89525000  0.18944000  1.0
  C  C78  1  0.79595000  0.75332000  0.52727000  1.0
  C  C79  1  0.01730000  0.89218000  0.26177000  1.0
  C  C80  1  0.81628000  0.71136000  0.42487000  1.0
  C  C81  1  0.05139000  0.93337000  0.36437000  1.0
  C  C82  1  0.67805000  0.71440000  0.35332000  1.0
  C  C83  1  0.22270000  0.97958000  0.39488000  1.0
  C  C84  1  0.51942000  0.75887000  0.38454000  1.0
  C  C85  1  0.36046000  0.98324000  0.32287000  1.0
  C  C86  1  0.49836000  0.79926000  0.48740000  1.0
  C  C87  1  0.32677000  0.94046000  0.22070000  1.0
  C  C88  1  0.73862000  0.94277000  0.70213000  1.0
  C  C89  1  0.21020000  0.74872000  0.04677000  1.0
  C  C90  1  0.70213000  0.02784000  0.63873000  1.0
  C  C91  1  0.15263000  0.66433000  0.11157000  1.0
  C  C92  1  0.53426000  0.06992000  0.64149000  1.0
  C  C93  1  0.97181000  0.62414000  0.11472000  1.0
  C  C94  1  0.50375000  0.14938000  0.58338000  1.0
  C  C95  1  0.92323000  0.54444000  0.17346000  1.0
  C  C96  1  0.63838000  0.18621000  0.51995000  1.0
  C  C97  1  0.05305000  0.50515000  0.23127000  1.0
  C  C98  1  0.80495000  0.14384000  0.51589000  1.0
  C  C99  1  0.23269000  0.54585000  0.22968000  1.0
  C  C100  1  0.83658000  0.06604000  0.57605000  1.0
  C  C101  1  0.28155000  0.62426000  0.16929000  1.0
  N  N102  1  0.63481000  0.76821000  0.74409000  1.0
  N  N103  1  0.15896000  0.92318000  0.00438000  1.0
  N  N104  1  0.72163000  0.97060000  0.81394000  1.0
  N  N105  1  0.17987000  0.72007000  0.93532000  1.0
  O  O106  1  0.93265000  0.82521000  0.86390000  1.0
  O  O107  1  0.43924000  0.86539000  0.88495000  1.0
  O  O108  1  0.64272000  0.71296000  0.94864000  1.0
  O  O109  1  0.18107000  0.97627000  0.79957000  1.0
  O  O110  1  0.72243000  0.92689000  0.02247000  1.0
  O  O111  1  0.20238000  0.76130000  0.72746000  1.0
