# generated using pymatgen
data_Zn4H24C42O19
_symmetry_space_group_name_H-M   'P 1'
_cell_length_a   17.32270000
_cell_length_b   17.32490000
_cell_length_c   17.34300000
_cell_angle_alpha   90.02470000
_cell_angle_beta   89.99880000
_cell_angle_gamma   89.97040000
_symmetry_Int_Tables_number   1
_chemical_formula_structural   Zn4H24C42O19
_chemical_formula_sum   'Zn4 H24 C42 O19'
_cell_volume   5204.87670704
_cell_formula_units_Z   1
loop_
 _symmetry_equiv_pos_site_id
 _symmetry_equiv_pos_as_xyz
  1  'x, y, z'
loop_
 _atom_site_type_symbol
 _atom_site_label
 _atom_site_symmetry_multiplicity
 _atom_site_fract_x
 _atom_site_fract_y
 _atom_site_fract_z
 _atom_site_occupancy
  Zn  Zn0  1  0.43402000  0.43420000  0.56587000  1.0
  Zn  Zn1  1  0.56492000  0.56509000  0.56571000  1.0
  Zn  Zn2  1  0.56504000  0.43519000  0.43415000  1.0
  Zn  Zn3  1  0.43488000  0.56537000  0.43508000  1.0
  H  H4  1  0.19895000  0.58604000  0.41057000  1.0
  H  H5  1  0.07998000  0.62653000  0.36713000  1.0
  H  H6  1  0.80239000  0.42028000  0.40465000  1.0
  H  H7  1  0.00665000  0.41968000  0.39518000  1.0
  H  H8  1  0.80353000  0.58072000  0.59458000  1.0
  H  H9  1  0.19389000  0.41366000  0.58858000  1.0
  H  H10  1  0.41970000  0.80318000  0.40522000  1.0
  H  H11  1  0.41699000  0.00749000  0.39873000  1.0
  H  H12  1  0.41717000  0.19480000  0.59152000  1.0
  H  H13  1  0.58226000  0.19875000  0.40661000  1.0
  H  H14  1  0.62166000  0.07952000  0.36286000  1.0
  H  H15  1  0.58100000  0.80339000  0.59434000  1.0
  H  H16  1  0.40805000  0.58586000  0.19858000  1.0
  H  H17  1  0.58213000  0.59157000  0.80196000  1.0
  H  H18  1  0.62175000  0.63461000  0.92123000  1.0
  H  H19  1  0.41390000  0.40948000  0.80524000  1.0
  H  H20  1  0.59043000  0.41662000  0.19487000  1.0
  H  H21  1  0.59248000  0.41451000  0.99049000  1.0
  H  H22  1  0.94811000  0.58142000  0.59194000  1.0
  H  H23  1  0.04920000  0.41546000  0.58539000  1.0
  H  H24  1  0.41954000  0.05012000  0.58974000  1.0
  H  H25  1  0.58207000  0.94797000  0.59220000  1.0
  H  H26  1  0.40784000  0.58779000  0.05420000  1.0
  H  H27  1  0.41479000  0.41196000  0.94981000  1.0
  C  C28  1  0.16536000  0.54853000  0.44842000  1.0
  C  C29  1  0.08477000  0.54928000  0.44659000  1.0
  C  C30  1  0.83416000  0.45595000  0.44545000  1.0
  C  C31  1  0.91466000  0.45738000  0.44343000  1.0
  C  C32  1  0.83528000  0.54615000  0.55285000  1.0
  C  C33  1  0.91554000  0.54641000  0.55102000  1.0
  C  C34  1  0.16284000  0.45138000  0.54913000  1.0
  C  C35  1  0.08252000  0.45261000  0.54708000  1.0
  C  C36  1  0.45555000  0.83472000  0.44603000  1.0
  C  C37  1  0.45664000  0.91522000  0.44475000  1.0
  C  C38  1  0.45338000  0.16350000  0.55085000  1.0
  C  C39  1  0.45492000  0.08318000  0.54957000  1.0
  C  C40  1  0.54637000  0.16544000  0.44622000  1.0
  C  C41  1  0.54737000  0.08483000  0.44511000  1.0
  C  C42  1  0.54637000  0.83534000  0.55286000  1.0
  C  C43  1  0.54671000  0.91561000  0.55142000  1.0
  C  C44  1  0.44752000  0.54965000  0.16577000  1.0
  C  C45  1  0.44761000  0.55042000  0.08558000  1.0
  C  C46  1  0.54565000  0.55237000  0.83515000  1.0
  C  C47  1  0.54598000  0.55375000  0.91565000  1.0
  C  C48  1  0.45065000  0.44954000  0.83667000  1.0
  C  C49  1  0.45139000  0.45120000  0.91693000  1.0
  C  C50  1  0.55039000  0.45414000  0.16427000  1.0
  C  C51  1  0.54999000  0.45529000  0.08383000  1.0
  C  C52  1  0.29080000  0.49974000  0.50063000  1.0
  C  C53  1  0.20445000  0.49975000  0.49953000  1.0
  C  C54  1  0.04203000  0.50119000  0.49649000  1.0
  C  C55  1  0.70837000  0.49921000  0.50131000  1.0
  C  C56  1  0.79451000  0.50044000  0.49993000  1.0
  C  C57  1  0.95628000  0.50241000  0.49681000  1.0
  C  C58  1  0.49951000  0.70871000  0.50072000  1.0
  C  C59  1  0.50055000  0.79483000  0.49986000  1.0
  C  C60  1  0.50242000  0.95662000  0.49769000  1.0
  C  C61  1  0.49886000  0.29114000  0.49915000  1.0
  C  C62  1  0.49942000  0.20480000  0.49884000  1.0
  C  C63  1  0.50142000  0.04237000  0.49727000  1.0
  C  C64  1  0.49963000  0.50028000  0.29121000  1.0
  C  C65  1  0.49921000  0.50134000  0.20517000  1.0
  C  C66  1  0.49841000  0.50363000  0.04358000  1.0
  C  C67  1  0.49861000  0.49969000  0.70935000  1.0
  C  C68  1  0.49813000  0.50042000  0.79561000  1.0
  C  C69  1  0.49839000  0.50291000  0.95788000  1.0
  O  O70  1  0.49939000  0.49935000  0.50075000  1.0
  O  O71  1  0.32357000  0.45360000  0.54777000  1.0
  O  O72  1  0.04395000  0.59623000  0.39782000  1.0
  O  O73  1  0.67490000  0.54500000  0.54854000  1.0
  O  O74  1  0.95096000  0.41312000  0.38898000  1.0
  O  O75  1  0.67477000  0.45256000  0.45513000  1.0
  O  O76  1  0.32448000  0.54586000  0.45421000  1.0
  O  O77  1  0.54476000  0.67508000  0.54828000  1.0
  O  O78  1  0.41127000  0.95184000  0.39147000  1.0
  O  O79  1  0.54415000  0.32477000  0.45189000  1.0
  O  O80  1  0.45309000  0.32394000  0.54669000  1.0
  O  O81  1  0.59260000  0.04371000  0.39497000  1.0
  O  O82  1  0.45350000  0.67524000  0.45381000  1.0
  O  O83  1  0.54709000  0.45443000  0.32421000  1.0
  O  O84  1  0.45292000  0.45231000  0.67627000  1.0
  O  O85  1  0.59145000  0.60353000  0.95690000  1.0
  O  O86  1  0.54468000  0.54645000  0.67605000  1.0
  O  O87  1  0.45227000  0.54543000  0.32530000  1.0
  O  O88  1  0.60068000  0.40797000  0.04589000  1.0
