# generated using pymatgen
data_CuH14C17N2O7
_symmetry_space_group_name_H-M   'P 1'
_cell_length_a   8.53404000
_cell_length_b   10.08210000
_cell_length_c   10.58230000
_cell_angle_alpha   62.25230000
_cell_angle_beta   87.62480000
_cell_angle_gamma   76.94480000
_symmetry_Int_Tables_number   1
_chemical_formula_structural   CuH14C17N2O7
_chemical_formula_sum   'Cu2 H28 C34 N4 O14'
_cell_volume   782.83377166
_cell_formula_units_Z   2
loop_
 _symmetry_equiv_pos_site_id
 _symmetry_equiv_pos_as_xyz
  1  'x, y, z'
loop_
 _atom_site_type_symbol
 _atom_site_label
 _atom_site_symmetry_multiplicity
 _atom_site_fract_x
 _atom_site_fract_y
 _atom_site_fract_z
 _atom_site_occupancy
  Cu  Cu0  1  0.59967000  0.83415000  0.82331000  1.0
  Cu  Cu1  1  0.40034000  0.16586000  0.17668000  1.0
  H  H2  1  0.53378000  0.61684000  0.08090000  1.0
  H  H3  1  0.46622000  0.38317000  0.91909000  1.0
  H  H4  1  0.50305000  0.77895000  0.08557000  1.0
  H  H5  1  0.49695000  0.22106000  0.91443000  1.0
  H  H6  1  0.40206000  0.93520000  0.56305000  1.0
  H  H7  1  0.59795000  0.06480000  0.43695000  1.0
  H  H8  1  0.11914000  0.06076000  0.46804000  1.0
  H  H9  1  0.88086000  0.93923000  0.53196000  1.0
  H  H10  1  0.91922000  0.13143000  0.62259000  1.0
  H  H11  1  0.08078000  0.86857000  0.37740000  1.0
  H  H12  1  0.02168000  0.07584000  0.86573000  1.0
  H  H13  1  0.97831000  0.92417000  0.13427000  1.0
  H  H14  1  0.31127000  0.94837000  0.94637000  1.0
  H  H15  1  0.68873000  0.05163000  0.05363000  1.0
  H  H16  1  0.80098000  0.78392000  0.06282000  1.0
  H  H17  1  0.19902000  0.21608000  0.93718000  1.0
  H  H18  1  0.09291000  0.68042000  0.15086000  1.0
  H  H19  1  0.90709000  0.31958000  0.84914000  1.0
  H  H20  1  0.28827000  0.58934000  0.00613000  1.0
  H  H21  1  0.71173000  0.41066000  0.99387000  1.0
  H  H22  1  0.17896000  0.60197000  0.78345000  1.0
  H  H23  1  0.82104000  0.39804000  0.21654000  1.0
  H  H24  1  0.88406000  0.70683000  0.71208000  1.0
  H  H25  1  0.11594000  0.29317000  0.28792000  1.0
  H  H26  1  0.67473000  0.71814000  0.44639000  1.0
  H  H27  1  0.32526000  0.28186000  0.55361000  1.0
  H  H28  1  0.28919000  0.71672000  0.55244000  1.0
  H  H29  1  0.71081000  0.28327000  0.44756000  1.0
  C  C30  1  0.31430000  0.96696000  0.62747000  1.0
  C  C31  1  0.68570000  0.03305000  0.37253000  1.0
  C  C32  1  0.15457000  0.03801000  0.57501000  1.0
  C  C33  1  0.84543000  0.96199000  0.42498000  1.0
  C  C34  1  0.04562000  0.07808000  0.66014000  1.0
  C  C35  1  0.95438000  0.92192000  0.33986000  1.0
  C  C36  1  0.10188000  0.04649000  0.79522000  1.0
  C  C37  1  0.89811000  0.95351000  0.20478000  1.0
  C  C38  1  0.26322000  0.97430000  0.84165000  1.0
  C  C39  1  0.73677000  0.02570000  0.15835000  1.0
  C  C40  1  0.89044000  0.74620000  0.00297000  1.0
  C  C41  1  0.10956000  0.25380000  0.99702000  1.0
  C  C42  1  0.05270000  0.68819000  0.05070000  1.0
  C  C43  1  0.94731000  0.31182000  0.94930000  1.0
  C  C44  1  0.16062000  0.63710000  0.97114000  1.0
  C  C45  1  0.83938000  0.36291000  0.02886000  1.0
  C  C46  1  0.10103000  0.64494000  0.84672000  1.0
  C  C47  1  0.89897000  0.35506000  0.15327000  1.0
  C  C48  1  0.93711000  0.70325000  0.80572000  1.0
  C  C49  1  0.06289000  0.29676000  0.19429000  1.0
  C  C50  1  0.55771000  0.62244000  0.71612000  1.0
  C  C51  1  0.44229000  0.37756000  0.28389000  1.0
  C  C52  1  0.53901000  0.55921000  0.61138000  1.0
  C  C53  1  0.46099000  0.44079000  0.38862000  1.0
  C  C54  1  0.61632000  0.62534000  0.46462000  1.0
  C  C55  1  0.38368000  0.37465000  0.53539000  1.0
  C  C56  1  0.71956000  0.50335000  0.43424000  1.0
  C  C57  1  0.28042000  0.49664000  0.56577000  1.0
  C  C58  1  0.36287000  0.62443000  0.53382000  1.0
  C  C59  1  0.63713000  0.37556000  0.46619000  1.0
  C  C60  1  0.55972000  0.31855000  0.61337000  1.0
  C  C61  1  0.44028000  0.68144000  0.38664000  1.0
  C  C62  1  0.60025000  0.14488000  0.71702000  1.0
  C  C63  1  0.39975000  0.85511000  0.28299000  1.0
  N  N64  1  0.36731000  0.93362000  0.75944000  1.0
  N  N65  1  0.63270000  0.06638000  0.24056000  1.0
  N  N66  1  0.83381000  0.75370000  0.88219000  1.0
  N  N67  1  0.16619000  0.24631000  0.11781000  1.0
  O  O68  1  0.62005000  0.73822000  0.67064000  1.0
  O  O69  1  0.37994000  0.26177000  0.32936000  1.0
  O  O70  1  0.50244000  0.55857000  0.83663000  1.0
  O  O71  1  0.49757000  0.44142000  0.16338000  1.0
  O  O72  1  0.64204000  0.05597000  0.66076000  1.0
  O  O73  1  0.35795000  0.94404000  0.33923000  1.0
  O  O74  1  0.57972000  0.10220000  0.84769000  1.0
  O  O75  1  0.42028000  0.89779000  0.15231000  1.0
  O  O76  1  0.58434000  0.39596000  0.69073000  1.0
  O  O77  1  0.41566000  0.60403000  0.30927000  1.0
  O  O78  1  0.85135000  0.50997000  0.38333000  1.0
  O  O79  1  0.14867000  0.49002000  0.61666000  1.0
  O  O80  1  0.55915000  0.72095000  0.03499000  1.0
  O  O81  1  0.44085000  0.27905000  0.96501000  1.0
