# generated using pymatgen
data_Cd3H10C10BrN15
_symmetry_space_group_name_H-M   'P 1'
_cell_length_a   7.94191000
_cell_length_b   10.79540000
_cell_length_c   14.24042126
_cell_angle_alpha   112.26063385
_cell_angle_beta   90.00010002
_cell_angle_gamma   90.00000000
_symmetry_Int_Tables_number   1
_chemical_formula_structural   Cd3H10C10BrN15
_chemical_formula_sum   'Cd6 H20 C20 Br2 N30'
_cell_volume   1129.92334550
_cell_formula_units_Z   2
loop_
 _symmetry_equiv_pos_site_id
 _symmetry_equiv_pos_as_xyz
  1  'x, y, z'
loop_
 _atom_site_type_symbol
 _atom_site_label
 _atom_site_symmetry_multiplicity
 _atom_site_fract_x
 _atom_site_fract_y
 _atom_site_fract_z
 _atom_site_occupancy
  Cd  Cd0  1  0.97288000  0.98921000  0.97845000  1.0
  Cd  Cd1  1  0.54952000  0.76054000  0.52100000  1.0
  Cd  Cd2  1  0.47288000  0.01078000  0.02154000  1.0
  Cd  Cd3  1  0.04952000  0.23946000  0.47900000  1.0
  Cd  Cd4  1  0.22909000  0.37284000  0.74572000  1.0
  Cd  Cd5  1  0.72909000  0.62716000  0.25428000  1.0
  H  H6  1  0.99219000  0.63889000  0.82823000  1.0
  H  H7  1  0.49177000  0.64961000  0.92807000  1.0
  H  H8  1  0.45631000  0.07186000  0.71023000  1.0
  H  H9  1  0.25087000  0.91936000  0.41719000  1.0
  H  H10  1  0.49219000  0.36111000  0.17177000  1.0
  H  H11  1  0.99177000  0.35039000  0.07193000  1.0
  H  H12  1  0.95631000  0.92814000  0.28977000  1.0
  H  H13  1  0.75087000  0.08064000  0.58281000  1.0
  H  H14  1  0.49194000  0.81061000  0.17167000  1.0
  H  H15  1  0.99167000  0.72164000  0.07210000  1.0
  H  H16  1  0.95594000  0.36162000  0.28988000  1.0
  H  H17  1  0.75103000  0.50257000  0.58310000  1.0
  H  H18  1  0.99193000  0.18939000  0.82833000  1.0
  H  H19  1  0.49167000  0.27836000  0.92790000  1.0
  H  H20  1  0.45594000  0.63838000  0.71012000  1.0
  H  H21  1  0.25103000  0.49743000  0.41690000  1.0
  H  H22  1  0.40206000  0.88339000  0.76696000  1.0
  H  H23  1  0.91754000  0.84843000  0.69704000  1.0
  H  H24  1  0.90207000  0.11661000  0.23304000  1.0
  H  H25  1  0.41755000  0.15158000  0.30296000  1.0
  C  C26  1  0.11337000  0.67416000  0.86390000  1.0
  C  C27  1  0.36628000  0.67899000  0.91423000  1.0
  C  C28  1  0.38970000  0.06289000  0.64153000  1.0
  C  C29  1  0.28508000  0.98641000  0.49335000  1.0
  C  C30  1  0.61337000  0.32583000  0.13610000  1.0
  C  C31  1  0.86629000  0.32101000  0.08577000  1.0
  C  C32  1  0.88970000  0.93710000  0.35846000  1.0
  C  C33  1  0.78508000  0.01359000  0.50665000  1.0
  C  C34  1  0.61313000  0.81024000  0.13603000  1.0
  C  C35  1  0.86619000  0.76486000  0.08590000  1.0
  C  C36  1  0.88939000  0.42138000  0.35860000  1.0
  C  C37  1  0.78516000  0.49337000  0.50689000  1.0
  C  C38  1  0.11312000  0.18976000  0.86397000  1.0
  C  C39  1  0.36619000  0.23514000  0.91410000  1.0
  C  C40  1  0.38938000  0.57862000  0.64140000  1.0
  C  C41  1  0.28515000  0.50663000  0.49311000  1.0
  C  C42  1  0.53837000  0.88651000  0.77319000  1.0
  C  C43  1  0.79878000  0.86885000  0.73795000  1.0
  C  C44  1  0.03837000  0.11349000  0.22681000  1.0
  C  C45  1  0.29879000  0.13115000  0.26205000  1.0
  Br  Br46  1  0.90140000  0.34692000  0.69438000  1.0
  Br  Br47  1  0.40140000  0.65308000  0.30562000  1.0
  N  N48  1  0.15141000  0.80252000  0.91460000  1.0
  N  N49  1  0.31435000  0.80602000  0.94733000  1.0
  N  N50  1  0.24421000  0.59246000  0.86179000  1.0
  N  N51  1  0.30942000  0.16444000  0.62989000  1.0
  N  N52  1  0.24161000  0.11524000  0.53442000  1.0
  N  N53  1  0.37807000  0.94885000  0.55788000  1.0
  N  N54  1  0.65141000  0.19748000  0.08540000  1.0
  N  N55  1  0.81435000  0.19398000  0.05267000  1.0
  N  N56  1  0.74421000  0.40754000  0.13821000  1.0
  N  N57  1  0.80942000  0.83556000  0.37011000  1.0
  N  N58  1  0.74162000  0.88476000  0.46558000  1.0
  N  N59  1  0.87808000  0.05116000  0.44212000  1.0
  N  N60  1  0.65134000  0.88797000  0.08539000  1.0
  N  N61  1  0.81434000  0.85881000  0.05277000  1.0
  N  N62  1  0.74398000  0.73070000  0.13823000  1.0
  N  N63  1  0.80916000  0.53457000  0.37017000  1.0
  N  N64  1  0.74162000  0.58103000  0.46572000  1.0
  N  N65  1  0.87793000  0.39116000  0.44235000  1.0
  N  N66  1  0.15134000  0.11203000  0.91461000  1.0
  N  N67  1  0.31434000  0.14118000  0.94722000  1.0
  N  N68  1  0.24398000  0.26931000  0.86177000  1.0
  N  N69  1  0.30916000  0.46542000  0.62983000  1.0
  N  N70  1  0.24162000  0.41897000  0.53428000  1.0
  N  N71  1  0.37793000  0.60884000  0.55765000  1.0
  N  N72  1  0.64527000  0.84635000  0.69295000  1.0
  N  N73  1  0.61895000  0.93085000  0.86178000  1.0
  N  N74  1  0.78737000  0.91958000  0.83925000  1.0
  N  N75  1  0.14528000  0.15365000  0.30705000  1.0
  N  N76  1  0.11895000  0.06915000  0.13822000  1.0
  N  N77  1  0.28738000  0.08042000  0.16075000  1.0
