# generated using pymatgen
data_Gd2CuH26C22(NO11)2
_symmetry_space_group_name_H-M   'P 1'
_cell_length_a   6.05970000
_cell_length_b   8.95665000
_cell_length_c   13.54120000
_cell_angle_alpha   85.36710000
_cell_angle_beta   85.82090000
_cell_angle_gamma   87.86120000
_symmetry_Int_Tables_number   1
_chemical_formula_structural   Gd2CuH26C22(NO11)2
_chemical_formula_sum   'Gd2 Cu1 H26 C22 N2 O22'
_cell_volume   730.22897479
_cell_formula_units_Z   1
loop_
 _symmetry_equiv_pos_site_id
 _symmetry_equiv_pos_as_xyz
  1  'x, y, z'
loop_
 _atom_site_type_symbol
 _atom_site_label
 _atom_site_symmetry_multiplicity
 _atom_site_fract_x
 _atom_site_fract_y
 _atom_site_fract_z
 _atom_site_occupancy
  Gd  Gd0  1  0.10807000  0.34468000  0.39311000  1.0
  Gd  Gd1  1  0.89193000  0.65532000  0.60689000  1.0
  Cu  Cu2  1  0.50000000  0.00000000  0.00000000  1.0
  H  H3  1  0.58984000  0.19703000  0.34802000  1.0
  H  H4  1  0.41016000  0.80297000  0.65198000  1.0
  H  H5  1  0.44793000  0.22519000  0.24854000  1.0
  H  H6  1  0.55208000  0.77481000  0.75146000  1.0
  H  H7  1  0.90207000  0.09018000  0.31115000  1.0
  H  H8  1  0.09793000  0.90982000  0.68885000  1.0
  H  H9  1  0.84123000  0.03787000  0.42408000  1.0
  H  H10  1  0.15877000  0.96212000  0.57592000  1.0
  H  H11  1  0.65396000  0.41446000  0.32074000  1.0
  H  H12  1  0.34604000  0.58554000  0.67926000  1.0
  H  H13  1  0.69370000  0.53004000  0.39894000  1.0
  H  H14  1  0.30630000  0.46996000  0.60106000  1.0
  H  H15  1  0.22254000  0.41129000  0.97239000  1.0
  H  H16  1  0.77747000  0.58870000  0.02761000  1.0
  H  H17  1  0.97668000  0.42065000  0.83038000  1.0
  H  H18  1  0.02334000  0.57934000  0.16962000  1.0
  H  H19  1  0.65275000  0.25140000  0.84406000  1.0
  H  H20  1  0.34726000  0.74861000  0.15594000  1.0
  H  H21  1  0.42438000  0.04497000  0.67185000  1.0
  H  H22  1  0.57562000  0.95503000  0.32816000  1.0
  H  H23  1  0.38615000  0.22878000  0.70785000  1.0
  H  H24  1  0.61386000  0.77122000  0.29215000  1.0
  H  H25  1  0.78898000  0.11668000  0.57889000  1.0
  H  H26  1  0.21102000  0.88332000  0.42111000  1.0
  H  H27  1  0.78065000  0.13131000  0.70819000  1.0
  H  H28  1  0.21935000  0.86869000  0.29181000  1.0
  C  C29  1  0.86140000  0.14331000  0.05776000  1.0
  C  C30  1  0.13859000  0.85670000  0.94224000  1.0
  C  C31  1  0.03333000  0.24213000  0.06013000  1.0
  C  C32  1  0.96667000  0.75788000  0.93987000  1.0
  C  C33  1  0.08085000  0.33920000  0.97541000  1.0
  C  C34  1  0.91915000  0.66080000  0.02459000  1.0
  C  C35  1  0.94616000  0.34410000  0.89623000  1.0
  C  C36  1  0.05384000  0.65589000  0.10377000  1.0
  C  C37  1  0.76757000  0.24909000  0.90234000  1.0
  C  C38  1  0.23243000  0.75092000  0.09766000  1.0
  C  C39  1  0.81328000  0.01643000  0.13542000  1.0
  C  C40  1  0.18671000  0.98358000  0.86459000  1.0
  C  C41  1  0.16568000  0.24802000  0.14974000  1.0
  C  C42  1  0.83431000  0.75198000  0.85026000  1.0
  C  C43  1  0.35172000  0.21159000  0.55501000  1.0
  C  C44  1  0.64828000  0.78841000  0.44499000  1.0
  C  C45  1  0.46100000  0.16141000  0.64896000  1.0
  C  C46  1  0.53900000  0.83859000  0.35104000  1.0
  C  C47  1  0.71219000  0.17946000  0.63913000  1.0
  C  C48  1  0.28781000  0.82054000  0.36087000  1.0
  C  C49  1  0.77827000  0.34051000  0.62377000  1.0
  C  C50  1  0.22174000  0.65949000  0.37623000  1.0
  N  N51  1  0.73258000  0.14871000  0.98016000  1.0
  N  N52  1  0.26741000  0.85131000  0.01984000  1.0
  O  O53  1  0.65998000  0.92886000  0.11713000  1.0
  O  O54  1  0.34001000  0.07114000  0.88287000  1.0
  O  O55  1  0.46173000  0.25233000  0.31950000  1.0
  O  O56  1  0.53827000  0.74766000  0.68050000  1.0
  O  O57  1  0.92584000  0.99791000  0.20984000  1.0
  O  O58  1  0.07415000  0.00209000  0.79016000  1.0
  O  O59  1  0.86659000  0.13044000  0.37775000  1.0
  O  O60  1  0.13341000  0.86956000  0.62226000  1.0
  O  O61  1  0.77094000  0.47048000  0.34698000  1.0
  O  O62  1  0.22906000  0.52952000  0.65302000  1.0
  O  O63  1  0.36506000  0.20121000  0.14270000  1.0
  O  O64  1  0.63495000  0.79880000  0.85730000  1.0
  O  O65  1  0.06675000  0.30840000  0.22347000  1.0
  O  O66  1  0.93326000  0.69160000  0.77652000  1.0
  O  O67  1  0.22610000  0.12624000  0.51427000  1.0
  O  O68  1  0.77390000  0.87375000  0.48573000  1.0
  O  O69  1  0.38224000  0.34531000  0.51615000  1.0
  O  O70  1  0.61776000  0.65469000  0.48385000  1.0
  O  O71  1  0.90509000  0.38478000  0.54778000  1.0
  O  O72  1  0.09492000  0.61522000  0.45222000  1.0
  O  O73  1  0.71357000  0.43326000  0.68687000  1.0
  O  O74  1  0.28644000  0.56674000  0.31313000  1.0
