# generated using pymatgen
data_ZnH25C22N3O4
_symmetry_space_group_name_H-M   'P 1'
_cell_length_a   8.03842000
_cell_length_b   9.68670000
_cell_length_c   14.67550000
_cell_angle_alpha   88.05040000
_cell_angle_beta   88.17070000
_cell_angle_gamma   74.53350000
_symmetry_Int_Tables_number   1
_chemical_formula_structural   ZnH25C22N3O4
_chemical_formula_sum   'Zn2 H50 C44 N6 O8'
_cell_volume   1100.38993610
_cell_formula_units_Z   2
loop_
 _symmetry_equiv_pos_site_id
 _symmetry_equiv_pos_as_xyz
  1  'x, y, z'
loop_
 _atom_site_type_symbol
 _atom_site_label
 _atom_site_symmetry_multiplicity
 _atom_site_fract_x
 _atom_site_fract_y
 _atom_site_fract_z
 _atom_site_occupancy
  Zn  Zn0  1  0.22594000  0.62761000  0.17093000  1.0
  Zn  Zn1  1  0.77406000  0.37239000  0.82907000  1.0
  H  H2  1  0.45493000  0.36626000  0.05844000  1.0
  H  H3  1  0.54507000  0.63374000  0.94156000  1.0
  H  H4  1  0.22457000  0.61576000  0.81600000  1.0
  H  H5  1  0.77543000  0.38424000  0.18400000  1.0
  H  H6  1  0.08197000  0.50591000  0.81827000  1.0
  H  H7  1  0.91804000  0.49409000  0.18173000  1.0
  H  H8  1  0.78251000  0.04478000  0.14705000  1.0
  H  H9  1  0.21749000  0.95522000  0.85296000  1.0
  H  H10  1  0.67007000  0.12249000  0.04701000  1.0
  H  H11  1  0.32993000  0.87751000  0.95299000  1.0
  H  H12  1  0.60110000  0.61855000  0.11835000  1.0
  H  H13  1  0.39890000  0.38145000  0.88165000  1.0
  H  H14  1  0.30437000  0.12887000  0.14935000  1.0
  H  H15  1  0.69563000  0.87113000  0.85065000  1.0
  H  H16  1  0.77733000  0.79491000  0.10437000  1.0
  H  H17  1  0.22268000  0.20508000  0.89563000  1.0
  H  H18  1  0.04577000  0.54442000  0.64115000  1.0
  H  H19  1  0.95423000  0.45558000  0.35885000  1.0
  H  H20  1  0.19824000  0.64662000  0.64263000  1.0
  H  H21  1  0.80176000  0.35338000  0.35737000  1.0
  H  H22  1  0.70829000  0.02672000  0.31708000  1.0
  H  H23  1  0.29171000  0.97328000  0.68292000  1.0
  H  H24  1  0.14930000  0.93707000  0.16701000  1.0
  H  H25  1  0.85070000  0.06293000  0.83299000  1.0
  H  H26  1  0.99103000  0.79524000  0.91235000  1.0
  H  H27  1  0.00897000  0.20476000  0.08765000  1.0
  H  H28  1  0.88758000  0.65776000  0.92907000  1.0
  H  H29  1  0.11242000  0.34224000  0.07093000  1.0
  H  H30  1  0.99781000  0.81913000  0.74808000  1.0
  H  H31  1  0.00219000  0.18087000  0.25192000  1.0
  H  H32  1  0.85288000  0.71031000  0.74847000  1.0
  H  H33  1  0.14712000  0.28969000  0.25153000  1.0
  H  H34  1  0.32230000  0.51968000  0.38136000  1.0
  H  H35  1  0.67770000  0.48032000  0.61864000  1.0
  H  H36  1  0.44887000  0.35002000  0.50930000  1.0
  H  H37  1  0.55113000  0.64998000  0.49070000  1.0
  H  H38  1  0.03538000  0.59972000  0.46506000  1.0
  H  H39  1  0.96462000  0.40028000  0.53494000  1.0
  H  H40  1  0.17121000  0.71423000  0.47276000  1.0
  H  H41  1  0.82879000  0.28577000  0.52724000  1.0
  H  H42  1  0.79789000  0.80137000  0.40582000  1.0
  H  H43  1  0.20211000  0.19863000  0.59418000  1.0
  H  H44  1  0.92154000  0.92325000  0.42000000  1.0
  H  H45  1  0.07846000  0.07675000  0.58000000  1.0
  H  H46  1  0.63369000  0.10628000  0.47829000  1.0
  H  H47  1  0.36631000  0.89372000  0.52171000  1.0
  H  H48  1  0.82588000  0.75493000  0.57767000  1.0
  H  H49  1  0.17412000  0.24508000  0.42234000  1.0
  H  H50  1  0.96954000  0.86322000  0.58547000  1.0
  H  H51  1  0.03046000  0.13678000  0.41453000  1.0
  C  C52  1  0.55298000  0.22890000  0.26250000  1.0
  C  C53  1  0.44701000  0.77111000  0.73750000  1.0
  C  C54  1  0.46841000  0.34293000  0.13111000  1.0
  C  C55  1  0.53159000  0.65707000  0.86889000  1.0
  C  C56  1  0.55393000  0.97805000  0.12510000  1.0
  C  C57  1  0.44607000  0.02195000  0.87490000  1.0
  C  C58  1  0.12823000  0.62380000  0.99505000  1.0
  C  C59  1  0.87177000  0.37620000  0.00495000  1.0
  C  C60  1  0.00014000  0.78803000  0.30672000  1.0
  C  C61  1  0.99986000  0.21197000  0.69328000  1.0
  C  C62  1  0.08732000  0.61795000  0.82183000  1.0
  C  C63  1  0.91268000  0.38205000  0.17817000  1.0
  C  C64  1  0.65392000  0.09015000  0.11864000  1.0
  C  C65  1  0.34608000  0.90985000  0.88136000  1.0
  C  C66  1  0.54081000  0.73297000  0.12566000  1.0
  C  C67  1  0.45919000  0.26703000  0.87433000  1.0
  C  C68  1  0.37553000  0.01730000  0.14154000  1.0
  C  C69  1  0.62447000  0.98270000  0.85846000  1.0
  C  C70  1  0.63774000  0.83251000  0.11613000  1.0
  C  C71  1  0.36226000  0.16749000  0.88387000  1.0
  C  C72  1  0.05923000  0.65377000  0.64881000  1.0
  C  C73  1  0.94077000  0.34623000  0.35119000  1.0
  C  C74  1  0.44519000  0.36737000  0.27908000  1.0
  C  C75  1  0.55481000  0.63263000  0.72091000  1.0
  C  C76  1  0.62283000  0.13157000  0.33243000  1.0
  C  C77  1  0.37717000  0.86843000  0.66757000  1.0
  C  C78  1  0.28766000  0.91219000  0.15093000  1.0
  C  C79  1  0.71235000  0.08781000  0.84907000  1.0
  C  C80  1  0.01440000  0.67741000  0.91378000  1.0
  C  C81  1  0.98560000  0.32259000  0.08622000  1.0
  C  C82  1  0.99096000  0.70722000  0.74284000  1.0
  C  C83  1  0.00904000  0.29278000  0.25716000  1.0
  C  C84  1  0.40699000  0.41376000  0.36854000  1.0
  C  C85  1  0.59301000  0.58625000  0.63146000  1.0
  C  C86  1  0.47691000  0.31723000  0.43878000  1.0
  C  C87  1  0.52309000  0.68277000  0.56122000  1.0
  C  C88  1  0.03520000  0.71118000  0.47760000  1.0
  C  C89  1  0.96480000  0.28882000  0.52240000  1.0
  C  C90  1  0.93199000  0.81060000  0.40467000  1.0
  C  C91  1  0.06801000  0.18940000  0.59533000  1.0
  C  C92  1  0.58202000  0.17847000  0.42117000  1.0
  C  C93  1  0.41797000  0.82153000  0.57883000  1.0
  C  C94  1  0.96373000  0.75269000  0.57322000  1.0
  C  C95  1  0.03627000  0.24731000  0.42678000  1.0
  N  N96  1  0.36915000  0.77186000  0.14387000  1.0
  N  N97  1  0.63085000  0.22813000  0.85613000  1.0
  N  N98  1  0.56637000  0.21815000  0.16786000  1.0
  N  N99  1  0.43362000  0.78185000  0.83214000  1.0
  N  N100  1  0.39375000  0.43517000  0.19500000  1.0
  N  N101  1  0.60625000  0.56483000  0.80500000  1.0
  O  O102  1  0.11857000  0.66973000  0.29285000  1.0
  O  O103  1  0.88143000  0.33027000  0.70716000  1.0
  O  O104  1  0.94093000  0.88134000  0.24633000  1.0
  O  O105  1  0.05907000  0.11866000  0.75367000  1.0
  O  O106  1  0.05412000  0.65950000  0.07410000  1.0
  O  O107  1  0.94588000  0.34050000  0.92590000  1.0
  O  O108  1  0.28345000  0.55559000  0.98517000  1.0
  O  O109  1  0.71656000  0.44441000  0.01483000  1.0
