# generated using pymatgen
data_Mn2H18C26N4O13
_symmetry_space_group_name_H-M   'P 1'
_cell_length_a   10.49050000
_cell_length_b   11.66100000
_cell_length_c   14.31720000
_cell_angle_alpha   105.11500000
_cell_angle_beta   104.03900000
_cell_angle_gamma   100.34200000
_symmetry_Int_Tables_number   1
_chemical_formula_structural   Mn2H18C26N4O13
_chemical_formula_sum   'Mn4 H36 C52 N8 O26'
_cell_volume   1584.25443990
_cell_formula_units_Z   2
loop_
 _symmetry_equiv_pos_site_id
 _symmetry_equiv_pos_as_xyz
  1  'x, y, z'
loop_
 _atom_site_type_symbol
 _atom_site_label
 _atom_site_symmetry_multiplicity
 _atom_site_fract_x
 _atom_site_fract_y
 _atom_site_fract_z
 _atom_site_occupancy
  Mn  Mn0  1  0.00904000  0.78427000  0.78850000  1.0
  Mn  Mn1  1  0.99096000  0.21572000  0.21151000  1.0
  Mn  Mn2  1  0.70852000  0.52503000  0.72415000  1.0
  Mn  Mn3  1  0.29148000  0.47496000  0.27585000  1.0
  H  H4  1  0.93605000  0.53046000  0.68035000  1.0
  H  H5  1  0.06395000  0.46954000  0.31965000  1.0
  H  H6  1  0.99111000  0.56838000  0.81072000  1.0
  H  H7  1  0.00889000  0.43162000  0.18928000  1.0
  H  H8  1  0.02205000  0.98737000  0.69139000  1.0
  H  H9  1  0.97795000  0.01264000  0.30861000  1.0
  H  H10  1  0.15757000  0.34370000  0.92489000  1.0
  H  H11  1  0.84243000  0.65630000  0.07511000  1.0
  H  H12  1  0.12914000  0.00318000  0.99414000  1.0
  H  H13  1  0.87086000  0.99682000  0.00586000  1.0
  H  H14  1  0.02690000  0.37963000  0.80188000  1.0
  H  H15  1  0.97310000  0.62037000  0.19812000  1.0
  H  H16  1  0.00302000  0.35322000  0.66775000  1.0
  H  H17  1  0.99698000  0.64678000  0.33225000  1.0
  H  H18  1  0.09507000  0.30588000  0.55468000  1.0
  H  H19  1  0.90493000  0.69412000  0.44532000  1.0
  H  H20  1  0.49083000  0.41822000  0.52208000  1.0
  H  H21  1  0.50917000  0.58178000  0.47791000  1.0
  H  H22  1  0.63146000  0.22442000  0.64196000  1.0
  H  H23  1  0.36854000  0.77558000  0.35804000  1.0
  H  H24  1  0.74686000  0.94476000  0.78688000  1.0
  H  H25  1  0.25314000  0.05524000  0.21312000  1.0
  H  H26  1  0.63636000  0.84624000  0.66571000  1.0
  H  H27  1  0.36364000  0.15376000  0.33429000  1.0
  H  H28  1  0.34187000  0.89698000  0.84933000  1.0
  H  H29  1  0.65813000  0.10302000  0.15067000  1.0
  H  H30  1  0.05042000  0.64472000  0.59033000  1.0
  H  H31  1  0.94958000  0.35528000  0.40967000  1.0
  H  H32  1  0.45750000  0.75195000  0.57994000  1.0
  H  H33  1  0.54249000  0.24805000  0.42006000  1.0
  H  H34  1  0.74553000  0.09421000  0.90010000  1.0
  H  H35  1  0.25447000  0.90579000  0.09990000  1.0
  H  H36  1  0.82437000  0.47776000  0.92968000  1.0
  H  H37  1  0.17563000  0.52224000  0.07031000  1.0
  H  H38  1  0.45529000  0.49588000  0.81302000  1.0
  H  H39  1  0.54471000  0.50412000  0.18698000  1.0
  C  C40  1  0.05945000  0.04432000  0.77114000  1.0
  C  C41  1  0.94056000  0.95568000  0.22886000  1.0
  C  C42  1  0.08290000  0.17212000  0.79756000  1.0
  C  C43  1  0.91710000  0.82787000  0.20244000  1.0
  C  C44  1  0.13327000  0.24358000  0.90031000  1.0
  C  C45  1  0.86673000  0.75643000  0.09969000  1.0
  C  C46  1  0.14917000  0.18245000  0.97301000  1.0
  C  C47  1  0.85083000  0.81755000  0.02699000  1.0
  C  C48  1  0.11981000  0.05405000  0.94011000  1.0
  C  C49  1  0.88019000  0.94595000  0.05989000  1.0
  C  C50  1  0.18854000  0.25006000  0.08546000  1.0
  C  C51  1  0.81146000  0.74995000  0.91454000  1.0
  C  C52  1  0.06295000  0.34249000  0.73754000  1.0
  C  C53  1  0.93705000  0.65751000  0.26246000  1.0
  C  C54  1  0.26506000  0.40257000  0.69342000  1.0
  C  C55  1  0.73494000  0.59743000  0.30658000  1.0
  C  C56  1  0.20345000  0.34983000  0.58838000  1.0
  C  C57  1  0.79655000  0.65018000  0.41162000  1.0
  C  C58  1  0.28519000  0.35741000  0.52496000  1.0
  C  C59  1  0.71481000  0.64260000  0.47504000  1.0
  C  C60  1  0.22971000  0.31133000  0.41038000  1.0
  C  C61  1  0.77029000  0.68867000  0.58962000  1.0
  C  C62  1  0.42426000  0.41301000  0.56903000  1.0
  C  C63  1  0.57574000  0.58699000  0.43097000  1.0
  C  C64  1  0.67574000  0.24024000  0.72290000  1.0
  C  C65  1  0.32426000  0.75976000  0.27710000  1.0
  C  C66  1  0.68304000  0.14108000  0.76057000  1.0
  C  C67  1  0.31696000  0.85892000  0.23943000  1.0
  C  C68  1  0.64763000  0.92566000  0.73048000  1.0
  C  C69  1  0.35237000  0.07434000  0.26952000  1.0
  C  C70  1  0.41997000  0.83413000  0.72330000  1.0
  C  C71  1  0.58002000  0.16587000  0.27670000  1.0
  C  C72  1  0.31775000  0.83848000  0.77090000  1.0
  C  C73  1  0.68225000  0.16152000  0.22910000  1.0
  C  C74  1  0.15528000  0.69870000  0.62698000  1.0
  C  C75  1  0.84472000  0.30130000  0.37302000  1.0
  C  C76  1  0.25053000  0.69072000  0.57417000  1.0
  C  C77  1  0.74947000  0.30928000  0.42583000  1.0
  C  C78  1  0.38489000  0.75963000  0.62257000  1.0
  C  C79  1  0.61511000  0.24037000  0.37743000  1.0
  C  C80  1  0.20751000  0.60992000  0.46573000  1.0
  C  C81  1  0.79248000  0.39008000  0.53427000  1.0
  C  C82  1  0.74018000  0.16580000  0.86464000  1.0
  C  C83  1  0.25982000  0.83420000  0.13536000  1.0
  C  C84  1  0.79363000  0.28795000  0.92641000  1.0
  C  C85  1  0.20638000  0.71205000  0.07359000  1.0
  C  C86  1  0.86549000  0.31675000  0.03722000  1.0
  C  C87  1  0.13451000  0.68325000  0.96278000  1.0
  C  C88  1  0.78361000  0.38164000  0.88339000  1.0
  C  C89  1  0.21639000  0.61836000  0.11661000  1.0
  C  C90  1  0.40564000  0.45592000  0.73126000  1.0
  C  C91  1  0.59436000  0.54408000  0.26874000  1.0
  N  N92  1  0.07848000  0.98709000  0.84118000  1.0
  N  N93  1  0.92152000  0.01291000  0.15882000  1.0
  N  N94  1  0.48356000  0.45978000  0.67006000  1.0
  N  N95  1  0.51644000  0.54022000  0.32994000  1.0
  N  N96  1  0.18821000  0.77235000  0.72337000  1.0
  N  N97  1  0.81178000  0.22765000  0.27663000  1.0
  N  N98  1  0.72405000  0.35794000  0.78350000  1.0
  N  N99  1  0.27595000  0.64206000  0.21650000  1.0
  O  O100  1  0.05034000  0.21448000  0.71654000  1.0
  O  O101  1  0.94966000  0.78552000  0.28346000  1.0
  O  O102  1  0.20096000  0.40956000  0.76673000  1.0
  O  O103  1  0.79904000  0.59044000  0.23327000  1.0
  O  O104  1  0.25680000  0.36238000  0.11904000  1.0
  O  O105  1  0.74320000  0.63762000  0.88096000  1.0
  O  O106  1  0.14637000  0.18889000  0.13869000  1.0
  O  O107  1  0.85364000  0.81111000  0.86131000  1.0
  O  O108  1  0.54931000  0.90318000  0.78137000  1.0
  O  O109  1  0.45069000  0.09682000  0.21863000  1.0
  O  O110  1  0.29743000  0.60897000  0.42006000  1.0
  O  O111  1  0.70257000  0.39103000  0.57994000  1.0
  O  O112  1  0.08331000  0.54888000  0.42674000  1.0
  O  O113  1  0.91669000  0.45112000  0.57326000  1.0
  O  O114  1  0.30834000  0.34916000  0.36321000  1.0
  O  O115  1  0.69166000  0.65084000  0.63678000  1.0
  O  O116  1  0.11048000  0.23942000  0.36872000  1.0
  O  O117  1  0.88951000  0.76059000  0.63128000  1.0
  O  O118  1  0.93011000  0.58356000  0.74857000  1.0
  O  O119  1  0.06989000  0.41644000  0.25143000  1.0
  O  O120  1  0.92414000  0.42878000  0.08810000  1.0
  O  O121  1  0.07586000  0.57123000  0.91190000  1.0
  O  O122  1  0.86547000  0.22577000  0.07112000  1.0
  O  O123  1  0.13453000  0.77423000  0.92888000  1.0
  O  O124  1  0.63449000  0.02493000  0.69126000  1.0
  O  O125  1  0.36552000  0.97507000  0.30874000  1.0
