# generated using pymatgen
data_ErH5(C3O2)3
_symmetry_space_group_name_H-M   'P 1'
_cell_length_a   6.57249000
_cell_length_b   10.64210000
_cell_length_c   12.79930000
_cell_angle_alpha   89.99990000
_cell_angle_beta   89.99970000
_cell_angle_gamma   95.17730000
_symmetry_Int_Tables_number   1
_chemical_formula_structural   ErH5(C3O2)3
_chemical_formula_sum   'Er4 H20 C36 O24'
_cell_volume   891.59585636
_cell_formula_units_Z   4
loop_
 _symmetry_equiv_pos_site_id
 _symmetry_equiv_pos_as_xyz
  1  'x, y, z'
loop_
 _atom_site_type_symbol
 _atom_site_label
 _atom_site_symmetry_multiplicity
 _atom_site_fract_x
 _atom_site_fract_y
 _atom_site_fract_z
 _atom_site_occupancy
  Er  Er0  1  0.39956000  0.57387000  0.12687000  1.0
  Er  Er1  1  0.10044000  0.42613000  0.62687000  1.0
  Er  Er2  1  0.60044000  0.42613000  0.87313000  1.0
  Er  Er3  1  0.89956000  0.57387000  0.37313000  1.0
  H  H4  1  0.98211000  0.97223000  0.27948000  1.0
  H  H5  1  0.51789000  0.02777000  0.77948000  1.0
  H  H6  1  0.01789000  0.02776000  0.72052000  1.0
  H  H7  1  0.48211000  0.97224000  0.22052000  1.0
  H  H8  1  0.93092000  0.41683000  0.13340000  1.0
  H  H9  1  0.56907000  0.58317000  0.63340000  1.0
  H  H10  1  0.06908000  0.58317000  0.86661000  1.0
  H  H11  1  0.43093000  0.41683000  0.36661000  1.0
  H  H12  1  0.08778000  0.19614000  0.22847000  1.0
  H  H13  1  0.41221000  0.80385000  0.72847000  1.0
  H  H14  1  0.91221000  0.80385000  0.77153000  1.0
  H  H15  1  0.58779000  0.19615000  0.27153000  1.0
  H  H16  1  0.34632000  0.06610000  0.94454000  1.0
  H  H17  1  0.15369000  0.93390000  0.44455000  1.0
  H  H18  1  0.65368000  0.93389000  0.05546000  1.0
  H  H19  1  0.84632000  0.06610000  0.55546000  1.0
  H  H20  1  0.24530000  0.84213000  0.99674000  1.0
  H  H21  1  0.25471000  0.15788000  0.49674000  1.0
  H  H22  1  0.75470000  0.15787000  0.00326000  1.0
  H  H23  1  0.74530000  0.84213000  0.50326000  1.0
  C  C24  1  0.29863000  0.27549000  0.05170000  1.0
  C  C25  1  0.20137000  0.72450000  0.55170000  1.0
  C  C26  1  0.70137000  0.72450000  0.94830000  1.0
  C  C27  1  0.79864000  0.27550000  0.44830000  1.0
  C  C28  1  0.78349000  0.45878000  0.13145000  1.0
  C  C29  1  0.71651000  0.54122000  0.63143000  1.0
  C  C30  1  0.21651000  0.54121000  0.86855000  1.0
  C  C31  1  0.28349000  0.45878000  0.36857000  1.0
  C  C32  1  0.10761000  0.89403000  0.14119000  1.0
  C  C33  1  0.39239000  0.10597000  0.64119000  1.0
  C  C34  1  0.89238000  0.10597000  0.85881000  1.0
  C  C35  1  0.60761000  0.89403000  0.35881000  1.0
  C  C36  1  0.06154000  0.99383000  0.20616000  1.0
  C  C37  1  0.43846000  0.00617000  0.70616000  1.0
  C  C38  1  0.93846000  0.00617000  0.79384000  1.0
  C  C39  1  0.56154000  0.99383000  0.29384000  1.0
  C  C40  1  0.12076000  0.11813000  0.17786000  1.0
  C  C41  1  0.37924000  0.88187000  0.67786000  1.0
  C  C42  1  0.87924000  0.88187000  0.82214000  1.0
  C  C43  1  0.62077000  0.11813000  0.32214000  1.0
  C  C44  1  0.22548000  0.14383000  0.08366000  1.0
  C  C45  1  0.27453000  0.85617000  0.58366000  1.0
  C  C46  1  0.77453000  0.85617000  0.91634000  1.0
  C  C47  1  0.72548000  0.14383000  0.41634000  1.0
  C  C48  1  0.26743000  0.04399000  0.01783000  1.0
  C  C49  1  0.23257000  0.95601000  0.51783000  1.0
  C  C50  1  0.73257000  0.95601000  0.98217000  1.0
  C  C51  1  0.76743000  0.04399000  0.48217000  1.0
  C  C52  1  0.05889000  0.76009000  0.17451000  1.0
  C  C53  1  0.44109000  0.23991000  0.67450000  1.0
  C  C54  1  0.94111000  0.23990000  0.82549000  1.0
  C  C55  1  0.55890000  0.76010000  0.32550000  1.0
  C  C56  1  0.21024000  0.92015000  0.04660000  1.0
  C  C57  1  0.28977000  0.07985000  0.54659000  1.0
  C  C58  1  0.78976000  0.07985000  0.95340000  1.0
  C  C59  1  0.71024000  0.92015000  0.45341000  1.0
  O  O60  1  0.27509000  0.36530000  0.11586000  1.0
  O  O61  1  0.22491000  0.63470000  0.61586000  1.0
  O  O62  1  0.72490000  0.63470000  0.88414000  1.0
  O  O63  1  0.77510000  0.36530000  0.38415000  1.0
  O  O64  1  0.96705000  0.73850000  0.26022000  1.0
  O  O65  1  0.53296000  0.26151000  0.76022000  1.0
  O  O66  1  0.03295000  0.26150000  0.73978000  1.0
  O  O67  1  0.46703000  0.73850000  0.23978000  1.0
  O  O68  1  0.38361000  0.28856000  0.96255000  1.0
  O  O69  1  0.11639000  0.71144000  0.46255000  1.0
  O  O70  1  0.61639000  0.71143000  0.03745000  1.0
  O  O71  1  0.88361000  0.28856000  0.53745000  1.0
  O  O72  1  0.71772000  0.51197000  0.21255000  1.0
  O  O73  1  0.78228000  0.48802000  0.71255000  1.0
  O  O74  1  0.28228000  0.48803000  0.78745000  1.0
  O  O75  1  0.21772000  0.51198000  0.28745000  1.0
  O  O76  1  0.11808000  0.67293000  0.11497000  1.0
  O  O77  1  0.38192000  0.32707000  0.61497000  1.0
  O  O78  1  0.88191000  0.32707000  0.88502000  1.0
  O  O79  1  0.61808000  0.67294000  0.38503000  1.0
  O  O80  1  0.67769000  0.45284000  0.04861000  1.0
  O  O81  1  0.82230000  0.54716000  0.54861000  1.0
  O  O82  1  0.32230000  0.54715000  0.95139000  1.0
  O  O83  1  0.17770000  0.45285000  0.45139000  1.0
