# generated using pymatgen
data_AgH5C6NCl
_symmetry_space_group_name_H-M   'P 1'
_cell_length_a   3.84772000
_cell_length_b   10.69890000
_cell_length_c   15.55910000
_cell_angle_alpha   90.00010000
_cell_angle_beta   90.00050000
_cell_angle_gamma   95.25870000
_symmetry_Int_Tables_number   1
_chemical_formula_structural   AgH5C6NCl
_chemical_formula_sum   'Ag4 H20 C24 N4 Cl4'
_cell_volume   637.81579139
_cell_formula_units_Z   4
loop_
 _symmetry_equiv_pos_site_id
 _symmetry_equiv_pos_as_xyz
  1  'x, y, z'
loop_
 _atom_site_type_symbol
 _atom_site_label
 _atom_site_symmetry_multiplicity
 _atom_site_fract_x
 _atom_site_fract_y
 _atom_site_fract_z
 _atom_site_occupancy
  Ag  Ag0  1  0.77716000  0.07376000  0.43891000  1.0
  Ag  Ag1  1  0.22283000  0.42624000  0.93891000  1.0
  Ag  Ag2  1  0.22284000  0.92624000  0.56109000  1.0
  Ag  Ag3  1  0.77716000  0.57376000  0.06109000  1.0
  H  H4  1  0.12885000  0.20664000  0.27648000  1.0
  H  H5  1  0.87116000  0.29337000  0.77648000  1.0
  H  H6  1  0.87117000  0.79338000  0.72352000  1.0
  H  H7  1  0.12883000  0.70663000  0.22352000  1.0
  H  H8  1  0.18983000  0.17586000  0.11965000  1.0
  H  H9  1  0.81014000  0.32413000  0.61964000  1.0
  H  H10  1  0.81014000  0.82412000  0.88036000  1.0
  H  H11  1  0.18988000  0.67587000  0.38036000  1.0
  H  H12  1  0.58275000  0.81793000  0.14898000  1.0
  H  H13  1  0.41719000  0.68206000  0.64898000  1.0
  H  H14  1  0.41719000  0.18206000  0.85102000  1.0
  H  H15  1  0.58284000  0.31793000  0.35102000  1.0
  H  H16  1  0.55347000  0.86370000  0.30756000  1.0
  H  H17  1  0.44654000  0.63631000  0.80756000  1.0
  H  H18  1  0.44654000  0.13631000  0.69244000  1.0
  H  H19  1  0.55347000  0.36369000  0.19244000  1.0
  H  H20  1  0.76425000  0.87575000  0.00972000  1.0
  H  H21  1  0.23572000  0.62424000  0.50972000  1.0
  H  H22  1  0.23569000  0.12424000  0.99029000  1.0
  H  H23  1  0.76431000  0.37576000  0.49028000  1.0
  C  C24  1  0.01201000  0.12132000  0.24578000  1.0
  C  C25  1  0.98797000  0.37867000  0.74578000  1.0
  C  C26  1  0.98798000  0.87867000  0.75422000  1.0
  C  C27  1  0.01204000  0.62133000  0.25422000  1.0
  C  C28  1  0.04502000  0.10360000  0.15808000  1.0
  C  C29  1  0.95497000  0.39639000  0.65810000  1.0
  C  C30  1  0.95497000  0.89640000  0.84190000  1.0
  C  C31  1  0.04506000  0.60360000  0.34190000  1.0
  C  C32  1  0.88997000  0.99244000  0.12030000  1.0
  C  C33  1  0.11004000  0.50758000  0.62030000  1.0
  C  C34  1  0.11004000  0.00758000  0.87970000  1.0
  C  C35  1  0.88999000  0.49242000  0.37970000  1.0
  C  C36  1  0.70836000  0.90514000  0.17558000  1.0
  C  C37  1  0.29163000  0.59487000  0.67557000  1.0
  C  C38  1  0.29160000  0.09488000  0.82443000  1.0
  C  C39  1  0.70842000  0.40512000  0.32443000  1.0
  C  C40  1  0.68891000  0.93011000  0.26293000  1.0
  C  C41  1  0.31107000  0.56989000  0.76292000  1.0
  C  C42  1  0.31105000  0.06988000  0.73708000  1.0
  C  C43  1  0.68895000  0.43011000  0.23707000  1.0
  C  C44  1  0.90951000  0.96361000  0.02937000  1.0
  C  C45  1  0.09048000  0.53640000  0.52936000  1.0
  C  C46  1  0.09045000  0.03640000  0.97064000  1.0
  C  C47  1  0.90956000  0.46360000  0.47063000  1.0
  N  N48  1  0.83735000  0.03689000  0.29840000  1.0
  N  N49  1  0.16262000  0.46311000  0.79839000  1.0
  N  N50  1  0.16260000  0.96311000  0.70161000  1.0
  N  N51  1  0.83740000  0.53689000  0.20161000  1.0
  Cl  Cl52  1  0.67619000  0.81669000  0.47951000  1.0
  Cl  Cl53  1  0.32379000  0.68331000  0.97952000  1.0
  Cl  Cl54  1  0.32382000  0.18332000  0.52048000  1.0
  Cl  Cl55  1  0.67617000  0.31668000  0.02049000  1.0
