# generated using pymatgen
data_CdH26C30N2O5
_symmetry_space_group_name_H-M   'P 1'
_cell_length_a   8.37780000
_cell_length_b   12.48870000
_cell_length_c   12.48870000
_cell_angle_alpha   84.12710000
_cell_angle_beta   81.73230000
_cell_angle_gamma   81.73250000
_symmetry_Int_Tables_number   1
_chemical_formula_structural   CdH26C30N2O5
_chemical_formula_sum   'Cd2 H52 C60 N4 O10'
_cell_volume   1275.19234150
_cell_formula_units_Z   2
loop_
 _symmetry_equiv_pos_site_id
 _symmetry_equiv_pos_as_xyz
  1  'x, y, z'
loop_
 _atom_site_type_symbol
 _atom_site_label
 _atom_site_symmetry_multiplicity
 _atom_site_fract_x
 _atom_site_fract_y
 _atom_site_fract_z
 _atom_site_occupancy
  Cd  Cd0  1  0.75000000  0.37373000  0.62627000  1.0
  Cd  Cd1  1  0.25000000  0.62627000  0.37373000  1.0
  H  H2  1  0.65858000  0.57189000  0.47163000  1.0
  H  H3  1  0.84142000  0.52837000  0.42811000  1.0
  H  H4  1  0.34142000  0.42811000  0.52837000  1.0
  H  H5  1  0.15858000  0.47163000  0.57189000  1.0
  H  H6  1  0.78321000  0.13203000  0.53628000  1.0
  H  H7  1  0.71679000  0.46372000  0.86797000  1.0
  H  H8  1  0.21679000  0.86797000  0.46371000  1.0
  H  H9  1  0.28321000  0.53628000  0.13203000  1.0
  H  H10  1  0.94745000  0.02073000  0.39465000  1.0
  H  H11  1  0.55255000  0.60536000  0.97927000  1.0
  H  H12  1  0.05255000  0.97927000  0.60535000  1.0
  H  H13  1  0.44745000  0.39464000  0.02073000  1.0
  H  H14  1  0.21736000  0.29252000  0.29329000  1.0
  H  H15  1  0.28264000  0.70671000  0.70748000  1.0
  H  H16  1  0.78264000  0.70748000  0.70671000  1.0
  H  H17  1  0.71736000  0.29329000  0.29252000  1.0
  H  H18  1  0.04610000  0.39038000  0.43818000  1.0
  H  H19  1  0.45390000  0.56182000  0.60962000  1.0
  H  H20  1  0.95390000  0.60962000  0.56182000  1.0
  H  H21  1  0.54610000  0.43818000  0.39038000  1.0
  H  H22  1  0.19914000  0.99318000  0.26391000  1.0
  H  H23  1  0.30085000  0.73608000  0.00682000  1.0
  H  H24  1  0.80086000  0.00682000  0.73608000  1.0
  H  H25  1  0.69915000  0.26391000  0.99318000  1.0
  H  H26  1  0.28003000  0.20970000  0.14204000  1.0
  H  H27  1  0.21997000  0.85796000  0.79030000  1.0
  H  H28  1  0.71997000  0.79030000  0.85796000  1.0
  H  H29  1  0.78003000  0.14204000  0.20970000  1.0
  H  H30  1  0.40903000  0.19627000  0.96063000  1.0
  H  H31  1  0.09097000  0.03937000  0.80373000  1.0
  H  H32  1  0.59097000  0.80373000  0.03937000  1.0
  H  H33  1  0.90903000  0.96063000  0.19627000  1.0
  H  H34  1  0.41179000  0.90352000  0.17883000  1.0
  H  H35  1  0.08821000  0.82117000  0.09648000  1.0
  H  H36  1  0.58821000  0.09648000  0.82117000  1.0
  H  H37  1  0.91179000  0.17883000  0.90352000  1.0
  H  H38  1  0.07149000  0.29990000  0.02579000  1.0
  H  H39  1  0.42851000  0.97421000  0.70010000  1.0
  H  H40  1  0.92851000  0.70010000  0.97421000  1.0
  H  H41  1  0.57149000  0.02579000  0.29990000  1.0
  H  H42  1  0.05554000  0.59666000  0.81751000  1.0
  H  H43  1  0.44446000  0.18249000  0.40334000  1.0
  H  H44  1  0.94446000  0.40334000  0.18249000  1.0
  H  H45  1  0.55554000  0.81751000  0.59666000  1.0
  H  H46  1  0.19377000  0.29496000  0.84221000  1.0
  H  H47  1  0.30623000  0.15779000  0.70504000  1.0
  H  H48  1  0.80623000  0.70504000  0.15779000  1.0
  H  H49  1  0.69377000  0.84221000  0.29496000  1.0
  H  H50  1  0.24368000  0.41701000  0.76472000  1.0
  H  H51  1  0.25632000  0.23528000  0.58299000  1.0
  H  H52  1  0.75632000  0.58299000  0.23528000  1.0
  H  H53  1  0.74368000  0.76472000  0.41701000  1.0
  C  C54  1  0.88062000  0.16430000  0.48023000  1.0
  C  C55  1  0.61938000  0.51977000  0.83570000  1.0
  C  C56  1  0.11938000  0.83570000  0.51977000  1.0
  C  C57  1  0.38062000  0.48023000  0.16430000  1.0
  C  C58  1  0.97254000  0.10296000  0.40075000  1.0
  C  C59  1  0.52746000  0.59925000  0.89704000  1.0
  C  C60  1  0.02746000  0.89704000  0.59925000  1.0
  C  C61  1  0.47254000  0.40075000  0.10296000  1.0
  C  C62  1  0.09811000  0.14629000  0.32957000  1.0
  C  C63  1  0.40189000  0.67043000  0.85371000  1.0
  C  C64  1  0.90189000  0.85371000  0.67043000  1.0
  C  C65  1  0.59811000  0.32957000  0.14629000  1.0
  C  C66  1  0.12122000  0.25330000  0.34354000  1.0
  C  C67  1  0.37878000  0.65646000  0.74670000  1.0
  C  C68  1  0.87878000  0.74670000  0.65646000  1.0
  C  C69  1  0.62123000  0.34354000  0.25330000  1.0
  C  C70  1  0.02534000  0.30887000  0.42544000  1.0
  C  C71  1  0.47466000  0.57456000  0.69113000  1.0
  C  C72  1  0.97466000  0.69113000  0.57456000  1.0
  C  C73  1  0.52534000  0.42544000  0.30886000  1.0
  C  C74  1  0.19927000  0.08094000  0.24948000  1.0
  C  C75  1  0.30073000  0.75052000  0.91906000  1.0
  C  C76  1  0.80073000  0.91906000  0.75052000  1.0
  C  C77  1  0.69927000  0.24948000  0.08094000  1.0
  C  C78  1  0.28893000  0.12149000  0.15943000  1.0
  C  C79  1  0.21107000  0.84057000  0.87851000  1.0
  C  C80  1  0.71107000  0.87851000  0.84058000  1.0
  C  C81  1  0.78893000  0.15943000  0.12149000  1.0
  C  C82  1  0.39484000  0.05829000  0.07976000  1.0
  C  C83  1  0.10516000  0.92024000  0.94171000  1.0
  C  C84  1  0.60516000  0.94171000  0.92024000  1.0
  C  C85  1  0.89483000  0.07976000  0.05829000  1.0
  C  C86  1  0.44964000  0.10991000  0.97802000  1.0
  C  C87  1  0.05036000  0.02198000  0.89009000  1.0
  C  C88  1  0.55036000  0.89009000  0.02199000  1.0
  C  C89  1  0.94964000  0.97801000  0.10991000  1.0
  C  C90  1  0.44777000  0.94650000  0.10045000  1.0
  C  C91  1  0.05223000  0.89955000  0.05350000  1.0
  C  C92  1  0.55223000  0.05350000  0.89955000  1.0
  C  C93  1  0.94777000  0.10045000  0.94650000  1.0
  C  C94  1  0.04131000  0.38794000  0.01448000  1.0
  C  C95  1  0.45869000  0.98552000  0.61206000  1.0
  C  C96  1  0.95869000  0.61206000  0.98552000  1.0
  C  C97  1  0.54131000  0.01448000  0.38794000  1.0
  C  C98  1  0.07458000  0.44122000  0.91107000  1.0
  C  C99  1  0.42542000  0.08893000  0.55878000  1.0
  C  C100  1  0.92542000  0.55878000  0.08893000  1.0
  C  C101  1  0.57458000  0.91107000  0.44122000  1.0
  C  C102  1  0.03178000  0.55404000  0.89769000  1.0
  C  C103  1  0.46822000  0.10231000  0.44596000  1.0
  C  C104  1  0.96822000  0.44596000  0.10231000  1.0
  C  C105  1  0.53178000  0.89769000  0.55404000  1.0
  C  C106  1  0.14558000  0.37808000  0.81452000  1.0
  C  C107  1  0.35442000  0.18548000  0.62192000  1.0
  C  C108  1  0.85443000  0.62192000  0.18548000  1.0
  C  C109  1  0.64557000  0.81452000  0.37808000  1.0
  C  C110  1  0.01045000  0.37285000  0.74595000  1.0
  C  C111  1  0.48955000  0.25405000  0.62715000  1.0
  C  C112  1  0.98955000  0.62715000  0.25405000  1.0
  C  C113  1  0.51045000  0.74595000  0.37285000  1.0
  N  N114  1  0.90667000  0.26573000  0.49379000  1.0
  N  N115  1  0.59333000  0.50621000  0.73427000  1.0
  N  N116  1  0.09333000  0.73427000  0.50621000  1.0
  N  N117  1  0.40667000  0.49379000  0.26573000  1.0
  O  O118  1  0.90201000  0.31226000  0.78095000  1.0
  O  O119  1  0.59799000  0.21905000  0.68774000  1.0
  O  O120  1  0.09799000  0.68774000  0.21905000  1.0
  O  O121  1  0.40201000  0.78095000  0.31226000  1.0
  O  O122  1  0.00576000  0.43401000  0.65733000  1.0
  O  O123  1  0.49424000  0.34267000  0.56599000  1.0
  O  O124  1  0.99424000  0.56599000  0.34267000  1.0
  O  O125  1  0.50576000  0.65733000  0.43401000  1.0
  O  O126  1  0.75000000  0.51394000  0.48606000  1.0
  O  O127  1  0.25000000  0.48606000  0.51394000  1.0
