# generated using pymatgen
data_CuH13C8N3O4
_symmetry_space_group_name_H-M   'P 1'
_cell_length_a   5.15287000
_cell_length_b   8.91300000
_cell_length_c   12.60053435
_cell_angle_alpha   94.24166474
_cell_angle_beta   101.47951837
_cell_angle_gamma   93.87870000
_symmetry_Int_Tables_number   1
_chemical_formula_structural   CuH13C8N3O4
_chemical_formula_sum   'Cu2 H26 C16 N6 O8'
_cell_volume   563.56931220
_cell_formula_units_Z   2
loop_
 _symmetry_equiv_pos_site_id
 _symmetry_equiv_pos_as_xyz
  1  'x, y, z'
loop_
 _atom_site_type_symbol
 _atom_site_label
 _atom_site_symmetry_multiplicity
 _atom_site_fract_x
 _atom_site_fract_y
 _atom_site_fract_z
 _atom_site_occupancy
  Cu  Cu0  1  0.72301000  0.44494000  0.37107000  1.0
  Cu  Cu1  1  0.70308000  0.96205000  0.56619000  1.0
  H  H2  1  0.86692000  0.14712000  0.06856000  1.0
  H  H3  1  0.10317000  0.29938000  0.06025000  1.0
  H  H4  1  0.76749000  0.33457000  0.05788000  1.0
  H  H5  1  0.13816000  0.22114000  0.25290000  1.0
  H  H6  1  0.58209000  0.26950000  0.20697000  1.0
  H  H7  1  0.75126000  0.17408000  0.30435000  1.0
  H  H8  1  0.59240000  0.58220000  0.01210000  1.0
  H  H9  1  0.51272000  0.62539000  0.14022000  1.0
  H  H10  1  0.31011000  0.67773000  0.42271000  1.0
  H  H11  1  0.63429000  0.70003000  0.63475000  1.0
  H  H12  1  0.82527000  0.82808000  0.72669000  1.0
  H  H13  1  0.14267000  0.50586000  0.84701000  1.0
  H  H14  1  0.00144000  0.61412000  0.94159000  1.0
  H  H15  1  0.22899000  0.91646000  0.34943000  1.0
  H  H16  1  0.30085000  0.78465000  0.24906000  1.0
  H  H17  1  0.72209000  0.83190000  0.25592000  1.0
  H  H18  1  0.91229000  0.95866000  0.19395000  1.0
  H  H19  1  0.56113000  0.74708000  0.87852000  1.0
  H  H20  1  0.32985000  0.88590000  0.88307000  1.0
  H  H21  1  0.66444000  0.94170000  0.87566000  1.0
  H  H22  1  0.26348000  0.74687000  0.69658000  1.0
  H  H23  1  0.14650000  0.18893000  0.54647000  1.0
  H  H24  1  0.35042000  0.43380000  0.63599000  1.0
  H  H25  1  0.28709000  0.30575000  0.73121000  1.0
  H  H26  1  0.83545000  0.39307000  0.68092000  1.0
  H  H27  1  0.77187000  0.24587000  0.76017000  1.0
  C  C28  1  0.92826000  0.26712000  0.09354000  1.0
  C  C29  1  0.99164000  0.29747000  0.21724000  1.0
  C  C30  1  0.12693000  0.45752000  0.25473000  1.0
  C  C31  1  0.11340000  0.68863000  0.37033000  1.0
  C  C32  1  0.92982000  0.73463000  0.44738000  1.0
  C  C33  1  0.15055000  0.81380000  0.29587000  1.0
  C  C34  1  0.89464000  0.84241000  0.21707000  1.0
  C  C35  1  0.84915000  0.74234000  0.11093000  1.0
  C  C36  1  0.49939000  0.85371000  0.84831000  1.0
  C  C37  1  0.42102000  0.83929000  0.72442000  1.0
  C  C38  1  0.30494000  0.98496000  0.68699000  1.0
  C  C39  1  0.36062000  0.19877000  0.58389000  1.0
  C  C40  1  0.51184000  0.23030000  0.49447000  1.0
  C  C41  1  0.41339000  0.33085000  0.67325000  1.0
  C  C42  1  0.70294000  0.35429000  0.73374000  1.0
  C  C43  1  0.73644000  0.46487000  0.83376000  1.0
  N  N44  1  0.75318000  0.26994000  0.26445000  1.0
  N  N45  1  0.00368000  0.54177000  0.31651000  1.0
  N  N46  1  0.63208000  0.64540000  0.08630000  1.0
  N  N47  1  0.64759000  0.80667000  0.67226000  1.0
  N  N48  1  0.44121000  0.05882000  0.62546000  1.0
  N  N49  1  0.97721000  0.53590000  0.87386000  1.0
  O  O50  1  0.34498000  0.49342000  0.22733000  1.0
  O  O51  1  0.76737000  0.63360000  0.47148000  1.0
  O  O52  1  0.94722000  0.87200000  0.48396000  1.0
  O  O53  1  0.01328000  0.75614000  0.04997000  1.0
  O  O54  1  0.09815000  0.02551000  0.71678000  1.0
  O  O55  1  0.67109000  0.13591000  0.46899000  1.0
  O  O56  1  0.47310000  0.35283000  0.45046000  1.0
  O  O57  1  0.53960000  0.48825000  0.87645000  1.0
