# generated using pymatgen
data_ZnH9C5SNO5
_symmetry_space_group_name_H-M   'P 1'
_cell_length_a   5.30523000
_cell_length_b   8.90767000
_cell_length_c   9.21671000
_cell_angle_alpha   112.87800000
_cell_angle_beta   89.99990000
_cell_angle_gamma   89.99990000
_symmetry_Int_Tables_number   1
_chemical_formula_structural   ZnH9C5SNO5
_chemical_formula_sum   'Zn2 H18 C10 S2 N2 O10'
_cell_volume   401.29311731
_cell_formula_units_Z   2
loop_
 _symmetry_equiv_pos_site_id
 _symmetry_equiv_pos_as_xyz
  1  'x, y, z'
loop_
 _atom_site_type_symbol
 _atom_site_label
 _atom_site_symmetry_multiplicity
 _atom_site_fract_x
 _atom_site_fract_y
 _atom_site_fract_z
 _atom_site_occupancy
  Zn  Zn0  1  0.94436000  0.30437000  0.10299000  1.0
  Zn  Zn1  1  0.44436000  0.69563000  0.89702000  1.0
  H  H2  1  0.69744000  0.45864000  0.34602000  1.0
  H  H3  1  0.19744000  0.54135000  0.65397000  1.0
  H  H4  1  0.99534000  0.51446000  0.39301000  1.0
  H  H5  1  0.49534000  0.48554000  0.60699000  1.0
  H  H6  1  0.50087000  0.19908000  0.98640000  1.0
  H  H7  1  0.00086000  0.80091000  0.01360000  1.0
  H  H8  1  0.65477000  0.03238000  0.93049000  1.0
  H  H9  1  0.15475000  0.96761000  0.06951000  1.0
  H  H10  1  0.65856000  0.71720000  0.36519000  1.0
  H  H11  1  0.15857000  0.28279000  0.63482000  1.0
  H  H12  1  0.99150000  0.87619000  0.31786000  1.0
  H  H13  1  0.49152000  0.12381000  0.68214000  1.0
  H  H14  1  0.19411000  0.70400000  0.23697000  1.0
  H  H15  1  0.69412000  0.29601000  0.76303000  1.0
  H  H16  1  0.03865000  0.99105000  0.75324000  1.0
  H  H17  1  0.53865000  0.00896000  0.24676000  1.0
  H  H18  1  0.81831000  0.95122000  0.60029000  1.0
  H  H19  1  0.31831000  0.04878000  0.39971000  1.0
  C  C20  1  0.72675000  0.61210000  0.11820000  1.0
  C  C21  1  0.22676000  0.38793000  0.88181000  1.0
  C  C22  1  0.81413000  0.64929000  0.28785000  1.0
  C  C23  1  0.31413000  0.35071000  0.71215000  1.0
  C  C24  1  0.04697000  0.76055000  0.32514000  1.0
  C  C25  1  0.54699000  0.23945000  0.67486000  1.0
  C  C26  1  0.95368000  0.89249000  0.65190000  1.0
  C  C27  1  0.45368000  0.10752000  0.34811000  1.0
  C  C28  1  0.81471000  0.77737000  0.71129000  1.0
  C  C29  1  0.31472000  0.22263000  0.28871000  1.0
  S  S30  1  0.20200000  0.80085000  0.51151000  1.0
  S  S31  1  0.70201000  0.19915000  0.48850000  1.0
  N  N32  1  0.86017000  0.49597000  0.30811000  1.0
  N  N33  1  0.36018000  0.50403000  0.69189000  1.0
  O  O34  1  0.70796000  0.46684000  0.02384000  1.0
  O  O35  1  0.20797000  0.53317000  0.97615000  1.0
  O  O36  1  0.64665000  0.14710000  0.01363000  1.0
  O  O37  1  0.14663000  0.85290000  0.98637000  1.0
  O  O38  1  0.67493000  0.73658000  0.08442000  1.0
  O  O39  1  0.17491000  0.26342000  0.91558000  1.0
  O  O40  1  0.86969000  0.63033000  0.66743000  1.0
  O  O41  1  0.36970000  0.36967000  0.33256000  1.0
  O  O42  1  0.63427000  0.84686000  0.81098000  1.0
  O  O43  1  0.13426000  0.15314000  0.18903000  1.0
