# generated using pymatgen
data_NaCdH17C11O13
_symmetry_space_group_name_H-M   'P 1'
_cell_length_a   6.76656000
_cell_length_b   10.68690000
_cell_length_c   12.65460000
_cell_angle_alpha   106.37740000
_cell_angle_beta   91.80050000
_cell_angle_gamma   102.40100000
_symmetry_Int_Tables_number   1
_chemical_formula_structural   NaCdH17C11O13
_chemical_formula_sum   'Na2 Cd2 H34 C22 O26'
_cell_volume   853.34448147
_cell_formula_units_Z   2
loop_
 _symmetry_equiv_pos_site_id
 _symmetry_equiv_pos_as_xyz
  1  'x, y, z'
loop_
 _atom_site_type_symbol
 _atom_site_label
 _atom_site_symmetry_multiplicity
 _atom_site_fract_x
 _atom_site_fract_y
 _atom_site_fract_z
 _atom_site_occupancy
  Na  Na0  1  0.67274000  0.86654000  0.11296000  1.0
  Na  Na1  1  0.32727000  0.13346000  0.88704000  1.0
  Cd  Cd2  1  0.70135000  0.23830000  0.35785000  1.0
  Cd  Cd3  1  0.29865000  0.76169000  0.64214000  1.0
  H  H4  1  0.84786000  0.98832000  0.36046000  1.0
  H  H5  1  0.15214000  0.01169000  0.63955000  1.0
  H  H6  1  0.06170000  0.09456000  0.39264000  1.0
  H  H7  1  0.93831000  0.90545000  0.60736000  1.0
  H  H8  1  0.56924000  0.32828000  0.56306000  1.0
  H  H9  1  0.43076000  0.67171000  0.43693000  1.0
  H  H10  1  0.79391000  0.42160000  0.56994000  1.0
  H  H11  1  0.20607000  0.57840000  0.43006000  1.0
  H  H12  1  0.35252000  0.36738000  0.34905000  1.0
  H  H13  1  0.64749000  0.63262000  0.65096000  1.0
  H  H14  1  0.54327000  0.47364000  0.33542000  1.0
  H  H15  1  0.45672000  0.52637000  0.66458000  1.0
  H  H16  1  0.59869000  0.75081000  0.85350000  1.0
  H  H17  1  0.40129000  0.24918000  0.14650000  1.0
  H  H18  1  0.55091000  0.88940000  0.87876000  1.0
  H  H19  1  0.44907000  0.11059000  0.12126000  1.0
  H  H20  1  0.98475000  0.05989000  0.21186000  1.0
  H  H21  1  0.01524000  0.94011000  0.78814000  1.0
  H  H22  1  0.10570000  0.05926000  0.10798000  1.0
  H  H23  1  0.89431000  0.94075000  0.89203000  1.0
  H  H24  1  0.14377000  0.64529000  0.29121000  1.0
  H  H25  1  0.85622000  0.35469000  0.70879000  1.0
  H  H26  1  0.33433000  0.62840000  0.96680000  1.0
  H  H27  1  0.66571000  0.37160000  0.03321000  1.0
  H  H28  1  0.07560000  0.26271000  0.04676000  1.0
  H  H29  1  0.92439000  0.73729000  0.95324000  1.0
  H  H30  1  0.31519000  0.82761000  0.32607000  1.0
  H  H31  1  0.68483000  0.17240000  0.67393000  1.0
  H  H32  1  0.09785000  0.85784000  0.26141000  1.0
  H  H33  1  0.90216000  0.14216000  0.73858000  1.0
  H  H34  1  0.47138000  0.47859000  0.84166000  1.0
  H  H35  1  0.52863000  0.52141000  0.15834000  1.0
  H  H36  1  0.21673000  0.47785000  0.80197000  1.0
  H  H37  1  0.78330000  0.52217000  0.19804000  1.0
  C  C38  1  0.10979000  0.44799000  0.17808000  1.0
  C  C39  1  0.89019000  0.55201000  0.82192000  1.0
  C  C40  1  0.16694000  0.58819000  0.20889000  1.0
  C  C41  1  0.83305000  0.41181000  0.79112000  1.0
  C  C42  1  0.24491000  0.65057000  0.13124000  1.0
  C  C43  1  0.75511000  0.34942000  0.86876000  1.0
  C  C44  1  0.27392000  0.57546000  0.02495000  1.0
  C  C45  1  0.72609000  0.42454000  0.97505000  1.0
  C  C46  1  0.22082000  0.43581000  0.99755000  1.0
  C  C47  1  0.77918000  0.56420000  0.00245000  1.0
  C  C48  1  0.13231000  0.37113000  0.07240000  1.0
  C  C49  1  0.86771000  0.62887000  0.92759000  1.0
  C  C50  1  0.00614000  0.38111000  0.25714000  1.0
  C  C51  1  0.99383000  0.61888000  0.74284000  1.0
  C  C52  1  0.26184000  0.86422000  0.25967000  1.0
  C  C53  1  0.73816000  0.13578000  0.74034000  1.0
  C  C54  1  0.37994000  0.00767000  0.28627000  1.0
  C  C55  1  0.62004000  0.99234000  0.71374000  1.0
  C  C56  1  0.31736000  0.41445000  0.81492000  1.0
  C  C57  1  0.68265000  0.58555000  0.18509000  1.0
  C  C58  1  0.32287000  0.30896000  0.70608000  1.0
  C  C59  1  0.67714000  0.69104000  0.29392000  1.0
  O  O60  1  0.85506000  0.28242000  0.21441000  1.0
  O  O61  1  0.14493000  0.71759000  0.78557000  1.0
  O  O62  1  0.06398000  0.42374000  0.36055000  1.0
  O  O63  1  0.93597000  0.57626000  0.63944000  1.0
  O  O64  1  0.34060000  0.09223000  0.36996000  1.0
  O  O65  1  0.65940000  0.90777000  0.63005000  1.0
  O  O66  1  0.52648000  0.03571000  0.22787000  1.0
  O  O67  1  0.47352000  0.96429000  0.77214000  1.0
  O  O68  1  0.37409000  0.35983000  0.62774000  1.0
  O  O69  1  0.62590000  0.64017000  0.37225000  1.0
  O  O70  1  0.28281000  0.18694000  0.70140000  1.0
  O  O71  1  0.71719000  0.81307000  0.29860000  1.0
  O  O72  1  0.30337000  0.78712000  0.15355000  1.0
  O  O73  1  0.69664000  0.21288000  0.84645000  1.0
  O  O74  1  0.24666000  0.35213000  0.89720000  1.0
  O  O75  1  0.75336000  0.64788000  0.10280000  1.0
  O  O76  1  0.91748000  0.08202000  0.36664000  1.0
  O  O77  1  0.08253000  0.91798000  0.63336000  1.0
  O  O78  1  0.70834000  0.32829000  0.53642000  1.0
  O  O79  1  0.29167000  0.67170000  0.46358000  1.0
  O  O80  1  0.48068000  0.37376000  0.31464000  1.0
  O  O81  1  0.51933000  0.62624000  0.68536000  1.0
  O  O82  1  0.62309000  0.83677000  0.91237000  1.0
  O  O83  1  0.37691000  0.16322000  0.08763000  1.0
  O  O84  1  0.99243000  0.00680000  0.13542000  1.0
  O  O85  1  0.00756000  0.99320000  0.86458000  1.0
