# generated using pymatgen
data_CuH30C40S2(NO4)2
_symmetry_space_group_name_H-M   'P 1'
_cell_length_a   7.92971000
_cell_length_b   9.94946000
_cell_length_c   11.35100000
_cell_angle_alpha   92.85010000
_cell_angle_beta   96.09390000
_cell_angle_gamma   104.33800000
_symmetry_Int_Tables_number   1
_chemical_formula_structural   CuH30C40S2(NO4)2
_chemical_formula_sum   'Cu1 H30 C40 S2 N2 O8'
_cell_volume   860.06468956
_cell_formula_units_Z   1
loop_
 _symmetry_equiv_pos_site_id
 _symmetry_equiv_pos_as_xyz
  1  'x, y, z'
loop_
 _atom_site_type_symbol
 _atom_site_label
 _atom_site_symmetry_multiplicity
 _atom_site_fract_x
 _atom_site_fract_y
 _atom_site_fract_z
 _atom_site_occupancy
  Cu  Cu0  1  0.50000000  0.00000000  0.00000000  1.0
  H  H1  1  0.29299000  0.49541000  0.07173000  1.0
  H  H2  1  0.70701000  0.50459000  0.92826000  1.0
  H  H3  1  0.88715000  0.68481000  0.92204000  1.0
  H  H4  1  0.11285000  0.31519000  0.07797000  1.0
  H  H5  1  0.11514000  0.90131000  0.92663000  1.0
  H  H6  1  0.88486000  0.09870000  0.07338000  1.0
  H  H7  1  0.73473000  0.21193000  0.37583000  1.0
  H  H8  1  0.26527000  0.78807000  0.62416000  1.0
  H  H9  1  0.05463000  0.23610000  0.41953000  1.0
  H  H10  1  0.94536000  0.76390000  0.58046000  1.0
  H  H11  1  0.26644000  0.45603000  0.38242000  1.0
  H  H12  1  0.73356000  0.54397000  0.61758000  1.0
  H  H13  1  0.15664000  0.64774000  0.29781000  1.0
  H  H14  1  0.84336000  0.35226000  0.70219000  1.0
  H  H15  1  0.50345000  0.72035000  0.06685000  1.0
  H  H16  1  0.49655000  0.27966000  0.93314000  1.0
  H  H17  1  0.51574000  0.39241000  0.53509000  1.0
  H  H18  1  0.48425000  0.60759000  0.46491000  1.0
  H  H19  1  0.38194000  0.20915000  0.65978000  1.0
  H  H20  1  0.61805000  0.79085000  0.34022000  1.0
  H  H21  1  0.22522000  0.97215000  0.56632000  1.0
  H  H22  1  0.77478000  0.02785000  0.43369000  1.0
  H  H23  1  0.22600000  0.91620000  0.35060000  1.0
  H  H24  1  0.77401000  0.08380000  0.64941000  1.0
  H  H25  1  0.83887000  0.85203000  0.08932000  1.0
  H  H26  1  0.16113000  0.14798000  0.91069000  1.0
  H  H27  1  0.00936000  0.97030000  0.18842000  1.0
  H  H28  1  0.99064000  0.02970000  0.81158000  1.0
  H  H29  1  0.78957000  0.91718000  0.22766000  1.0
  H  H30  1  0.21043000  0.08282000  0.77234000  1.0
  C  C31  1  0.24452000  0.58108000  0.03800000  1.0
  C  C32  1  0.75548000  0.41892000  0.96199000  1.0
  C  C33  1  0.06652000  0.56653000  0.99826000  1.0
  C  C34  1  0.93348000  0.43347000  0.00174000  1.0
  C  C35  1  0.02086000  0.68462000  0.95566000  1.0
  C  C36  1  0.97914000  0.31538000  0.04434000  1.0
  C  C37  1  0.14914000  0.80825000  0.95646000  1.0
  C  C38  1  0.85085000  0.19175000  0.04354000  1.0
  C  C39  1  0.88426000  0.53892000  0.28850000  1.0
  C  C40  1  0.11574000  0.46108000  0.71150000  1.0
  C  C41  1  0.76270000  0.41516000  0.31205000  1.0
  C  C42  1  0.23730000  0.58484000  0.68795000  1.0
  C  C43  1  0.82763000  0.30759000  0.35944000  1.0
  C  C44  1  0.17237000  0.69241000  0.64056000  1.0
  C  C45  1  0.00686000  0.32170000  0.38408000  1.0
  C  C46  1  0.99314000  0.67830000  0.61592000  1.0
  C  C47  1  0.12626000  0.44479000  0.36309000  1.0
  C  C48  1  0.87374000  0.55521000  0.63690000  1.0
  C  C49  1  0.06495000  0.55206000  0.31591000  1.0
  C  C50  1  0.93505000  0.44794000  0.68409000  1.0
  C  C51  1  0.82182000  0.65073000  0.23261000  1.0
  C  C52  1  0.17818000  0.34927000  0.76740000  1.0
  C  C53  1  0.36564000  0.70798000  0.03528000  1.0
  C  C54  1  0.63435000  0.29202000  0.96472000  1.0
  C  C55  1  0.45008000  0.25870000  0.37210000  1.0
  C  C56  1  0.54992000  0.74130000  0.62790000  1.0
  C  C57  1  0.45307000  0.28800000  0.49448000  1.0
  C  C58  1  0.54693000  0.71200000  0.50552000  1.0
  C  C59  1  0.37506000  0.18489000  0.56451000  1.0
  C  C60  1  0.62493000  0.81511000  0.43549000  1.0
  C  C61  1  0.28947000  0.05209000  0.51205000  1.0
  C  C62  1  0.71053000  0.94791000  0.48796000  1.0
  C  C63  1  0.28818000  0.02097000  0.39086000  1.0
  C  C64  1  0.71182000  0.97903000  0.60914000  1.0
  C  C65  1  0.36925000  0.12387000  0.32032000  1.0
  C  C66  1  0.63075000  0.87613000  0.67968000  1.0
  C  C67  1  0.37744000  0.08821000  0.19113000  1.0
  C  C68  1  0.62257000  0.91179000  0.80888000  1.0
  C  C69  1  0.89062000  0.88505000  0.18251000  1.0
  C  C70  1  0.10938000  0.11495000  0.81750000  1.0
  S  S71  1  0.53430000  0.39579000  0.28181000  1.0
  S  S72  1  0.46570000  0.60421000  0.71819000  1.0
  N  N73  1  0.31867000  0.82042000  0.99602000  1.0
  N  N74  1  0.68133000  0.17958000  0.00398000  1.0
  O  O75  1  0.50218000  0.02936000  0.17421000  1.0
  O  O76  1  0.49782000  0.97063000  0.82579000  1.0
  O  O77  1  0.27120000  0.11389000  0.11107000  1.0
  O  O78  1  0.72880000  0.88611000  0.88894000  1.0
  O  O79  1  0.67196000  0.63492000  0.18202000  1.0
  O  O80  1  0.32804000  0.36509000  0.81799000  1.0
  O  O81  1  0.94460000  0.77374000  0.24096000  1.0
  O  O82  1  0.05540000  0.22626000  0.75904000  1.0
