# generated using pymatgen
data_ZnH22C23(NO3)2
_symmetry_space_group_name_H-M   'P 1'
_cell_length_a   9.87244000
_cell_length_b   10.53270000
_cell_length_c   12.12100000
_cell_angle_alpha   101.36400000
_cell_angle_beta   112.13200000
_cell_angle_gamma   107.09400000
_symmetry_Int_Tables_number   1
_chemical_formula_structural   ZnH22C23(NO3)2
_chemical_formula_sum   'Zn2 H44 C46 N4 O12'
_cell_volume   1046.34520576
_cell_formula_units_Z   2
loop_
 _symmetry_equiv_pos_site_id
 _symmetry_equiv_pos_as_xyz
  1  'x, y, z'
loop_
 _atom_site_type_symbol
 _atom_site_label
 _atom_site_symmetry_multiplicity
 _atom_site_fract_x
 _atom_site_fract_y
 _atom_site_fract_z
 _atom_site_occupancy
  Zn  Zn0  1  0.17028000  0.27157000  0.54263000  1.0
  Zn  Zn1  1  0.82971000  0.72842000  0.45737000  1.0
  H  H2  1  0.41626000  0.12056000  0.80300000  1.0
  H  H3  1  0.58374000  0.87944000  0.19700000  1.0
  H  H4  1  0.56761000  0.24516000  0.78465000  1.0
  H  H5  1  0.43239000  0.75484000  0.21535000  1.0
  H  H6  1  0.35489000  0.80537000  0.63318000  1.0
  H  H7  1  0.64511000  0.19463000  0.36682000  1.0
  H  H8  1  0.08127000  0.33169000  0.89312000  1.0
  H  H9  1  0.91873000  0.66831000  0.10688000  1.0
  H  H10  1  0.79263000  0.86731000  0.12502000  1.0
  H  H11  1  0.20737000  0.13269000  0.87498000  1.0
  H  H12  1  0.29322000  0.50389000  0.80559000  1.0
  H  H13  1  0.70678000  0.49611000  0.19441000  1.0
  H  H14  1  0.59494000  0.30614000  0.98892000  1.0
  H  H15  1  0.40506000  0.69386000  0.01108000  1.0
  H  H16  1  0.98300000  0.99011000  0.35401000  1.0
  H  H17  1  0.01700000  0.00989000  0.64599000  1.0
  H  H18  1  0.02561000  0.38605000  0.32208000  1.0
  H  H19  1  0.97440000  0.61395000  0.67792000  1.0
  H  H20  1  0.51822000  0.40722000  0.63020000  1.0
  H  H21  1  0.48178000  0.59278000  0.36980000  1.0
  H  H22  1  0.72325000  0.16677000  0.59229000  1.0
  H  H23  1  0.27675000  0.83323000  0.40771000  1.0
  H  H24  1  0.86567000  0.17209000  0.73710000  1.0
  H  H25  1  0.13433000  0.82791000  0.26290000  1.0
  H  H26  1  0.72774000  0.65109000  0.71387000  1.0
  H  H27  1  0.27226000  0.34891000  0.28613000  1.0
  H  H28  1  0.61798000  0.96637000  0.69935000  1.0
  H  H29  1  0.38202000  0.03363000  0.30065000  1.0
  H  H30  1  0.75730000  0.90043000  0.68431000  1.0
  H  H31  1  0.24270000  0.09957000  0.31569000  1.0
  H  H32  1  0.75195000  0.52875000  0.87919000  1.0
  H  H33  1  0.24804000  0.47126000  0.12081000  1.0
  H  H34  1  0.59618000  0.89059000  0.92851000  1.0
  H  H35  1  0.40382000  0.10941000  0.07149000  1.0
  H  H36  1  0.63319000  0.05849000  0.91006000  1.0
  H  H37  1  0.36681000  0.94151000  0.08994000  1.0
  H  H38  1  0.84419000  0.27837000  0.09176000  1.0
  H  H39  1  0.15581000  0.72163000  0.90825000  1.0
  H  H40  1  0.83985000  0.89007000  0.90882000  1.0
  H  H41  1  0.16015000  0.10993000  0.09118000  1.0
  H  H42  1  0.88399000  0.06127000  0.89957000  1.0
  H  H43  1  0.11601000  0.93873000  0.10043000  1.0
  H  H44  1  0.15853000  0.55468000  0.55856000  1.0
  H  H45  1  0.84147000  0.44532000  0.44144000  1.0
  C  C46  1  0.43721000  0.39340000  0.88343000  1.0
  C  C47  1  0.56279000  0.60660000  0.11657000  1.0
  C  C48  1  0.43767000  0.19175000  0.75030000  1.0
  C  C49  1  0.56233000  0.80825000  0.24971000  1.0
  C  C50  1  0.55863000  0.75019000  0.68287000  1.0
  C  C51  1  0.44137000  0.24981000  0.31713000  1.0
  C  C52  1  0.39537000  0.71980000  0.63674000  1.0
  C  C53  1  0.60463000  0.28020000  0.36326000  1.0
  C  C54  1  0.90246000  0.41921000  0.86975000  1.0
  C  C55  1  0.09754000  0.58079000  0.13025000  1.0
  C  C56  1  0.04264000  0.40309000  0.93899000  1.0
  C  C57  1  0.95736000  0.59691000  0.06100000  1.0
  C  C58  1  0.96365000  0.29728000  0.64231000  1.0
  C  C59  1  0.03635000  0.70272000  0.35769000  1.0
  C  C60  1  0.84203000  0.98274000  0.16466000  1.0
  C  C61  1  0.15797000  0.01726000  0.83534000  1.0
  C  C62  1  0.38509000  0.50328000  0.89061000  1.0
  C  C63  1  0.61491000  0.49672000  0.10939000  1.0
  C  C64  1  0.55181000  0.38995000  0.99323000  1.0
  C  C65  1  0.44819000  0.61005000  0.00676000  1.0
  C  C66  1  0.94745000  0.05066000  0.29339000  1.0
  C  C67  1  0.05255000  0.94934000  0.70661000  1.0
  C  C68  1  0.97350000  0.27112000  0.27579000  1.0
  C  C69  1  0.02651000  0.72888000  0.72421000  1.0
  C  C70  1  0.79996000  0.06194000  0.08736000  1.0
  C  C71  1  0.20004000  0.93806000  0.91264000  1.0
  C  C72  1  0.48689000  0.49846000  0.63459000  1.0
  C  C73  1  0.51311000  0.50154000  0.36541000  1.0
  C  C74  1  0.83364000  0.23781000  0.68004000  1.0
  C  C75  1  0.16636000  0.76218000  0.31996000  1.0
  C  C76  1  0.60286000  0.63496000  0.68098000  1.0
  C  C77  1  0.39713000  0.36504000  0.31902000  1.0
  C  C78  1  0.68035000  0.89921000  0.73043000  1.0
  C  C79  1  0.31965000  0.10079000  0.26957000  1.0
  C  C80  1  0.86162000  0.51694000  0.93209000  1.0
  C  C81  1  0.13839000  0.48306000  0.06791000  1.0
  C  C82  1  0.69141000  0.99092000  0.94713000  1.0
  C  C83  1  0.30859000  0.00908000  0.05286000  1.0
  C  C84  1  0.86932000  0.20956000  0.14606000  1.0
  C  C85  1  0.13069000  0.79044000  0.85394000  1.0
  C  C86  1  0.78463000  0.96110000  0.87523000  1.0
  C  C87  1  0.21537000  0.03890000  0.12477000  1.0
  C  C88  1  0.28561000  0.58080000  0.59292000  1.0
  C  C89  1  0.71439000  0.41920000  0.40709000  1.0
  C  C90  1  0.36242000  0.10170000  0.61029000  1.0
  C  C91  1  0.63758000  0.89830000  0.38971000  1.0
  N  N92  1  0.01240000  0.19307000  0.34862000  1.0
  N  N93  1  0.98761000  0.80693000  0.65138000  1.0
  N  N94  1  0.32994000  0.47118000  0.59197000  1.0
  N  N95  1  0.67006000  0.52882000  0.40803000  1.0
  O  O96  1  0.37084000  0.29317000  0.76512000  1.0
  O  O97  1  0.62916000  0.70683000  0.23488000  1.0
  O  O98  1  0.79779000  0.34299000  0.74344000  1.0
  O  O99  1  0.20221000  0.65701000  0.25656000  1.0
  O  O100  1  0.01985000  0.20734000  0.61079000  1.0
  O  O101  1  0.98015000  0.79266000  0.38921000  1.0
  O  O102  1  0.27192000  0.13743000  0.52527000  1.0
  O  O103  1  0.72808000  0.86257000  0.47473000  1.0
  O  O104  1  0.00501000  0.42002000  0.63928000  1.0
  O  O105  1  0.99499000  0.57998000  0.36072000  1.0
  O  O106  1  0.39944000  0.99976000  0.58890000  1.0
  O  O107  1  0.60056000  0.00024000  0.41110000  1.0
