# generated using pymatgen
data_ZnH24C21NO7
_symmetry_space_group_name_H-M   'P 1'
_cell_length_a   9.70276000
_cell_length_b   11.01680000
_cell_length_c   16.01780000
_cell_angle_alpha   90.12710000
_cell_angle_beta   94.88030000
_cell_angle_gamma   92.67450000
_symmetry_Int_Tables_number   1
_chemical_formula_structural   ZnH24C21NO7
_chemical_formula_sum   'Zn2 H48 C42 N2 O14'
_cell_volume   1704.09797616
_cell_formula_units_Z   2
loop_
 _symmetry_equiv_pos_site_id
 _symmetry_equiv_pos_as_xyz
  1  'x, y, z'
loop_
 _atom_site_type_symbol
 _atom_site_label
 _atom_site_symmetry_multiplicity
 _atom_site_fract_x
 _atom_site_fract_y
 _atom_site_fract_z
 _atom_site_occupancy
  Zn  Zn0  1  0.36163000  0.48716000  0.50059000  1.0
  Zn  Zn1  1  0.64617000  0.50237000  0.50135000  1.0
  H  H2  1  0.29326000  0.58292000  0.05097000  1.0
  H  H3  1  0.71079000  0.88205000  0.55163000  1.0
  H  H4  1  0.16961000  0.10160000  0.50513000  1.0
  H  H5  1  0.21103000  0.11151000  0.39888000  1.0
  H  H6  1  0.20283000  0.88243000  0.38947000  1.0
  H  H7  1  0.85090000  0.43160000  0.37665000  1.0
  H  H8  1  0.11116000  0.41455000  0.38079000  1.0
  H  H9  1  0.17848000  0.68377000  0.64992000  1.0
  H  H10  1  0.89470000  0.56446000  0.68739000  1.0
  H  H11  1  0.66778000  0.59069000  0.10248000  1.0
  H  H12  1  0.50869000  0.29129000  0.92403000  1.0
  H  H13  1  0.67187000  0.36417000  0.95020000  1.0
  H  H14  1  0.46512000  0.28685000  0.06573000  1.0
  H  H15  1  0.28385000  0.27701000  0.92701000  1.0
  H  H16  1  0.35264000  0.30739000  0.82796000  1.0
  H  H17  1  0.10904000  0.32537000  0.76212000  1.0
  H  H18  1  0.13876000  0.17967000  0.80547000  1.0
  H  H19  1  0.04419000  0.28505000  0.85972000  1.0
  H  H20  1  0.07161000  0.50598000  0.06476000  1.0
  H  H21  1  0.17937000  0.46746000  0.15621000  1.0
  H  H22  1  0.09615000  0.24926000  0.13899000  1.0
  H  H23  1  0.95450000  0.34521000  0.14613000  1.0
  H  H24  1  0.98984000  0.28649000  0.04699000  1.0
  H  H25  1  0.63484000  0.35015000  0.09077000  1.0
  H  H26  1  0.81728000  0.18563000  0.47179000  1.0
  H  H27  1  0.89928000  0.05413000  0.51446000  1.0
  H  H28  1  0.99486000  0.17622000  0.64082000  1.0
  H  H29  1  0.04566000  0.24944000  0.54882000  1.0
  H  H30  1  0.90492000  0.30383000  0.60164000  1.0
  H  H31  1  0.15949000  0.87396000  0.49536000  1.0
  H  H32  1  0.15205000  0.65028000  0.95852000  1.0
  H  H33  1  0.15764000  0.65480000  0.84819000  1.0
  H  H34  1  0.28894000  0.85936000  0.86235000  1.0
  H  H35  1  0.12423000  0.86238000  0.90342000  1.0
  H  H36  1  0.27714000  0.85512000  0.97277000  1.0
  H  H37  1  0.15742000  0.53670000  0.69547000  1.0
  H  H38  1  0.99706000  0.75537000  0.76315000  1.0
  H  H39  1  0.81353000  0.76470000  0.74627000  1.0
  H  H40  1  0.84849000  0.96782000  0.67494000  1.0
  H  H41  1  0.93163000  0.96970000  0.77804000  1.0
  H  H42  1  0.03134000  0.95404000  0.69056000  1.0
  H  H43  1  0.89310000  0.68502000  0.91952000  1.0
  H  H44  1  0.74682000  0.63649000  0.85046000  1.0
  H  H45  1  0.83053000  0.42766000  0.84551000  1.0
  H  H46  1  0.96653000  0.53139000  0.82028000  1.0
  H  H47  1  0.97170000  0.46773000  0.92128000  1.0
  H  H48  1  0.58971000  0.67988000  0.94014000  1.0
  H  H49  1  0.52036000  0.67619000  0.07528000  1.0
  C  C50  1  0.49655000  0.72838000  0.49761000  1.0
  C  C51  1  0.33406000  0.49732000  0.03005000  1.0
  C  C52  1  0.47559000  0.48166000  0.08063000  1.0
  C  C53  1  0.53724000  0.36270000  0.05245000  1.0
  C  C54  1  0.56126000  0.36807000  0.95861000  1.0
  C  C55  1  0.46277000  0.47730000  0.17017000  1.0
  C  C56  1  0.53084000  0.49517000  0.83119000  1.0
  C  C57  1  0.53663000  0.49874000  0.75569000  1.0
  C  C58  1  0.37978000  0.92919000  0.48296000  1.0
  C  C59  1  0.49678000  0.86312000  0.50321000  1.0
  C  C60  1  0.61823000  0.93081000  0.53220000  1.0
  C  C61  1  0.53389000  0.50321000  0.66541000  1.0
  C  C62  1  0.62195000  0.05751000  0.53922000  1.0
  C  C63  1  0.50461000  0.12510000  0.51399000  1.0
  C  C64  1  0.38464000  0.05572000  0.48816000  1.0
  C  C65  1  0.23274000  0.06409000  0.45851000  1.0
  C  C66  1  0.22721000  0.92058000  0.45271000  1.0
  C  C67  1  0.94555000  0.55765000  0.55623000  1.0
  C  C68  1  0.91951000  0.46483000  0.43008000  1.0
  C  C69  1  0.06279000  0.45408000  0.43284000  1.0
  C  C70  1  0.08768000  0.54353000  0.56054000  1.0
  C  C71  1  0.11519000  0.59842000  0.64705000  1.0
  C  C72  1  0.50581000  0.26036000  0.51212000  1.0
  C  C73  1  0.95143000  0.61782000  0.64206000  1.0
  C  C74  1  0.47694000  0.47805000  0.33666000  1.0
  C  C75  1  0.35943000  0.51546000  0.93445000  1.0
  C  C76  1  0.60889000  0.59199000  0.97007000  1.0
  C  C77  1  0.57145000  0.59244000  0.06140000  1.0
  C  C78  1  0.46567000  0.47522000  0.24616000  1.0
  C  C79  1  0.51500000  0.49035000  0.92029000  1.0
  C  C80  1  0.26636000  0.32330000  0.86653000  1.0
  C  C81  1  0.13117000  0.27627000  0.82099000  1.0
  C  C82  1  0.13128000  0.43269000  0.09539000  1.0
  C  C83  1  0.03771000  0.32154000  0.10743000  1.0
  C  C84  1  0.85404000  0.14060000  0.53030000  1.0
  C  C85  1  0.95640000  0.22237000  0.58342000  1.0
  C  C86  1  0.21243000  0.68632000  0.90783000  1.0
  C  C87  1  0.22696000  0.82385000  0.91196000  1.0
  C  C88  1  0.91285000  0.79205000  0.72119000  1.0
  C  C89  1  0.93187000  0.92874000  0.71539000  1.0
  C  C90  1  0.82232000  0.60645000  0.90032000  1.0
  C  C91  1  0.90180000  0.50209000  0.87015000  1.0
  N  N92  1  0.85766000  0.51610000  0.49354000  1.0
  N  N93  1  0.14976000  0.49092000  0.49997000  1.0
  O  O94  1  0.37987000  0.67127000  0.48155000  1.0
  O  O95  1  0.61342000  0.68033000  0.50977000  1.0
  O  O96  1  0.41571000  0.52003000  0.62702000  1.0
  O  O97  1  0.64724000  0.49009000  0.63239000  1.0
  O  O98  1  0.39126000  0.30797000  0.52312000  1.0
  O  O99  1  0.61745000  0.31793000  0.49629000  1.0
  O  O100  1  0.36644000  0.45612000  0.37296000  1.0
  O  O101  1  0.59759000  0.50321000  0.37185000  1.0
  O  O102  1  0.25862000  0.45217000  0.87979000  1.0
  O  O103  1  0.23765000  0.39983000  0.04336000  1.0
  O  O104  1  0.73788000  0.11655000  0.57924000  1.0
  O  O105  1  0.34895000  0.64071000  0.91486000  1.0
  O  O106  1  0.91475000  0.73975000  0.63872000  1.0
  O  O107  1  0.75241000  0.56851000  0.97227000  1.0
