# generated using pymatgen
data_MnH28C34(N3O2)2
_symmetry_space_group_name_H-M   'P 1'
_cell_length_a   9.55341000
_cell_length_b   10.91440000
_cell_length_c   15.98500000
_cell_angle_alpha   93.43460000
_cell_angle_beta   101.42300000
_cell_angle_gamma   111.76100000
_symmetry_Int_Tables_number   1
_chemical_formula_structural   MnH28C34(N3O2)2
_chemical_formula_sum   'Mn2 H56 C68 N12 O8'
_cell_volume   1500.95059572
_cell_formula_units_Z   2
loop_
 _symmetry_equiv_pos_site_id
 _symmetry_equiv_pos_as_xyz
  1  'x, y, z'
loop_
 _atom_site_type_symbol
 _atom_site_label
 _atom_site_symmetry_multiplicity
 _atom_site_fract_x
 _atom_site_fract_y
 _atom_site_fract_z
 _atom_site_occupancy
  Mn  Mn0  1  0.41218000  0.10488000  0.43373000  1.0
  Mn  Mn1  1  0.58782000  0.89512000  0.56627000  1.0
  H  H2  1  0.56895000  0.39068000  0.54288000  1.0
  H  H3  1  0.43105000  0.60932000  0.45712000  1.0
  H  H4  1  0.67796000  0.21350000  0.34342000  1.0
  H  H5  1  0.32204000  0.78650000  0.65658000  1.0
  H  H6  1  0.21653000  0.66762000  0.17056000  1.0
  H  H7  1  0.78347000  0.33238000  0.82945000  1.0
  H  H8  1  0.38615000  0.65512000  0.22694000  1.0
  H  H9  1  0.61385000  0.34487000  0.77306000  1.0
  H  H10  1  0.31399000  0.02767000  0.96633000  1.0
  H  H11  1  0.68601000  0.97232000  0.03367000  1.0
  H  H12  1  0.39017000  0.93653000  0.90947000  1.0
  H  H13  1  0.60983000  0.06346000  0.09052000  1.0
  H  H14  1  0.27249000  0.80649000  0.33687000  1.0
  H  H15  1  0.72751000  0.19351000  0.66312000  1.0
  H  H16  1  0.92274000  0.78999000  0.52707000  1.0
  H  H17  1  0.07727000  0.21001000  0.47293000  1.0
  H  H18  1  0.06069000  0.59193000  0.33351000  1.0
  H  H19  1  0.93930000  0.40807000  0.66648000  1.0
  H  H20  1  0.38640000  0.44923000  0.27907000  1.0
  H  H21  1  0.61359000  0.55077000  0.72093000  1.0
  H  H22  1  0.88301000  0.42544000  0.33035000  1.0
  H  H23  1  0.11699000  0.57456000  0.66965000  1.0
  H  H24  1  0.14214000  0.99650000  0.52082000  1.0
  H  H25  1  0.85786000  0.00350000  0.47918000  1.0
  H  H26  1  0.96398000  0.48693000  0.15159000  1.0
  H  H27  1  0.03602000  0.51307000  0.84841000  1.0
  H  H28  1  0.76584000  0.61435000  0.53788000  1.0
  H  H29  1  0.23416000  0.38564000  0.46212000  1.0
  H  H30  1  0.31049000  0.27644000  0.65028000  1.0
  H  H31  1  0.68951000  0.72356000  0.34972000  1.0
  H  H32  1  0.94236000  0.13394000  0.26661000  1.0
  H  H33  1  0.05764000  0.86607000  0.73340000  1.0
  H  H34  1  0.44421000  0.98241000  0.77188000  1.0
  H  H35  1  0.55578000  0.01759000  0.22812000  1.0
  H  H36  1  0.81123000  0.26393000  0.18358000  1.0
  H  H37  1  0.18876000  0.73607000  0.81642000  1.0
  H  H38  1  0.22070000  0.32654000  0.78103000  1.0
  H  H39  1  0.77930000  0.67346000  0.21897000  1.0
  H  H40  1  0.24275000  0.20544000  0.90536000  1.0
  H  H41  1  0.75725000  0.79455000  0.09464000  1.0
  H  H42  1  0.98104000  0.62664000  0.00834000  1.0
  H  H43  1  0.01896000  0.37337000  0.99166000  1.0
  H  H44  1  0.23956000  0.92876000  0.21442000  1.0
  H  H45  1  0.76045000  0.07124000  0.78558000  1.0
  H  H46  1  0.90057000  0.77907000  0.92273000  1.0
  H  H47  1  0.09943000  0.22093000  0.07728000  1.0
  H  H48  1  0.16573000  0.09214000  0.14094000  1.0
  H  H49  1  0.83426000  0.90785000  0.85907000  1.0
  H  H50  1  0.65820000  0.41675000  0.93506000  1.0
  H  H51  1  0.34181000  0.58325000  0.06494000  1.0
  H  H52  1  0.38796000  0.43910000  0.11976000  1.0
  H  H53  1  0.61204000  0.56090000  0.88023000  1.0
  H  H54  1  0.70262000  0.23655000  0.00484000  1.0
  H  H55  1  0.29739000  0.76346000  0.99516000  1.0
  H  H56  1  0.44470000  0.25587000  0.18170000  1.0
  H  H57  1  0.55530000  0.74413000  0.81829000  1.0
  C  C58  1  0.64088000  0.40449000  0.49622000  1.0
  C  C59  1  0.35913000  0.59551000  0.50378000  1.0
  C  C60  1  0.70236000  0.30523000  0.38517000  1.0
  C  C61  1  0.29764000  0.69476000  0.61482000  1.0
  C  C62  1  0.84587000  0.54105000  0.43408000  1.0
  C  C63  1  0.15413000  0.45895000  0.56591000  1.0
  C  C64  1  0.97133000  0.66914000  0.43119000  1.0
  C  C65  1  0.02867000  0.33086000  0.56881000  1.0
  C  C66  1  0.17238000  0.28453000  0.27704000  1.0
  C  C67  1  0.82761000  0.71547000  0.72297000  1.0
  C  C68  1  0.25500000  0.20884000  0.32590000  1.0
  C  C69  1  0.74500000  0.79116000  0.67410000  1.0
  C  C70  1  0.38183000  0.12598000  0.70423000  1.0
  C  C71  1  0.61817000  0.87402000  0.29577000  1.0
  C  C72  1  0.43285000  0.09129000  0.62663000  1.0
  C  C73  1  0.56716000  0.90871000  0.37337000  1.0
  C  C74  1  0.19202000  0.79893000  0.37782000  1.0
  C  C75  1  0.80799000  0.20106000  0.62219000  1.0
  C  C76  1  0.99666000  0.78715000  0.48356000  1.0
  C  C77  1  0.00334000  0.21285000  0.51644000  1.0
  C  C78  1  0.07191000  0.67801000  0.37650000  1.0
  C  C79  1  0.92810000  0.32198000  0.62350000  1.0
  C  C80  1  0.25990000  0.40941000  0.25828000  1.0
  C  C81  1  0.74009000  0.59059000  0.74172000  1.0
  C  C82  1  0.81686000  0.42514000  0.37854000  1.0
  C  C83  1  0.18314000  0.57486000  0.62146000  1.0
  C  C84  1  0.11941000  0.90389000  0.48039000  1.0
  C  C85  1  0.88060000  0.09610000  0.51962000  1.0
  C  C86  1  0.02305000  0.43022000  0.18676000  1.0
  C  C87  1  0.97694000  0.56979000  0.81324000  1.0
  C  C88  1  0.75231000  0.52878000  0.49340000  1.0
  C  C89  1  0.24769000  0.47122000  0.50660000  1.0
  C  C90  1  0.32040000  0.22472000  0.70591000  1.0
  C  C91  1  0.67960000  0.77528000  0.29409000  1.0
  C  C92  1  0.00994000  0.23124000  0.25147000  1.0
  C  C93  1  0.99006000  0.76877000  0.74854000  1.0
  C  C94  1  0.39475000  0.05754000  0.77454000  1.0
  C  C95  1  0.60524000  0.94246000  0.22546000  1.0
  C  C96  1  0.18703000  0.48592000  0.21391000  1.0
  C  C97  1  0.81296000  0.51408000  0.78610000  1.0
  C  C98  1  0.34544000  0.08456000  0.84839000  1.0
  C  C99  1  0.65456000  0.91544000  0.15161000  1.0
  C  C100  1  0.93737000  0.30477000  0.20531000  1.0
  C  C101  1  0.06262000  0.69523000  0.79470000  1.0
  C  C102  1  0.27057000  0.25148000  0.77882000  1.0
  C  C103  1  0.72943000  0.74851000  0.22118000  1.0
  C  C104  1  0.28235000  0.18305000  0.84905000  1.0
  C  C105  1  0.71765000  0.81695000  0.15095000  1.0
  C  C106  1  0.02364000  0.95196000  0.02381000  1.0
  C  C107  1  0.97635000  0.04805000  0.97620000  1.0
  C  C108  1  0.01965000  0.73121000  0.03583000  1.0
  C  C109  1  0.98035000  0.26879000  0.96418000  1.0
  C  C110  1  0.16243000  0.89749000  0.14996000  1.0
  C  C111  1  0.83756000  0.10251000  0.85003000  1.0
  C  C112  1  0.97349000  0.81760000  0.98771000  1.0
  C  C113  1  0.02651000  0.18240000  0.01229000  1.0
  C  C114  1  0.12084000  0.99078000  0.10729000  1.0
  C  C115  1  0.87916000  0.00922000  0.89271000  1.0
  C  C116  1  0.60875000  0.38730000  0.99018000  1.0
  C  C117  1  0.39126000  0.61270000  0.00982000  1.0
  C  C118  1  0.51712000  0.44654000  0.02064000  1.0
  C  C119  1  0.48289000  0.55347000  0.97936000  1.0
  C  C120  1  0.45865000  0.39798000  0.09142000  1.0
  C  C121  1  0.54135000  0.60202000  0.90857000  1.0
  C  C122  1  0.63334000  0.28420000  0.02910000  1.0
  C  C123  1  0.36667000  0.71580000  0.97090000  1.0
  C  C124  1  0.49009000  0.29438000  0.12667000  1.0
  C  C125  1  0.50992000  0.70562000  0.87332000  1.0
  N  N126  1  0.61615000  0.29354000  0.44372000  1.0
  N  N127  1  0.38385000  0.70646000  0.55628000  1.0
  N  N128  1  0.21787000  0.91090000  0.42931000  1.0
  N  N129  1  0.78212000  0.08909000  0.57069000  1.0
  N  N130  1  0.27295000  0.60833000  0.19494000  1.0
  N  N131  1  0.72705000  0.39166000  0.80506000  1.0
  N  N132  1  0.36389000  0.01881000  0.91736000  1.0
  N  N133  1  0.63610000  0.98118000  0.08264000  1.0
  N  N134  1  0.11271000  0.76897000  0.11571000  1.0
  N  N135  1  0.88729000  0.23103000  0.88429000  1.0
  N  N136  1  0.57530000  0.23636000  0.09586000  1.0
  N  N137  1  0.42470000  0.76364000  0.90413000  1.0
  O  O138  1  0.47493000  0.99330000  0.62622000  1.0
  O  O139  1  0.52507000  0.00670000  0.37378000  1.0
  O  O140  1  0.34034000  0.16553000  0.29222000  1.0
  O  O141  1  0.65967000  0.83447000  0.70778000  1.0
  O  O142  1  0.23903000  0.19243000  0.40281000  1.0
  O  O143  1  0.76096000  0.80756000  0.59718000  1.0
  O  O144  1  0.43061000  0.16101000  0.56554000  1.0
  O  O145  1  0.56940000  0.83900000  0.43446000  1.0
