# generated using pymatgen
data_BaH3C6NO3
_symmetry_space_group_name_H-M   'P 1'
_cell_length_a   4.30971000
_cell_length_b   10.13300000
_cell_length_c   15.83250000
_cell_angle_alpha   92.84350000
_cell_angle_beta   89.99990000
_cell_angle_gamma   89.99990000
_symmetry_Int_Tables_number   1
_chemical_formula_structural   BaH3C6NO3
_chemical_formula_sum   'Ba4 H12 C24 N4 O12'
_cell_volume   690.55859883
_cell_formula_units_Z   4
loop_
 _symmetry_equiv_pos_site_id
 _symmetry_equiv_pos_as_xyz
  1  'x, y, z'
loop_
 _atom_site_type_symbol
 _atom_site_label
 _atom_site_symmetry_multiplicity
 _atom_site_fract_x
 _atom_site_fract_y
 _atom_site_fract_z
 _atom_site_occupancy
  Ba  Ba0  1  0.97069000  0.41642000  0.36209000  1.0
  Ba  Ba1  1  0.47069000  0.58358000  0.13791000  1.0
  Ba  Ba2  1  0.02931000  0.58358000  0.63791000  1.0
  Ba  Ba3  1  0.52931000  0.41642000  0.86209000  1.0
  H  H4  1  0.71396000  0.07629000  0.50173000  1.0
  H  H5  1  0.21395000  0.92371000  0.99827000  1.0
  H  H6  1  0.28605000  0.92371000  0.49827000  1.0
  H  H7  1  0.78605000  0.07629000  0.00173000  1.0
  H  H8  1  0.97778000  0.96248000  0.62096000  1.0
  H  H9  1  0.47778000  0.03752000  0.87904000  1.0
  H  H10  1  0.02222000  0.03752000  0.37903000  1.0
  H  H11  1  0.52222000  0.96248000  0.12096000  1.0
  H  H12  1  0.98100000  0.07979000  0.76456000  1.0
  H  H13  1  0.48100000  0.92021000  0.73545000  1.0
  H  H14  1  0.01900000  0.92021000  0.23544000  1.0
  H  H15  1  0.51900000  0.07979000  0.26455000  1.0
  C  C16  1  0.60948000  0.30859000  0.66243000  1.0
  C  C17  1  0.10948000  0.69141000  0.83757000  1.0
  C  C18  1  0.39052000  0.69141000  0.33757000  1.0
  C  C19  1  0.89052000  0.30859000  0.16243000  1.0
  C  C20  1  0.58438000  0.24554000  0.57964000  1.0
  C  C21  1  0.08437000  0.75447000  0.92036000  1.0
  C  C22  1  0.41563000  0.75447000  0.42036000  1.0
  C  C23  1  0.91563000  0.24554000  0.07964000  1.0
  C  C24  1  0.72419000  0.12231000  0.56539000  1.0
  C  C25  1  0.22418000  0.87769000  0.93461000  1.0
  C  C26  1  0.27582000  0.87770000  0.43461000  1.0
  C  C27  1  0.77582000  0.12231000  0.06539000  1.0
  C  C28  1  0.87039000  0.05931000  0.63091000  1.0
  C  C29  1  0.37038000  0.94069000  0.86909000  1.0
  C  C30  1  0.12961000  0.94069000  0.36909000  1.0
  C  C31  1  0.62961000  0.05931000  0.13091000  1.0
  C  C32  1  0.87404000  0.12468000  0.71035000  1.0
  C  C33  1  0.37403000  0.87532000  0.78965000  1.0
  C  C34  1  0.12597000  0.87532000  0.28965000  1.0
  C  C35  1  0.62597000  0.12468000  0.21035000  1.0
  C  C36  1  0.42314000  0.30832000  0.50866000  1.0
  C  C37  1  0.92314000  0.69168000  0.99134000  1.0
  C  C38  1  0.57686000  0.69168000  0.49134000  1.0
  C  C39  1  0.07686000  0.30833000  0.00866000  1.0
  N  N40  1  0.75066000  0.24475000  0.72593000  1.0
  N  N41  1  0.25066000  0.75525000  0.77407000  1.0
  N  N42  1  0.24933000  0.75525000  0.27407000  1.0
  N  N43  1  0.74934000  0.24475000  0.22593000  1.0
  O  O44  1  0.50243000  0.27462000  0.43240000  1.0
  O  O45  1  0.00243000  0.72538000  0.06759000  1.0
  O  O46  1  0.49757000  0.72538000  0.56759000  1.0
  O  O47  1  0.99757000  0.27462000  0.93241000  1.0
  O  O48  1  0.20819000  0.39235000  0.52494000  1.0
  O  O49  1  0.70818000  0.60765000  0.97506000  1.0
  O  O50  1  0.79181000  0.60765000  0.47506000  1.0
  O  O51  1  0.29181000  0.39235000  0.02494000  1.0
  O  O52  1  0.51693000  0.42948000  0.68192000  1.0
  O  O53  1  0.01693000  0.57052000  0.81808000  1.0
  O  O54  1  0.48306000  0.57052000  0.31808000  1.0
  O  O55  1  0.98307000  0.42948000  0.18192000  1.0
