# generated using pymatgen
data_K2CdH2C8(N3O4)2
_symmetry_space_group_name_H-M   'P 1'
_cell_length_a   8.18839000
_cell_length_b   9.24774000
_cell_length_c   10.02370000
_cell_angle_alpha   95.12910000
_cell_angle_beta   96.28920000
_cell_angle_gamma   100.43700000
_symmetry_Int_Tables_number   1
_chemical_formula_structural   K2CdH2C8(N3O4)2
_chemical_formula_sum   'K4 Cd2 H4 C16 N12 O16'
_cell_volume   737.33662368
_cell_formula_units_Z   2
loop_
 _symmetry_equiv_pos_site_id
 _symmetry_equiv_pos_as_xyz
  1  'x, y, z'
loop_
 _atom_site_type_symbol
 _atom_site_label
 _atom_site_symmetry_multiplicity
 _atom_site_fract_x
 _atom_site_fract_y
 _atom_site_fract_z
 _atom_site_occupancy
  K  K0  1  0.32738000  0.37239000  0.59550000  1.0
  K  K1  1  0.67262000  0.62761000  0.40450000  1.0
  K  K2  1  0.93794000  0.07256000  0.80816000  1.0
  K  K3  1  0.06206000  0.92744000  0.19184000  1.0
  Cd  Cd4  1  0.53573000  0.75367000  0.96929000  1.0
  Cd  Cd5  1  0.46427000  0.24634000  0.03071000  1.0
  H  H6  1  0.06488000  0.66917000  0.76127000  1.0
  H  H7  1  0.93512000  0.33083000  0.23873000  1.0
  H  H8  1  0.32224000  0.78484000  0.45490000  1.0
  H  H9  1  0.67776000  0.21516000  0.54510000  1.0
  C  C10  1  0.82818000  0.59159000  0.89166000  1.0
  C  C11  1  0.17182000  0.40841000  0.10834000  1.0
  C  C12  1  0.88597000  0.46525000  0.84349000  1.0
  C  C13  1  0.11403000  0.53474000  0.15651000  1.0
  C  C14  1  0.88980000  0.75092000  0.88586000  1.0
  C  C15  1  0.11020000  0.24908000  0.11414000  1.0
  C  C16  1  0.02322000  0.44979000  0.76229000  1.0
  C  C17  1  0.97678000  0.55021000  0.23771000  1.0
  C  C18  1  0.40344000  0.87461000  0.69898000  1.0
  C  C19  1  0.59656000  0.12539000  0.30102000  1.0
  C  C20  1  0.34035000  0.98445000  0.63296000  1.0
  C  C21  1  0.65966000  0.01555000  0.36704000  1.0
  C  C22  1  0.43108000  0.72563000  0.65127000  1.0
  C  C23  1  0.56892000  0.27437000  0.34873000  1.0
  C  C24  1  0.27376000  0.98776000  0.49065000  1.0
  C  C25  1  0.72624000  0.01224000  0.50935000  1.0
  N  N26  1  0.69620000  0.54585000  0.95730000  1.0
  N  N27  1  0.30380000  0.45416000  0.04270000  1.0
  N  N28  1  0.67473000  0.39810000  0.94946000  1.0
  N  N29  1  0.32527000  0.60190000  0.05054000  1.0
  N  N30  1  0.78788000  0.34610000  0.88264000  1.0
  N  N31  1  0.21212000  0.65390000  0.11736000  1.0
  N  N32  1  0.44811000  0.92967000  0.82989000  1.0
  N  N33  1  0.55189000  0.07033000  0.17011000  1.0
  N  N34  1  0.41573000  0.06672000  0.84299000  1.0
  N  N35  1  0.58427000  0.93328000  0.15701000  1.0
  N  N36  1  0.35083000  0.10261000  0.72605000  1.0
  N  N37  1  0.64918000  0.89739000  0.27395000  1.0
  O  O38  1  0.81713000  0.84353000  0.94642000  1.0
  O  O39  1  0.18287000  0.15647000  0.05358000  1.0
  O  O40  1  0.01528000  0.79112000  0.82324000  1.0
  O  O41  1  0.98472000  0.20888000  0.17676000  1.0
  O  O42  1  0.06309000  0.32875000  0.73440000  1.0
  O  O43  1  0.93690000  0.67124000  0.26560000  1.0
  O  O44  1  0.10139000  0.57062000  0.71806000  1.0
  O  O45  1  0.89861000  0.42938000  0.28194000  1.0
  O  O46  1  0.49298000  0.65044000  0.73613000  1.0
  O  O47  1  0.50702000  0.34956000  0.26387000  1.0
  O  O48  1  0.39255000  0.67924000  0.52485000  1.0
  O  O49  1  0.60745000  0.32076000  0.47515000  1.0
  O  O50  1  0.22149000  0.09595000  0.45005000  1.0
  O  O51  1  0.77851000  0.90406000  0.54995000  1.0
  O  O52  1  0.27343000  0.86913000  0.40627000  1.0
  O  O53  1  0.72657000  0.13087000  0.59372000  1.0
