# generated using pymatgen
data_Zn3H14C26(NO3)4
_symmetry_space_group_name_H-M   'P 1'
_cell_length_a   15.27150000
_cell_length_b   15.27150000
_cell_length_c   22.40610000
_cell_angle_alpha   90.00000000
_cell_angle_beta   90.00000000
_cell_angle_gamma   89.99930000
_symmetry_Int_Tables_number   1
_chemical_formula_structural   Zn3H14C26(NO3)4
_chemical_formula_sum   'Zn12 H56 C104 N16 O48'
_cell_volume   5225.52178815
_cell_formula_units_Z   4
loop_
 _symmetry_equiv_pos_site_id
 _symmetry_equiv_pos_as_xyz
  1  'x, y, z'
loop_
 _atom_site_type_symbol
 _atom_site_label
 _atom_site_symmetry_multiplicity
 _atom_site_fract_x
 _atom_site_fract_y
 _atom_site_fract_z
 _atom_site_occupancy
  Zn  Zn0  1  0.33134000  0.75700000  0.85486000  1.0
  Zn  Zn1  1  0.66866000  0.24300000  0.35486000  1.0
  Zn  Zn2  1  0.74299000  0.83134000  0.60486000  1.0
  Zn  Zn3  1  0.25701000  0.16866000  0.10486000  1.0
  Zn  Zn4  1  0.83134000  0.74299000  0.89514000  1.0
  Zn  Zn5  1  0.16866000  0.25701000  0.39514000  1.0
  Zn  Zn6  1  0.24299000  0.66866000  0.14514000  1.0
  Zn  Zn7  1  0.75700000  0.33134000  0.64514000  1.0
  Zn  Zn8  1  0.27690000  0.72310000  0.00000000  1.0
  Zn  Zn9  1  0.72310000  0.27690000  0.50000000  1.0
  Zn  Zn10  1  0.77689000  0.77689000  0.75000000  1.0
  Zn  Zn11  1  0.22311000  0.22311000  0.25000000  1.0
  H  H12  1  0.25349000  0.99145000  0.04115000  1.0
  H  H13  1  0.37200000  0.03286000  0.86923000  1.0
  H  H14  1  0.37855000  0.19316000  0.89291000  1.0
  H  H15  1  0.36747000  0.32528000  0.91487000  1.0
  H  H16  1  0.35368000  0.47897000  0.95124000  1.0
  H  H17  1  0.26472000  0.37683000  0.12007000  1.0
  H  H18  1  0.20553000  0.56116000  0.91380000  1.0
  H  H19  1  0.74651000  0.00854000  0.54115000  1.0
  H  H20  1  0.62800000  0.96714000  0.36923000  1.0
  H  H21  1  0.62145000  0.80684000  0.39291000  1.0
  H  H22  1  0.63252000  0.67472000  0.41487000  1.0
  H  H23  1  0.64632000  0.52103000  0.45124000  1.0
  H  H24  1  0.73528000  0.62317000  0.62007000  1.0
  H  H25  1  0.79447000  0.43883000  0.41380000  1.0
  H  H26  1  0.50853000  0.75347000  0.79115000  1.0
  H  H27  1  0.46714000  0.87201000  0.61923000  1.0
  H  H28  1  0.30683000  0.87857000  0.64291000  1.0
  H  H29  1  0.17471000  0.86748000  0.66487000  1.0
  H  H30  1  0.02102000  0.85367000  0.70125000  1.0
  H  H31  1  0.12318000  0.76471000  0.87007000  1.0
  H  H32  1  0.93882000  0.70551000  0.66382000  1.0
  H  H33  1  0.49147000  0.24653000  0.29115000  1.0
  H  H34  1  0.53286000  0.12799000  0.11923000  1.0
  H  H35  1  0.69316000  0.12143000  0.14291000  1.0
  H  H36  1  0.82529000  0.13253000  0.16487000  1.0
  H  H37  1  0.97898000  0.14633000  0.20125000  1.0
  H  H38  1  0.87682000  0.23529000  0.37007000  1.0
  H  H39  1  0.06118000  0.29448000  0.16381000  1.0
  H  H40  1  0.75347000  0.50853000  0.70885000  1.0
  H  H41  1  0.87201000  0.46714000  0.88077000  1.0
  H  H42  1  0.87857000  0.30683000  0.85709000  1.0
  H  H43  1  0.86748000  0.17471000  0.83513000  1.0
  H  H44  1  0.85367000  0.02102000  0.79875000  1.0
  H  H45  1  0.76471000  0.12318000  0.62993000  1.0
  H  H46  1  0.70551000  0.93882000  0.83618000  1.0
  H  H47  1  0.24653000  0.49147000  0.20885000  1.0
  H  H48  1  0.12799000  0.53286000  0.38077000  1.0
  H  H49  1  0.12143000  0.69317000  0.35709000  1.0
  H  H50  1  0.13253000  0.82529000  0.33513000  1.0
  H  H51  1  0.14633000  0.97898000  0.29876000  1.0
  H  H52  1  0.23529000  0.87682000  0.12993000  1.0
  H  H53  1  0.29449000  0.06118000  0.33619000  1.0
  H  H54  1  0.00854000  0.74651000  0.95884000  1.0
  H  H55  1  0.96715000  0.62800000  0.13077000  1.0
  H  H56  1  0.80684000  0.62145000  0.10709000  1.0
  H  H57  1  0.67472000  0.63252000  0.08513000  1.0
  H  H58  1  0.52103000  0.64632000  0.04876000  1.0
  H  H59  1  0.62317000  0.73528000  0.87993000  1.0
  H  H60  1  0.43883000  0.79447000  0.08620000  1.0
  H  H61  1  0.99146000  0.25349000  0.45884000  1.0
  H  H62  1  0.03285000  0.37200000  0.63077000  1.0
  H  H63  1  0.19316000  0.37855000  0.60709000  1.0
  H  H64  1  0.32528000  0.36748000  0.58513000  1.0
  H  H65  1  0.47897000  0.35368000  0.54876000  1.0
  H  H66  1  0.37683000  0.26472000  0.37993000  1.0
  H  H67  1  0.56117000  0.20553000  0.58620000  1.0
  C  C68  1  0.28155000  0.03396000  0.00713000  1.0
  C  C69  1  0.31204000  0.00004000  0.95308000  1.0
  C  C70  1  0.34743000  0.05835000  0.91146000  1.0
  C  C71  1  0.35088000  0.14719000  0.92485000  1.0
  C  C72  1  0.31918000  0.17655000  0.97997000  1.0
  C  C73  1  0.31974000  0.26983000  0.99812000  1.0
  C  C74  1  0.34477000  0.33818000  0.96006000  1.0
  C  C75  1  0.33761000  0.42393000  0.98022000  1.0
  C  C76  1  0.30761000  0.44030000  0.03823000  1.0
  C  C77  1  0.28741000  0.36832000  0.07426000  1.0
  C  C78  1  0.30715000  0.90321000  0.94095000  1.0
  C  C79  1  0.29168000  0.53304000  0.05856000  1.0
  C  C80  1  0.24462000  0.60718000  0.88637000  1.0
  C  C81  1  0.71845000  0.96604000  0.50713000  1.0
  C  C82  1  0.68796000  0.99996000  0.45308000  1.0
  C  C83  1  0.65257000  0.94165000  0.41146000  1.0
  C  C84  1  0.64912000  0.85281000  0.42485000  1.0
  C  C85  1  0.68082000  0.82345000  0.47997000  1.0
  C  C86  1  0.68026000  0.73017000  0.49812000  1.0
  C  C87  1  0.65523000  0.66182000  0.46006000  1.0
  C  C88  1  0.66239000  0.57606000  0.48022000  1.0
  C  C89  1  0.69239000  0.55970000  0.53823000  1.0
  C  C90  1  0.71259000  0.63168000  0.57426000  1.0
  C  C91  1  0.69285000  0.09679000  0.44095000  1.0
  C  C92  1  0.70832000  0.46696000  0.55856000  1.0
  C  C93  1  0.75538000  0.39282000  0.38637000  1.0
  C  C94  1  0.46603000  0.78154000  0.75713000  1.0
  C  C95  1  0.49995000  0.81204000  0.70308000  1.0
  C  C96  1  0.44164000  0.84744000  0.66146000  1.0
  C  C97  1  0.35280000  0.85088000  0.67485000  1.0
  C  C98  1  0.32344000  0.81918000  0.72997000  1.0
  C  C99  1  0.23017000  0.81974000  0.74812000  1.0
  C  C100  1  0.16181000  0.84476000  0.71006000  1.0
  C  C101  1  0.07605000  0.83761000  0.73023000  1.0
  C  C102  1  0.05970000  0.80761000  0.78823000  1.0
  C  C103  1  0.13168000  0.78740000  0.82426000  1.0
  C  C104  1  0.59678000  0.80715000  0.69095000  1.0
  C  C105  1  0.96695000  0.79168000  0.80856000  1.0
  C  C106  1  0.89281000  0.74461000  0.63638000  1.0
  C  C107  1  0.53397000  0.21846000  0.25713000  1.0
  C  C108  1  0.50005000  0.18796000  0.20308000  1.0
  C  C109  1  0.55836000  0.15256000  0.16146000  1.0
  C  C110  1  0.64720000  0.14912000  0.17485000  1.0
  C  C111  1  0.67656000  0.18082000  0.22997000  1.0
  C  C112  1  0.76983000  0.18026000  0.24812000  1.0
  C  C113  1  0.83819000  0.15524000  0.21006000  1.0
  C  C114  1  0.92394000  0.16239000  0.23022000  1.0
  C  C115  1  0.94030000  0.19239000  0.28823000  1.0
  C  C116  1  0.86832000  0.21260000  0.32426000  1.0
  C  C117  1  0.40322000  0.19285000  0.19095000  1.0
  C  C118  1  0.03304000  0.20832000  0.30856000  1.0
  C  C119  1  0.10719000  0.25539000  0.13638000  1.0
  C  C120  1  0.78154000  0.46603000  0.74287000  1.0
  C  C121  1  0.81204000  0.49995000  0.79692000  1.0
  C  C122  1  0.84744000  0.44164000  0.83854000  1.0
  C  C123  1  0.85088000  0.35280000  0.82515000  1.0
  C  C124  1  0.81918000  0.32344000  0.77003000  1.0
  C  C125  1  0.81974000  0.23017000  0.75188000  1.0
  C  C126  1  0.84476000  0.16181000  0.78994000  1.0
  C  C127  1  0.83761000  0.07606000  0.76978000  1.0
  C  C128  1  0.80761000  0.05970000  0.71177000  1.0
  C  C129  1  0.78740000  0.13168000  0.67574000  1.0
  C  C130  1  0.80715000  0.59678000  0.80905000  1.0
  C  C131  1  0.79168000  0.96695000  0.69144000  1.0
  C  C132  1  0.74461000  0.89281000  0.86362000  1.0
  C  C133  1  0.21846000  0.53397000  0.24287000  1.0
  C  C134  1  0.18796000  0.50005000  0.29692000  1.0
  C  C135  1  0.15256000  0.55836000  0.33854000  1.0
  C  C136  1  0.14912000  0.64720000  0.32515000  1.0
  C  C137  1  0.18082000  0.67656000  0.27003000  1.0
  C  C138  1  0.18026000  0.76983000  0.25188000  1.0
  C  C139  1  0.15524000  0.83819000  0.28994000  1.0
  C  C140  1  0.16239000  0.92395000  0.26978000  1.0
  C  C141  1  0.19239000  0.94030000  0.21177000  1.0
  C  C142  1  0.21259000  0.86832000  0.17574000  1.0
  C  C143  1  0.19285000  0.40322000  0.30905000  1.0
  C  C144  1  0.20832000  0.03305000  0.19144000  1.0
  C  C145  1  0.25539000  0.10719000  0.36362000  1.0
  C  C146  1  0.96604000  0.71845000  0.99287000  1.0
  C  C147  1  0.99996000  0.68796000  0.04692000  1.0
  C  C148  1  0.94165000  0.65257000  0.08854000  1.0
  C  C149  1  0.85281000  0.64912000  0.07515000  1.0
  C  C150  1  0.82345000  0.68082000  0.02002000  1.0
  C  C151  1  0.73017000  0.68026000  0.00188000  1.0
  C  C152  1  0.66182000  0.65523000  0.03994000  1.0
  C  C153  1  0.57607000  0.66239000  0.01978000  1.0
  C  C154  1  0.55970000  0.69239000  0.96177000  1.0
  C  C155  1  0.63169000  0.71259000  0.92574000  1.0
  C  C156  1  0.09679000  0.69285000  0.05905000  1.0
  C  C157  1  0.46696000  0.70832000  0.94144000  1.0
  C  C158  1  0.39282000  0.75538000  0.11363000  1.0
  C  C159  1  0.03396000  0.28155000  0.49287000  1.0
  C  C160  1  0.00004000  0.31204000  0.54692000  1.0
  C  C161  1  0.05835000  0.34743000  0.58854000  1.0
  C  C162  1  0.14719000  0.35088000  0.57515000  1.0
  C  C163  1  0.17655000  0.31918000  0.52003000  1.0
  C  C164  1  0.26983000  0.31974000  0.50188000  1.0
  C  C165  1  0.33818000  0.34477000  0.53994000  1.0
  C  C166  1  0.42394000  0.33761000  0.51978000  1.0
  C  C167  1  0.44030000  0.30761000  0.46177000  1.0
  C  C168  1  0.36831000  0.28741000  0.42574000  1.0
  C  C169  1  0.90321000  0.30715000  0.55905000  1.0
  C  C170  1  0.53304000  0.29168000  0.44144000  1.0
  C  C171  1  0.60718000  0.24462000  0.61363000  1.0
  N  N172  1  0.28536000  0.11943000  0.02005000  1.0
  N  N173  1  0.29241000  0.28599000  0.05425000  1.0
  N  N174  1  0.71464000  0.88057000  0.52005000  1.0
  N  N175  1  0.70759000  0.71401000  0.55425000  1.0
  N  N176  1  0.38056000  0.78535000  0.77005000  1.0
  N  N177  1  0.21401000  0.79241000  0.80424000  1.0
  N  N178  1  0.61944000  0.21465000  0.27005000  1.0
  N  N179  1  0.78599000  0.20759000  0.30424000  1.0
  N  N180  1  0.78535000  0.38056000  0.72995000  1.0
  N  N181  1  0.79241000  0.21401000  0.69576000  1.0
  N  N182  1  0.21465000  0.61944000  0.22995000  1.0
  N  N183  1  0.20759000  0.78599000  0.19576000  1.0
  N  N184  1  0.88057000  0.71464000  0.97995000  1.0
  N  N185  1  0.71401000  0.70759000  0.94575000  1.0
  N  N186  1  0.11943000  0.28536000  0.47995000  1.0
  N  N187  1  0.28599000  0.29241000  0.44575000  1.0
  O  O188  1  0.27128000  0.85644000  0.98056000  1.0
  O  O189  1  0.33989000  0.87856000  0.89137000  1.0
  O  O190  1  0.28242000  0.58758000  0.01662000  1.0
  O  O191  1  0.28688000  0.54735000  0.11448000  1.0
  O  O192  1  0.25461000  0.68501000  0.91019000  1.0
  O  O193  1  0.27518000  0.58609000  0.83738000  1.0
  O  O194  1  0.72872000  0.14356000  0.48056000  1.0
  O  O195  1  0.66011000  0.12144000  0.39137000  1.0
  O  O196  1  0.71758000  0.41242000  0.51662000  1.0
  O  O197  1  0.71312000  0.45265000  0.61448000  1.0
  O  O198  1  0.74539000  0.31498000  0.41019000  1.0
  O  O199  1  0.72482000  0.41391000  0.33738000  1.0
  O  O200  1  0.64355000  0.77127000  0.73055000  1.0
  O  O201  1  0.62144000  0.83991000  0.64138000  1.0
  O  O202  1  0.91242000  0.78241000  0.76662000  1.0
  O  O203  1  0.95265000  0.78689000  0.86448000  1.0
  O  O204  1  0.81497000  0.75460000  0.66019000  1.0
  O  O205  1  0.91391000  0.77518000  0.58739000  1.0
  O  O206  1  0.35644000  0.22873000  0.23055000  1.0
  O  O207  1  0.37856000  0.16009000  0.14137000  1.0
  O  O208  1  0.08758000  0.21759000  0.26662000  1.0
  O  O209  1  0.04735000  0.21312000  0.36448000  1.0
  O  O210  1  0.18503000  0.24540000  0.16019000  1.0
  O  O211  1  0.08609000  0.22482000  0.08739000  1.0
  O  O212  1  0.77127000  0.64356000  0.76945000  1.0
  O  O213  1  0.83991000  0.62144000  0.85862000  1.0
  O  O214  1  0.78241000  0.91242000  0.73338000  1.0
  O  O215  1  0.78689000  0.95265000  0.63552000  1.0
  O  O216  1  0.75460000  0.81497000  0.83981000  1.0
  O  O217  1  0.77518000  0.91391000  0.91261000  1.0
  O  O218  1  0.22873000  0.35644000  0.26945000  1.0
  O  O219  1  0.16009000  0.37856000  0.35862000  1.0
  O  O220  1  0.21759000  0.08758000  0.23338000  1.0
  O  O221  1  0.21311000  0.04735000  0.13552000  1.0
  O  O222  1  0.24540000  0.18503000  0.33981000  1.0
  O  O223  1  0.22482000  0.08609000  0.41261000  1.0
  O  O224  1  0.14356000  0.72871000  0.01943000  1.0
  O  O225  1  0.12144000  0.66011000  0.10862000  1.0
  O  O226  1  0.41242000  0.71758000  0.98338000  1.0
  O  O227  1  0.45265000  0.71312000  0.88552000  1.0
  O  O228  1  0.31498000  0.74539000  0.08981000  1.0
  O  O229  1  0.41391000  0.72482000  0.16262000  1.0
  O  O230  1  0.85644000  0.27128000  0.51944000  1.0
  O  O231  1  0.87856000  0.33989000  0.60862000  1.0
  O  O232  1  0.58758000  0.28242000  0.48338000  1.0
  O  O233  1  0.54735000  0.28688000  0.38552000  1.0
  O  O234  1  0.68502000  0.25461000  0.58981000  1.0
  O  O235  1  0.58609000  0.27518000  0.66262000  1.0
