# generated using pymatgen
data_CoH15C19N7O4
_symmetry_space_group_name_H-M   'P 1'
_cell_length_a   9.01340000
_cell_length_b   10.02780000
_cell_length_c   11.53150000
_cell_angle_alpha   82.70870000
_cell_angle_beta   76.05410000
_cell_angle_gamma   75.80500000
_symmetry_Int_Tables_number   1
_chemical_formula_structural   CoH15C19N7O4
_chemical_formula_sum   'Co2 H30 C38 N14 O8'
_cell_volume   978.11120516
_cell_formula_units_Z   2
loop_
 _symmetry_equiv_pos_site_id
 _symmetry_equiv_pos_as_xyz
  1  'x, y, z'
loop_
 _atom_site_type_symbol
 _atom_site_label
 _atom_site_symmetry_multiplicity
 _atom_site_fract_x
 _atom_site_fract_y
 _atom_site_fract_z
 _atom_site_occupancy
  Co  Co0  1  0.64495000  0.64702000  0.97896000  1.0
  Co  Co1  1  0.35505000  0.35298000  0.02104000  1.0
  H  H2  1  0.02046000  0.30079000  0.83596000  1.0
  H  H3  1  0.97954000  0.69921000  0.16404000  1.0
  H  H4  1  0.19667000  0.06883000  0.79752000  1.0
  H  H5  1  0.80334000  0.93117000  0.20248000  1.0
  H  H6  1  0.08396000  0.85956000  0.84042000  1.0
  H  H7  1  0.91604000  0.14044000  0.15958000  1.0
  H  H8  1  0.62193000  0.11591000  0.94318000  1.0
  H  H9  1  0.37807000  0.88409000  0.05682000  1.0
  H  H10  1  0.93158000  0.41235000  0.10115000  1.0
  H  H11  1  0.06842000  0.58765000  0.89885000  1.0
  H  H12  1  0.58470000  0.75154000  0.24173000  1.0
  H  H13  1  0.41530000  0.24845000  0.75827000  1.0
  H  H14  1  0.01690000  0.47454000  0.38784000  1.0
  H  H15  1  0.98309000  0.52546000  0.61217000  1.0
  H  H16  1  0.06929000  0.35323000  0.27598000  1.0
  H  H17  1  0.93071000  0.64677000  0.72402000  1.0
  H  H18  1  0.07492000  0.23707000  0.52093000  1.0
  H  H19  1  0.92508000  0.76293000  0.47907000  1.0
  H  H20  1  0.93522000  0.06801000  0.65400000  1.0
  H  H21  1  0.06478000  0.93198000  0.34600000  1.0
  H  H22  1  0.66715000  0.05930000  0.63122000  1.0
  H  H23  1  0.33285000  0.94070000  0.36878000  1.0
  H  H24  1  0.42449000  0.32500000  0.50700000  1.0
  H  H25  1  0.57551000  0.67500000  0.49300000  1.0
  H  H26  1  0.45604000  0.14306000  0.53157000  1.0
  H  H27  1  0.54396000  0.85695000  0.46843000  1.0
  H  H28  1  0.53225000  0.04860000  0.13092000  1.0
  H  H29  1  0.46775000  0.95140000  0.86908000  1.0
  H  H30  1  0.41095000  0.42844000  0.28789000  1.0
  H  H31  1  0.58905000  0.57157000  0.71211000  1.0
  C  C32  1  0.70372000  0.36278000  0.90816000  1.0
  C  C33  1  0.29628000  0.63722000  0.09184000  1.0
  C  C34  1  0.81046000  0.22372000  0.88995000  1.0
  C  C35  1  0.18954000  0.77628000  0.11005000  1.0
  C  C36  1  0.97294000  0.20906000  0.85094000  1.0
  C  C37  1  0.02706000  0.79094000  0.14906000  1.0
  C  C38  1  0.07091000  0.07910000  0.83078000  1.0
  C  C39  1  0.92909000  0.92090000  0.16922000  1.0
  C  C40  1  0.00826000  0.96180000  0.85428000  1.0
  C  C41  1  0.99175000  0.03819000  0.14571000  1.0
  C  C42  1  0.84649000  0.97509000  0.89911000  1.0
  C  C43  1  0.15351000  0.02491000  0.10089000  1.0
  C  C44  1  0.74799000  0.10607000  0.91343000  1.0
  C  C45  1  0.25201000  0.89394000  0.08657000  1.0
  C  C46  1  0.77693000  0.85196000  0.93381000  1.0
  C  C47  1  0.22307000  0.14804000  0.06619000  1.0
  C  C48  1  0.85481000  0.49080000  0.15833000  1.0
  C  C49  1  0.14519000  0.50920000  0.84167000  1.0
  C  C50  1  0.68128000  0.66171000  0.23364000  1.0
  C  C51  1  0.31872000  0.33829000  0.76636000  1.0
  C  C52  1  0.97089000  0.41152000  0.33969000  1.0
  C  C53  1  0.02911000  0.58848000  0.66031000  1.0
  C  C54  1  0.88626000  0.31306000  0.42613000  1.0
  C  C55  1  0.11374000  0.68694000  0.57387000  1.0
  C  C56  1  0.95935000  0.22929000  0.51246000  1.0
  C  C57  1  0.04065000  0.77071000  0.48754000  1.0
  C  C58  1  0.88117000  0.13602000  0.58695000  1.0
  C  C59  1  0.11883000  0.86398000  0.41305000  1.0
  C  C60  1  0.73228000  0.13101000  0.57478000  1.0
  C  C61  1  0.26772000  0.86899000  0.42522000  1.0
  C  C62  1  0.66753000  0.22075000  0.48803000  1.0
  C  C63  1  0.33247000  0.77924000  0.51196000  1.0
  C  C64  1  0.50236000  0.22740000  0.47607000  1.0
  C  C65  1  0.49764000  0.77260000  0.52393000  1.0
  C  C66  1  0.51041000  0.12597000  0.19475000  1.0
  C  C67  1  0.48960000  0.87403000  0.80524000  1.0
  C  C68  1  0.44706000  0.31969000  0.27207000  1.0
  C  C69  1  0.55294000  0.68032000  0.72793000  1.0
  N  N70  1  0.73677000  0.59109000  0.13256000  1.0
  N  N71  1  0.26323000  0.40891000  0.86744000  1.0
  N  N72  1  0.75854000  0.61096000  0.31988000  1.0
  N  N73  1  0.24145000  0.38904000  0.68012000  1.0
  N  N74  1  0.86939000  0.50316000  0.26982000  1.0
  N  N75  1  0.13061000  0.49684000  0.73018000  1.0
  N  N76  1  0.74340000  0.30914000  0.41429000  1.0
  N  N77  1  0.25660000  0.69086000  0.58571000  1.0
  N  N78  1  0.49204000  0.21855000  0.35354000  1.0
  N  N79  1  0.50795000  0.78145000  0.64646000  1.0
  N  N80  1  0.53421000  0.09400000  0.30523000  1.0
  N  N81  1  0.46579000  0.90600000  0.69477000  1.0
  N  N82  1  0.45547000  0.26436000  0.17045000  1.0
  N  N83  1  0.54453000  0.73564000  0.82955000  1.0
  O  O84  1  0.76471000  0.46456000  0.90990000  1.0
  O  O85  1  0.23529000  0.53544000  0.09009000  1.0
  O  O86  1  0.55723000  0.37378000  0.91832000  1.0
  O  O87  1  0.44277000  0.62622000  0.08168000  1.0
  O  O88  1  0.84674000  0.73786000  0.88742000  1.0
  O  O89  1  0.15327000  0.26214000  0.11259000  1.0
  O  O90  1  0.64555000  0.86106000  0.00914000  1.0
  O  O91  1  0.35445000  0.13894000  0.99085000  1.0
