# generated using pymatgen
data_CdH11C13N3O4
_symmetry_space_group_name_H-M   'P 1'
_cell_length_a   11.75730000
_cell_length_b   13.43890000
_cell_length_c   15.84470000
_cell_angle_alpha   89.99970000
_cell_angle_beta   97.89230000
_cell_angle_gamma   89.99930000
_symmetry_Int_Tables_number   1
_chemical_formula_structural   CdH11C13N3O4
_chemical_formula_sum   'Cd4 H44 C52 N12 O16'
_cell_volume   2479.83089749
_cell_formula_units_Z   4
loop_
 _symmetry_equiv_pos_site_id
 _symmetry_equiv_pos_as_xyz
  1  'x, y, z'
loop_
 _atom_site_type_symbol
 _atom_site_label
 _atom_site_symmetry_multiplicity
 _atom_site_fract_x
 _atom_site_fract_y
 _atom_site_fract_z
 _atom_site_occupancy
  Cd  Cd0  1  0.93546000  0.08365000  0.92553000  1.0
  Cd  Cd1  1  0.56455000  0.58366000  0.57447000  1.0
  Cd  Cd2  1  0.06454000  0.91635000  0.07447000  1.0
  Cd  Cd3  1  0.43545000  0.41635000  0.42553000  1.0
  H  H4  1  0.61706000  0.50126000  0.75775000  1.0
  H  H5  1  0.88294000  0.00126000  0.74224000  1.0
  H  H6  1  0.38293000  0.49874000  0.24224000  1.0
  H  H7  1  0.11705000  0.99874000  0.25776000  1.0
  H  H8  1  0.73021000  0.37104000  0.84719000  1.0
  H  H9  1  0.76979000  0.87104000  0.65281000  1.0
  H  H10  1  0.26977000  0.62896000  0.15282000  1.0
  H  H11  1  0.23021000  0.12896000  0.34719000  1.0
  H  H12  1  0.89774000  0.29941000  0.62968000  1.0
  H  H13  1  0.60228000  0.79942000  0.87032000  1.0
  H  H14  1  0.10225000  0.70059000  0.37032000  1.0
  H  H15  1  0.39773000  0.20058000  0.12968000  1.0
  H  H16  1  0.77344000  0.42868000  0.54715000  1.0
  H  H17  1  0.72659000  0.92868000  0.95285000  1.0
  H  H18  1  0.22656000  0.57132000  0.45285000  1.0
  H  H19  1  0.27343000  0.07132000  0.04715000  1.0
  H  H20  1  0.13064000  0.11316000  0.72042000  1.0
  H  H21  1  0.36937000  0.61317000  0.77958000  1.0
  H  H22  1  0.86936000  0.88684000  0.27957000  1.0
  H  H23  1  0.63064000  0.38682000  0.22042000  1.0
  H  H24  1  0.27081000  0.00190000  0.71061000  1.0
  H  H25  1  0.22920000  0.50189000  0.78938000  1.0
  H  H26  1  0.72919000  0.99811000  0.28938000  1.0
  H  H27  1  0.77081000  0.49809000  0.21062000  1.0
  H  H28  1  0.40402000  0.86355000  0.76220000  1.0
  H  H29  1  0.09599000  0.36355000  0.73780000  1.0
  H  H30  1  0.59599000  0.13646000  0.23780000  1.0
  H  H31  1  0.90402000  0.63644000  0.26220000  1.0
  H  H32  1  0.24461000  0.84728000  0.99105000  1.0
  H  H33  1  0.25541000  0.34727000  0.50896000  1.0
  H  H34  1  0.75539000  0.15273000  0.00896000  1.0
  H  H35  1  0.74460000  0.65273000  0.49104000  1.0
  H  H36  1  0.97648000  0.23314000  0.07087000  1.0
  H  H37  1  0.52352000  0.73314000  0.42912000  1.0
  H  H38  1  0.02352000  0.76687000  0.92912000  1.0
  H  H39  1  0.47648000  0.26686000  0.57087000  1.0
  H  H40  1  0.95918000  0.26488000  0.97497000  1.0
  H  H41  1  0.54082000  0.76488000  0.52503000  1.0
  H  H42  1  0.04082000  0.73512000  0.02502000  1.0
  H  H43  1  0.45917000  0.23511000  0.47497000  1.0
  H  H44  1  0.39396000  0.75492000  0.96552000  1.0
  H  H45  1  0.10606000  0.25493000  0.53449000  1.0
  H  H46  1  0.60604000  0.24508000  0.03448000  1.0
  H  H47  1  0.89395000  0.74507000  0.46552000  1.0
  C  C48  1  0.67985000  0.45474000  0.73171000  1.0
  C  C49  1  0.82016000  0.95473000  0.76828000  1.0
  C  C50  1  0.32015000  0.54527000  0.26829000  1.0
  C  C51  1  0.17984000  0.04527000  0.23171000  1.0
  C  C52  1  0.74254000  0.38321000  0.78113000  1.0
  C  C53  1  0.75745000  0.88320000  0.71886000  1.0
  C  C54  1  0.25744000  0.61679000  0.21887000  1.0
  C  C55  1  0.24254000  0.11680000  0.28113000  1.0
  C  C56  1  0.82273000  0.32530000  0.74522000  1.0
  C  C57  1  0.67727000  0.82530000  0.75478000  1.0
  C  C58  1  0.17725000  0.67469000  0.25478000  1.0
  C  C59  1  0.32273000  0.17470000  0.24522000  1.0
  C  C60  1  0.83575000  0.34246000  0.65967000  1.0
  C  C61  1  0.66425000  0.84246000  0.84032000  1.0
  C  C62  1  0.16422000  0.65753000  0.34033000  1.0
  C  C63  1  0.33576000  0.15754000  0.15968000  1.0
  C  C64  1  0.76812000  0.41459000  0.61430000  1.0
  C  C65  1  0.73189000  0.91459000  0.88570000  1.0
  C  C66  1  0.23186000  0.58540000  0.38570000  1.0
  C  C67  1  0.26812000  0.08541000  0.11430000  1.0
  C  C68  1  0.88802000  0.24772000  0.79860000  1.0
  C  C69  1  0.61198000  0.74773000  0.70140000  1.0
  C  C70  1  0.11197000  0.75227000  0.20140000  1.0
  C  C71  1  0.38802000  0.25227000  0.29860000  1.0
  C  C72  1  0.10980000  0.08465000  0.78163000  1.0
  C  C73  1  0.39019000  0.58466000  0.71837000  1.0
  C  C74  1  0.89019000  0.91535000  0.21837000  1.0
  C  C75  1  0.60980000  0.41534000  0.28163000  1.0
  C  C76  1  0.17943000  0.00395000  0.81953000  1.0
  C  C77  1  0.32057000  0.50395000  0.68047000  1.0
  C  C78  1  0.82057000  0.99606000  0.18047000  1.0
  C  C79  1  0.67943000  0.49604000  0.31953000  1.0
  C  C80  1  0.26482000  0.96735000  0.77228000  1.0
  C  C81  1  0.23518000  0.46735000  0.72771000  1.0
  C  C82  1  0.73517000  0.03266000  0.22771000  1.0
  C  C83  1  0.76483000  0.53264000  0.27229000  1.0
  C  C84  1  0.34002000  0.89115000  0.79998000  1.0
  C  C85  1  0.15999000  0.39115000  0.70003000  1.0
  C  C86  1  0.65998000  0.10886000  0.20002000  1.0
  C  C87  1  0.84002000  0.60884000  0.29998000  1.0
  C  C88  1  0.33191000  0.84855000  0.88000000  1.0
  C  C89  1  0.16810000  0.34854000  0.62001000  1.0
  C  C90  1  0.66810000  0.15146000  0.12000000  1.0
  C  C91  1  0.83191000  0.65145000  0.38000000  1.0
  C  C92  1  0.24930000  0.88109000  0.92872000  1.0
  C  C93  1  0.25072000  0.38108000  0.57129000  1.0
  C  C94  1  0.75071000  0.11892000  0.07129000  1.0
  C  C95  1  0.74929000  0.61892000  0.42871000  1.0
  C  C96  1  0.17112000  0.95786000  0.90080000  1.0
  C  C97  1  0.32890000  0.45786000  0.59920000  1.0
  C  C98  1  0.82889000  0.04215000  0.09920000  1.0
  C  C99  1  0.67111000  0.54215000  0.40080000  1.0
  N  N100  1  0.69157000  0.47034000  0.64944000  1.0
  N  N101  1  0.80843000  0.97034000  0.85055000  1.0
  N  N102  1  0.30842000  0.52966000  0.35056000  1.0
  N  N103  1  0.19157000  0.02966000  0.14945000  1.0
  N  N104  1  0.96876000  0.20143000  0.76227000  1.0
  N  N105  1  0.53124000  0.70143000  0.73773000  1.0
  N  N106  1  0.03123000  0.79858000  0.23774000  1.0
  N  N107  1  0.46876000  0.29856000  0.26227000  1.0
  N  N108  1  0.02426000  0.12787000  0.81208000  1.0
  N  N109  1  0.47575000  0.62786000  0.68793000  1.0
  N  N110  1  0.97574000  0.87214000  0.18793000  1.0
  N  N111  1  0.52425000  0.37214000  0.31207000  1.0
  O  O112  1  0.85893000  0.23311000  0.87405000  1.0
  O  O113  1  0.64108000  0.73311000  0.62595000  1.0
  O  O114  1  0.14106000  0.76689000  0.12595000  1.0
  O  O115  1  0.35892000  0.26689000  0.37405000  1.0
  O  O116  1  0.01344000  0.23219000  0.01955000  1.0
  O  O117  1  0.48656000  0.73218000  0.48045000  1.0
  O  O118  1  0.98656000  0.76783000  0.98044000  1.0
  O  O119  1  0.51344000  0.26782000  0.51955000  1.0
  O  O120  1  0.09514000  0.98522000  0.95020000  1.0
  O  O121  1  0.40487000  0.48522000  0.54980000  1.0
  O  O122  1  0.90487000  0.01478000  0.04979000  1.0
  O  O123  1  0.59513000  0.51478000  0.45020000  1.0
  O  O124  1  0.40759000  0.77433000  0.90848000  1.0
  O  O125  1  0.09243000  0.27433000  0.59154000  1.0
  O  O126  1  0.59243000  0.22568000  0.09153000  1.0
  O  O127  1  0.90758000  0.72567000  0.40847000  1.0
