# generated using pymatgen
data_UH10(C7O4)2
_symmetry_space_group_name_H-M   'P 1'
_cell_length_a   8.70995000
_cell_length_b   10.14110000
_cell_length_c   16.08740000
_cell_angle_alpha   96.13510000
_cell_angle_beta   89.99990000
_cell_angle_gamma   89.99970000
_symmetry_Int_Tables_number   1
_chemical_formula_structural   UH10(C7O4)2
_chemical_formula_sum   'U4 H40 C56 O32'
_cell_volume   1412.83708061
_cell_formula_units_Z   4
loop_
 _symmetry_equiv_pos_site_id
 _symmetry_equiv_pos_as_xyz
  1  'x, y, z'
loop_
 _atom_site_type_symbol
 _atom_site_label
 _atom_site_symmetry_multiplicity
 _atom_site_fract_x
 _atom_site_fract_y
 _atom_site_fract_z
 _atom_site_occupancy
  U  U0  1  0.55259000  0.29324000  0.58632000  1.0
  U  U1  1  0.05260000  0.20676000  0.41368000  1.0
  U  U2  1  0.44739000  0.70675000  0.41368000  1.0
  U  U3  1  0.94741000  0.79324000  0.58632000  1.0
  H  H4  1  0.46433000  0.34273000  0.88666000  1.0
  H  H5  1  0.96433000  0.15727000  0.11334000  1.0
  H  H6  1  0.53567000  0.65727000  0.11334000  1.0
  H  H7  1  0.03567000  0.84273000  0.88666000  1.0
  H  H8  1  0.80367000  0.04915000  0.80405000  1.0
  H  H9  1  0.30366000  0.45085000  0.19595000  1.0
  H  H10  1  0.19633000  0.95085000  0.19595000  1.0
  H  H11  1  0.69633000  0.54915000  0.80405000  1.0
  H  H12  1  0.48044000  0.27744000  0.03162000  1.0
  H  H13  1  0.98044000  0.22256000  0.96838000  1.0
  H  H14  1  0.51956000  0.72256000  0.96838000  1.0
  H  H15  1  0.01956000  0.77744000  0.03162000  1.0
  H  H16  1  0.82413000  0.98668000  0.95006000  1.0
  H  H17  1  0.32412000  0.51332000  0.04994000  1.0
  H  H18  1  0.17587000  0.01332000  0.04994000  1.0
  H  H19  1  0.67587000  0.48668000  0.95006000  1.0
  H  H20  1  0.67408000  0.47707000  0.24875000  1.0
  H  H21  1  0.17407000  0.02292000  0.75125000  1.0
  H  H22  1  0.32592000  0.52293000  0.75125000  1.0
  H  H23  1  0.82593000  0.97708000  0.24875000  1.0
  H  H24  1  0.72876000  0.34947000  0.11131000  1.0
  H  H25  1  0.22876000  0.15053000  0.88868000  1.0
  H  H26  1  0.27124000  0.65053000  0.88869000  1.0
  H  H27  1  0.77124000  0.84947000  0.11131000  1.0
  H  H28  1  0.53394000  0.00014000  0.20063000  1.0
  H  H29  1  0.03395000  0.49986000  0.79937000  1.0
  H  H30  1  0.46605000  0.99986000  0.79938000  1.0
  H  H31  1  0.96605000  0.50014000  0.20062000  1.0
  H  H32  1  0.48135000  0.12827000  0.33925000  1.0
  H  H33  1  0.98135000  0.37173000  0.66075000  1.0
  H  H34  1  0.51865000  0.87173000  0.66075000  1.0
  H  H35  1  0.01865000  0.62827000  0.33925000  1.0
  H  H36  1  0.72499000  0.08937000  0.46149000  1.0
  H  H37  1  0.22499000  0.41063000  0.53851000  1.0
  H  H38  1  0.27501000  0.91063000  0.53851000  1.0
  H  H39  1  0.77501000  0.58936000  0.46149000  1.0
  H  H40  1  0.68632000  0.01383000  0.53908000  1.0
  H  H41  1  0.18632000  0.48617000  0.46092000  1.0
  H  H42  1  0.31368000  0.98617000  0.46092000  1.0
  H  H43  1  0.81368000  0.51383000  0.53908000  1.0
  C  C44  1  0.61492000  0.23694000  0.75074000  1.0
  C  C45  1  0.11491000  0.26306000  0.24926000  1.0
  C  C46  1  0.38509000  0.76306000  0.24926000  1.0
  C  C47  1  0.88509000  0.73694000  0.75074000  1.0
  C  C48  1  0.63475000  0.20223000  0.83698000  1.0
  C  C49  1  0.13475000  0.29776000  0.16302000  1.0
  C  C50  1  0.36525000  0.79776000  0.16302000  1.0
  C  C51  1  0.86525000  0.70224000  0.83698000  1.0
  C  C52  1  0.54448000  0.26605000  0.90140000  1.0
  C  C53  1  0.04448000  0.23395000  0.09860000  1.0
  C  C54  1  0.45552000  0.73395000  0.09860000  1.0
  C  C55  1  0.95552000  0.76605000  0.90140000  1.0
  C  C56  1  0.73552000  0.10065000  0.85435000  1.0
  C  C57  1  0.23551000  0.39935000  0.14565000  1.0
  C  C58  1  0.26448000  0.89935000  0.14566000  1.0
  C  C59  1  0.76448000  0.60065000  0.85435000  1.0
  C  C60  1  0.55346000  0.23014000  0.98226000  1.0
  C  C61  1  0.05346000  0.26986000  0.01774000  1.0
  C  C62  1  0.44654000  0.76986000  0.01774000  1.0
  C  C63  1  0.94654000  0.73014000  0.98226000  1.0
  C  C64  1  0.74712000  0.06548000  0.93527000  1.0
  C  C65  1  0.24712000  0.43452000  0.06473000  1.0
  C  C66  1  0.25288000  0.93452000  0.06473000  1.0
  C  C67  1  0.75288000  0.56548000  0.93527000  1.0
  C  C68  1  0.65679000  0.13060000  0.99900000  1.0
  C  C69  1  0.15679000  0.36940000  0.00100000  1.0
  C  C70  1  0.34321000  0.86940000  0.00100000  1.0
  C  C71  1  0.84321000  0.63060000  0.99900000  1.0
  C  C72  1  0.55627000  0.38450000  0.38598000  1.0
  C  C73  1  0.05627000  0.11550000  0.61402000  1.0
  C  C74  1  0.44373000  0.61550000  0.61402000  1.0
  C  C75  1  0.94373000  0.88450000  0.38598000  1.0
  C  C76  1  0.57647000  0.31044000  0.30268000  1.0
  C  C77  1  0.07647000  0.18957000  0.69732000  1.0
  C  C78  1  0.42353000  0.68956000  0.69732000  1.0
  C  C79  1  0.92353000  0.81043000  0.30268000  1.0
  C  C80  1  0.64334000  0.37268000  0.23776000  1.0
  C  C81  1  0.14333000  0.12732000  0.76223000  1.0
  C  C82  1  0.35666000  0.62732000  0.76224000  1.0
  C  C83  1  0.85667000  0.87268000  0.23776000  1.0
  C  C84  1  0.67309000  0.30157000  0.16074000  1.0
  C  C85  1  0.17309000  0.19843000  0.83926000  1.0
  C  C86  1  0.32691000  0.69843000  0.83926000  1.0
  C  C87  1  0.82691000  0.80157000  0.16074000  1.0
  C  C88  1  0.63335000  0.16716000  0.14887000  1.0
  C  C89  1  0.13335000  0.33284000  0.85113000  1.0
  C  C90  1  0.36665000  0.83284000  0.85113000  1.0
  C  C91  1  0.86665000  0.66716000  0.14887000  1.0
  C  C92  1  0.56412000  0.10444000  0.21237000  1.0
  C  C93  1  0.06412000  0.39556000  0.78763000  1.0
  C  C94  1  0.43588000  0.89556000  0.78764000  1.0
  C  C95  1  0.93588000  0.60443000  0.21236000  1.0
  C  C96  1  0.53598000  0.17590000  0.28938000  1.0
  C  C97  1  0.03598000  0.32411000  0.71062000  1.0
  C  C98  1  0.46402000  0.82411000  0.71062000  1.0
  C  C99  1  0.96402000  0.67589000  0.28938000  1.0
  O  O100  1  0.51406000  0.32223000  0.44667000  1.0
  O  O101  1  0.01405000  0.17778000  0.55333000  1.0
  O  O102  1  0.48595000  0.67777000  0.55333000  1.0
  O  O103  1  0.98595000  0.82222000  0.44667000  1.0
  O  O104  1  0.54361000  0.34371000  0.73739000  1.0
  O  O105  1  0.04361000  0.15628000  0.26261000  1.0
  O  O106  1  0.45640000  0.65629000  0.26261000  1.0
  O  O107  1  0.95639000  0.84371000  0.73739000  1.0
  O  O108  1  0.66393000  0.15931000  0.68810000  1.0
  O  O109  1  0.16392000  0.34068000  0.31190000  1.0
  O  O110  1  0.33608000  0.84069000  0.31190000  1.0
  O  O111  1  0.83607000  0.65932000  0.68810000  1.0
  O  O112  1  0.67039000  0.08594000  0.07658000  1.0
  O  O113  1  0.17039000  0.41406000  0.92342000  1.0
  O  O114  1  0.32961000  0.91406000  0.92342000  1.0
  O  O115  1  0.82961000  0.58594000  0.07658000  1.0
  O  O116  1  0.58406000  0.51014000  0.39513000  1.0
  O  O117  1  0.08405000  0.98986000  0.60487000  1.0
  O  O118  1  0.41594000  0.48986000  0.60487000  1.0
  O  O119  1  0.91594000  0.01014000  0.39513000  1.0
  O  O120  1  0.73123000  0.38614000  0.58307000  1.0
  O  O121  1  0.23122000  0.11386000  0.41693000  1.0
  O  O122  1  0.26878000  0.61387000  0.41693000  1.0
  O  O123  1  0.76876000  0.88614000  0.58307000  1.0
  O  O124  1  0.37105000  0.20797000  0.59116000  1.0
  O  O125  1  0.87104000  0.29204000  0.40884000  1.0
  O  O126  1  0.62896000  0.79204000  0.40884000  1.0
  O  O127  1  0.12895000  0.70797000  0.59116000  1.0
  O  O128  1  0.65621000  0.09153000  0.50968000  1.0
  O  O129  1  0.15621000  0.40847000  0.49032000  1.0
  O  O130  1  0.34379000  0.90847000  0.49032000  1.0
  O  O131  1  0.84379000  0.59153000  0.50968000  1.0
