# generated using pymatgen
data_CaH9C2(ClO2)2
_symmetry_space_group_name_H-M   'P 1'
_cell_length_a   5.76896000
_cell_length_b   6.26821000
_cell_length_c   21.79810000
_cell_angle_alpha   91.67570000
_cell_angle_beta   89.99980000
_cell_angle_gamma   89.99960000
_symmetry_Int_Tables_number   1
_chemical_formula_structural   CaH9C2(ClO2)2
_chemical_formula_sum   'Ca4 H36 C8 Cl8 O16'
_cell_volume   787.90515405
_cell_formula_units_Z   4
loop_
 _symmetry_equiv_pos_site_id
 _symmetry_equiv_pos_as_xyz
  1  'x, y, z'
loop_
 _atom_site_type_symbol
 _atom_site_label
 _atom_site_symmetry_multiplicity
 _atom_site_fract_x
 _atom_site_fract_y
 _atom_site_fract_z
 _atom_site_occupancy
  Ca  Ca0  1  0.75181000  0.04560000  0.65315000  1.0
  Ca  Ca1  1  0.74820000  0.04562000  0.15315000  1.0
  Ca  Ca2  1  0.24820000  0.95439000  0.34685000  1.0
  Ca  Ca3  1  0.25179000  0.95439000  0.84685000  1.0
  H  H4  1  0.23955000  0.96389000  0.51057000  1.0
  H  H5  1  0.26046000  0.96390000  0.01058000  1.0
  H  H6  1  0.76048000  0.03611000  0.48943000  1.0
  H  H7  1  0.73957000  0.03610000  0.98943000  1.0
  H  H8  1  0.34829000  0.66835000  0.57233000  1.0
  H  H9  1  0.15173000  0.66835000  0.07233000  1.0
  H  H10  1  0.65172000  0.33165000  0.42767000  1.0
  H  H11  1  0.84826000  0.33164000  0.92767000  1.0
  H  H12  1  0.51238000  0.64191000  0.50279000  1.0
  H  H13  1  0.98763000  0.64192000  0.00279000  1.0
  H  H14  1  0.48761000  0.35808000  0.49721000  1.0
  H  H15  1  0.01237000  0.35810000  0.99720000  1.0
  H  H16  1  0.31051000  0.19138000  0.58553000  1.0
  H  H17  1  0.18951000  0.19140000  0.08553000  1.0
  H  H18  1  0.68950000  0.80860000  0.41448000  1.0
  H  H19  1  0.81051000  0.80863000  0.91448000  1.0
  H  H20  1  0.77964000  0.61793000  0.57781000  1.0
  H  H21  1  0.72038000  0.61793000  0.07781000  1.0
  H  H22  1  0.22037000  0.38205000  0.42219000  1.0
  H  H23  1  0.27962000  0.38208000  0.92218000  1.0
  H  H24  1  0.19181000  0.80129000  0.69054000  1.0
  H  H25  1  0.30820000  0.80131000  0.19054000  1.0
  H  H26  1  0.80820000  0.19870000  0.30946000  1.0
  H  H27  1  0.69179000  0.19871000  0.80946000  1.0
  H  H28  1  0.05510000  0.64625000  0.64541000  1.0
  H  H29  1  0.44490000  0.64627000  0.14541000  1.0
  H  H30  1  0.94489000  0.35374000  0.35459000  1.0
  H  H31  1  0.55509000  0.35375000  0.85459000  1.0
  H  H32  1  0.53122000  0.46587000  0.70748000  1.0
  H  H33  1  0.96879000  0.46588000  0.20748000  1.0
  H  H34  1  0.46878000  0.53414000  0.29252000  1.0
  H  H35  1  0.03121000  0.53413000  0.79252000  1.0
  H  H36  1  0.35521000  0.27884000  0.71519000  1.0
  H  H37  1  0.14479000  0.27886000  0.21519000  1.0
  H  H38  1  0.64478000  0.72116000  0.28481000  1.0
  H  H39  1  0.85521000  0.72114000  0.78481000  1.0
  C  C40  1  0.42116000  0.96185000  0.52609000  1.0
  C  C41  1  0.07885000  0.96185000  0.02608000  1.0
  C  C42  1  0.57885000  0.03816000  0.47392000  1.0
  C  C43  1  0.92115000  0.03814000  0.97392000  1.0
  C  C44  1  0.48551000  0.73945000  0.54460000  1.0
  C  C45  1  0.01452000  0.73947000  0.04460000  1.0
  C  C46  1  0.51449000  0.26056000  0.45540000  1.0
  C  C47  1  0.98547000  0.26053000  0.95541000  1.0
  Cl  Cl48  1  0.02387000  0.20222000  0.75936000  1.0
  Cl  Cl49  1  0.47612000  0.20222000  0.25936000  1.0
  Cl  Cl50  1  0.97613000  0.79779000  0.24064000  1.0
  Cl  Cl51  1  0.52387000  0.79778000  0.74064000  1.0
  Cl  Cl52  1  0.99254000  0.34777000  0.58952000  1.0
  Cl  Cl53  1  0.50747000  0.34779000  0.08952000  1.0
  Cl  Cl54  1  0.00745000  0.65221000  0.41048000  1.0
  Cl  Cl55  1  0.49253000  0.65222000  0.91047000  1.0
  O  O56  1  0.45028000  0.10122000  0.57915000  1.0
  O  O57  1  0.04975000  0.10122000  0.07915000  1.0
  O  O58  1  0.54972000  0.89877000  0.42085000  1.0
  O  O59  1  0.95025000  0.89879000  0.92086000  1.0
  O  O60  1  0.69776000  0.75670000  0.57905000  1.0
  O  O61  1  0.80226000  0.75670000  0.07906000  1.0
  O  O62  1  0.30226000  0.24329000  0.42095000  1.0
  O  O63  1  0.19774000  0.24330000  0.92094000  1.0
  O  O64  1  0.06133000  0.79487000  0.66147000  1.0
  O  O65  1  0.43869000  0.79488000  0.16147000  1.0
  O  O66  1  0.93867000  0.20512000  0.33853000  1.0
  O  O67  1  0.56131000  0.20513000  0.83853000  1.0
  O  O68  1  0.50197000  0.31597000  0.69497000  1.0
  O  O69  1  0.99803000  0.31598000  0.19497000  1.0
  O  O70  1  0.49804000  0.68403000  0.30503000  1.0
  O  O71  1  0.00195000  0.68403000  0.80504000  1.0
