# generated using pymatgen
data_CaH4(C2O3)2
_symmetry_space_group_name_H-M   'P 1'
_cell_length_a   6.27491000
_cell_length_b   6.27491000
_cell_length_c   7.23738000
_cell_angle_alpha   90.00000000
_cell_angle_beta   90.00000000
_cell_angle_gamma   104.80700000
_symmetry_Int_Tables_number   1
_chemical_formula_structural   CaH4(C2O3)2
_chemical_formula_sum   'Ca2 H8 C8 O12'
_cell_volume   275.50501201
_cell_formula_units_Z   2
loop_
 _symmetry_equiv_pos_site_id
 _symmetry_equiv_pos_as_xyz
  1  'x, y, z'
loop_
 _atom_site_type_symbol
 _atom_site_label
 _atom_site_symmetry_multiplicity
 _atom_site_fract_x
 _atom_site_fract_y
 _atom_site_fract_z
 _atom_site_occupancy
  Ca  Ca0  1  0.40937000  0.59063000  0.75000000  1.0
  Ca  Ca1  1  0.59063000  0.40937000  0.25000000  1.0
  H  H2  1  0.88854000  0.78772000  0.73858000  1.0
  H  H3  1  0.11146000  0.21228000  0.23858000  1.0
  H  H4  1  0.21228000  0.11146000  0.76142000  1.0
  H  H5  1  0.78772000  0.88854000  0.26142000  1.0
  H  H6  1  0.88621000  0.12278000  0.54192000  1.0
  H  H7  1  0.11379000  0.87722000  0.04192000  1.0
  H  H8  1  0.87722000  0.11379000  0.95808000  1.0
  H  H9  1  0.12278000  0.88621000  0.45808000  1.0
  C  C10  1  0.56799000  0.11960000  0.64679000  1.0
  C  C11  1  0.43200000  0.88040000  0.14679000  1.0
  C  C12  1  0.88040000  0.43201000  0.85321000  1.0
  C  C13  1  0.11960000  0.56799000  0.35321000  1.0
  C  C14  1  0.79302000  0.07017000  0.67037000  1.0
  C  C15  1  0.20698000  0.92983000  0.17037000  1.0
  C  C16  1  0.92983000  0.20698000  0.82963000  1.0
  C  C17  1  0.07017000  0.79302000  0.32963000  1.0
  O  O18  1  0.39866000  0.97646000  0.70446000  1.0
  O  O19  1  0.60134000  0.02354000  0.20446000  1.0
  O  O20  1  0.02354000  0.60134000  0.79554000  1.0
  O  O21  1  0.97646000  0.39866000  0.29554000  1.0
  O  O22  1  0.56598000  0.30272000  0.57323000  1.0
  O  O23  1  0.43402000  0.69728000  0.07323000  1.0
  O  O24  1  0.69728000  0.43402000  0.92677000  1.0
  O  O25  1  0.30272000  0.56598000  0.42677000  1.0
  O  O26  1  0.75681000  0.84112000  0.70162000  1.0
  O  O27  1  0.24319000  0.15888000  0.20162000  1.0
  O  O28  1  0.15888000  0.24319000  0.79838000  1.0
  O  O29  1  0.84112000  0.75681000  0.29838000  1.0
