# generated using pymatgen
data_NdH14C18N3O8
_symmetry_space_group_name_H-M   'P 1'
_cell_length_a   9.41533000
_cell_length_b   9.77376000
_cell_length_c   12.35160000
_cell_angle_alpha   67.04050000
_cell_angle_beta   86.79490000
_cell_angle_gamma   81.92340000
_symmetry_Int_Tables_number   1
_chemical_formula_structural   NdH14C18N3O8
_chemical_formula_sum   'Nd2 H28 C36 N6 O16'
_cell_volume   1036.20851657
_cell_formula_units_Z   2
loop_
 _symmetry_equiv_pos_site_id
 _symmetry_equiv_pos_as_xyz
  1  'x, y, z'
loop_
 _atom_site_type_symbol
 _atom_site_label
 _atom_site_symmetry_multiplicity
 _atom_site_fract_x
 _atom_site_fract_y
 _atom_site_fract_z
 _atom_site_occupancy
  Nd  Nd0  1  0.68967000  0.11513000  0.44527000  1.0
  Nd  Nd1  1  0.31033000  0.88487000  0.55473000  1.0
  H  H2  1  0.67942000  0.45151000  0.41713000  1.0
  H  H3  1  0.32058000  0.54849000  0.58287000  1.0
  H  H4  1  0.62096000  0.45831000  0.29567000  1.0
  H  H5  1  0.37904000  0.54170000  0.70432000  1.0
  H  H6  1  0.67133000  0.84705000  0.67978000  1.0
  H  H7  1  0.32867000  0.15295000  0.32022000  1.0
  H  H8  1  0.80169000  0.93908000  0.67754000  1.0
  H  H9  1  0.19831000  0.06092000  0.32246000  1.0
  H  H10  1  0.48517000  0.97924000  0.13850000  1.0
  H  H11  1  0.51483000  0.02076000  0.86150000  1.0
  H  H12  1  0.67954000  0.00028000  0.98523000  1.0
  H  H13  1  0.32047000  0.99972000  0.01478000  1.0
  H  H14  1  0.92762000  0.87747000  0.05321000  1.0
  H  H15  1  0.07238000  0.12253000  0.94680000  1.0
  H  H16  1  0.71912000  0.36070000  0.62899000  1.0
  H  H17  1  0.28089000  0.63930000  0.37101000  1.0
  H  H18  1  0.90463000  0.40051000  0.74919000  1.0
  H  H19  1  0.09538000  0.59949000  0.25080000  1.0
  H  H20  1  0.03013000  0.63067000  0.65817000  1.0
  H  H21  1  0.96988000  0.36933000  0.34183000  1.0
  H  H22  1  0.29934000  0.32103000  0.11954000  1.0
  H  H23  1  0.70065000  0.67897000  0.88046000  1.0
  H  H24  1  0.22385000  0.43614000  0.90695000  1.0
  H  H25  1  0.77614000  0.56386000  0.09305000  1.0
  H  H26  1  0.64246000  0.39818000  0.79299000  1.0
  H  H27  1  0.35753000  0.60181000  0.20701000  1.0
  H  H28  1  0.73640000  0.28240000  0.00174000  1.0
  H  H29  1  0.26359000  0.71759000  0.99826000  1.0
  C  C30  1  0.52152000  0.85337000  0.37319000  1.0
  C  C31  1  0.47849000  0.14662000  0.62681000  1.0
  C  C32  1  0.62914000  0.84664000  0.28126000  1.0
  C  C33  1  0.37086000  0.15336000  0.71874000  1.0
  C  C34  1  0.59425000  0.92438000  0.16268000  1.0
  C  C35  1  0.40575000  0.07562000  0.83733000  1.0
  C  C36  1  0.70132000  0.93613000  0.07834000  1.0
  C  C37  1  0.29869000  0.06387000  0.92167000  1.0
  C  C38  1  0.83961000  0.86760000  0.11649000  1.0
  C  C39  1  0.16040000  0.13240000  0.88352000  1.0
  C  C40  1  0.77029000  0.77537000  0.31077000  1.0
  C  C41  1  0.22971000  0.22462000  0.68923000  1.0
  C  C42  1  0.80892000  0.67770000  0.43552000  1.0
  C  C43  1  0.19109000  0.32230000  0.56448000  1.0
  C  C44  1  0.77476000  0.46003000  0.59515000  1.0
  C  C45  1  0.22526000  0.53997000  0.40485000  1.0
  C  C46  1  0.87656000  0.48325000  0.66161000  1.0
  C  C47  1  0.12345000  0.51675000  0.33839000  1.0
  C  C48  1  0.94745000  0.60890000  0.61080000  1.0
  C  C49  1  0.05255000  0.39111000  0.38920000  1.0
  C  C50  1  0.91151000  0.71037000  0.49674000  1.0
  C  C51  1  0.08850000  0.28963000  0.50326000  1.0
  C  C52  1  0.97734000  0.85344000  0.44692000  1.0
  C  C53  1  0.02266000  0.14657000  0.55308000  1.0
  C  C54  1  0.57852000  0.23521000  0.20016000  1.0
  C  C55  1  0.42147000  0.76479000  0.79985000  1.0
  C  C56  1  0.52465000  0.29343000  0.07580000  1.0
  C  C57  1  0.47534000  0.70657000  0.92420000  1.0
  C  C58  1  0.37838000  0.33422000  0.04945000  1.0
  C  C59  1  0.62161000  0.66578000  0.95055000  1.0
  C  C60  1  0.33639000  0.39804000  0.93182000  1.0
  C  C61  1  0.66359000  0.60196000  0.06818000  1.0
  C  C62  1  0.57021000  0.37710000  0.86816000  1.0
  C  C63  1  0.42978000  0.62289000  0.13184000  1.0
  C  C64  1  0.62204000  0.31353000  0.98280000  1.0
  C  C65  1  0.37795000  0.68647000  0.01719000  1.0
  N  N66  1  0.87374000  0.78665000  0.22956000  1.0
  N  N67  1  0.12627000  0.21335000  0.77044000  1.0
  N  N68  1  0.74270000  0.55406000  0.48408000  1.0
  N  N69  1  0.25731000  0.44594000  0.51592000  1.0
  N  N70  1  0.43019000  0.42097000  0.84267000  1.0
  N  N71  1  0.56980000  0.57904000  0.15733000  1.0
  O  O72  1  0.55994000  0.89804000  0.45155000  1.0
  O  O73  1  0.44006000  0.10195000  0.54846000  1.0
  O  O74  1  0.39637000  0.82347000  0.37035000  1.0
  O  O75  1  0.60363000  0.17653000  0.62965000  1.0
  O  O76  1  0.89625000  0.97459000  0.39333000  1.0
  O  O77  1  0.10375000  0.02542000  0.60667000  1.0
  O  O78  1  0.11066000  0.84341000  0.46379000  1.0
  O  O79  1  0.88935000  0.15660000  0.53620000  1.0
  O  O80  1  0.71223000  0.21466000  0.21862000  1.0
  O  O81  1  0.28776000  0.78534000  0.78138000  1.0
  O  O82  1  0.48725000  0.20976000  0.28442000  1.0
  O  O83  1  0.51274000  0.79023000  0.71558000  1.0
  O  O84  1  0.65508000  0.38603000  0.37634000  1.0
  O  O85  1  0.34492000  0.61398000  0.62365000  1.0
  O  O86  1  0.75623000  0.89192000  0.63463000  1.0
  O  O87  1  0.24377000  0.10808000  0.36537000  1.0
