# generated using pymatgen
data_Cd2H22C40S(N2O5)2
_symmetry_space_group_name_H-M   'P 1'
_cell_length_a   10.82860000
_cell_length_b   13.22290000
_cell_length_c   14.88770000
_cell_angle_alpha   110.53000000
_cell_angle_beta   94.97910000
_cell_angle_gamma   91.58580000
_symmetry_Int_Tables_number   1
_chemical_formula_structural   Cd2H22C40S(N2O5)2
_chemical_formula_sum   'Cd4 H44 C80 S2 N8 O20'
_cell_volume   1984.92045101
_cell_formula_units_Z   2
loop_
 _symmetry_equiv_pos_site_id
 _symmetry_equiv_pos_as_xyz
  1  'x, y, z'
loop_
 _atom_site_type_symbol
 _atom_site_label
 _atom_site_symmetry_multiplicity
 _atom_site_fract_x
 _atom_site_fract_y
 _atom_site_fract_z
 _atom_site_occupancy
  Cd  Cd0  1  0.07813000  0.99269000  0.61098000  1.0
  Cd  Cd1  1  0.92187000  0.00731000  0.38902000  1.0
  Cd  Cd2  1  0.08251000  0.04510000  0.89402000  1.0
  Cd  Cd3  1  0.91749000  0.95490000  0.10598000  1.0
  H  H4  1  0.82589000  0.30849000  0.90040000  1.0
  H  H5  1  0.17411000  0.69151000  0.09960000  1.0
  H  H6  1  0.67965000  0.44200000  0.87180000  1.0
  H  H7  1  0.32035000  0.55800000  0.12820000  1.0
  H  H8  1  0.78277000  0.35182000  0.58154000  1.0
  H  H9  1  0.21723000  0.64818000  0.41846000  1.0
  H  H10  1  0.83743000  0.71057000  0.54907000  1.0
  H  H11  1  0.16257000  0.28943000  0.45093000  1.0
  H  H12  1  0.70243000  0.55026000  0.54510000  1.0
  H  H13  1  0.29757000  0.44974000  0.45490000  1.0
  H  H14  1  0.74732000  0.66970000  0.85659000  1.0
  H  H15  1  0.25269000  0.33030000  0.14341000  1.0
  H  H16  1  0.18153000  0.21747000  0.59329000  1.0
  H  H17  1  0.81847000  0.78253000  0.40671000  1.0
  H  H18  1  0.38398000  0.31788000  0.59642000  1.0
  H  H19  1  0.61602000  0.68212000  0.40359000  1.0
  H  H20  1  0.58169000  0.22983000  0.60979000  1.0
  H  H21  1  0.41831000  0.77017000  0.39021000  1.0
  H  H22  1  0.69058000  0.06925000  0.62358000  1.0
  H  H23  1  0.30942000  0.93075000  0.37642000  1.0
  H  H24  1  0.67851000  0.88821000  0.63269000  1.0
  H  H25  1  0.32149000  0.11179000  0.36731000  1.0
  H  H26  1  0.54854000  0.72823000  0.63517000  1.0
  H  H27  1  0.45146000  0.27177000  0.36483000  1.0
  H  H28  1  0.33797000  0.64296000  0.63201000  1.0
  H  H29  1  0.66203000  0.35704000  0.36799000  1.0
  H  H30  1  0.15043000  0.74827000  0.62227000  1.0
  H  H31  1  0.84957000  0.25173000  0.37773000  1.0
  H  H32  1  0.23700000  0.25227000  0.86296000  1.0
  H  H33  1  0.76300000  0.74773000  0.13704000  1.0
  H  H34  1  0.45371000  0.31143000  0.84654000  1.0
  H  H35  1  0.54629000  0.68857000  0.15346000  1.0
  H  H36  1  0.62435000  0.18553000  0.84470000  1.0
  H  H37  1  0.37565000  0.81447000  0.15530000  1.0
  H  H38  1  0.69127000  0.01151000  0.85796000  1.0
  H  H39  1  0.30873000  0.98849000  0.14204000  1.0
  H  H40  1  0.63520000  0.83804000  0.87668000  1.0
  H  H41  1  0.36480000  0.16197000  0.12332000  1.0
  H  H42  1  0.47641000  0.70856000  0.89451000  1.0
  H  H43  1  0.52359000  0.29144000  0.10549000  1.0
  H  H44  1  0.25823000  0.67459000  0.92697000  1.0
  H  H45  1  0.74177000  0.32540000  0.07303000  1.0
  H  H46  1  0.10682000  0.81685000  0.93984000  1.0
  H  H47  1  0.89317000  0.18315000  0.06016000  1.0
  C  C48  1  0.93979000  0.20529000  0.58143000  1.0
  C  C49  1  0.06021000  0.79471000  0.41856000  1.0
  C  C50  1  0.87207000  0.26791000  0.66714000  1.0
  C  C51  1  0.12793000  0.73209000  0.33286000  1.0
  C  C52  1  0.96987000  0.18031000  0.78268000  1.0
  C  C53  1  0.03013000  0.81969000  0.21732000  1.0
  C  C54  1  0.88254000  0.25569000  0.75787000  1.0
  C  C55  1  0.11746000  0.74431000  0.24213000  1.0
  C  C56  1  0.81381000  0.31894000  0.83078000  1.0
  C  C57  1  0.18619000  0.68106000  0.16922000  1.0
  C  C58  1  0.73333000  0.39284000  0.81542000  1.0
  C  C59  1  0.26667000  0.60716000  0.18458000  1.0
  C  C60  1  0.72184000  0.40249000  0.72461000  1.0
  C  C61  1  0.27816000  0.59751000  0.27539000  1.0
  C  C62  1  0.79118000  0.34228000  0.65160000  1.0
  C  C63  1  0.20882000  0.65772000  0.34840000  1.0
  C  C64  1  0.88096000  0.85108000  0.88973000  1.0
  C  C65  1  0.11903000  0.14892000  0.11027000  1.0
  C  C66  1  0.83805000  0.76853000  0.79132000  1.0
  C  C67  1  0.16195000  0.23148000  0.20868000  1.0
  C  C68  1  0.93946000  0.87277000  0.69701000  1.0
  C  C69  1  0.06054000  0.12724000  0.30299000  1.0
  C  C70  1  0.86089000  0.78056000  0.70371000  1.0
  C  C71  1  0.13910000  0.21944000  0.29629000  1.0
  C  C72  1  0.81451000  0.70072000  0.61554000  1.0
  C  C73  1  0.18549000  0.29928000  0.38446000  1.0
  C  C74  1  0.74180000  0.61109000  0.61311000  1.0
  C  C75  1  0.25820000  0.38891000  0.38690000  1.0
  C  C76  1  0.71614000  0.60221000  0.70059000  1.0
  C  C77  1  0.28387000  0.39779000  0.29941000  1.0
  C  C78  1  0.76567000  0.67816000  0.78867000  1.0
  C  C79  1  0.23433000  0.32184000  0.21133000  1.0
  C  C80  1  0.27005000  0.18218000  0.60021000  1.0
  C  C81  1  0.72995000  0.81781000  0.39978000  1.0
  C  C82  1  0.38299000  0.23786000  0.60177000  1.0
  C  C83  1  0.61701000  0.76214000  0.39823000  1.0
  C  C84  1  0.49269000  0.18914000  0.60931000  1.0
  C  C85  1  0.50731000  0.81086000  0.39069000  1.0
  C  C86  1  0.49004000  0.08512000  0.61544000  1.0
  C  C87  1  0.50996000  0.91488000  0.38456000  1.0
  C  C88  1  0.60032000  0.03004000  0.62299000  1.0
  C  C89  1  0.39968000  0.96996000  0.37700000  1.0
  C  C90  1  0.59344000  0.92904000  0.62810000  1.0
  C  C91  1  0.40656000  0.07096000  0.37190000  1.0
  C  C92  1  0.47596000  0.87554000  0.62611000  1.0
  C  C93  1  0.52404000  0.12446000  0.37389000  1.0
  C  C94  1  0.46488000  0.77078000  0.63051000  1.0
  C  C95  1  0.53511000  0.22922000  0.36949000  1.0
  C  C96  1  0.34873000  0.72369000  0.62860000  1.0
  C  C97  1  0.65127000  0.27631000  0.37140000  1.0
  C  C98  1  0.24352000  0.78202000  0.62295000  1.0
  C  C99  1  0.75648000  0.21798000  0.37705000  1.0
  C  C100  1  0.36423000  0.92778000  0.61932000  1.0
  C  C101  1  0.63577000  0.07222000  0.38067000  1.0
  C  C102  1  0.37144000  0.03475000  0.61342000  1.0
  C  C103  1  0.62856000  0.96525000  0.38658000  1.0
  C  C104  1  0.31433000  0.20196000  0.86535000  1.0
  C  C105  1  0.68567000  0.79804000  0.13465000  1.0
  C  C106  1  0.43570000  0.23413000  0.85536000  1.0
  C  C107  1  0.56430000  0.76587000  0.14464000  1.0
  C  C108  1  0.52931000  0.16486000  0.85418000  1.0
  C  C109  1  0.47069000  0.83514000  0.14582000  1.0
  C  C110  1  0.50216000  0.06486000  0.86474000  1.0
  C  C111  1  0.49784000  0.93514000  0.13526000  1.0
  C  C112  1  0.59542000  0.99052000  0.86532000  1.0
  C  C113  1  0.40458000  0.00948000  0.13468000  1.0
  C  C114  1  0.56479000  0.89490000  0.87597000  1.0
  C  C115  1  0.43521000  0.10511000  0.12404000  1.0
  C  C116  1  0.44056000  0.86663000  0.88804000  1.0
  C  C117  1  0.55944000  0.13337000  0.11196000  1.0
  C  C118  1  0.40720000  0.76824000  0.89960000  1.0
  C  C119  1  0.59280000  0.23176000  0.10041000  1.0
  C  C120  1  0.28707000  0.74925000  0.91703000  1.0
  C  C121  1  0.71293000  0.25075000  0.08297000  1.0
  C  C122  1  0.20085000  0.82827000  0.92268000  1.0
  C  C123  1  0.79915000  0.17172000  0.07732000  1.0
  C  C124  1  0.34597000  0.93981000  0.89050000  1.0
  C  C125  1  0.65403000  0.06019000  0.10950000  1.0
  C  C126  1  0.37704000  0.04005000  0.87625000  1.0
  C  C127  1  0.62296000  0.95994000  0.12375000  1.0
  S  S128  1  0.61688000  0.49340000  0.70097000  1.0
  S  S129  1  0.38313000  0.50660000  0.29903000  1.0
  N  N130  1  0.26494000  0.08393000  0.60606000  1.0
  N  N131  1  0.73506000  0.91607000  0.39394000  1.0
  N  N132  1  0.25113000  0.88075000  0.61834000  1.0
  N  N133  1  0.74887000  0.11925000  0.38166000  1.0
  N  N134  1  0.28608000  0.10804000  0.87522000  1.0
  N  N135  1  0.71392000  0.89196000  0.12478000  1.0
  N  N136  1  0.22907000  0.91971000  0.90829000  1.0
  N  N137  1  0.77093000  0.08029000  0.09172000  1.0
  O  O138  1  0.99143000  0.25876000  0.53935000  1.0
  O  O139  1  0.00857000  0.74124000  0.46065000  1.0
  O  O140  1  0.92984000  0.10071000  0.55482000  1.0
  O  O141  1  0.07016000  0.89929000  0.44518000  1.0
  O  O142  1  0.06744000  0.15904000  0.73983000  1.0
  O  O143  1  0.93255000  0.84096000  0.26017000  1.0
  O  O144  1  0.94034000  0.14630000  0.84853000  1.0
  O  O145  1  0.05966000  0.85370000  0.15147000  1.0
  O  O146  1  0.89557000  0.94990000  0.89958000  1.0
  O  O147  1  0.10443000  0.05011000  0.10042000  1.0
  O  O148  1  0.89457000  0.81421000  0.95833000  1.0
  O  O149  1  0.10542000  0.18579000  0.04167000  1.0
  O  O150  1  0.04688000  0.89584000  0.74340000  1.0
  O  O151  1  0.95312000  0.10416000  0.25660000  1.0
  O  O152  1  0.89730000  0.91615000  0.63775000  1.0
  O  O153  1  0.10270000  0.08385000  0.36225000  1.0
  O  O154  1  0.55478000  0.44254000  0.60406000  1.0
  O  O155  1  0.44522000  0.55747000  0.39594000  1.0
  O  O156  1  0.54390000  0.53258000  0.78258000  1.0
  O  O157  1  0.45610000  0.46742000  0.21742000  1.0
