# generated using pymatgen
data_DyCuH32C48(NO2)4
_symmetry_space_group_name_H-M   'P 1'
_cell_length_a   15.98190000
_cell_length_b   19.60610000
_cell_length_c   19.60587234
_cell_angle_alpha   80.44184171
_cell_angle_beta   65.93624836
_cell_angle_gamma   65.94770000
_symmetry_Int_Tables_number   1
_chemical_formula_structural   DyCuH32C48(NO2)4
_chemical_formula_sum   'Dy4 Cu4 H128 C192 N16 O32'
_cell_volume   5122.40513920
_cell_formula_units_Z   4
loop_
 _symmetry_equiv_pos_site_id
 _symmetry_equiv_pos_as_xyz
  1  'x, y, z'
loop_
 _atom_site_type_symbol
 _atom_site_label
 _atom_site_symmetry_multiplicity
 _atom_site_fract_x
 _atom_site_fract_y
 _atom_site_fract_z
 _atom_site_occupancy
  Dy  Dy0  1  0.95752000  0.70145000  0.88614000  1.0
  Dy  Dy1  1  0.54506000  0.29848000  0.11392000  1.0
  Dy  Dy2  1  0.15645000  0.88612000  0.29847000  1.0
  Dy  Dy3  1  0.34066000  0.11406000  0.70166000  1.0
  Cu  Cu4  1  0.61369000  0.59356000  0.18455000  1.0
  Cu  Cu5  1  0.39178000  0.40648000  0.81551000  1.0
  Cu  Cu6  1  0.20152000  0.18457000  0.40674000  1.0
  Cu  Cu7  1  0.79275000  0.81560000  0.59326000  1.0
  H  H8  1  0.11578000  0.57283000  0.06920000  1.0
  H  H9  1  0.24066000  0.55007000  0.12403000  1.0
  H  H10  1  0.21782000  0.73196000  0.91663000  1.0
  H  H11  1  0.34589000  0.70808000  0.96899000  1.0
  H  H12  1  0.41633000  0.49738000  0.10236000  1.0
  H  H13  1  0.54331000  0.48631000  0.14899000  1.0
  H  H14  1  0.35413000  0.73449000  0.07545000  1.0
  H  H15  1  0.48327000  0.71435000  0.12306000  1.0
  H  H16  1  0.85422000  0.58146000  0.76085000  1.0
  H  H17  1  0.73174000  0.54380000  0.74535000  1.0
  H  H18  1  0.68045000  0.61505000  0.99563000  1.0
  H  H19  1  0.55853000  0.57679000  0.98142000  1.0
  H  H20  1  0.56640000  0.58614000  0.74851000  1.0
  H  H21  1  0.45209000  0.53549000  0.73931000  1.0
  H  H22  1  0.53884000  0.47282000  0.96108000  1.0
  H  H23  1  0.42087000  0.43225000  0.94638000  1.0
  H  H24  1  0.09859000  0.76777000  0.63186000  1.0
  H  H25  1  0.21715000  0.74412000  0.49841000  1.0
  H  H26  1  0.28008000  0.55951000  0.69739000  1.0
  H  H27  1  0.40296000  0.53712000  0.56578000  1.0
  H  H28  1  0.27778000  0.65534000  0.39772000  1.0
  H  H29  1  0.40055000  0.62782000  0.26832000  1.0
  H  H30  1  0.52081000  0.59151000  0.47036000  1.0
  H  H31  1  0.63479000  0.56866000  0.33674000  1.0
  H  H32  1  0.82995000  0.95888000  0.93658000  1.0
  H  H33  1  0.74343000  0.09393000  0.91379000  1.0
  H  H34  1  0.68159000  0.89847000  0.83138000  1.0
  H  H35  1  0.59445000  0.03278000  0.80752000  1.0
  H  H36  1  0.58536000  0.19218000  0.95153000  1.0
  H  H37  1  0.47947000  0.31999000  0.93250000  1.0
  H  H38  1  0.61769000  0.13542000  0.73575000  1.0
  H  H39  1  0.51263000  0.26638000  0.72389000  1.0
  H  H40  1  0.75779000  0.42694000  0.93079000  1.0
  H  H41  1  0.91466000  0.44983000  0.87590000  1.0
  H  H42  1  0.86655000  0.26784000  0.08325000  1.0
  H  H43  1  0.02301000  0.29187000  0.03090000  1.0
  H  H44  1  0.01605000  0.50254000  0.89758000  1.0
  H  H45  1  0.17855000  0.51366000  0.85106000  1.0
  H  H46  1  0.16415000  0.26543000  0.92451000  1.0
  H  H47  1  0.32070000  0.28565000  0.87696000  1.0
  H  H48  1  0.19643000  0.41854000  0.23911000  1.0
  H  H49  1  0.02080000  0.45620000  0.25464000  1.0
  H  H50  1  0.29104000  0.38512000  0.00430000  1.0
  H  H51  1  0.11665000  0.42344000  0.01853000  1.0
  H  H52  1  0.90090000  0.41368000  0.25142000  1.0
  H  H53  1  0.72674000  0.46436000  0.26066000  1.0
  H  H54  1  0.97259000  0.52720000  0.03895000  1.0
  H  H55  1  0.79936000  0.56771000  0.05364000  1.0
  H  H56  1  0.49784000  0.23201000  0.36843000  1.0
  H  H57  1  0.45942000  0.25569000  0.50183000  1.0
  H  H58  1  0.53702000  0.44011000  0.30269000  1.0
  H  H59  1  0.50608000  0.46251000  0.43424000  1.0
  H  H60  1  0.33063000  0.34468000  0.60240000  1.0
  H  H61  1  0.29634000  0.37238000  0.73178000  1.0
  H  H62  1  0.58285000  0.40811000  0.52974000  1.0
  H  H63  1  0.54017000  0.43118000  0.66331000  1.0
  H  H64  1  0.72593000  0.04096000  0.06344000  1.0
  H  H65  1  0.75163000  0.90590000  0.08617000  1.0
  H  H66  1  0.41192000  0.10140000  0.16819000  1.0
  H  H67  1  0.43517000  0.96707000  0.19206000  1.0
  H  H68  1  0.72924000  0.80770000  0.04833000  1.0
  H  H69  1  0.73212000  0.67989000  0.06750000  1.0
  H  H70  1  0.48911000  0.86458000  0.26418000  1.0
  H  H71  1  0.50287000  0.73368000  0.27604000  1.0
  H  H72  1  0.81531000  0.06909000  0.42690000  1.0
  H  H73  1  0.63555000  0.12409000  0.44985000  1.0
  H  H74  1  0.86531000  0.91664000  0.26787000  1.0
  H  H75  1  0.68482000  0.96914000  0.29195000  1.0
  H  H76  1  0.48125000  0.10262000  0.50259000  1.0
  H  H77  1  0.30762000  0.14926000  0.51373000  1.0
  H  H78  1  0.57032000  0.07554000  0.26549000  1.0
  H  H79  1  0.39355000  0.12313000  0.28570000  1.0
  H  H80  1  0.38487000  0.76090000  0.41844000  1.0
  H  H81  1  0.52288000  0.74527000  0.45610000  1.0
  H  H82  1  0.32433000  0.99557000  0.38458000  1.0
  H  H83  1  0.46056000  0.98123000  0.42280000  1.0
  H  H84  1  0.68557000  0.74852000  0.41357000  1.0
  H  H85  1  0.80902000  0.73967000  0.46414000  1.0
  H  H86  1  0.49996000  0.96106000  0.52698000  1.0
  H  H87  1  0.63252000  0.94664000  0.56755000  1.0
  H  H88  1  0.27013000  0.63164000  0.23211000  1.0
  H  H89  1  0.28479000  0.49826000  0.25570000  1.0
  H  H90  1  0.02300000  0.69736000  0.44035000  1.0
  H  H91  1  0.03146000  0.56583000  0.46269000  1.0
  H  H92  1  0.32447000  0.39767000  0.34481000  1.0
  H  H93  1  0.33093000  0.26835000  0.37264000  1.0
  H  H94  1  0.00884000  0.47047000  0.40813000  1.0
  H  H95  1  0.02828000  0.33693000  0.43135000  1.0
  H  H96  1  0.23354000  0.93660000  0.04111000  1.0
  H  H97  1  0.34284000  0.91365000  0.90604000  1.0
  H  H98  1  0.48722000  0.83164000  0.10140000  1.0
  H  H99  1  0.59819000  0.80757000  0.96705000  1.0
  H  H100  1  0.46331000  0.95154000  0.80789000  1.0
  H  H101  1  0.58809000  0.93259000  0.67997000  1.0
  H  H102  1  0.64662000  0.73551000  0.86424000  1.0
  H  H103  1  0.76351000  0.72381000  0.73325000  1.0
  H  H104  1  0.31135000  0.93107000  0.57297000  1.0
  H  H105  1  0.20958000  0.87600000  0.55002000  1.0
  H  H106  1  0.04986000  0.08305000  0.73249000  1.0
  H  H107  1  0.94600000  0.03051000  0.70840000  1.0
  H  H108  1  0.08650000  0.89768000  0.49734000  1.0
  H  H109  1  0.97062000  0.85116000  0.48605000  1.0
  H  H110  1  0.91144000  0.92423000  0.73450000  1.0
  H  H111  1  0.80246000  0.87679000  0.71410000  1.0
  H  H112  1  0.56387000  0.23948000  0.58166000  1.0
  H  H113  1  0.72397000  0.25505000  0.54423000  1.0
  H  H114  1  0.70411000  0.00469000  0.61502000  1.0
  H  H115  1  0.86418000  0.01897000  0.57707000  1.0
  H  H116  1  0.84732000  0.25168000  0.58678000  1.0
  H  H117  1  0.01241000  0.26072000  0.53592000  1.0
  H  H118  1  0.98755000  0.03940000  0.47297000  1.0
  H  H119  1  0.14627000  0.05387000  0.43225000  1.0
  H  H120  1  0.13351000  0.36833000  0.76782000  1.0
  H  H121  1  0.03861000  0.50179000  0.74426000  1.0
  H  H122  1  0.16002000  0.30280000  0.55962000  1.0
  H  H123  1  0.05948000  0.43440000  0.53736000  1.0
  H  H124  1  0.06666000  0.60247000  0.65525000  1.0
  H  H125  1  0.97177000  0.73177000  0.62731000  1.0
  H  H126  1  0.88723000  0.52969000  0.59182000  1.0
  H  H127  1  0.79647000  0.66322000  0.56852000  1.0
  H  H128  1  0.21124000  0.06329000  0.95922000  1.0
  H  H129  1  0.16278000  0.08622000  0.09424000  1.0
  H  H130  1  0.42013000  0.16845000  0.89854000  1.0
  H  H131  1  0.37311000  0.19235000  0.03285000  1.0
  H  H132  1  0.22278000  0.04847000  0.19229000  1.0
  H  H133  1  0.20045000  0.06759000  0.32018000  1.0
  H  H134  1  0.24723000  0.26422000  0.13559000  1.0
  H  H135  1  0.22116000  0.27612000  0.26662000  1.0
  C  C136  1  0.08244000  0.67207000  0.95785000  1.0
  C  C137  1  0.15921000  0.65412000  0.98994000  1.0
  C  C138  1  0.16662000  0.60205000  0.04760000  1.0
  C  C139  1  0.23726000  0.58895000  0.07763000  1.0
  C  C140  1  0.22438000  0.69205000  0.96181000  1.0
  C  C141  1  0.29472000  0.67900000  0.99165000  1.0
  C  C142  1  0.30156000  0.62775000  0.05050000  1.0
  C  C143  1  0.37490000  0.61714000  0.08242000  1.0
  C  C144  1  0.42845000  0.54728000  0.10584000  1.0
  C  C145  1  0.50069000  0.54052000  0.13163000  1.0
  C  C146  1  0.39565000  0.67817000  0.08940000  1.0
  C  C147  1  0.46787000  0.66724000  0.11631000  1.0
  C  C148  1  0.85007000  0.62290000  0.88532000  1.0
  C  C149  1  0.77539000  0.60011000  0.87879000  1.0
  C  C150  1  0.78868000  0.58042000  0.80848000  1.0
  C  C151  1  0.71968000  0.56007000  0.80021000  1.0
  C  C152  1  0.69171000  0.59905000  0.94099000  1.0
  C  C153  1  0.62333000  0.57767000  0.93294000  1.0
  C  C154  1  0.63614000  0.55778000  0.86261000  1.0
  C  C155  1  0.56477000  0.53290000  0.85539000  1.0
  C  C156  1  0.53813000  0.55017000  0.79267000  1.0
  C  C157  1  0.47396000  0.52228000  0.78734000  1.0
  C  C158  1  0.52028000  0.48994000  0.91157000  1.0
  C  C159  1  0.45581000  0.46505000  0.90238000  1.0
  C  C160  1  0.10710000  0.67747000  0.74953000  1.0
  C  C161  1  0.18251000  0.66497000  0.67169000  1.0
  C  C162  1  0.16511000  0.71712000  0.61592000  1.0
  C  C163  1  0.23120000  0.70394000  0.54209000  1.0
  C  C164  1  0.26854000  0.60009000  0.65355000  1.0
  C  C165  1  0.33661000  0.58803000  0.58025000  1.0
  C  C166  1  0.31811000  0.63919000  0.52379000  1.0
  C  C167  1  0.38876000  0.62459000  0.44594000  1.0
  C  C168  1  0.35631000  0.63561000  0.38699000  1.0
  C  C169  1  0.42500000  0.61994000  0.31438000  1.0
  C  C170  1  0.49134000  0.59946000  0.42705000  1.0
  C  C171  1  0.55509000  0.58650000  0.35267000  1.0
  C  C172  1  0.81419000  0.84030000  0.89669000  1.0
  C  C173  1  0.76102000  0.92100000  0.88490000  1.0
  C  C174  1  0.77820000  0.97609000  0.90838000  1.0
  C  C175  1  0.73016000  0.05117000  0.89521000  1.0
  C  C176  1  0.69510000  0.94192000  0.84824000  1.0
  C  C177  1  0.64744000  0.01670000  0.83457000  1.0
  C  C178  1  0.66453000  0.07229000  0.85791000  1.0
  C  C179  1  0.61039000  0.15141000  0.84540000  1.0
  C  C180  1  0.57209000  0.20614000  0.89967000  1.0
  C  C181  1  0.51271000  0.27856000  0.88875000  1.0
  C  C182  1  0.58932000  0.17465000  0.78056000  1.0
  C  C183  1  0.53050000  0.24836000  0.77358000  1.0
  C  C184  1  0.71243000  0.32772000  0.04214000  1.0
  C  C185  1  0.80338000  0.34564000  0.00994000  1.0
  C  C186  1  0.81633000  0.39773000  0.95230000  1.0
  C  C187  1  0.90384000  0.41091000  0.92228000  1.0
  C  C188  1  0.87835000  0.30775000  0.03806000  1.0
  C  C189  1  0.96544000  0.32088000  0.00823000  1.0
  C  C190  1  0.97982000  0.37214000  0.94938000  1.0
  C  C191  1  0.07446000  0.38279000  0.91751000  1.0
  C  C192  1  0.08156000  0.45266000  0.89412000  1.0
  C  C193  1  0.17281000  0.45945000  0.86841000  1.0
  C  C194  1  0.16324000  0.32177000  0.91057000  1.0
  C  C195  1  0.25144000  0.33273000  0.88371000  1.0
  C  C196  1  0.35824000  0.37703000  0.11467000  1.0
  C  C197  1  0.25423000  0.39988000  0.12117000  1.0
  C  C198  1  0.17748000  0.41957000  0.19149000  1.0
  C  C199  1  0.07984000  0.43995000  0.19976000  1.0
  C  C200  1  0.23166000  0.40104000  0.05896000  1.0
  C  C201  1  0.13384000  0.42247000  0.06702000  1.0
  C  C202  1  0.05641000  0.44226000  0.13738000  1.0
  C  C203  1  0.95292000  0.46706000  0.14461000  1.0
  C  C204  1  0.88083000  0.44972000  0.20730000  1.0
  C  C205  1  0.78344000  0.47759000  0.21264000  1.0
  C  C206  1  0.92166000  0.51002000  0.08844000  1.0
  C  C207  1  0.82310000  0.53488000  0.09763000  1.0
  C  C208  1  0.53389000  0.32230000  0.25063000  1.0
  C  C209  1  0.51900000  0.33474000  0.32848000  1.0
  C  C210  1  0.49789000  0.28264000  0.38429000  1.0
  C  C211  1  0.47703000  0.29582000  0.45811000  1.0
  C  C212  1  0.52214000  0.39958000  0.34657000  1.0
  C  C213  1  0.50492000  0.41165000  0.41983000  1.0
  C  C214  1  0.48106000  0.36053000  0.47634000  1.0
  C  C215  1  0.45927000  0.37521000  0.55417000  1.0
  C  C216  1  0.37876000  0.36436000  0.61312000  1.0
  C  C217  1  0.35909000  0.38012000  0.68572000  1.0
  C  C218  1  0.51789000  0.40030000  0.57303000  1.0
  C  C219  1  0.49420000  0.41338000  0.64739000  1.0
  C  C220  1  0.55160000  0.15955000  0.10317000  1.0
  C  C221  1  0.56745000  0.07885000  0.11497000  1.0
  C  C222  1  0.66319000  0.02375000  0.09160000  1.0
  C  C223  1  0.67702000  0.94868000  0.10474000  1.0
  C  C224  1  0.48575000  0.05794000  0.15148000  1.0
  C  C225  1  0.49915000  0.98316000  0.16515000  1.0
  C  C226  1  0.59517000  0.92758000  0.14196000  1.0
  C  C227  1  0.60751000  0.84849000  0.15450000  1.0
  C  C228  1  0.67811000  0.79374000  0.10024000  1.0
  C  C229  1  0.68015000  0.72134000  0.11121000  1.0
  C  C230  1  0.54476000  0.82532000  0.21937000  1.0
  C  C231  1  0.55253000  0.75165000  0.22637000  1.0
  C  C232  1  0.95981000  0.95774000  0.32761000  1.0
  C  C233  1  0.85091000  0.98992000  0.34560000  1.0
  C  C234  1  0.78594000  0.04759000  0.39771000  1.0
  C  C235  1  0.68523000  0.07770000  0.41091000  1.0
  C  C236  1  0.81371000  0.96184000  0.30777000  1.0
  C  C237  1  0.71348000  0.99176000  0.32093000  1.0
  C  C238  1  0.64792000  0.05066000  0.37217000  1.0
  C  C239  1  0.54261000  0.08263000  0.38284000  1.0
  C  C240  1  0.46565000  0.10608000  0.45270000  1.0
  C  C241  1  0.36759000  0.13186000  0.45950000  1.0
  C  C242  1  0.51486000  0.08955000  0.32183000  1.0
  C  C243  1  0.41570000  0.11645000  0.33279000  1.0
  C  C244  1  0.26464000  0.88539000  0.37702000  1.0
  C  C245  1  0.34600000  0.87879000  0.39966000  1.0
  C  C246  1  0.40293000  0.80847000  0.41940000  1.0
  C  C247  1  0.48024000  0.80014000  0.43974000  1.0
  C  C248  1  0.36764000  0.94093000  0.40062000  1.0
  C  C249  1  0.44411000  0.93281000  0.42198000  1.0
  C  C250  1  0.50149000  0.86249000  0.44197000  1.0
  C  C251  1  0.58004000  0.85534000  0.46686000  1.0
  C  C252  1  0.66951000  0.79273000  0.44957000  1.0
  C  C253  1  0.73898000  0.78758000  0.47741000  1.0
  C  C254  1  0.56815000  0.91161000  0.50982000  1.0
  C  C255  1  0.64177000  0.90259000  0.53470000  1.0
  C  C256  1  0.14387000  0.74939000  0.32242000  1.0
  C  C257  1  0.14630000  0.67157000  0.33489000  1.0
  C  C258  1  0.21944000  0.61577000  0.28274000  1.0
  C  C259  1  0.22705000  0.54197000  0.29588000  1.0
  C  C260  1  0.07835000  0.65349000  0.39977000  1.0
  C  C261  1  0.08345000  0.58024000  0.41180000  1.0
  C  C262  1  0.15832000  0.52375000  0.36062000  1.0
  C  C263  1  0.16532000  0.44595000  0.37529000  1.0
  C  C264  1  0.25664000  0.38699000  0.36450000  1.0
  C  C265  1  0.26044000  0.31443000  0.38035000  1.0
  C  C266  1  0.08157000  0.42715000  0.40036000  1.0
  C  C267  1  0.09208000  0.35281000  0.41353000  1.0
  C  C268  1  0.28925000  0.89678000  0.15966000  1.0
  C  C269  1  0.35420000  0.88499000  0.07894000  1.0
  C  C270  1  0.31350000  0.90836000  0.02388000  1.0
  C  C271  1  0.37471000  0.89511000  0.94878000  1.0
  C  C272  1  0.45682000  0.84838000  0.05796000  1.0
  C  C273  1  0.51814000  0.83461000  0.98316000  1.0
  C  C274  1  0.47766000  0.85780000  0.92762000  1.0
  C  C275  1  0.54430000  0.84528000  0.84846000  1.0
  C  C276  1  0.52837000  0.89964000  0.79382000  1.0
  C  C277  1  0.59862000  0.88878000  0.72134000  1.0
  C  C278  1  0.63015000  0.78039000  0.82509000  1.0
  C  C279  1  0.69592000  0.77349000  0.75136000  1.0
  C  C280  1  0.24516000  0.04227000  0.67236000  1.0
  C  C281  1  0.18647000  0.01002000  0.65445000  1.0
  C  C282  1  0.23130000  0.95245000  0.60224000  1.0
  C  C283  1  0.17393000  0.92232000  0.58904000  1.0
  C  C284  1  0.08337000  0.03794000  0.69247000  1.0
  C  C285  1  0.02625000  0.00801000  0.67930000  1.0
  C  C286  1  0.07084000  0.94926000  0.62788000  1.0
  C  C287  1  0.00816000  0.91738000  0.61713000  1.0
  C  C288  1  0.02448000  0.89413000  0.54720000  1.0
  C  C289  1  0.95898000  0.86842000  0.54032000  1.0
  C  C290  1  0.92630000  0.91038000  0.67811000  1.0
  C  C291  1  0.86500000  0.88357000  0.66705000  1.0
  C  C292  1  0.52664000  0.11497000  0.62293000  1.0
  C  C293  1  0.62408000  0.12151000  0.60022000  1.0
  C  C294  1  0.63044000  0.19185000  0.58066000  1.0
  C  C295  1  0.71976000  0.20017000  0.56046000  1.0
  C  C296  1  0.70882000  0.05933000  0.59916000  1.0
  C  C297  1  0.79853000  0.06743000  0.57795000  1.0
  C  C298  1  0.80557000  0.13778000  0.55820000  1.0
  C  C299  1  0.90185000  0.14496000  0.53331000  1.0
  C  C300  1  0.91143000  0.20756000  0.55065000  1.0
  C  C301  1  0.00358000  0.21279000  0.52265000  1.0
  C  C302  1  0.98916000  0.08881000  0.49018000  1.0
  C  C303  1  0.07863000  0.09788000  0.46519000  1.0
  C  C304  1  0.21514000  0.25066000  0.67754000  1.0
  C  C305  1  0.15222000  0.32848000  0.66507000  1.0
  C  C306  1  0.11756000  0.38427000  0.71721000  1.0
  C  C307  1  0.06464000  0.45811000  0.70408000  1.0
  C  C308  1  0.13101000  0.34663000  0.60022000  1.0
  C  C309  1  0.07500000  0.41992000  0.58822000  1.0
  C  C310  1  0.04238000  0.47638000  0.63937000  1.0
  C  C311  1  0.98631000  0.55418000  0.62473000  1.0
  C  C312  1  0.00786000  0.61315000  0.63555000  1.0
  C  C313  1  0.95499000  0.68571000  0.61966000  1.0
  C  C314  1  0.90889000  0.57300000  0.59960000  1.0
  C  C315  1  0.85826000  0.64734000  0.58641000  1.0
  C  C316  1  0.34542000  0.10324000  0.84050000  1.0
  C  C317  1  0.31808000  0.11495000  0.92119000  1.0
  C  C318  1  0.24582000  0.09151000  0.97636000  1.0
  C  C319  1  0.21886000  0.10473000  0.05142000  1.0
  C  C320  1  0.36317000  0.15159000  0.94205000  1.0
  C  C321  1  0.33616000  0.16529000  0.01682000  1.0
  C  C322  1  0.26345000  0.14202000  0.07246000  1.0
  C  C323  1  0.23851000  0.15457000  0.15157000  1.0
  C  C324  1  0.22203000  0.10033000  0.20629000  1.0
  C  C325  1  0.20880000  0.11129000  0.27875000  1.0
  C  C326  1  0.23631000  0.21943000  0.17483000  1.0
  C  C327  1  0.22130000  0.22644000  0.24856000  1.0
  N  N328  1  0.52170000  0.59950000  0.13640000  1.0
  N  N329  1  0.43473000  0.47786000  0.83999000  1.0
  N  N330  1  0.52377000  0.59536000  0.29617000  1.0
  N  N331  1  0.49082000  0.30054000  0.82683000  1.0
  N  N332  1  0.25759000  0.40050000  0.86365000  1.0
  N  N333  1  0.75242000  0.52204000  0.16003000  1.0
  N  N334  1  0.41514000  0.40465000  0.70390000  1.0
  N  N335  1  0.61828000  0.69942000  0.17315000  1.0
  N  N336  1  0.34177000  0.13658000  0.40056000  1.0
  N  N337  1  0.72538000  0.84029000  0.52184000  1.0
  N  N338  1  0.17983000  0.29629000  0.40490000  1.0
  N  N339  1  0.68237000  0.82682000  0.69924000  1.0
  N  N340  1  0.87895000  0.86360000  0.59924000  1.0
  N  N341  1  0.08711000  0.16016000  0.47807000  1.0
  N  N342  1  0.88083000  0.70387000  0.59506000  1.0
  N  N343  1  0.20864000  0.17323000  0.30076000  1.0
  O  O344  1  0.07243000  0.72682000  0.91243000  1.0
  O  O345  1  0.02808000  0.63322000  0.97518000  1.0
  O  O346  1  0.83706000  0.64471000  0.94844000  1.0
  O  O347  1  0.92587000  0.62172000  0.82695000  1.0
  O  O348  1  0.11802000  0.62662000  0.79866000  1.0
  O  O349  1  0.03075000  0.73870000  0.76464000  1.0
  O  O350  1  0.81476000  0.79100000  0.86115000  1.0
  O  O351  1  0.86194000  0.82131000  0.94058000  1.0
  O  O352  1  0.71160000  0.27314000  0.08774000  1.0
  O  O353  1  0.63660000  0.36650000  0.02474000  1.0
  O  O354  1  0.43021000  0.35526000  0.05156000  1.0
  O  O355  1  0.37442000  0.37815000  0.17308000  1.0
  O  O356  1  0.54306000  0.37321000  0.20156000  1.0
  O  O357  1  0.53386000  0.26112000  0.23545000  1.0
  O  O358  1  0.46720000  0.20881000  0.13861000  1.0
  O  O359  1  0.62422000  0.17863000  0.05938000  1.0
  O  O360  1  0.01527000  0.91211000  0.27303000  1.0
  O  O361  1  0.99684000  0.97523000  0.36636000  1.0
  O  O362  1  0.21443000  0.94854000  0.35533000  1.0
  O  O363  1  0.24718000  0.82704000  0.37822000  1.0
  O  O364  1  0.08354000  0.79857000  0.37320000  1.0
  O  O365  1  0.20529000  0.76447000  0.26131000  1.0
  O  O366  1  0.32427000  0.86124000  0.20893000  1.0
  O  O367  1  0.19759000  0.94063000  0.17869000  1.0
  O  O368  1  0.20042000  0.08767000  0.72714000  1.0
  O  O369  1  0.33833000  0.02508000  0.63340000  1.0
  O  O370  1  0.51788000  0.05182000  0.64458000  1.0
  O  O371  1  0.45198000  0.17335000  0.62189000  1.0
  O  O372  1  0.25488000  0.20148000  0.62676000  1.0
  O  O373  1  0.23046000  0.23562000  0.73868000  1.0
  O  O374  1  0.39409000  0.13883000  0.79117000  1.0
  O  O375  1  0.31654000  0.05944000  0.82152000  1.0
