# generated using pymatgen
data_CuH10C9SNO4
_symmetry_space_group_name_H-M   'P 1'
_cell_length_a   8.78710000
_cell_length_b   12.80520000
_cell_length_c   24.22330000
_cell_angle_alpha   89.99210000
_cell_angle_beta   89.99060000
_cell_angle_gamma   89.98980000
_symmetry_Int_Tables_number   1
_chemical_formula_structural   CuH10C9SNO4
_chemical_formula_sum   'Cu8 H80 C72 S8 N8 O32'
_cell_volume   2725.61948824
_cell_formula_units_Z   8
loop_
 _symmetry_equiv_pos_site_id
 _symmetry_equiv_pos_as_xyz
  1  'x, y, z'
loop_
 _atom_site_type_symbol
 _atom_site_label
 _atom_site_symmetry_multiplicity
 _atom_site_fract_x
 _atom_site_fract_y
 _atom_site_fract_z
 _atom_site_occupancy
  Cu  Cu0  1  0.93054000  0.46823000  0.45605000  1.0
  Cu  Cu1  1  0.93074000  0.03174000  0.04390000  1.0
  Cu  Cu2  1  0.56927000  0.53175000  0.95609000  1.0
  Cu  Cu3  1  0.56926000  0.96825000  0.54392000  1.0
  Cu  Cu4  1  0.06945000  0.53177000  0.54395000  1.0
  Cu  Cu5  1  0.06926000  0.96826000  0.95610000  1.0
  Cu  Cu6  1  0.43072000  0.46825000  0.04392000  1.0
  Cu  Cu7  1  0.43075000  0.03174000  0.45609000  1.0
  H  H8  1  0.91744000  0.84177000  0.46152000  1.0
  H  H9  1  0.91745000  0.65814000  0.03852000  1.0
  H  H10  1  0.58256000  0.15811000  0.96148000  1.0
  H  H11  1  0.58260000  0.34184000  0.53851000  1.0
  H  H12  1  0.08255000  0.15824000  0.53848000  1.0
  H  H13  1  0.08256000  0.34186000  0.96148000  1.0
  H  H14  1  0.41743000  0.84189000  0.03852000  1.0
  H  H15  1  0.41742000  0.65815000  0.46149000  1.0
  H  H16  1  0.97806000  0.79907000  0.39482000  1.0
  H  H17  1  0.97800000  0.70082000  0.10520000  1.0
  H  H18  1  0.52199000  0.20085000  0.89481000  1.0
  H  H19  1  0.52197000  0.29916000  0.60518000  1.0
  H  H20  1  0.02195000  0.20092000  0.60518000  1.0
  H  H21  1  0.02200000  0.29917000  0.89481000  1.0
  H  H22  1  0.47800000  0.79915000  0.10518000  1.0
  H  H23  1  0.47804000  0.70085000  0.39481000  1.0
  H  H24  1  0.11459000  0.83626000  0.44668000  1.0
  H  H25  1  0.11454000  0.66361000  0.05338000  1.0
  H  H26  1  0.38546000  0.16365000  0.94663000  1.0
  H  H27  1  0.38546000  0.33641000  0.55338000  1.0
  H  H28  1  0.88542000  0.16375000  0.55332000  1.0
  H  H29  1  0.88546000  0.33640000  0.94662000  1.0
  H  H30  1  0.61454000  0.83635000  0.05337000  1.0
  H  H31  1  0.61453000  0.66358000  0.44662000  1.0
  H  H32  1  0.43358000  0.34938000  0.43826000  1.0
  H  H33  1  0.43385000  0.15062000  0.06181000  1.0
  H  H34  1  0.06610000  0.65061000  0.93818000  1.0
  H  H35  1  0.06613000  0.84938000  0.56182000  1.0
  H  H36  1  0.56641000  0.65062000  0.56174000  1.0
  H  H37  1  0.56615000  0.84938000  0.93819000  1.0
  H  H38  1  0.93391000  0.34939000  0.06182000  1.0
  H  H39  1  0.93386000  0.15062000  0.43818000  1.0
  H  H40  1  0.49836000  0.47929000  0.44421000  1.0
  H  H41  1  0.49873000  0.02078000  0.05578000  1.0
  H  H42  1  0.00132000  0.52079000  0.94422000  1.0
  H  H43  1  0.00126000  0.97921000  0.55577000  1.0
  H  H44  1  0.50164000  0.52071000  0.55578000  1.0
  H  H45  1  0.50130000  0.97922000  0.94422000  1.0
  H  H46  1  0.99871000  0.47922000  0.05577000  1.0
  H  H47  1  0.99871000  0.02081000  0.44421000  1.0
  H  H48  1  0.40000000  0.43731000  0.38267000  1.0
  H  H49  1  0.40040000  0.06260000  0.11736000  1.0
  H  H50  1  0.09958000  0.56261000  0.88263000  1.0
  H  H51  1  0.09951000  0.93737000  0.61737000  1.0
  H  H52  1  0.59998000  0.56269000  0.61734000  1.0
  H  H53  1  0.59960000  0.93740000  0.88263000  1.0
  H  H54  1  0.90042000  0.43739000  0.11735000  1.0
  H  H55  1  0.90046000  0.06266000  0.38262000  1.0
  H  H56  1  0.21113000  0.73204000  0.58773000  1.0
  H  H57  1  0.21128000  0.76795000  0.91225000  1.0
  H  H58  1  0.28877000  0.26795000  0.08776000  1.0
  H  H59  1  0.28871000  0.23204000  0.41222000  1.0
  H  H60  1  0.78886000  0.26796000  0.41227000  1.0
  H  H61  1  0.78872000  0.23205000  0.08775000  1.0
  H  H62  1  0.71124000  0.73205000  0.91224000  1.0
  H  H63  1  0.71129000  0.76795000  0.58778000  1.0
  H  H64  1  0.39060000  0.79589000  0.65916000  1.0
  H  H65  1  0.39077000  0.70398000  0.84079000  1.0
  H  H66  1  0.10921000  0.20400000  0.15921000  1.0
  H  H67  1  0.10919000  0.29597000  0.34079000  1.0
  H  H68  1  0.60940000  0.20412000  0.34084000  1.0
  H  H69  1  0.60922000  0.29601000  0.15922000  1.0
  H  H70  1  0.89080000  0.79600000  0.84079000  1.0
  H  H71  1  0.89082000  0.70402000  0.65921000  1.0
  H  H72  1  0.40411000  0.47950000  0.72296000  1.0
  H  H73  1  0.40429000  0.02052000  0.77696000  1.0
  H  H74  1  0.09572000  0.52052000  0.22302000  1.0
  H  H75  1  0.09574000  0.97947000  0.27700000  1.0
  H  H76  1  0.59590000  0.52050000  0.27703000  1.0
  H  H77  1  0.59570000  0.97948000  0.22304000  1.0
  H  H78  1  0.90429000  0.47948000  0.77698000  1.0
  H  H79  1  0.90426000  0.02053000  0.72300000  1.0
  H  H80  1  0.21769000  0.43100000  0.64871000  1.0
  H  H81  1  0.21784000  0.06897000  0.85128000  1.0
  H  H82  1  0.28223000  0.56895000  0.14873000  1.0
  H  H83  1  0.28223000  0.93105000  0.35127000  1.0
  H  H84  1  0.78232000  0.56901000  0.35128000  1.0
  H  H85  1  0.78215000  0.93104000  0.14873000  1.0
  H  H86  1  0.71778000  0.43105000  0.85127000  1.0
  H  H87  1  0.71776000  0.06895000  0.64873000  1.0
  C  C88  1  0.00654000  0.68727000  0.46075000  1.0
  C  C89  1  0.00649000  0.81265000  0.03926000  1.0
  C  C90  1  0.49351000  0.31264000  0.96074000  1.0
  C  C91  1  0.49349000  0.18735000  0.53926000  1.0
  C  C92  1  0.99344000  0.31273000  0.53925000  1.0
  C  C93  1  0.99352000  0.18734000  0.96075000  1.0
  C  C94  1  0.50647000  0.68735000  0.03926000  1.0
  C  C95  1  0.50652000  0.81264000  0.46074000  1.0
  C  C96  1  0.00514000  0.79784000  0.43893000  1.0
  C  C97  1  0.00510000  0.70210000  0.06109000  1.0
  C  C98  1  0.49490000  0.20210000  0.93891000  1.0
  C  C99  1  0.49489000  0.29790000  0.56108000  1.0
  C  C100  1  0.99487000  0.20216000  0.56108000  1.0
  C  C101  1  0.99490000  0.29790000  0.93892000  1.0
  C  C102  1  0.50509000  0.79790000  0.06108000  1.0
  C  C103  1  0.50511000  0.70209000  0.43891000  1.0
  C  C104  1  0.25540000  0.45808000  0.45313000  1.0
  C  C105  1  0.25567000  0.04195000  0.04690000  1.0
  C  C106  1  0.24432000  0.54197000  0.95310000  1.0
  C  C107  1  0.24429000  0.95803000  0.54690000  1.0
  C  C108  1  0.74459000  0.54192000  0.54687000  1.0
  C  C109  1  0.74434000  0.95804000  0.95310000  1.0
  C  C110  1  0.75569000  0.45803000  0.04690000  1.0
  C  C111  1  0.75570000  0.04197000  0.45310000  1.0
  C  C112  1  0.40670000  0.43079000  0.42761000  1.0
  C  C113  1  0.40695000  0.06919000  0.07242000  1.0
  C  C114  1  0.09300000  0.56922000  0.92756000  1.0
  C  C115  1  0.09296000  0.93078000  0.57243000  1.0
  C  C116  1  0.59330000  0.56921000  0.57239000  1.0
  C  C117  1  0.59307000  0.93081000  0.92758000  1.0
  C  C118  1  0.90702000  0.43079000  0.07243000  1.0
  C  C119  1  0.90700000  0.06923000  0.42756000  1.0
  C  C120  1  0.25398000  0.67906000  0.61926000  1.0
  C  C121  1  0.25415000  0.82089000  0.88071000  1.0
  C  C122  1  0.24588000  0.32088000  0.11930000  1.0
  C  C123  1  0.24588000  0.17910000  0.38069000  1.0
  C  C124  1  0.74602000  0.32095000  0.38074000  1.0
  C  C125  1  0.74584000  0.17911000  0.11929000  1.0
  C  C126  1  0.75412000  0.67912000  0.88070000  1.0
  C  C127  1  0.75412000  0.82090000  0.61931000  1.0
  C  C128  1  0.35553000  0.71432000  0.65912000  1.0
  C  C129  1  0.35572000  0.78559000  0.84082000  1.0
  C  C130  1  0.14426000  0.28560000  0.15918000  1.0
  C  C131  1  0.14426000  0.21437000  0.34082000  1.0
  C  C132  1  0.64447000  0.28569000  0.34087000  1.0
  C  C133  1  0.64428000  0.21440000  0.15918000  1.0
  C  C134  1  0.85574000  0.71440000  0.84082000  1.0
  C  C135  1  0.85574000  0.78563000  0.65918000  1.0
  C  C136  1  0.41265000  0.64211000  0.69706000  1.0
  C  C137  1  0.41273000  0.85781000  0.80287000  1.0
  C  C138  1  0.08722000  0.35784000  0.19711000  1.0
  C  C139  1  0.08720000  0.14215000  0.30290000  1.0
  C  C140  1  0.58736000  0.35789000  0.30294000  1.0
  C  C141  1  0.58726000  0.14219000  0.19714000  1.0
  C  C142  1  0.91279000  0.64216000  0.80289000  1.0
  C  C143  1  0.91280000  0.85785000  0.69710000  1.0
  C  C144  1  0.36319000  0.53808000  0.69385000  1.0
  C  C145  1  0.36334000  0.96191000  0.80607000  1.0
  C  C146  1  0.13666000  0.46191000  0.19392000  1.0
  C  C147  1  0.13668000  0.03808000  0.30609000  1.0
  C  C148  1  0.63681000  0.46192000  0.30615000  1.0
  C  C149  1  0.63664000  0.03809000  0.19393000  1.0
  C  C150  1  0.86334000  0.53809000  0.80608000  1.0
  C  C151  1  0.86332000  0.96192000  0.69390000  1.0
  C  C152  1  0.25966000  0.51087000  0.65283000  1.0
  C  C153  1  0.25983000  0.98909000  0.84714000  1.0
  C  C154  1  0.24022000  0.48908000  0.15287000  1.0
  C  C155  1  0.24023000  0.01092000  0.34714000  1.0
  C  C156  1  0.74034000  0.48913000  0.34717000  1.0
  C  C157  1  0.74016000  0.01092000  0.15286000  1.0
  C  C158  1  0.75978000  0.51092000  0.84714000  1.0
  C  C159  1  0.75978000  0.98908000  0.65285000  1.0
  S  S160  1  0.55237000  0.67083000  0.74745000  1.0
  S  S161  1  0.55239000  0.82904000  0.75244000  1.0
  S  S162  1  0.94746000  0.32910000  0.24750000  1.0
  S  S163  1  0.94747000  0.17090000  0.25252000  1.0
  S  S164  1  0.44763000  0.32917000  0.25255000  1.0
  S  S165  1  0.44761000  0.17097000  0.24756000  1.0
  S  S166  1  0.05255000  0.67090000  0.75249000  1.0
  S  S167  1  0.05253000  0.82911000  0.74748000  1.0
  N  N168  1  0.20551000  0.57974000  0.61583000  1.0
  N  N169  1  0.20568000  0.92024000  0.88415000  1.0
  N  N170  1  0.29436000  0.42021000  0.11587000  1.0
  N  N171  1  0.29436000  0.07976000  0.38413000  1.0
  N  N172  1  0.79449000  0.42027000  0.38417000  1.0
  N  N173  1  0.79431000  0.07977000  0.11586000  1.0
  N  N174  1  0.70564000  0.57979000  0.88413000  1.0
  N  N175  1  0.70564000  0.92023000  0.61586000  1.0
  O  O176  1  0.94497000  0.61706000  0.43083000  1.0
  O  O177  1  0.94490000  0.88289000  0.06917000  1.0
  O  O178  1  0.55509000  0.38289000  0.93084000  1.0
  O  O179  1  0.55505000  0.11707000  0.56917000  1.0
  O  O180  1  0.05506000  0.38292000  0.56917000  1.0
  O  O181  1  0.05510000  0.11710000  0.93083000  1.0
  O  O182  1  0.44489000  0.61709000  0.06916000  1.0
  O  O183  1  0.44497000  0.88289000  0.43083000  1.0
  O  O184  1  0.93292000  0.32667000  0.49191000  1.0
  O  O185  1  0.93304000  0.17336000  0.00811000  1.0
  O  O186  1  0.56691000  0.67338000  0.99190000  1.0
  O  O187  1  0.56695000  0.82662000  0.50810000  1.0
  O  O188  1  0.06706000  0.67335000  0.50810000  1.0
  O  O189  1  0.06696000  0.82664000  0.99190000  1.0
  O  O190  1  0.43309000  0.32663000  0.00811000  1.0
  O  O191  1  0.43304000  0.17339000  0.49191000  1.0
  O  O192  1  0.13655000  0.43891000  0.42464000  1.0
  O  O193  1  0.13680000  0.06103000  0.07540000  1.0
  O  O194  1  0.36319000  0.56107000  0.92460000  1.0
  O  O195  1  0.36318000  0.93896000  0.57539000  1.0
  O  O196  1  0.86343000  0.56108000  0.57537000  1.0
  O  O197  1  0.86321000  0.93896000  0.92460000  1.0
  O  O198  1  0.63679000  0.43894000  0.07539000  1.0
  O  O199  1  0.63684000  0.06105000  0.42460000  1.0
  O  O200  1  0.74146000  0.50350000  0.49827000  1.0
  O  O201  1  0.74130000  0.99642000  0.00171000  1.0
  O  O202  1  0.75869000  0.49642000  0.99828000  1.0
  O  O203  1  0.75864000  0.00358000  0.50172000  1.0
  O  O204  1  0.25857000  0.49652000  0.50173000  1.0
  O  O205  1  0.25872000  0.00357000  0.99829000  1.0
  O  O206  1  0.24135000  0.50357000  0.00172000  1.0
  O  O207  1  0.24132000  0.99640000  0.49828000  1.0
