# generated using pymatgen
data_CuH6C7O4
_symmetry_space_group_name_H-M   'P 1'
_cell_length_a   8.52878000
_cell_length_b   8.52875000
_cell_length_c   14.55930000
_cell_angle_alpha   90.00000000
_cell_angle_beta   90.00000000
_cell_angle_gamma   89.99990000
_symmetry_Int_Tables_number   1
_chemical_formula_structural   CuH6C7O4
_chemical_formula_sum   'Cu4 H24 C28 O16'
_cell_volume   1059.04104222
_cell_formula_units_Z   4
loop_
 _symmetry_equiv_pos_site_id
 _symmetry_equiv_pos_as_xyz
  1  'x, y, z'
loop_
 _atom_site_type_symbol
 _atom_site_label
 _atom_site_symmetry_multiplicity
 _atom_site_fract_x
 _atom_site_fract_y
 _atom_site_fract_z
 _atom_site_occupancy
  Cu  Cu0  1  0.14285000  0.50000000  1.00000000  1.0
  Cu  Cu1  1  0.85713000  0.50000000  0.00000000  1.0
  Cu  Cu2  1  0.50000000  0.85714000  0.50000000  1.0
  Cu  Cu3  1  0.50000000  0.14286000  0.50000000  1.0
  H  H4  1  0.15052000  0.25333000  0.29315000  1.0
  H  H5  1  0.84948000  0.74667000  0.29315000  1.0
  H  H6  1  0.25333000  0.84948000  0.79315000  1.0
  H  H7  1  0.74667000  0.15052000  0.79315000  1.0
  H  H8  1  0.15052000  0.74667000  0.70685000  1.0
  H  H9  1  0.84948000  0.25333000  0.70685000  1.0
  H  H10  1  0.25333000  0.15052000  0.20685000  1.0
  H  H11  1  0.74667000  0.84948000  0.20685000  1.0
  H  H12  1  0.84948000  0.74667000  0.70685000  1.0
  H  H13  1  0.15052000  0.25333000  0.70685000  1.0
  H  H14  1  0.74667000  0.15052000  0.20685000  1.0
  H  H15  1  0.25333000  0.84948000  0.20685000  1.0
  H  H16  1  0.84948000  0.25333000  0.29315000  1.0
  H  H17  1  0.15052000  0.74667000  0.29315000  1.0
  H  H18  1  0.74667000  0.84948000  0.79315000  1.0
  H  H19  1  0.25333000  0.15052000  0.79315000  1.0
  H  H20  1  0.89534000  1.00000000  0.08396000  1.0
  H  H21  1  0.10466000  1.00000000  0.08396000  1.0
  H  H22  1  0.00000000  0.10466000  0.58396000  1.0
  H  H23  1  0.00000000  0.89534000  0.58396000  1.0
  H  H24  1  0.89534000  1.00000000  0.91604000  1.0
  H  H25  1  0.10466000  1.00000000  0.91604000  1.0
  H  H26  1  0.00000000  0.89534000  0.41604000  1.0
  H  H27  1  0.00000000  0.10466000  0.41604000  1.0
  C  C28  1  0.00000000  0.28652000  0.12263000  1.0
  C  C29  1  0.00000000  0.14806000  0.18937000  1.0
  C  C30  1  0.00000000  0.71348000  0.12263000  1.0
  C  C31  1  0.00000000  0.85194000  0.18937000  1.0
  C  C32  1  0.28652000  1.00000000  0.62263000  1.0
  C  C33  1  0.14806000  0.00000000  0.68937000  1.0
  C  C34  1  0.71348000  0.00001000  0.62262000  1.0
  C  C35  1  0.85194000  0.00000000  0.68937000  1.0
  C  C36  1  0.00000000  0.71348000  0.87737000  1.0
  C  C37  1  0.00000000  0.85194000  0.81063000  1.0
  C  C38  1  0.00000000  0.28652000  0.87737000  1.0
  C  C39  1  0.00000000  0.14806000  0.81063000  1.0
  C  C40  1  0.28652000  1.00000000  0.37737000  1.0
  C  C41  1  0.14806000  0.00000000  0.31063000  1.0
  C  C42  1  0.71348000  0.00001000  0.37738000  1.0
  C  C43  1  0.85194000  0.00000000  0.31064000  1.0
  C  C44  1  0.14775000  0.14775000  0.25000000  1.0
  C  C45  1  0.85225000  0.85225000  0.25000000  1.0
  C  C46  1  0.14775000  0.85225000  0.75000000  1.0
  C  C47  1  0.85225000  0.14775000  0.75000000  1.0
  C  C48  1  0.85225000  0.85225000  0.75000000  1.0
  C  C49  1  0.14775000  0.14775000  0.75000000  1.0
  C  C50  1  0.85225000  0.14775000  0.25000000  1.0
  C  C51  1  0.14775000  0.85225000  0.25000000  1.0
  C  C52  1  0.00000000  0.00000000  0.12812000  1.0
  C  C53  1  0.00000000  0.00000000  0.62812000  1.0
  C  C54  1  0.00000000  0.00000000  0.87188000  1.0
  C  C55  1  0.00000000  0.00000000  0.37188000  1.0
  O  O56  1  0.13335000  0.33643000  0.09545000  1.0
  O  O57  1  0.86664000  0.66357000  0.09545000  1.0
  O  O58  1  0.33643000  0.86664000  0.59545000  1.0
  O  O59  1  0.66357000  0.13335000  0.59545000  1.0
  O  O60  1  0.13335000  0.66357000  0.90455000  1.0
  O  O61  1  0.86664000  0.33643000  0.90455000  1.0
  O  O62  1  0.33643000  0.13335000  0.40455000  1.0
  O  O63  1  0.66357000  0.86664000  0.40455000  1.0
  O  O64  1  0.86664000  0.66357000  0.90455000  1.0
  O  O65  1  0.13335000  0.33643000  0.90455000  1.0
  O  O66  1  0.66357000  0.13335000  0.40455000  1.0
  O  O67  1  0.33643000  0.86664000  0.40455000  1.0
  O  O68  1  0.86664000  0.33643000  0.09545000  1.0
  O  O69  1  0.13335000  0.66357000  0.09545000  1.0
  O  O70  1  0.66357000  0.86664000  0.59545000  1.0
  O  O71  1  0.33643000  0.13335000  0.59545000  1.0
