# generated using pymatgen
data_Ag2H13C24(O2F7)2
_symmetry_space_group_name_H-M   'P 1'
_cell_length_a   10.80690000
_cell_length_b   11.10360000
_cell_length_c   12.43770000
_cell_angle_alpha   102.19100000
_cell_angle_beta   99.12520000
_cell_angle_gamma   115.00300000
_symmetry_Int_Tables_number   1
_chemical_formula_structural   Ag2H13C24(O2F7)2
_chemical_formula_sum   'Ag4 H26 C48 O8 F28'
_cell_volume   1269.29867726
_cell_formula_units_Z   2
loop_
 _symmetry_equiv_pos_site_id
 _symmetry_equiv_pos_as_xyz
  1  'x, y, z'
loop_
 _atom_site_type_symbol
 _atom_site_label
 _atom_site_symmetry_multiplicity
 _atom_site_fract_x
 _atom_site_fract_y
 _atom_site_fract_z
 _atom_site_occupancy
  Ag  Ag0  1  0.88768000  0.57296000  0.43271000  1.0
  Ag  Ag1  1  0.11232000  0.42704000  0.56729000  1.0
  Ag  Ag2  1  0.68863000  0.63789000  0.53983000  1.0
  Ag  Ag3  1  0.31137000  0.36211000  0.46017000  1.0
  H  H4  1  0.79496000  0.74984000  0.30365000  1.0
  H  H5  1  0.20504000  0.25016000  0.69635000  1.0
  H  H6  1  0.69098000  0.83706000  0.44292000  1.0
  H  H7  1  0.30902000  0.16294000  0.55708000  1.0
  H  H8  1  0.06294000  0.96092000  0.71681000  1.0
  H  H9  1  0.93706000  0.03908000  0.28319000  1.0
  H  H10  1  0.17065000  0.88185000  0.57586000  1.0
  H  H11  1  0.82935000  0.11815000  0.42414000  1.0
  H  H12  1  0.16360000  0.79843000  0.36520000  1.0
  H  H13  1  0.83640000  0.20157000  0.63480000  1.0
  H  H14  1  0.01393000  0.76211000  0.25683000  1.0
  H  H15  1  0.98607000  0.23789000  0.74317000  1.0
  H  H16  1  0.72144000  0.97699000  0.63815000  1.0
  H  H17  1  0.27856000  0.02301000  0.36184000  1.0
  H  H18  1  0.86515000  0.01789000  0.75425000  1.0
  H  H19  1  0.13485000  0.98211000  0.24575000  1.0
  H  H20  1  0.59079000  0.97315000  0.19847000  1.0
  H  H21  1  0.40921000  0.02685000  0.80152000  1.0
  H  H22  1  0.38007000  0.61063000  0.30523000  1.0
  H  H23  1  0.61993000  0.38937000  0.69477000  1.0
  H  H24  1  0.48105000  0.71578000  0.16175000  1.0
  H  H25  1  0.51895000  0.28421000  0.83825000  1.0
  H  H26  1  0.32584000  0.63803000  0.49221000  1.0
  H  H27  1  0.67416000  0.36197000  0.50779000  1.0
  H  H28  1  0.66361000  0.21053000  0.32646000  1.0
  H  H29  1  0.33639000  0.78947000  0.67354000  1.0
  C  C30  1  0.85321000  0.79178000  0.39428000  1.0
  C  C31  1  0.14679000  0.20822000  0.60572000  1.0
  C  C32  1  0.79111000  0.83720000  0.47515000  1.0
  C  C33  1  0.20889000  0.16280000  0.52485000  1.0
  C  C34  1  0.87224000  0.91330000  0.59063000  1.0
  C  C35  1  0.12776000  0.08670000  0.40936000  1.0
  C  C36  1  0.00302000  0.91363000  0.62646000  1.0
  C  C37  1  0.99698000  0.08637000  0.37354000  1.0
  C  C38  1  0.06357000  0.86818000  0.54709000  1.0
  C  C39  1  0.93643000  0.13182000  0.45291000  1.0
  C  C40  1  0.99607000  0.81932000  0.42751000  1.0
  C  C41  1  0.00392000  0.18068000  0.57249000  1.0
  C  C42  1  0.08315000  0.83146000  0.34250000  1.0
  C  C43  1  0.91685000  0.16854000  0.65750000  1.0
  C  C44  1  0.83635000  0.01328000  0.66426000  1.0
  C  C45  1  0.16365000  0.98672000  0.33574000  1.0
  C  C46  1  0.55496000  0.40189000  0.29845000  1.0
  C  C47  1  0.44504000  0.59811000  0.70155000  1.0
  C  C48  1  0.92097000  0.57895000  0.68870000  1.0
  C  C49  1  0.07903000  0.42105000  0.31130000  1.0
  C  C50  1  0.43470000  0.28271000  0.19150000  1.0
  C  C51  1  0.56530000  0.71729000  0.80850000  1.0
  C  C52  1  0.40035000  0.33909000  0.09227000  1.0
  C  C53  1  0.59965000  0.66091000  0.90773000  1.0
  C  C54  1  0.27356000  0.23119000  0.98505000  1.0
  C  C55  1  0.72644000  0.76881000  0.01495000  1.0
  C  C56  1  0.99690000  0.58490000  0.80915000  1.0
  C  C57  1  0.00310000  0.41510000  0.19085000  1.0
  C  C58  1  0.11622000  0.73629000  0.87880000  1.0
  C  C59  1  0.88378000  0.26371000  0.12120000  1.0
  C  C60  1  0.19991000  0.75736000  0.00171000  1.0
  C  C61  1  0.80009000  0.24264000  0.99829000  1.0
  C  C62  1  0.54771000  0.92738000  0.26210000  1.0
  C  C63  1  0.45229000  0.07262000  0.73790000  1.0
  C  C64  1  0.55439000  0.01602000  0.36453000  1.0
  C  C65  1  0.44560000  0.98398000  0.63547000  1.0
  C  C66  1  0.49656000  0.95615000  0.44755000  1.0
  C  C67  1  0.50344000  0.04385000  0.55245000  1.0
  C  C68  1  0.43219000  0.80800000  0.42517000  1.0
  C  C69  1  0.56781000  0.19199000  0.57483000  1.0
  C  C70  1  0.42825000  0.72341000  0.32171000  1.0
  C  C71  1  0.57175000  0.27659000  0.67829000  1.0
  C  C72  1  0.48580000  0.78308000  0.24157000  1.0
  C  C73  1  0.51420000  0.21692000  0.75843000  1.0
  C  C74  1  0.37494000  0.75113000  0.50996000  1.0
  C  C75  1  0.62506000  0.24886000  0.49003000  1.0
  C  C76  1  0.61892000  0.16499000  0.38950000  1.0
  C  C77  1  0.38108000  0.83501000  0.61050000  1.0
  O  O78  1  0.67798000  0.43614000  0.28892000  1.0
  O  O79  1  0.32202000  0.56386000  0.71108000  1.0
  O  O80  1  0.51561000  0.45000000  0.38042000  1.0
  O  O81  1  0.48439000  0.55000000  0.61958000  1.0
  O  O82  1  0.82248000  0.61022000  0.68825000  1.0
  O  O83  1  0.17752000  0.38978000  0.31175000  1.0
  O  O84  1  0.96935000  0.54709000  0.60682000  1.0
  O  O85  1  0.03066000  0.45292000  0.39318000  1.0
  F  F86  1  0.31176000  0.21466000  0.22059000  1.0
  F  F87  1  0.68825000  0.78534000  0.77941000  1.0
  F  F88  1  0.47614000  0.18535000  0.14998000  1.0
  F  F89  1  0.52386000  0.81465000  0.85002000  1.0
  F  F90  1  0.37026000  0.44455000  0.13429000  1.0
  F  F91  1  0.62974000  0.55545000  0.86571000  1.0
  F  F92  1  0.51803000  0.39263000  0.05405000  1.0
  F  F93  1  0.48197000  0.60737000  0.94595000  1.0
  F  F94  1  0.25995000  0.29758000  0.90719000  1.0
  F  F95  1  0.74005000  0.70242000  0.09281000  1.0
  F  F96  1  0.29823000  0.12584000  0.93496000  1.0
  F  F97  1  0.70177000  0.87416000  0.06504000  1.0
  F  F98  1  0.14962000  0.17580000  0.01154000  1.0
  F  F99  1  0.85038000  0.82420000  0.98846000  1.0
  F  F100  1  0.90118000  0.54213000  0.87088000  1.0
  F  F101  1  0.09882000  0.45787000  0.12912000  1.0
  F  F102  1  0.05762000  0.49791000  0.79904000  1.0
  F  F103  1  0.94238000  0.50209000  0.20096000  1.0
  F  F104  1  0.05798000  0.82457000  0.88984000  1.0
  F  F105  1  0.94202000  0.17543000  0.11016000  1.0
  F  F106  1  0.21338000  0.77809000  0.81800000  1.0
  F  F107  1  0.78662000  0.22191000  0.18200000  1.0
  F  F108  1  0.30196000  0.89261000  0.04799000  1.0
  F  F109  1  0.69804000  0.10739000  0.95202000  1.0
  F  F110  1  0.11266000  0.72900000  0.07034000  1.0
  F  F111  1  0.88733000  0.27100000  0.92966000  1.0
  F  F112  1  0.26237000  0.67474000  0.99838000  1.0
  F  F113  1  0.73763000  0.32525000  0.00162000  1.0
