# generated using pymatgen
data_VCuH8C6N6OF3
_symmetry_space_group_name_H-M   'P 1'
_cell_length_a   6.10711000
_cell_length_b   12.39860000
_cell_length_c   13.76980000
_cell_angle_alpha   90.00000000
_cell_angle_beta   90.00000000
_cell_angle_gamma   101.34600000
_symmetry_Int_Tables_number   1
_chemical_formula_structural   VCuH8C6N6OF3
_chemical_formula_sum   'V4 Cu4 H32 C24 N24 O4 F12'
_cell_volume   1022.26757897
_cell_formula_units_Z   4
loop_
 _symmetry_equiv_pos_site_id
 _symmetry_equiv_pos_as_xyz
  1  'x, y, z'
loop_
 _atom_site_type_symbol
 _atom_site_label
 _atom_site_symmetry_multiplicity
 _atom_site_fract_x
 _atom_site_fract_y
 _atom_site_fract_z
 _atom_site_occupancy
  V  V0  1  0.02758000  0.87625000  0.45863000  1.0
  V  V1  1  0.47244000  0.62376000  0.95863000  1.0
  V  V2  1  0.97244000  0.12376000  0.54137000  1.0
  V  V3  1  0.52757000  0.37625000  0.04137000  1.0
  Cu  Cu4  1  0.03265000  0.63183000  0.55773000  1.0
  Cu  Cu5  1  0.46735000  0.86817000  0.05773000  1.0
  Cu  Cu6  1  0.96734000  0.36817000  0.44227000  1.0
  Cu  Cu7  1  0.53265000  0.13183000  0.94227000  1.0
  H  H8  1  0.37065000  0.70502000  0.75386000  1.0
  H  H9  1  0.12934000  0.79498000  0.25386000  1.0
  H  H10  1  0.62934000  0.29498000  0.24614000  1.0
  H  H11  1  0.87064000  0.20502000  0.74614000  1.0
  H  H12  1  0.45511000  0.01477000  0.61336000  1.0
  H  H13  1  0.04491000  0.48522000  0.11337000  1.0
  H  H14  1  0.54491000  0.98523000  0.38663000  1.0
  H  H15  1  0.95510000  0.51477000  0.88663000  1.0
  H  H16  1  0.00631000  0.76324000  0.93980000  1.0
  H  H17  1  0.49368000  0.73676000  0.43981000  1.0
  H  H18  1  0.99369000  0.23676000  0.06020000  1.0
  H  H19  1  0.50632000  0.26324000  0.56019000  1.0
  H  H20  1  0.13076000  0.06310000  0.78425000  1.0
  H  H21  1  0.36925000  0.43691000  0.28425000  1.0
  H  H22  1  0.86924000  0.93691000  0.21575000  1.0
  H  H23  1  0.63074000  0.56309000  0.71575000  1.0
  H  H24  1  0.57593000  0.91645000  0.84640000  1.0
  H  H25  1  0.92408000  0.58355000  0.34640000  1.0
  H  H26  1  0.42407000  0.08355000  0.15360000  1.0
  H  H27  1  0.07591000  0.41644000  0.65360000  1.0
  H  H28  1  0.70790000  0.00545000  0.75190000  1.0
  H  H29  1  0.79210000  0.49455000  0.25191000  1.0
  H  H30  1  0.29210000  0.99455000  0.24810000  1.0
  H  H31  1  0.20789000  0.50544000  0.74809000  1.0
  H  H32  1  0.77639000  0.76861000  0.79053000  1.0
  H  H33  1  0.72362000  0.73139000  0.29054000  1.0
  H  H34  1  0.22361000  0.23139000  0.20947000  1.0
  H  H35  1  0.27638000  0.26861000  0.70946000  1.0
  H  H36  1  0.91260000  0.86087000  0.69882000  1.0
  H  H37  1  0.58741000  0.63914000  0.19883000  1.0
  H  H38  1  0.08740000  0.13913000  0.30118000  1.0
  H  H39  1  0.41259000  0.36086000  0.80117000  1.0
  C  C40  1  0.35561000  0.76804000  0.70066000  1.0
  C  C41  1  0.14438000  0.73197000  0.20067000  1.0
  C  C42  1  0.64438000  0.23197000  0.29933000  1.0
  C  C43  1  0.85561000  0.26803000  0.79933000  1.0
  C  C44  1  0.39306000  0.92861000  0.63001000  1.0
  C  C45  1  0.10695000  0.57140000  0.13001000  1.0
  C  C46  1  0.60695000  0.07139000  0.36999000  1.0
  C  C47  1  0.89306000  0.42861000  0.86999000  1.0
  C  C48  1  0.07659000  0.84751000  0.92020000  1.0
  C  C49  1  0.42341000  0.65249000  0.42020000  1.0
  C  C50  1  0.92341000  0.15249000  0.07980000  1.0
  C  C51  1  0.57660000  0.34752000  0.57980000  1.0
  C  C52  1  0.13871000  0.00333000  0.84157000  1.0
  C  C53  1  0.36130000  0.49667000  0.34158000  1.0
  C  C54  1  0.86129000  0.99667000  0.15843000  1.0
  C  C55  1  0.63870000  0.50333000  0.65843000  1.0
  C  C56  1  0.64750000  0.91955000  0.77317000  1.0
  C  C57  1  0.85250000  0.58046000  0.27318000  1.0
  C  C58  1  0.35250000  0.08045000  0.22683000  1.0
  C  C59  1  0.14749000  0.41955000  0.72682000  1.0
  C  C60  1  0.83679000  0.85528000  0.77125000  1.0
  C  C61  1  0.66321000  0.64473000  0.27126000  1.0
  C  C62  1  0.16321000  0.14472000  0.22875000  1.0
  C  C63  1  0.33679000  0.35527000  0.72874000  1.0
  N  N64  1  0.21076000  0.75774000  0.62834000  1.0
  N  N65  1  0.28925000  0.74226000  0.12834000  1.0
  N  N66  1  0.78925000  0.24226000  0.37166000  1.0
  N  N67  1  0.71074000  0.25774000  0.87166000  1.0
  N  N68  1  0.23332000  0.86021000  0.58401000  1.0
  N  N69  1  0.26669000  0.63979000  0.08401000  1.0
  N  N70  1  0.76669000  0.13979000  0.41599000  1.0
  N  N71  1  0.73332000  0.36021000  0.91599000  1.0
  N  N72  1  0.47289000  0.87387000  0.70376000  1.0
  N  N73  1  0.02711000  0.62613000  0.20376000  1.0
  N  N74  1  0.52711000  0.12614000  0.29624000  1.0
  N  N75  1  0.97288000  0.37386000  0.79624000  1.0
  N  N76  1  0.24365000  0.91337000  0.96440000  1.0
  N  N77  1  0.25635000  0.58663000  0.46441000  1.0
  N  N78  1  0.75635000  0.08663000  0.03560000  1.0
  N  N79  1  0.74364000  0.41337000  0.53560000  1.0
  N  N80  1  0.28286000  0.01289000  0.91412000  1.0
  N  N81  1  0.21714000  0.48710000  0.41412000  1.0
  N  N82  1  0.71714000  0.98711000  0.08588000  1.0
  N  N83  1  0.78286000  0.51290000  0.58588000  1.0
  N  N84  1  0.00775000  0.90053000  0.84267000  1.0
  N  N85  1  0.49225000  0.59947000  0.34267000  1.0
  N  N86  1  0.99225000  0.09947000  0.15733000  1.0
  N  N87  1  0.50774000  0.40053000  0.65733000  1.0
  O  O88  1  0.90243000  0.74833000  0.47909000  1.0
  O  O89  1  0.59758000  0.75168000  0.97909000  1.0
  O  O90  1  0.09757000  0.25167000  0.52091000  1.0
  O  O91  1  0.40242000  0.24833000  0.02091000  1.0
  F  F92  1  0.27588000  0.86316000  0.38002000  1.0
  F  F93  1  0.22413000  0.63684000  0.88002000  1.0
  F  F94  1  0.72413000  0.13684000  0.61998000  1.0
  F  F95  1  0.77586000  0.36316000  0.11998000  1.0
  F  F96  1  0.87689000  0.90031000  0.34179000  1.0
  F  F97  1  0.62313000  0.59970000  0.84180000  1.0
  F  F98  1  0.12313000  0.09969000  0.65820000  1.0
  F  F99  1  0.37687000  0.40030000  0.15821000  1.0
  F  F100  1  0.82135000  0.95288000  0.53293000  1.0
  F  F101  1  0.67866000  0.54712000  0.03294000  1.0
  F  F102  1  0.17866000  0.04713000  0.46706000  1.0
  F  F103  1  0.32134000  0.45287000  0.96707000  1.0
