# generated using pymatgen
data_Ag2H16C20S2O7
_symmetry_space_group_name_H-M   'P 1'
_cell_length_a   5.18408000
_cell_length_b   11.49050000
_cell_length_c   16.04380000
_cell_angle_alpha   97.46130000
_cell_angle_beta   89.99990000
_cell_angle_gamma   89.99980000
_symmetry_Int_Tables_number   1
_chemical_formula_structural   Ag2H16C20S2O7
_chemical_formula_sum   'Ag4 H32 C40 S4 O14'
_cell_volume   947.59976841
_cell_formula_units_Z   2
loop_
 _symmetry_equiv_pos_site_id
 _symmetry_equiv_pos_as_xyz
  1  'x, y, z'
loop_
 _atom_site_type_symbol
 _atom_site_label
 _atom_site_symmetry_multiplicity
 _atom_site_fract_x
 _atom_site_fract_y
 _atom_site_fract_z
 _atom_site_occupancy
  Ag  Ag0  1  0.12517000  0.62582000  0.85521000  1.0
  Ag  Ag1  1  0.87482000  0.12582000  0.85521000  1.0
  Ag  Ag2  1  0.56670000  0.46216000  0.84787000  1.0
  Ag  Ag3  1  0.43329000  0.96216000  0.84789000  1.0
  H  H4  1  0.61502000  0.71622000  0.80433000  1.0
  H  H5  1  0.38497000  0.21621000  0.80432000  1.0
  H  H6  1  0.61301000  0.73389000  0.90221000  1.0
  H  H7  1  0.38700000  0.23390000  0.90220000  1.0
  H  H8  1  0.74976000  0.20226000  0.60732000  1.0
  H  H9  1  0.25022000  0.70227000  0.60732000  1.0
  H  H10  1  0.74586000  0.15839000  0.45181000  1.0
  H  H11  1  0.25413000  0.65839000  0.45181000  1.0
  H  H12  1  0.06049000  0.25686000  0.36610000  1.0
  H  H13  1  0.93949000  0.75686000  0.36611000  1.0
  H  H14  1  0.41861000  0.39203000  0.35780000  1.0
  H  H15  1  0.58137000  0.89203000  0.35781000  1.0
  H  H16  1  0.73619000  0.53561000  0.42703000  1.0
  H  H17  1  0.26376000  0.03560000  0.42704000  1.0
  H  H18  1  0.74027000  0.58230000  0.58302000  1.0
  H  H19  1  0.25970000  0.08229000  0.58304000  1.0
  H  H20  1  0.43269000  0.48904000  0.66935000  1.0
  H  H21  1  0.56729000  0.98904000  0.66937000  1.0
  H  H22  1  0.76093000  0.32835000  0.11653000  1.0
  H  H23  1  0.23911000  0.82835000  0.11654000  1.0
  H  H24  1  0.75788000  0.38912000  0.27118000  1.0
  H  H25  1  0.24215000  0.88913000  0.27118000  1.0
  H  H26  1  0.07065000  0.53845000  0.33569000  1.0
  H  H27  1  0.92936000  0.03844000  0.33570000  1.0
  H  H28  1  0.42886000  0.67203000  0.32252000  1.0
  H  H29  1  0.57113000  0.17202000  0.32253000  1.0
  H  H30  1  0.74900000  0.76137000  0.23392000  1.0
  H  H31  1  0.25101000  0.26136000  0.23393000  1.0
  H  H32  1  0.75301000  0.70313000  0.07921000  1.0
  H  H33  1  0.24703000  0.20314000  0.07922000  1.0
  H  H34  1  0.44141000  0.56132000  0.01199000  1.0
  H  H35  1  0.55863000  0.06133000  0.01200000  1.0
  C  C36  1  0.06099000  0.32469000  0.60993000  1.0
  C  C37  1  0.93899000  0.82469000  0.60994000  1.0
  C  C38  1  0.88676000  0.24540000  0.57006000  1.0
  C  C39  1  0.11320000  0.74540000  0.57006000  1.0
  C  C40  1  0.88650000  0.22083000  0.48160000  1.0
  C  C41  1  0.11349000  0.72083000  0.48160000  1.0
  C  C42  1  0.06051000  0.27524000  0.43461000  1.0
  C  C43  1  0.93947000  0.77525000  0.43462000  1.0
  C  C44  1  0.24213000  0.35716000  0.47392000  1.0
  C  C45  1  0.75784000  0.85715000  0.47393000  1.0
  C  C46  1  0.42256000  0.41331000  0.42599000  1.0
  C  C47  1  0.57741000  0.91331000  0.42600000  1.0
  C  C48  1  0.59805000  0.49302000  0.46435000  1.0
  C  C49  1  0.40191000  0.99303000  0.46437000  1.0
  C  C50  1  0.59977000  0.52006000  0.55276000  1.0
  C  C51  1  0.40019000  0.02006000  0.55277000  1.0
  C  C52  1  0.42666000  0.46741000  0.60138000  1.0
  C  C53  1  0.57330000  0.96740000  0.60140000  1.0
  C  C54  1  0.24419000  0.38436000  0.56406000  1.0
  C  C55  1  0.75579000  0.88437000  0.56407000  1.0
  C  C56  1  0.06896000  0.44406000  0.09421000  1.0
  C  C57  1  0.93107000  0.94406000  0.09421000  1.0
  C  C58  1  0.89594000  0.39457000  0.14481000  1.0
  C  C59  1  0.10408000  0.89457000  0.14481000  1.0
  C  C60  1  0.89555000  0.42934000  0.23240000  1.0
  C  C61  1  0.10447000  0.92934000  0.23241000  1.0
  C  C62  1  0.06853000  0.51221000  0.26791000  1.0
  C  C63  1  0.93150000  0.01221000  0.26791000  1.0
  C  C64  1  0.24942000  0.56439000  0.21771000  1.0
  C  C65  1  0.75059000  0.06438000  0.21772000  1.0
  C  C66  1  0.43055000  0.64848000  0.25440000  1.0
  C  C67  1  0.56946000  0.14848000  0.25441000  1.0
  C  C68  1  0.60799000  0.69785000  0.20551000  1.0
  C  C69  1  0.39203000  0.19786000  0.20552000  1.0
  C  C70  1  0.60984000  0.66555000  0.11757000  1.0
  C  C71  1  0.39018000  0.16554000  0.11758000  1.0
  C  C72  1  0.43461000  0.58518000  0.07974000  1.0
  C  C73  1  0.56542000  0.08517000  0.07975000  1.0
  C  C74  1  0.25124000  0.53113000  0.12797000  1.0
  C  C75  1  0.74877000  0.03113000  0.12798000  1.0
  S  S76  1  0.04677000  0.35229000  0.72145000  1.0
  S  S77  1  0.95323000  0.85229000  0.72146000  1.0
  S  S78  1  0.05273000  0.39448000  0.98435000  1.0
  S  S79  1  0.94731000  0.89448000  0.98436000  1.0
  O  O80  1  0.96310000  0.47585000  0.74162000  1.0
  O  O81  1  0.03689000  0.97584000  0.74163000  1.0
  O  O82  1  0.86388000  0.26849000  0.74972000  1.0
  O  O83  1  0.13611000  0.76848000  0.74973000  1.0
  O  O84  1  0.31489000  0.33372000  0.75050000  1.0
  O  O85  1  0.68511000  0.83372000  0.75052000  1.0
  O  O86  1  0.32276000  0.36942000  0.95655000  1.0
  O  O87  1  0.67727000  0.86942000  0.95656000  1.0
  O  O88  1  0.94065000  0.49331000  0.94507000  1.0
  O  O89  1  0.05937000  0.99332000  0.94508000  1.0
  O  O90  1  0.89033000  0.28953000  0.97439000  1.0
  O  O91  1  0.10973000  0.78954000  0.97440000  1.0
  O  O92  1  0.59277000  0.67181000  0.85313000  1.0
  O  O93  1  0.40723000  0.17182000  0.85313000  1.0
