# generated using pymatgen
data_CuH14C16S3IN2
_symmetry_space_group_name_H-M   'P 1'
_cell_length_a   9.21735000
_cell_length_b   14.39830000
_cell_length_c   16.45300000
_cell_angle_alpha   90.00000000
_cell_angle_beta   90.00000000
_cell_angle_gamma   105.47300000
_symmetry_Int_Tables_number   1
_chemical_formula_structural   CuH14C16S3IN2
_chemical_formula_sum   'Cu4 H56 C64 S12 I4 N8'
_cell_volume   2104.40640705
_cell_formula_units_Z   4
loop_
 _symmetry_equiv_pos_site_id
 _symmetry_equiv_pos_as_xyz
  1  'x, y, z'
loop_
 _atom_site_type_symbol
 _atom_site_label
 _atom_site_symmetry_multiplicity
 _atom_site_fract_x
 _atom_site_fract_y
 _atom_site_fract_z
 _atom_site_occupancy
  Cu  Cu0  1  0.97748000  0.05537000  0.94280000  1.0
  Cu  Cu1  1  0.52253000  0.44464000  0.44280000  1.0
  Cu  Cu2  1  0.02254000  0.94463000  0.05720000  1.0
  Cu  Cu3  1  0.47748000  0.55537000  0.55721000  1.0
  H  H4  1  0.36641000  0.25224000  0.80904000  1.0
  H  H5  1  0.13359000  0.24776000  0.30904000  1.0
  H  H6  1  0.63359000  0.74776000  0.19096000  1.0
  H  H7  1  0.86641000  0.75225000  0.69097000  1.0
  H  H8  1  0.33412000  0.23966000  0.91653000  1.0
  H  H9  1  0.16588000  0.26034000  0.41654000  1.0
  H  H10  1  0.66588000  0.76034000  0.08346000  1.0
  H  H11  1  0.83411000  0.73965000  0.58347000  1.0
  H  H12  1  0.41054000  0.44962000  0.03518000  1.0
  H  H13  1  0.08947000  0.05039000  0.53519000  1.0
  H  H14  1  0.58948000  0.55038000  0.96481000  1.0
  H  H15  1  0.91051000  0.94962000  0.46481000  1.0
  H  H16  1  0.31350000  0.32519000  0.02273000  1.0
  H  H17  1  0.18652000  0.17482000  0.52273000  1.0
  H  H18  1  0.68651000  0.67482000  0.97728000  1.0
  H  H19  1  0.81349000  0.82519000  0.47727000  1.0
  H  H20  1  0.25374000  0.37429000  0.73021000  1.0
  H  H21  1  0.24623000  0.12570000  0.23021000  1.0
  H  H22  1  0.74625000  0.62571000  0.26979000  1.0
  H  H23  1  0.75374000  0.87429000  0.76979000  1.0
  H  H24  1  0.64266000  0.03175000  0.92844000  1.0
  H  H25  1  0.85735000  0.46824000  0.42842000  1.0
  H  H26  1  0.35736000  0.96824000  0.07156000  1.0
  H  H27  1  0.14265000  0.53175000  0.57156000  1.0
  H  H28  1  0.11289000  0.48594000  0.24822000  1.0
  H  H29  1  0.38711000  0.01407000  0.74822000  1.0
  H  H30  1  0.88712000  0.51407000  0.75178000  1.0
  H  H31  1  0.61288000  0.98593000  0.25177000  1.0
  H  H32  1  0.25207000  0.49483000  0.37913000  1.0
  H  H33  1  0.24793000  0.00518000  0.87913000  1.0
  H  H34  1  0.74794000  0.50518000  0.62088000  1.0
  H  H35  1  0.75207000  0.99482000  0.12086000  1.0
  H  H36  1  0.01943000  0.26217000  0.95556000  1.0
  H  H37  1  0.48056000  0.23784000  0.45556000  1.0
  H  H38  1  0.98057000  0.73782000  0.04446000  1.0
  H  H39  1  0.51943000  0.76217000  0.54446000  1.0
  H  H40  1  0.14947000  0.53759000  0.95078000  1.0
  H  H41  1  0.35055000  0.96242000  0.45078000  1.0
  H  H42  1  0.85054000  0.46241000  0.04922000  1.0
  H  H43  1  0.64944000  0.03758000  0.54922000  1.0
  H  H44  1  0.43564000  0.34897000  0.14398000  1.0
  H  H45  1  0.06436000  0.15103000  0.64398000  1.0
  H  H46  1  0.56437000  0.65104000  0.85602000  1.0
  H  H47  1  0.93564000  0.84897000  0.35602000  1.0
  H  H48  1  0.55890000  0.36432000  0.27824000  1.0
  H  H49  1  0.94110000  0.13569000  0.77823000  1.0
  H  H50  1  0.44110000  0.63569000  0.72177000  1.0
  H  H51  1  0.05891000  0.86432000  0.22176000  1.0
  H  H52  1  0.87526000  0.38096000  0.92353000  1.0
  H  H53  1  0.62471000  0.11904000  0.42353000  1.0
  H  H54  1  0.12474000  0.61903000  0.07648000  1.0
  H  H55  1  0.37525000  0.88096000  0.57648000  1.0
  H  H56  1  0.47840000  0.13967000  0.89992000  1.0
  H  H57  1  0.02159000  0.36032000  0.39990000  1.0
  H  H58  1  0.52162000  0.86032000  0.10008000  1.0
  H  H59  1  0.97839000  0.63966000  0.60007000  1.0
  C  C60  1  0.26163000  0.41642000  0.18380000  1.0
  C  C61  1  0.23838000  0.08359000  0.68380000  1.0
  C  C62  1  0.73839000  0.58360000  0.81621000  1.0
  C  C63  1  0.76162000  0.91641000  0.31620000  1.0
  C  C64  1  0.25753000  0.41839000  0.93319000  1.0
  C  C65  1  0.24248000  0.08160000  0.43320000  1.0
  C  C66  1  0.74249000  0.58160000  0.06681000  1.0
  C  C67  1  0.75750000  0.91840000  0.56680000  1.0
  C  C68  1  0.37416000  0.29138000  0.86678000  1.0
  C  C69  1  0.12584000  0.20862000  0.36678000  1.0
  C  C70  1  0.62584000  0.70862000  0.13322000  1.0
  C  C71  1  0.87416000  0.79138000  0.63322000  1.0
  C  C72  1  0.30249000  0.39920000  0.01809000  1.0
  C  C73  1  0.19752000  0.10080000  0.51809000  1.0
  C  C74  1  0.69752000  0.60080000  0.98191000  1.0
  C  C75  1  0.80248000  0.89920000  0.48191000  1.0
  C  C76  1  0.24087000  0.39836000  0.79194000  1.0
  C  C77  1  0.25911000  0.10163000  0.29193000  1.0
  C  C78  1  0.75913000  0.60164000  0.20807000  1.0
  C  C79  1  0.74086000  0.89837000  0.70806000  1.0
  C  C80  1  0.68905000  0.11002000  0.92712000  1.0
  C  C81  1  0.81095000  0.38999000  0.42710000  1.0
  C  C82  1  0.31097000  0.88997000  0.07289000  1.0
  C  C83  1  0.18905000  0.61002000  0.57289000  1.0
  C  C84  1  0.28857000  0.36622000  0.86336000  1.0
  C  C85  1  0.21143000  0.13377000  0.36337000  1.0
  C  C86  1  0.71144000  0.63378000  0.13663000  1.0
  C  C87  1  0.78855000  0.86623000  0.63663000  1.0
  C  C88  1  0.21021000  0.45672000  0.25247000  1.0
  C  C89  1  0.28979000  0.04329000  0.75247000  1.0
  C  C90  1  0.78980000  0.54329000  0.74754000  1.0
  C  C91  1  0.71021000  0.95671000  0.24752000  1.0
  C  C92  1  0.28758000  0.46233000  0.32528000  1.0
  C  C93  1  0.21242000  0.03767000  0.82527000  1.0
  C  C94  1  0.71243000  0.53768000  0.67473000  1.0
  C  C95  1  0.78758000  0.96232000  0.17472000  1.0
  C  C96  1  0.89945000  0.23827000  0.94189000  1.0
  C  C97  1  0.60055000  0.26174000  0.44189000  1.0
  C  C98  1  0.10055000  0.76172000  0.05812000  1.0
  C  C99  1  0.39945000  0.73827000  0.55813000  1.0
  C  C100  1  0.18648000  0.48779000  0.91145000  1.0
  C  C101  1  0.31352000  0.01222000  0.41144000  1.0
  C  C102  1  0.81353000  0.51221000  0.08856000  1.0
  C  C103  1  0.68646000  0.98779000  0.58855000  1.0
  C  C104  1  0.38965000  0.38219000  0.19364000  1.0
  C  C105  1  0.11036000  0.11783000  0.69363000  1.0
  C  C106  1  0.61037000  0.61783000  0.80637000  1.0
  C  C107  1  0.88964000  0.88218000  0.30636000  1.0
  C  C108  1  0.66307000  0.27068000  0.90835000  1.0
  C  C109  1  0.83692000  0.22932000  0.40834000  1.0
  C  C110  1  0.33693000  0.72930000  0.09165000  1.0
  C  C111  1  0.16306000  0.77068000  0.59165000  1.0
  C  C112  1  0.45923000  0.39040000  0.26935000  1.0
  C  C113  1  0.04076000  0.10961000  0.76935000  1.0
  C  C114  1  0.54077000  0.60961000  0.73066000  1.0
  C  C115  1  0.95924000  0.89040000  0.23065000  1.0
  C  C116  1  0.81838000  0.30411000  0.92493000  1.0
  C  C117  1  0.68161000  0.19589000  0.42493000  1.0
  C  C118  1  0.18162000  0.69588000  0.07508000  1.0
  C  C119  1  0.31837000  0.80411000  0.57507000  1.0
  C  C120  1  0.59802000  0.17066000  0.91060000  1.0
  C  C121  1  0.90197000  0.32933000  0.41058000  1.0
  C  C122  1  0.40199000  0.82932000  0.08941000  1.0
  C  C123  1  0.09802000  0.67066000  0.58941000  1.0
  S  S124  1  0.16420000  0.41426000  0.09239000  1.0
  S  S125  1  0.33582000  0.08574000  0.59239000  1.0
  S  S126  1  0.83583000  0.58575000  0.90761000  1.0
  S  S127  1  0.66417000  0.91425000  0.40760000  1.0
  S  S128  1  0.56956000  0.35771000  0.88570000  1.0
  S  S129  1  0.93043000  0.14229000  0.38570000  1.0
  S  S130  1  0.43045000  0.64228000  0.11430000  1.0
  S  S131  1  0.06954000  0.85770000  0.61429000  1.0
  S  S132  1  0.15812000  0.48990000  0.80849000  1.0
  S  S133  1  0.34187000  0.01009000  0.30850000  1.0
  S  S134  1  0.84187000  0.51009000  0.19151000  1.0
  S  S135  1  0.65810000  0.98990000  0.69150000  1.0
  I  I136  1  0.80529000  0.87704000  0.94820000  1.0
  I  I137  1  0.69473000  0.62297000  0.44821000  1.0
  I  I138  1  0.19475000  0.12296000  0.05179000  1.0
  I  I139  1  0.30527000  0.37704000  0.55179000  1.0
  N  N140  1  0.83807000  0.14177000  0.94223000  1.0
  N  N141  1  0.66193000  0.35824000  0.44222000  1.0
  N  N142  1  0.16194000  0.85823000  0.05778000  1.0
  N  N143  1  0.33808000  0.64177000  0.55778000  1.0
  N  N144  1  0.41132000  0.42991000  0.33489000  1.0
  N  N145  1  0.08868000  0.07010000  0.83488000  1.0
  N  N146  1  0.58868000  0.57009000  0.66512000  1.0
  N  N147  1  0.91133000  0.92991000  0.16511000  1.0
