# generated using pymatgen
data_Cd3H44C36(N14O3)2
_symmetry_space_group_name_H-M   'P 1'
_cell_length_a   11.77180000
_cell_length_b   12.14090000
_cell_length_c   13.94900000
_cell_angle_alpha   93.21730000
_cell_angle_beta   113.74000000
_cell_angle_gamma   108.53700000
_symmetry_Int_Tables_number   1
_chemical_formula_structural   Cd3H44C36(N14O3)2
_chemical_formula_sum   'Cd3 H44 C36 N28 O6'
_cell_volume   1690.84141472
_cell_formula_units_Z   1
loop_
 _symmetry_equiv_pos_site_id
 _symmetry_equiv_pos_as_xyz
  1  'x, y, z'
loop_
 _atom_site_type_symbol
 _atom_site_label
 _atom_site_symmetry_multiplicity
 _atom_site_fract_x
 _atom_site_fract_y
 _atom_site_fract_z
 _atom_site_occupancy
  Cd  Cd0  1  0.00000000  0.50000000  0.50000000  1.0
  Cd  Cd1  1  0.89072000  0.77154000  0.55312000  1.0
  Cd  Cd2  1  0.10928000  0.22846000  0.44688000  1.0
  H  H3  1  0.50702000  0.66061000  0.12376000  1.0
  H  H4  1  0.49298000  0.33939000  0.87624000  1.0
  H  H5  1  0.64792000  0.38695000  0.07150000  1.0
  H  H6  1  0.35208000  0.61305000  0.92850000  1.0
  H  H7  1  0.12895000  0.46238000  0.90695000  1.0
  H  H8  1  0.87105000  0.53762000  0.09305000  1.0
  H  H9  1  0.82077000  0.57806000  0.90978000  1.0
  H  H10  1  0.17924000  0.42194000  0.09022000  1.0
  H  H11  1  0.62427000  0.89911000  0.44442000  1.0
  H  H12  1  0.37573000  0.10089000  0.55558000  1.0
  H  H13  1  0.56679000  0.21912000  0.52532000  1.0
  H  H14  1  0.43321000  0.78088000  0.47468000  1.0
  H  H15  1  0.87410000  0.02577000  0.62043000  1.0
  H  H16  1  0.12590000  0.97423000  0.37957000  1.0
  H  H17  1  0.89791000  0.20264000  0.67855000  1.0
  H  H18  1  0.10209000  0.79737000  0.32145000  1.0
  H  H19  1  0.06736000  0.30098000  0.75187000  1.0
  H  H20  1  0.93265000  0.69902000  0.24813000  1.0
  H  H21  1  0.96878000  0.24776000  0.82068000  1.0
  H  H22  1  0.03122000  0.75224000  0.17932000  1.0
  H  H23  1  0.16774000  0.05133000  0.85567000  1.0
  H  H24  1  0.83226000  0.94867000  0.14433000  1.0
  H  H25  1  0.13538000  0.15034000  0.93283000  1.0
  H  H26  1  0.86462000  0.84966000  0.06717000  1.0
  H  H27  1  0.23455000  0.20904000  0.86518000  1.0
  H  H28  1  0.76546000  0.79096000  0.13482000  1.0
  H  H29  1  0.77260000  0.79563000  0.72312000  1.0
  H  H30  1  0.22740000  0.20437000  0.27687000  1.0
  H  H31  1  0.68603000  0.75161000  0.83072000  1.0
  H  H32  1  0.31397000  0.24839000  0.16928000  1.0
  H  H33  1  0.58404000  0.59731000  0.79853000  1.0
  H  H34  1  0.41596000  0.40269000  0.20147000  1.0
  H  H35  1  0.50749000  0.70444000  0.77680000  1.0
  H  H36  1  0.49251000  0.29556000  0.22320000  1.0
  H  H37  1  0.46818000  0.58988000  0.50590000  1.0
  H  H38  1  0.53182000  0.41012000  0.49410000  1.0
  H  H39  1  0.37288000  0.61671000  0.57085000  1.0
  H  H40  1  0.62712000  0.38329000  0.42915000  1.0
  H  H41  1  0.43835000  0.50114000  0.59768000  1.0
  H  H42  1  0.56165000  0.49886000  0.40232000  1.0
  H  H43  1  0.82452000  0.96513000  0.42778000  1.0
  H  H44  1  0.17548000  0.03487000  0.57222000  1.0
  H  H45  1  0.77273000  0.83185000  0.35866000  1.0
  H  H46  1  0.22727000  0.16815000  0.64134000  1.0
  C  C47  1  0.67860000  0.55360000  0.22383000  1.0
  C  C48  1  0.32140000  0.44640000  0.77617000  1.0
  C  C49  1  0.58774000  0.52701000  0.10996000  1.0
  C  C50  1  0.41226000  0.47299000  0.89004000  1.0
  C  C51  1  0.50421000  0.59087000  0.06906000  1.0
  C  C52  1  0.49579000  0.40913000  0.93094000  1.0
  C  C53  1  0.58236000  0.43572000  0.03958000  1.0
  C  C54  1  0.41764000  0.56428000  0.96042000  1.0
  C  C55  1  0.94582000  0.54553000  0.78958000  1.0
  C  C56  1  0.05418000  0.45447000  0.21042000  1.0
  C  C57  1  0.97133000  0.52200000  0.89634000  1.0
  C  C58  1  0.02867000  0.47800000  0.10366000  1.0
  C  C59  1  0.07179000  0.47725000  0.94791000  1.0
  C  C60  1  0.92821000  0.52275000  0.05209000  1.0
  C  C61  1  0.89992000  0.54476000  0.94983000  1.0
  C  C62  1  0.10008000  0.45524000  0.05017000  1.0
  C  C63  1  0.72147000  0.14049000  0.46560000  1.0
  C  C64  1  0.27853000  0.85950000  0.53440000  1.0
  C  C65  1  0.60799000  0.06775000  0.48166000  1.0
  C  C66  1  0.39202000  0.93225000  0.51834000  1.0
  C  C67  1  0.56983000  0.94376000  0.46819000  1.0
  C  C68  1  0.43017000  0.05624000  0.53181000  1.0
  C  C69  1  0.53696000  0.12301000  0.51390000  1.0
  C  C70  1  0.46304000  0.87699000  0.48609000  1.0
  C  C71  1  0.96032000  0.02176000  0.68988000  1.0
  C  C72  1  0.03968000  0.97824000  0.31012000  1.0
  C  C73  1  0.98879000  0.22374000  0.75354000  1.0
  C  C74  1  0.01122000  0.77626000  0.24647000  1.0
  C  C75  1  0.14897000  0.13372000  0.86050000  1.0
  C  C76  1  0.85103000  0.86628000  0.13950000  1.0
  C  C77  1  0.68404000  0.73864000  0.64969000  1.0
  C  C78  1  0.31596000  0.26136000  0.35031000  1.0
  C  C79  1  0.59019000  0.68286000  0.77418000  1.0
  C  C80  1  0.40981000  0.31714000  0.22581000  1.0
  C  C81  1  0.45726000  0.59055000  0.58012000  1.0
  C  C82  1  0.54274000  0.40946000  0.41988000  1.0
  N  N83  1  0.74355000  0.48285000  0.27060000  1.0
  N  N84  1  0.25645000  0.51715000  0.72940000  1.0
  N  N85  1  0.81515000  0.53780000  0.37299000  1.0
  N  N86  1  0.18485000  0.46220000  0.62701000  1.0
  N  N87  1  0.79470000  0.63738000  0.38848000  1.0
  N  N88  1  0.20530000  0.36261000  0.61152000  1.0
  N  N89  1  0.70922000  0.65061000  0.29606000  1.0
  N  N90  1  0.29078000  0.34939000  0.70393000  1.0
  N  N91  1  0.90434000  0.63253000  0.75052000  1.0
  N  N92  1  0.09566000  0.36747000  0.24948000  1.0
  N  N93  1  0.90464000  0.62590000  0.65491000  1.0
  N  N94  1  0.09536000  0.37410000  0.34509000  1.0
  N  N95  1  0.94306000  0.53798000  0.63670000  1.0
  N  N96  1  0.05694000  0.46202000  0.36330000  1.0
  N  N97  1  0.96946000  0.48570000  0.71958000  1.0
  N  N98  1  0.03054000  0.51431000  0.28042000  1.0
  N  N99  1  0.75873000  0.25929000  0.47441000  1.0
  N  N100  1  0.24127000  0.74071000  0.52559000  1.0
  N  N101  1  0.86907000  0.29275000  0.46070000  1.0
  N  N102  1  0.13093000  0.70725000  0.53930000  1.0
  N  N103  1  0.89895000  0.19922000  0.44377000  1.0
  N  N104  1  0.10105000  0.80078000  0.55623000  1.0
  N  N105  1  0.80766000  0.10166000  0.44618000  1.0
  N  N106  1  0.19234000  0.89834000  0.55382000  1.0
  N  N107  1  0.02906000  0.12178000  0.76535000  1.0
  N  N108  1  0.97094000  0.87822000  0.23465000  1.0
  N  N109  1  0.58077000  0.67505000  0.66674000  1.0
  N  N110  1  0.41923000  0.32495000  0.33326000  1.0
  O  O111  1  0.98906000  0.93039000  0.69615000  1.0
  O  O112  1  0.01094000  0.06961000  0.30385000  1.0
  O  O113  1  0.68379000  0.73564000  0.55937000  1.0
  O  O114  1  0.31621000  0.26437000  0.44063000  1.0
  O  O115  1  0.84306000  0.89002000  0.42397000  1.0
  O  O116  1  0.15694000  0.10998000  0.57602000  1.0
