# generated using pymatgen
data_CuH4C5N7Cl
_symmetry_space_group_name_H-M   'P 1'
_cell_length_a   5.71708000
_cell_length_b   8.35750000
_cell_length_c   9.96116000
_cell_angle_alpha   81.45440000
_cell_angle_beta   75.87740000
_cell_angle_gamma   88.35170000
_symmetry_Int_Tables_number   1
_chemical_formula_structural   CuH4C5N7Cl
_chemical_formula_sum   'Cu2 H8 C10 N14 Cl2'
_cell_volume   456.42575052
_cell_formula_units_Z   2
loop_
 _symmetry_equiv_pos_site_id
 _symmetry_equiv_pos_as_xyz
  1  'x, y, z'
loop_
 _atom_site_type_symbol
 _atom_site_label
 _atom_site_symmetry_multiplicity
 _atom_site_fract_x
 _atom_site_fract_y
 _atom_site_fract_z
 _atom_site_occupancy
  Cu  Cu0  1  0.21406000  0.02925000  0.06847000  1.0
  Cu  Cu1  1  0.78596000  0.97075000  0.93153000  1.0
  H  H2  1  0.94067000  0.28005000  0.51029000  1.0
  H  H3  1  0.05929000  0.71997000  0.48970000  1.0
  H  H4  1  0.28885000  0.47763000  0.45872000  1.0
  H  H5  1  0.71111000  0.52239000  0.54128000  1.0
  H  H6  1  0.60162000  0.48621000  0.23119000  1.0
  H  H7  1  0.39838000  0.51379000  0.76882000  1.0
  H  H8  1  0.55304000  0.29819000  0.06515000  1.0
  H  H9  1  0.44697000  0.70180000  0.93487000  1.0
  C  C10  1  0.07426000  0.18812000  0.31608000  1.0
  C  C11  1  0.92573000  0.81189000  0.68392000  1.0
  C  C12  1  0.08193000  0.28955000  0.41393000  1.0
  C  C13  1  0.91805000  0.71047000  0.58607000  1.0
  C  C14  1  0.27401000  0.39796000  0.38410000  1.0
  C  C15  1  0.72598000  0.60205000  0.61590000  1.0
  C  C16  1  0.44785000  0.40373000  0.25785000  1.0
  C  C17  1  0.55215000  0.59627000  0.74215000  1.0
  C  C18  1  0.42453000  0.29960000  0.16554000  1.0
  C  C19  1  0.57549000  0.70040000  0.83447000  1.0
  N  N20  1  0.53873000  0.12104000  0.87780000  1.0
  N  N21  1  0.46130000  0.87895000  0.12220000  1.0
  N  N22  1  0.53319000  0.16956000  0.75807000  1.0
  N  N23  1  0.46683000  0.83042000  0.24193000  1.0
  N  N24  1  0.52018000  0.22000000  0.64440000  1.0
  N  N25  1  0.47981000  0.77999000  0.35561000  1.0
  N  N26  1  0.03450000  0.84760000  0.01835000  1.0
  N  N27  1  0.96548000  0.15240000  0.98165000  1.0
  N  N28  1  0.01417000  0.70932000  0.07897000  1.0
  N  N29  1  0.98582000  0.29067000  0.92101000  1.0
  N  N30  1  0.99986000  0.57686000  0.13553000  1.0
  N  N31  1  0.00016000  0.42312000  0.86445000  1.0
  N  N32  1  0.24107000  0.19201000  0.19466000  1.0
  N  N33  1  0.75895000  0.80799000  0.80535000  1.0
  Cl  Cl34  1  0.84728000  0.04625000  0.34929000  1.0
  Cl  Cl35  1  0.15271000  0.95376000  0.65071000  1.0
