# generated using pymatgen
data_MnH22C38S2(NO2)4
_symmetry_space_group_name_H-M   'P 1'
_cell_length_a   8.76571000
_cell_length_b   9.40896000
_cell_length_c   10.71810000
_cell_angle_alpha   105.85500000
_cell_angle_beta   104.01300000
_cell_angle_gamma   92.81910000
_symmetry_Int_Tables_number   1
_chemical_formula_structural   MnH22C38S2(NO2)4
_chemical_formula_sum   'Mn1 H22 C38 S2 N4 O8'
_cell_volume   818.72815283
_cell_formula_units_Z   1
loop_
 _symmetry_equiv_pos_site_id
 _symmetry_equiv_pos_as_xyz
  1  'x, y, z'
loop_
 _atom_site_type_symbol
 _atom_site_label
 _atom_site_symmetry_multiplicity
 _atom_site_fract_x
 _atom_site_fract_y
 _atom_site_fract_z
 _atom_site_occupancy
  Mn  Mn0  1  0.50000000  0.50000000  0.50000000  1.0
  H  H1  1  0.57612000  0.06352000  0.14756000  1.0
  H  H2  1  0.42388000  0.93648000  0.85244000  1.0
  H  H3  1  0.77230000  0.07157000  0.01411000  1.0
  H  H4  1  0.22770000  0.92843000  0.98589000  1.0
  H  H5  1  0.79791000  0.29067000  0.92675000  1.0
  H  H6  1  0.20209000  0.70933000  0.07325000  1.0
  H  H7  1  0.46543000  0.82866000  0.43498000  1.0
  H  H8  1  0.53457000  0.17134000  0.56502000  1.0
  H  H9  1  0.56865000  0.97001000  0.30439000  1.0
  H  H10  1  0.43135000  0.02999000  0.69561000  1.0
  H  H11  1  0.79195000  0.87720000  0.20272000  1.0
  H  H12  1  0.20805000  0.12281000  0.79728000  1.0
  H  H13  1  0.97872000  0.68817000  0.17017000  1.0
  H  H14  1  0.02129000  0.31184000  0.82983000  1.0
  H  H15  1  0.07851000  0.45674000  0.20713000  1.0
  H  H16  1  0.92149000  0.54327000  0.79287000  1.0
  H  H17  1  0.05994000  0.24397000  0.29826000  1.0
  H  H18  1  0.94007000  0.75603000  0.70174000  1.0
  H  H19  1  0.93511000  0.11774000  0.43560000  1.0
  H  H20  1  0.06489000  0.88226000  0.56440000  1.0
  H  H21  1  0.71688000  0.22766000  0.52366000  1.0
  H  H22  1  0.28312000  0.77234000  0.47634000  1.0
  C  C23  1  0.36552000  0.48279000  0.05428000  1.0
  C  C24  1  0.63447000  0.51720000  0.94573000  1.0
  C  C25  1  0.48235000  0.37422000  0.05677000  1.0
  C  C26  1  0.51765000  0.62578000  0.94323000  1.0
  C  C27  1  0.47569000  0.25653000  0.11500000  1.0
  C  C28  1  0.52431000  0.74347000  0.88500000  1.0
  C  C29  1  0.58252000  0.15178000  0.10091000  1.0
  C  C30  1  0.41748000  0.84822000  0.89909000  1.0
  C  C31  1  0.69459000  0.15832000  0.02892000  1.0
  C  C32  1  0.30541000  0.84168000  0.97109000  1.0
  C  C33  1  0.70710000  0.27749000  0.97770000  1.0
  C  C34  1  0.29290000  0.72251000  0.02230000  1.0
  C  C35  1  0.60396000  0.38609000  0.99316000  1.0
  C  C36  1  0.39604000  0.61391000  0.00684000  1.0
  C  C37  1  0.72706000  0.60951000  0.35140000  1.0
  C  C38  1  0.27294000  0.39049000  0.64860000  1.0
  C  C39  1  0.55761000  0.78729000  0.38756000  1.0
  C  C40  1  0.44239000  0.21271000  0.61244000  1.0
  C  C41  1  0.62012000  0.86976000  0.31615000  1.0
  C  C42  1  0.37988000  0.13024000  0.68385000  1.0
  C  C43  1  0.74133000  0.81850000  0.26111000  1.0
  C  C44  1  0.25867000  0.18150000  0.73890000  1.0
  C  C45  1  0.80026000  0.68652000  0.27934000  1.0
  C  C46  1  0.19974000  0.31349000  0.72066000  1.0
  C  C47  1  0.92770000  0.62886000  0.22772000  1.0
  C  C48  1  0.07231000  0.37114000  0.77228000  1.0
  C  C49  1  0.98169000  0.50075000  0.24679000  1.0
  C  C50  1  0.01832000  0.49925000  0.75321000  1.0
  C  C51  1  0.91178000  0.42138000  0.31955000  1.0
  C  C52  1  0.08823000  0.57863000  0.68045000  1.0
  C  C53  1  0.96536000  0.28865000  0.34103000  1.0
  C  C54  1  0.03464000  0.71135000  0.65896000  1.0
  C  C55  1  0.89576000  0.21890000  0.41474000  1.0
  C  C56  1  0.10424000  0.78109000  0.58526000  1.0
  C  C57  1  0.77166000  0.28043000  0.46404000  1.0
  C  C58  1  0.22834000  0.71957000  0.53596000  1.0
  C  C59  1  0.78432000  0.47440000  0.37201000  1.0
  C  C60  1  0.21569000  0.52560000  0.62799000  1.0
  S  S61  1  0.34191000  0.23023000  0.21442000  1.0
  S  S62  1  0.65808000  0.76977000  0.78558000  1.0
  N  N63  1  0.60614000  0.65990000  0.40344000  1.0
  N  N64  1  0.39386000  0.34010000  0.59656000  1.0
  N  N65  1  0.71503000  0.40280000  0.44254000  1.0
  N  N66  1  0.28498000  0.59720000  0.55746000  1.0
  O  O67  1  0.34485000  0.38040000  0.30898000  1.0
  O  O68  1  0.65514000  0.61959000  0.69103000  1.0
  O  O69  1  0.18622000  0.17147000  0.12206000  1.0
  O  O70  1  0.81377000  0.82853000  0.87794000  1.0
  O  O71  1  0.41310000  0.12865000  0.28736000  1.0
  O  O72  1  0.58688000  0.87133000  0.71263000  1.0
  O  O73  1  0.23911000  0.46316000  0.08209000  1.0
  O  O74  1  0.76089000  0.53684000  0.91792000  1.0
