# generated using pymatgen
data_NaH11PdC7(NO4)2
_symmetry_space_group_name_H-M   'P 1'
_cell_length_a   7.29629000
_cell_length_b   7.59489000
_cell_length_c   11.04930000
_cell_angle_alpha   103.88700000
_cell_angle_beta   107.72600000
_cell_angle_gamma   92.35350000
_symmetry_Int_Tables_number   1
_chemical_formula_structural   NaH11PdC7(NO4)2
_chemical_formula_sum   'Na2 H22 Pd2 C14 N4 O16'
_cell_volume   561.84533154
_cell_formula_units_Z   2
loop_
 _symmetry_equiv_pos_site_id
 _symmetry_equiv_pos_as_xyz
  1  'x, y, z'
loop_
 _atom_site_type_symbol
 _atom_site_label
 _atom_site_symmetry_multiplicity
 _atom_site_fract_x
 _atom_site_fract_y
 _atom_site_fract_z
 _atom_site_occupancy
  Na  Na0  1  0.26009000  0.26145000  0.03599000  1.0
  Na  Na1  1  0.73993000  0.73859000  0.96403000  1.0
  H  H2  1  0.71090000  0.37719000  0.07745000  1.0
  H  H3  1  0.28907000  0.62281000  0.92255000  1.0
  H  H4  1  0.42045000  0.65857000  0.11417000  1.0
  H  H5  1  0.57957000  0.34144000  0.88584000  1.0
  H  H6  1  0.19292000  0.64394000  0.08702000  1.0
  H  H7  1  0.80709000  0.35608000  0.91298000  1.0
  H  H8  1  0.43549000  0.94898000  0.13670000  1.0
  H  H9  1  0.56453000  0.05103000  0.86329000  1.0
  H  H10  1  0.22031000  0.94704000  0.13737000  1.0
  H  H11  1  0.77969000  0.05299000  0.86264000  1.0
  H  H12  1  0.47224000  0.28446000  0.29274000  1.0
  H  H13  1  0.52773000  0.71550000  0.70726000  1.0
  H  H14  1  0.59762000  0.46478000  0.43564000  1.0
  H  H15  1  0.40238000  0.53523000  0.56437000  1.0
  H  H16  1  0.58991000  0.05769000  0.42560000  1.0
  H  H17  1  0.41009000  0.94232000  0.57445000  1.0
  H  H18  1  0.41366000  0.19109000  0.46614000  1.0
  H  H19  1  0.58631000  0.80891000  0.53388000  1.0
  H  H20  1  0.67634000  0.39984000  0.65843000  1.0
  H  H21  1  0.32370000  0.60001000  0.34152000  1.0
  H  H22  1  0.64379000  0.17232000  0.66833000  1.0
  H  H23  1  0.35621000  0.82775000  0.33170000  1.0
  Pd  Pd24  1  0.00963000  0.25578000  0.49042000  1.0
  Pd  Pd25  1  0.99036000  0.74419000  0.50958000  1.0
  C  C26  1  0.00542000  0.30928000  0.24489000  1.0
  C  C27  1  0.99453000  0.69073000  0.75511000  1.0
  C  C28  1  0.80194000  0.32341000  0.25155000  1.0
  C  C29  1  0.19813000  0.67657000  0.74844000  1.0
  C  C30  1  0.59370000  0.31990000  0.38534000  1.0
  C  C31  1  0.40630000  0.68015000  0.61463000  1.0
  C  C32  1  0.56533000  0.19672000  0.46985000  1.0
  C  C33  1  0.43465000  0.80333000  0.53012000  1.0
  C  C34  1  0.69230000  0.25744000  0.61368000  1.0
  C  C35  1  0.30766000  0.74252000  0.38628000  1.0
  C  C36  1  0.01436000  0.21987000  0.74115000  1.0
  C  C37  1  0.98561000  0.78006000  0.25887000  1.0
  C  C38  1  0.22258000  0.20927000  0.73824000  1.0
  C  C39  1  0.77740000  0.79063000  0.26170000  1.0
  N  N40  1  0.77556000  0.30006000  0.35788000  1.0
  N  N41  1  0.22451000  0.69985000  0.64211000  1.0
  N  N42  1  0.89583000  0.24294000  0.63011000  1.0
  N  N43  1  0.10421000  0.75727000  0.36995000  1.0
  O  O44  1  0.12650000  0.27115000  0.34550000  1.0
  O  O45  1  0.87341000  0.72886000  0.65449000  1.0
  O  O46  1  0.04351000  0.33722000  0.14853000  1.0
  O  O47  1  0.95646000  0.66275000  0.85145000  1.0
  O  O48  1  0.66508000  0.36237000  0.15558000  1.0
  O  O49  1  0.33497000  0.63759000  0.84445000  1.0
  O  O50  1  0.97245000  0.21077000  0.84355000  1.0
  O  O51  1  0.02755000  0.78926000  0.15651000  1.0
  O  O52  1  0.25305000  0.22011000  0.63139000  1.0
  O  O53  1  0.74700000  0.77988000  0.36858000  1.0
  O  O54  1  0.35444000  0.19561000  0.83921000  1.0
  O  O55  1  0.64556000  0.80447000  0.16081000  1.0
  O  O56  1  0.29543000  0.58536000  0.05587000  1.0
  O  O57  1  0.70458000  0.41466000  0.94412000  1.0
  O  O58  1  0.31997000  0.01196000  0.11519000  1.0
  O  O59  1  0.68003000  0.98804000  0.88480000  1.0
