# generated using pymatgen
data_CuH5C5BrN
_symmetry_space_group_name_H-M   'P 1'
_cell_length_a   8.00384000
_cell_length_b   8.88655000
_cell_length_c   9.24466000
_cell_angle_alpha   117.80800000
_cell_angle_beta   90.55890000
_cell_angle_gamma   104.08100000
_symmetry_Int_Tables_number   1
_chemical_formula_structural   CuH5C5BrN
_chemical_formula_sum   'Cu4 H20 C20 Br4 N4'
_cell_volume   558.27755638
_cell_formula_units_Z   4
loop_
 _symmetry_equiv_pos_site_id
 _symmetry_equiv_pos_as_xyz
  1  'x, y, z'
loop_
 _atom_site_type_symbol
 _atom_site_label
 _atom_site_symmetry_multiplicity
 _atom_site_fract_x
 _atom_site_fract_y
 _atom_site_fract_z
 _atom_site_occupancy
  Cu  Cu0  1  0.17849000  0.60022000  0.67701000  1.0
  Cu  Cu1  1  0.82152000  0.39979000  0.32299000  1.0
  Cu  Cu2  1  0.75880000  0.44314000  0.61527000  1.0
  Cu  Cu3  1  0.24121000  0.55687000  0.38473000  1.0
  H  H4  1  0.29629000  0.33636000  0.63390000  1.0
  H  H5  1  0.70370000  0.66364000  0.36610000  1.0
  H  H6  1  0.39328000  0.09469000  0.64269000  1.0
  H  H7  1  0.60672000  0.90532000  0.35731000  1.0
  H  H8  1  0.41374000  0.07926000  0.90261000  1.0
  H  H9  1  0.58627000  0.92074000  0.09739000  1.0
  H  H10  1  0.34249000  0.31068000  0.16020000  1.0
  H  H11  1  0.65751000  0.68931000  0.83979000  1.0
  H  H12  1  0.18127000  0.83175000  0.43759000  1.0
  H  H13  1  0.81872000  0.16825000  0.56242000  1.0
  H  H14  1  0.02917000  0.86647000  0.32286000  1.0
  H  H15  1  0.97082000  0.13353000  0.67714000  1.0
  H  H16  1  0.25100000  0.98475000  0.36042000  1.0
  H  H17  1  0.74899000  0.01525000  0.63958000  1.0
  H  H18  1  0.13860000  0.86699000  0.90982000  1.0
  H  H19  1  0.86142000  0.13302000  0.09019000  1.0
  H  H20  1  0.23513000  0.99897000  0.12221000  1.0
  H  H21  1  0.76488000  0.00102000  0.87779000  1.0
  H  H22  1  0.01163000  0.88594000  0.07146000  1.0
  H  H23  1  0.98838000  0.11407000  0.92854000  1.0
  C  C24  1  0.19382000  0.71124000  0.17850000  1.0
  C  C25  1  0.80617000  0.28875000  0.82149000  1.0
  C  C26  1  0.18096000  0.71960000  0.02825000  1.0
  C  C27  1  0.81904000  0.28039000  0.97175000  1.0
  C  C28  1  0.25826000  0.45686000  0.89023000  1.0
  C  C29  1  0.74173000  0.54313000  0.10977000  1.0
  C  C30  1  0.30256000  0.32684000  0.74710000  1.0
  C  C31  1  0.69744000  0.67316000  0.25290000  1.0
  C  C32  1  0.35700000  0.19345000  0.75271000  1.0
  C  C33  1  0.64300000  0.80655000  0.24729000  1.0
  C  C34  1  0.36972000  0.18535000  0.90108000  1.0
  C  C35  1  0.63029000  0.81465000  0.09892000  1.0
  C  C36  1  0.32892000  0.31198000  0.04311000  1.0
  C  C37  1  0.67107000  0.68802000  0.95689000  1.0
  C  C38  1  0.27252000  0.44931000  0.04040000  1.0
  C  C39  1  0.72747000  0.55068000  0.95960000  1.0
  C  C40  1  0.16226000  0.85595000  0.33350000  1.0
  C  C41  1  0.83773000  0.14404000  0.66650000  1.0
  C  C42  1  0.13932000  0.87567000  0.03196000  1.0
  C  C43  1  0.86069000  0.12433000  0.96804000  1.0
  Br  Br44  1  0.93704000  0.70492000  0.60900000  1.0
  Br  Br45  1  0.06297000  0.29508000  0.39100000  1.0
  Br  Br46  1  0.45634000  0.74924000  0.62457000  1.0
  Br  Br47  1  0.54366000  0.25079000  0.37541000  1.0
  N  N48  1  0.23443000  0.57629000  0.18365000  1.0
  N  N49  1  0.76556000  0.42370000  0.81635000  1.0
  N  N50  1  0.20633000  0.59188000  0.88525000  1.0
  N  N51  1  0.79366000  0.40812000  0.11475000  1.0
