# generated using pymatgen
data_CdH7C11(NO)4
_symmetry_space_group_name_H-M   'P 1'
_cell_length_a   10.50450000
_cell_length_b   10.56920000
_cell_length_c   13.10200000
_cell_angle_alpha   75.92370000
_cell_angle_beta   75.83520000
_cell_angle_gamma   63.64860000
_symmetry_Int_Tables_number   1
_chemical_formula_structural   CdH7C11(NO)4
_chemical_formula_sum   'Cd4 H28 C44 N16 O16'
_cell_volume   1248.59725763
_cell_formula_units_Z   4
loop_
 _symmetry_equiv_pos_site_id
 _symmetry_equiv_pos_as_xyz
  1  'x, y, z'
loop_
 _atom_site_type_symbol
 _atom_site_label
 _atom_site_symmetry_multiplicity
 _atom_site_fract_x
 _atom_site_fract_y
 _atom_site_fract_z
 _atom_site_occupancy
  Cd  Cd0  1  0.24987000  0.23005000  0.83722000  1.0
  Cd  Cd1  1  0.76838000  0.74967000  0.66346000  1.0
  Cd  Cd2  1  0.75013000  0.76995000  0.16278000  1.0
  Cd  Cd3  1  0.23162000  0.25033000  0.33654000  1.0
  H  H4  1  0.06153000  0.66797000  0.01457000  1.0
  H  H5  1  0.33063000  0.93940000  0.48512000  1.0
  H  H6  1  0.93847000  0.33203000  0.98543000  1.0
  H  H7  1  0.66937000  0.06060000  0.51488000  1.0
  H  H8  1  0.06863000  0.08842000  0.06675000  1.0
  H  H9  1  0.90984000  0.93200000  0.43379000  1.0
  H  H10  1  0.93137000  0.91158000  0.93325000  1.0
  H  H11  1  0.09017000  0.06800000  0.56621000  1.0
  H  H12  1  0.17373000  0.79749000  0.13974000  1.0
  H  H13  1  0.20276000  0.82591000  0.36043000  1.0
  H  H14  1  0.82627000  0.20251000  0.86027000  1.0
  H  H15  1  0.79725000  0.17409000  0.63957000  1.0
  H  H16  1  0.40522000  0.87530000  0.83393000  1.0
  H  H17  1  0.12291000  0.59634000  0.66586000  1.0
  H  H18  1  0.59477000  0.12470000  0.16607000  1.0
  H  H19  1  0.87709000  0.40366000  0.33414000  1.0
  H  H20  1  0.40655000  0.61244000  0.16389000  1.0
  H  H21  1  0.38736000  0.59372000  0.33604000  1.0
  H  H22  1  0.59345000  0.38756000  0.83611000  1.0
  H  H23  1  0.61264000  0.40628000  0.66396000  1.0
  H  H24  1  0.43470000  0.64695000  0.82540000  1.0
  H  H25  1  0.35186000  0.56634000  0.67453000  1.0
  H  H26  1  0.56530000  0.35306000  0.17459000  1.0
  H  H27  1  0.64813000  0.43366000  0.32547000  1.0
  H  H28  1  0.35527000  0.08635000  0.09951000  1.0
  H  H29  1  0.91552000  0.64365000  0.39998000  1.0
  H  H30  1  0.64474000  0.91365000  0.90049000  1.0
  H  H31  1  0.08448000  0.35635000  0.60002000  1.0
  C  C32  1  0.15563000  0.00124000  0.02957000  1.0
  C  C33  1  0.99727000  0.84523000  0.47081000  1.0
  C  C34  1  0.84437000  0.99876000  0.97043000  1.0
  C  C35  1  0.00274000  0.15477000  0.52919000  1.0
  C  C36  1  0.20882000  0.85804000  0.06826000  1.0
  C  C37  1  0.14137000  0.79155000  0.43191000  1.0
  C  C38  1  0.79118000  0.14196000  0.93174000  1.0
  C  C39  1  0.85864000  0.20845000  0.56809000  1.0
  C  C40  1  0.32846000  0.89619000  0.90688000  1.0
  C  C41  1  0.10224000  0.67297000  0.59317000  1.0
  C  C42  1  0.67154000  0.10381000  0.09312000  1.0
  C  C43  1  0.89776000  0.32703000  0.40684000  1.0
  C  C44  1  0.40953000  0.64448000  0.99466000  1.0
  C  C45  1  0.35526000  0.59094000  0.50523000  1.0
  C  C46  1  0.59047000  0.35552000  0.00534000  1.0
  C  C47  1  0.64474000  0.40906000  0.49477000  1.0
  C  C48  1  0.44597000  0.56198000  0.09263000  1.0
  C  C49  1  0.43807000  0.55409000  0.40724000  1.0
  C  C50  1  0.55403000  0.43802000  0.90737000  1.0
  C  C51  1  0.56193000  0.44591000  0.59277000  1.0
  C  C52  1  0.46385000  0.58262000  0.90160000  1.0
  C  C53  1  0.41685000  0.53672000  0.59843000  1.0
  C  C54  1  0.53615000  0.41739000  0.09840000  1.0
  C  C55  1  0.58315000  0.46328000  0.40158000  1.0
  C  C56  1  0.29859000  0.20201000  0.08399000  1.0
  C  C57  1  0.79917000  0.70068000  0.41556000  1.0
  C  C58  1  0.70142000  0.79799000  0.91601000  1.0
  C  C59  1  0.20083000  0.29932000  0.58444000  1.0
  C  C60  1  0.19712000  0.41981000  0.00442000  1.0
  C  C61  1  0.58004000  0.80265000  0.49526000  1.0
  C  C62  1  0.80288000  0.58019000  0.99558000  1.0
  C  C63  1  0.41996000  0.19735000  0.50474000  1.0
  C  C64  1  0.18083000  0.42236000  0.11329000  1.0
  C  C65  1  0.57763000  0.81943000  0.38634000  1.0
  C  C66  1  0.81917000  0.57765000  0.88671000  1.0
  C  C67  1  0.42237000  0.18057000  0.61366000  1.0
  C  C68  1  0.15374000  0.53257000  0.91303000  1.0
  C  C69  1  0.46660000  0.84668000  0.58667000  1.0
  C  C70  1  0.84626000  0.46743000  0.08697000  1.0
  C  C71  1  0.53340000  0.15332000  0.41333000  1.0
  C  C72  1  0.09802000  0.53875000  0.17813000  1.0
  C  C73  1  0.46065000  0.90268000  0.32174000  1.0
  C  C74  1  0.90198000  0.46125000  0.82186000  1.0
  C  C75  1  0.53935000  0.09732000  0.67825000  1.0
  N  N76  1  0.23134000  0.02337000  0.92924000  1.0
  N  N77  1  0.97458000  0.77022000  0.57108000  1.0
  N  N78  1  0.76865000  0.97663000  0.07076000  1.0
  N  N79  1  0.02542000  0.22978000  0.42892000  1.0
  N  N80  1  0.31863000  0.79207000  0.98961000  1.0
  N  N81  1  0.20717000  0.68219000  0.51035000  1.0
  N  N82  1  0.68137000  0.20793000  0.01039000  1.0
  N  N83  1  0.79283000  0.31781000  0.48965000  1.0
  N  N84  1  0.27104000  0.27999000  0.98799000  1.0
  N  N85  1  0.72055000  0.72802000  0.51167000  1.0
  N  N86  1  0.72896000  0.72001000  0.01201000  1.0
  N  N87  1  0.27945000  0.27198000  0.48833000  1.0
  N  N88  1  0.24699000  0.28411000  0.16141000  1.0
  N  N89  1  0.71670000  0.75306000  0.33809000  1.0
  N  N90  1  0.75301000  0.71589000  0.83859000  1.0
  N  N91  1  0.28330000  0.24694000  0.66191000  1.0
  O  O92  1  0.08599000  0.66622000  0.93078000  1.0
  O  O93  1  0.33224000  0.91485000  0.56909000  1.0
  O  O94  1  0.91402000  0.33378000  0.06922000  1.0
  O  O95  1  0.66777000  0.08515000  0.43091000  1.0
  O  O96  1  0.18183000  0.50175000  0.82155000  1.0
  O  O97  1  0.49757000  0.81881000  0.67814000  1.0
  O  O98  1  0.81817000  0.49825000  0.17845000  1.0
  O  O99  1  0.50243000  0.18119000  0.32186000  1.0
  O  O100  1  0.02492000  0.66391000  0.12856000  1.0
  O  O101  1  0.33499000  0.97602000  0.37155000  1.0
  O  O102  1  0.97508000  0.33609000  0.87144000  1.0
  O  O103  1  0.66501000  0.02398000  0.62845000  1.0
  O  O104  1  0.09935000  0.51081000  0.27714000  1.0
  O  O105  1  0.48849000  0.90151000  0.22268000  1.0
  O  O106  1  0.90065000  0.48919000  0.72286000  1.0
  O  O107  1  0.51151000  0.09849000  0.77732000  1.0
