# generated using pymatgen
data_AlHC12IO5F3
_symmetry_space_group_name_H-M   'P 1'
_cell_length_a   6.66248000
_cell_length_b   21.49410000
_cell_length_c   23.49500000
_cell_angle_alpha   77.38700000
_cell_angle_beta   89.99980000
_cell_angle_gamma   89.99990000
_symmetry_Int_Tables_number   1
_chemical_formula_structural   AlHC12IO5F3
_chemical_formula_sum   'Al4 H4 C48 I4 O20 F12'
_cell_volume   3283.38169341
_cell_formula_units_Z   4
loop_
 _symmetry_equiv_pos_site_id
 _symmetry_equiv_pos_as_xyz
  1  'x, y, z'
loop_
 _atom_site_type_symbol
 _atom_site_label
 _atom_site_symmetry_multiplicity
 _atom_site_fract_x
 _atom_site_fract_y
 _atom_site_fract_z
 _atom_site_occupancy
  Al  Al0  1  0.77221000  0.74954000  0.25022000  1.0
  Al  Al1  1  0.22779000  0.25046000  0.74978000  1.0
  Al  Al2  1  0.27221000  0.75046000  0.24978000  1.0
  Al  Al3  1  0.72779000  0.24954000  0.75022000  1.0
  H  H4  1  0.52038000  0.66956000  0.24568000  1.0
  H  H5  1  0.47962000  0.33044000  0.75432000  1.0
  H  H6  1  0.02038000  0.83044000  0.25432000  1.0
  H  H7  1  0.97962000  0.16956000  0.74568000  1.0
  C  C8  1  0.52318000  0.83603000  0.16400000  1.0
  C  C9  1  0.47681000  0.16397000  0.83600000  1.0
  C  C10  1  0.02318000  0.66397000  0.33600000  1.0
  C  C11  1  0.97682000  0.33603000  0.66400000  1.0
  C  C12  1  0.52302000  0.81740000  0.32008000  1.0
  C  C13  1  0.47698000  0.18260000  0.67992000  1.0
  C  C14  1  0.02303000  0.68260000  0.17992000  1.0
  C  C15  1  0.97698000  0.31740000  0.82008000  1.0
  C  C16  1  0.82572000  0.44672000  0.90125000  1.0
  C  C17  1  0.17428000  0.55328000  0.09875000  1.0
  C  C18  1  0.32572000  0.05328000  0.59875000  1.0
  C  C19  1  0.67428000  0.94672000  0.40125000  1.0
  C  C20  1  0.82672000  0.40574000  0.86282000  1.0
  C  C21  1  0.17328000  0.59425000  0.13718000  1.0
  C  C22  1  0.32672000  0.09426000  0.63718000  1.0
  C  C23  1  0.67328000  0.90574000  0.36281000  1.0
  C  C24  1  0.97681000  0.35960000  0.86316000  1.0
  C  C25  1  0.02318000  0.64040000  0.13684000  1.0
  C  C26  1  0.47682000  0.14040000  0.63684000  1.0
  C  C27  1  0.52318000  0.85960000  0.36316000  1.0
  C  C28  1  0.12873000  0.35552000  0.90525000  1.0
  C  C29  1  0.87127000  0.64448000  0.09475000  1.0
  C  C30  1  0.62873000  0.14448000  0.59475000  1.0
  C  C31  1  0.37127000  0.85552000  0.40525000  1.0
  C  C32  1  0.12961000  0.39530000  0.94465000  1.0
  C  C33  1  0.87039000  0.60470000  0.05535000  1.0
  C  C34  1  0.62961000  0.10470000  0.55535000  1.0
  C  C35  1  0.37039000  0.89530000  0.44465000  1.0
  C  C36  1  0.98082000  0.44210000  0.94336000  1.0
  C  C37  1  0.01918000  0.55790000  0.05664000  1.0
  C  C38  1  0.48082000  0.05790000  0.55664000  1.0
  C  C39  1  0.51918000  0.94210000  0.44336000  1.0
  C  C40  1  0.99177000  0.48260000  0.98282000  1.0
  C  C41  1  0.00823000  0.51740000  0.01718000  1.0
  C  C42  1  0.49177000  0.01740000  0.51718000  1.0
  C  C43  1  0.50823000  0.98260000  0.48282000  1.0
  C  C44  1  0.97803000  0.38598000  0.61200000  1.0
  C  C45  1  0.02197000  0.61402000  0.38800000  1.0
  C  C46  1  0.47803000  0.11402000  0.88800000  1.0
  C  C47  1  0.52197000  0.88598000  0.11199000  1.0
  C  C48  1  0.98611000  0.42978000  0.56874000  1.0
  C  C49  1  0.01388000  0.57022000  0.43126000  1.0
  C  C50  1  0.48611000  0.07022000  0.93126000  1.0
  C  C51  1  0.51388000  0.92978000  0.06874000  1.0
  C  C52  1  0.99532000  0.47782000  0.52161000  1.0
  C  C53  1  0.00467000  0.52218000  0.47839000  1.0
  C  C54  1  0.49531000  0.02218000  0.97839000  1.0
  C  C55  1  0.50467000  0.97782000  0.02161000  1.0
  I  I56  1  0.59800000  0.51424000  0.89627000  1.0
  I  I57  1  0.40200000  0.48576000  0.10373000  1.0
  I  I58  1  0.09801000  0.98576000  0.60373000  1.0
  I  I59  1  0.90200000  0.01424000  0.39627000  1.0
  O  O60  1  0.35269000  0.80326000  0.30229000  1.0
  O  O61  1  0.64731000  0.19674000  0.69770000  1.0
  O  O62  1  0.85269000  0.69674000  0.19770000  1.0
  O  O63  1  0.14731000  0.30326000  0.80230000  1.0
  O  O64  1  0.69417000  0.81671000  0.18484000  1.0
  O  O65  1  0.30583000  0.18329000  0.81516000  1.0
  O  O66  1  0.19417000  0.68329000  0.31516000  1.0
  O  O67  1  0.80583000  0.31671000  0.68484000  1.0
  O  O68  1  0.69257000  0.80015000  0.30454000  1.0
  O  O69  1  0.30743000  0.19985000  0.69546000  1.0
  O  O70  1  0.19257000  0.69985000  0.19546000  1.0
  O  O71  1  0.80743000  0.30015000  0.80454000  1.0
  O  O72  1  0.85144000  0.68297000  0.31558000  1.0
  O  O73  1  0.14857000  0.31703000  0.68442000  1.0
  O  O74  1  0.35144000  0.81703000  0.18441000  1.0
  O  O75  1  0.64856000  0.18297000  0.81558000  1.0
  O  O76  1  0.52169000  0.71224000  0.25294000  1.0
  O  O77  1  0.47831000  0.28776000  0.74706000  1.0
  O  O78  1  0.02169000  0.78776000  0.24706000  1.0
  O  O79  1  0.97831000  0.21224000  0.75294000  1.0
  F  F80  1  0.68003000  0.41239000  0.82218000  1.0
  F  F81  1  0.31998000  0.58761000  0.17783000  1.0
  F  F82  1  0.18003000  0.08761000  0.67783000  1.0
  F  F83  1  0.81997000  0.91239000  0.32217000  1.0
  F  F84  1  0.27593000  0.31186000  0.90986000  1.0
  F  F85  1  0.72407000  0.68814000  0.09014000  1.0
  F  F86  1  0.77593000  0.18814000  0.59014000  1.0
  F  F87  1  0.22407000  0.81186000  0.40986000  1.0
  F  F88  1  0.27670000  0.38852000  0.98496000  1.0
  F  F89  1  0.72330000  0.61148000  0.01505000  1.0
  F  F90  1  0.77669000  0.11148000  0.51504000  1.0
  F  F91  1  0.22331000  0.88852000  0.48496000  1.0
