# generated using pymatgen
data_SrH11C4NO7
_symmetry_space_group_name_H-M   'P 1'
_cell_length_a   7.24574000
_cell_length_b   9.97496000
_cell_length_c   11.60520000
_cell_angle_alpha   89.99980000
_cell_angle_beta   89.99990000
_cell_angle_gamma   89.99990000
_symmetry_Int_Tables_number   1
_chemical_formula_structural   SrH11C4NO7
_chemical_formula_sum   'Sr4 H44 C16 N4 O28'
_cell_volume   838.77704840
_cell_formula_units_Z   4
loop_
 _symmetry_equiv_pos_site_id
 _symmetry_equiv_pos_as_xyz
  1  'x, y, z'
loop_
 _atom_site_type_symbol
 _atom_site_label
 _atom_site_symmetry_multiplicity
 _atom_site_fract_x
 _atom_site_fract_y
 _atom_site_fract_z
 _atom_site_occupancy
  Sr  Sr0  1  0.24983000  0.12455000  0.01395000  1.0
  Sr  Sr1  1  0.74982000  0.37545000  0.98605000  1.0
  Sr  Sr2  1  0.75017000  0.62455000  0.48605000  1.0
  Sr  Sr3  1  0.25017000  0.87545000  0.51395000  1.0
  H  H4  1  0.02818000  0.65236000  0.97065000  1.0
  H  H5  1  0.52818000  0.84765000  0.02935000  1.0
  H  H6  1  0.97182000  0.15235000  0.52935000  1.0
  H  H7  1  0.47183000  0.34765000  0.47065000  1.0
  H  H8  1  0.21076000  0.68369000  0.78522000  1.0
  H  H9  1  0.71076000  0.81630000  0.21478000  1.0
  H  H10  1  0.78924000  0.18370000  0.71478000  1.0
  H  H11  1  0.28924000  0.31631000  0.28522000  1.0
  H  H12  1  0.35967000  0.57798000  0.84218000  1.0
  H  H13  1  0.85967000  0.92202000  0.15782000  1.0
  H  H14  1  0.64033000  0.07798000  0.65782000  1.0
  H  H15  1  0.14033000  0.42202000  0.34218000  1.0
  H  H16  1  0.41712000  0.60904000  0.06231000  1.0
  H  H17  1  0.91712000  0.89095000  0.93768000  1.0
  H  H18  1  0.58288000  0.10905000  0.43768000  1.0
  H  H19  1  0.08288000  0.39096000  0.56231000  1.0
  H  H20  1  0.20678000  0.61358000  0.13907000  1.0
  H  H21  1  0.70679000  0.88643000  0.86094000  1.0
  H  H22  1  0.79321000  0.11357000  0.36093000  1.0
  H  H23  1  0.29322000  0.38642000  0.63907000  1.0
  H  H24  1  0.10353000  0.12058000  0.27156000  1.0
  H  H25  1  0.60353000  0.37942000  0.72844000  1.0
  H  H26  1  0.89646000  0.62058000  0.22844000  1.0
  H  H27  1  0.39646000  0.87942000  0.77156000  1.0
  H  H28  1  0.93911000  0.18065000  0.19584000  1.0
  H  H29  1  0.43911000  0.31934000  0.80416000  1.0
  H  H30  1  0.06089000  0.68066000  0.30416000  1.0
  H  H31  1  0.56089000  0.81935000  0.69584000  1.0
  H  H32  1  0.41454000  0.07684000  0.26931000  1.0
  H  H33  1  0.91454000  0.42316000  0.73069000  1.0
  H  H34  1  0.58546000  0.57684000  0.23069000  1.0
  H  H35  1  0.08546000  0.92316000  0.76931000  1.0
  H  H36  1  0.57167000  0.01128000  0.18576000  1.0
  H  H37  1  0.07168000  0.48872000  0.81424000  1.0
  H  H38  1  0.42832000  0.51128000  0.31424000  1.0
  H  H39  1  0.92832000  0.98872000  0.68576000  1.0
  H  H40  1  0.25772000  0.18199000  0.72243000  1.0
  H  H41  1  0.75772000  0.31801000  0.27756000  1.0
  H  H42  1  0.74228000  0.68199000  0.77756000  1.0
  H  H43  1  0.24228000  0.81801000  0.22244000  1.0
  H  H44  1  0.13520000  0.28272000  0.79777000  1.0
  H  H45  1  0.63519000  0.21728000  0.20224000  1.0
  H  H46  1  0.86480000  0.78272000  0.70223000  1.0
  H  H47  1  0.36480000  0.71728000  0.29777000  1.0
  C  C48  1  0.21380000  0.81402000  0.97740000  1.0
  C  C49  1  0.71379000  0.68598000  0.02260000  1.0
  C  C50  1  0.78621000  0.31402000  0.52260000  1.0
  C  C51  1  0.28620000  0.18598000  0.47740000  1.0
  C  C52  1  0.17859000  0.66318000  0.96044000  1.0
  C  C53  1  0.67860000  0.83682000  0.03956000  1.0
  C  C54  1  0.82141000  0.16318000  0.53956000  1.0
  C  C55  1  0.32140000  0.33682000  0.46044000  1.0
  C  C56  1  0.27064000  0.58409000  0.05729000  1.0
  C  C57  1  0.77065000  0.91591000  0.94272000  1.0
  C  C58  1  0.72936000  0.08410000  0.44271000  1.0
  C  C59  1  0.22936000  0.41591000  0.55729000  1.0
  C  C60  1  0.25276000  0.43313000  0.04775000  1.0
  C  C61  1  0.75278000  0.06687000  0.95225000  1.0
  C  C62  1  0.74723000  0.93313000  0.45225000  1.0
  C  C63  1  0.24723000  0.56687000  0.54775000  1.0
  N  N64  1  0.22519000  0.61011000  0.84594000  1.0
  N  N65  1  0.72519000  0.88988000  0.15406000  1.0
  N  N66  1  0.77481000  0.11011000  0.65406000  1.0
  N  N67  1  0.27481000  0.38989000  0.34594000  1.0
  O  O68  1  0.24616000  0.88819000  0.88956000  1.0
  O  O69  1  0.74616000  0.61181000  0.11044000  1.0
  O  O70  1  0.75385000  0.38819000  0.61044000  1.0
  O  O71  1  0.25384000  0.11181000  0.38956000  1.0
  O  O72  1  0.20121000  0.86316000  0.07800000  1.0
  O  O73  1  0.70120000  0.63684000  0.92200000  1.0
  O  O74  1  0.79882000  0.36316000  0.42200000  1.0
  O  O75  1  0.29879000  0.13684000  0.57800000  1.0
  O  O76  1  0.40081000  0.36364000  0.04918000  1.0
  O  O77  1  0.90083000  0.13636000  0.95082000  1.0
  O  O78  1  0.59918000  0.86364000  0.45082000  1.0
  O  O79  1  0.09918000  0.63636000  0.54918000  1.0
  O  O80  1  0.09348000  0.38060000  0.04193000  1.0
  O  O81  1  0.59350000  0.11940000  0.95808000  1.0
  O  O82  1  0.90651000  0.88060000  0.45808000  1.0
  O  O83  1  0.40651000  0.61940000  0.54192000  1.0
  O  O84  1  0.04387000  0.11622000  0.19516000  1.0
  O  O85  1  0.54387000  0.38378000  0.80483000  1.0
  O  O86  1  0.95613000  0.61623000  0.30483000  1.0
  O  O87  1  0.45613000  0.88378000  0.69517000  1.0
  O  O88  1  0.47928000  0.08881000  0.19551000  1.0
  O  O89  1  0.97929000  0.41119000  0.80449000  1.0
  O  O90  1  0.52071000  0.58881000  0.30449000  1.0
  O  O91  1  0.02071000  0.91119000  0.69551000  1.0
  O  O92  1  0.24130000  0.21816000  0.80145000  1.0
  O  O93  1  0.74130000  0.28184000  0.19855000  1.0
  O  O94  1  0.75870000  0.71816000  0.69855000  1.0
  O  O95  1  0.25870000  0.78184000  0.30145000  1.0
