# generated using pymatgen
data_CdH18C20N2O5
_symmetry_space_group_name_H-M   'P 1'
_cell_length_a   8.24922000
_cell_length_b   11.44770000
_cell_length_c   11.45520000
_cell_angle_alpha   110.82100000
_cell_angle_beta   108.77600000
_cell_angle_gamma   96.67890000
_symmetry_Int_Tables_number   1
_chemical_formula_structural   CdH18C20N2O5
_chemical_formula_sum   'Cd2 H36 C40 N4 O10'
_cell_volume   924.20943432
_cell_formula_units_Z   2
loop_
 _symmetry_equiv_pos_site_id
 _symmetry_equiv_pos_as_xyz
  1  'x, y, z'
loop_
 _atom_site_type_symbol
 _atom_site_label
 _atom_site_symmetry_multiplicity
 _atom_site_fract_x
 _atom_site_fract_y
 _atom_site_fract_z
 _atom_site_occupancy
  Cd  Cd0  1  0.90360000  0.25282000  0.81476000  1.0
  Cd  Cd1  1  0.09641000  0.74718000  0.18524000  1.0
  H  H2  1  0.17229000  0.49688000  0.90381000  1.0
  H  H3  1  0.82771000  0.50312000  0.09619000  1.0
  H  H4  1  0.18358000  0.35542000  0.79967000  1.0
  H  H5  1  0.81643000  0.64458000  0.20034000  1.0
  H  H6  1  0.56803000  0.34118000  0.09414000  1.0
  H  H7  1  0.43197000  0.65882000  0.90585000  1.0
  H  H8  1  0.48570000  0.16978000  0.00777000  1.0
  H  H9  1  0.51429000  0.83022000  0.99222000  1.0
  H  H10  1  0.57581000  0.05223000  0.13903000  1.0
  H  H11  1  0.42419000  0.94778000  0.86097000  1.0
  H  H12  1  0.06609000  0.20388000  0.49093000  1.0
  H  H13  1  0.93389000  0.79611000  0.50905000  1.0
  H  H14  1  0.13482000  0.39552000  0.44469000  1.0
  H  H15  1  0.86517000  0.60448000  0.55531000  1.0
  H  H16  1  0.92161000  0.41915000  0.24897000  1.0
  H  H17  1  0.07838000  0.58084000  0.75103000  1.0
  H  H18  1  0.62314000  0.96185000  0.30047000  1.0
  H  H19  1  0.37686000  0.03814000  0.69952000  1.0
  H  H20  1  0.81398000  0.03002000  0.45595000  1.0
  H  H21  1  0.18601000  0.96998000  0.54404000  1.0
  H  H22  1  0.87900000  0.40208000  0.63028000  1.0
  H  H23  1  0.12101000  0.59792000  0.36972000  1.0
  H  H24  1  0.67648000  0.41048000  0.41872000  1.0
  H  H25  1  0.32353000  0.58952000  0.58129000  1.0
  H  H26  1  0.28174000  0.10303000  0.38583000  1.0
  H  H27  1  0.71827000  0.89697000  0.61418000  1.0
  H  H28  1  0.49890000  0.11286000  0.60203000  1.0
  H  H29  1  0.50112000  0.88714000  0.39797000  1.0
  H  H30  1  0.41212000  0.46739000  0.32879000  1.0
  H  H31  1  0.58786000  0.53262000  0.67121000  1.0
  H  H32  1  0.20636000  0.46099000  0.11171000  1.0
  H  H33  1  0.79363000  0.53901000  0.88830000  1.0
  H  H34  1  0.05194000  0.06017000  0.93671000  1.0
  H  H35  1  0.94807000  0.93983000  0.06330000  1.0
  H  H36  1  0.24827000  0.04895000  0.14835000  1.0
  H  H37  1  0.75174000  0.95105000  0.85165000  1.0
  C  C38  1  0.68782000  0.25003000  0.95708000  1.0
  C  C39  1  0.31218000  0.74998000  0.04291000  1.0
  C  C40  1  0.60592000  0.25004000  0.05876000  1.0
  C  C41  1  0.39408000  0.74996000  0.94124000  1.0
  C  C42  1  0.73637000  0.23552000  0.17795000  1.0
  C  C43  1  0.26362000  0.76448000  0.82204000  1.0
  C  C44  1  0.70085000  0.12667000  0.20386000  1.0
  C  C45  1  0.29914000  0.87333000  0.79614000  1.0
  C  C46  1  0.81731000  0.11411000  0.31625000  1.0
  C  C47  1  0.18269000  0.88589000  0.68374000  1.0
  C  C48  1  0.97505000  0.21134000  0.40213000  1.0
  C  C49  1  0.02494000  0.78866000  0.59786000  1.0
  C  C50  1  0.01247000  0.31962000  0.37660000  1.0
  C  C51  1  0.98753000  0.68037000  0.62339000  1.0
  C  C52  1  0.89397000  0.33271000  0.26633000  1.0
  C  C53  1  0.10602000  0.66729000  0.73366000  1.0
  C  C54  1  0.76770000  0.00011000  0.34534000  1.0
  C  C55  1  0.23229000  0.99989000  0.65465000  1.0
  C  C56  1  0.84609000  0.88699000  0.29329000  1.0
  C  C57  1  0.15392000  0.11301000  0.70671000  1.0
  C  C58  1  0.74408000  0.34025000  0.57401000  1.0
  C  C59  1  0.25593000  0.65975000  0.42599000  1.0
  C  C60  1  0.63022000  0.34487000  0.45741000  1.0
  C  C61  1  0.36978000  0.65513000  0.54259000  1.0
  C  C62  1  0.46151000  0.25828000  0.38533000  1.0
  C  C63  1  0.53850000  0.74172000  0.61468000  1.0
  C  C64  1  0.41254000  0.17140000  0.43658000  1.0
  C  C65  1  0.58747000  0.82860000  0.56343000  1.0
  C  C66  1  0.53274000  0.17592000  0.55649000  1.0
  C  C67  1  0.46728000  0.82407000  0.44352000  1.0
  C  C68  1  0.34268000  0.25835000  0.25804000  1.0
  C  C69  1  0.65733000  0.74165000  0.74197000  1.0
  C  C70  1  0.33358000  0.37470000  0.24465000  1.0
  C  C71  1  0.66641000  0.62530000  0.75536000  1.0
  C  C72  1  0.21829000  0.37172000  0.12396000  1.0
  C  C73  1  0.78170000  0.62828000  0.87605000  1.0
  C  C74  1  0.13031000  0.14817000  0.02773000  1.0
  C  C75  1  0.86970000  0.85182000  0.97227000  1.0
  C  C76  1  0.23883000  0.14241000  0.14583000  1.0
  C  C77  1  0.76118000  0.85759000  0.85417000  1.0
  N  N78  1  0.69596000  0.25786000  0.62366000  1.0
  N  N79  1  0.30405000  0.74214000  0.37634000  1.0
  N  N80  1  0.11771000  0.26030000  0.01701000  1.0
  N  N81  1  0.88228000  0.73970000  0.98299000  1.0
  O  O82  1  0.68782000  0.14274000  0.87142000  1.0
  O  O83  1  0.31218000  0.85726000  0.12858000  1.0
  O  O84  1  0.76387000  0.35891000  0.96535000  1.0
  O  O85  1  0.23612000  0.64109000  0.03465000  1.0
  O  O86  1  0.00431000  0.91556000  0.29818000  1.0
  O  O87  1  0.99570000  0.08445000  0.70183000  1.0
  O  O88  1  0.75068000  0.77461000  0.25302000  1.0
  O  O89  1  0.24933000  0.22539000  0.74698000  1.0
  O  O90  1  0.10570000  0.41571000  0.81920000  1.0
  O  O91  1  0.89431000  0.58429000  0.18081000  1.0
