# generated using pymatgen
data_KH4C4N9O5
_symmetry_space_group_name_H-M   'P 1'
_cell_length_a   6.65118000
_cell_length_b   9.89937000
_cell_length_c   16.48500000
_cell_angle_alpha   107.18700000
_cell_angle_beta   90.00000000
_cell_angle_gamma   89.99990000
_symmetry_Int_Tables_number   1
_chemical_formula_structural   KH4C4N9O5
_chemical_formula_sum   'K4 H16 C16 N36 O20'
_cell_volume   1036.94480623
_cell_formula_units_Z   4
loop_
 _symmetry_equiv_pos_site_id
 _symmetry_equiv_pos_as_xyz
  1  'x, y, z'
loop_
 _atom_site_type_symbol
 _atom_site_label
 _atom_site_symmetry_multiplicity
 _atom_site_fract_x
 _atom_site_fract_y
 _atom_site_fract_z
 _atom_site_occupancy
  K  K0  1  0.08561000  0.21448000  0.15653000  1.0
  K  K1  1  0.58562000  0.28552000  0.34347000  1.0
  K  K2  1  0.91438000  0.78552000  0.84347000  1.0
  K  K3  1  0.41438000  0.71448000  0.65653000  1.0
  H  H4  1  0.66500000  0.19457000  0.01499000  1.0
  H  H5  1  0.16501000  0.30543000  0.48501000  1.0
  H  H6  1  0.33500000  0.80542000  0.98501000  1.0
  H  H7  1  0.83500000  0.69458000  0.51499000  1.0
  H  H8  1  0.78231000  0.36090000  0.04215000  1.0
  H  H9  1  0.28231000  0.13910000  0.45785000  1.0
  H  H10  1  0.21769000  0.63910000  0.95785000  1.0
  H  H11  1  0.71769000  0.86090000  0.54215000  1.0
  H  H12  1  0.04564000  0.51670000  0.10232000  1.0
  H  H13  1  0.54565000  0.98330000  0.39768000  1.0
  H  H14  1  0.95436000  0.48330000  0.89768000  1.0
  H  H15  1  0.45436000  0.01670000  0.60232000  1.0
  H  H16  1  0.93263000  0.50525000  0.18389000  1.0
  H  H17  1  0.43263000  0.99475000  0.31611000  1.0
  H  H18  1  0.06737000  0.49475000  0.81611000  1.0
  H  H19  1  0.56737000  0.00525000  0.68389000  1.0
  C  C20  1  0.60742000  0.43791000  0.83776000  1.0
  C  C21  1  0.10742000  0.06209000  0.66224000  1.0
  C  C22  1  0.39258000  0.56209000  0.16224000  1.0
  C  C23  1  0.89259000  0.93791000  0.33776000  1.0
  C  C24  1  0.62369000  0.30844000  0.93040000  1.0
  C  C25  1  0.12369000  0.19156000  0.56960000  1.0
  C  C26  1  0.37632000  0.69156000  0.06961000  1.0
  C  C27  1  0.87632000  0.80844000  0.43039000  1.0
  C  C28  1  0.48032000  0.20783000  0.87555000  1.0
  C  C29  1  0.98033000  0.29218000  0.62445000  1.0
  C  C30  1  0.51968000  0.79217000  0.12445000  1.0
  C  C31  1  0.01968000  0.70783000  0.37555000  1.0
  C  C32  1  0.40599000  0.08364000  0.89805000  1.0
  C  C33  1  0.90600000  0.41636000  0.60195000  1.0
  C  C34  1  0.59400000  0.91635000  0.10195000  1.0
  C  C35  1  0.09400000  0.58364000  0.39805000  1.0
  N  N36  1  0.63615000  0.53750000  0.79882000  1.0
  N  N37  1  0.13615000  0.96250000  0.70118000  1.0
  N  N38  1  0.36385000  0.46250000  0.20118000  1.0
  N  N39  1  0.86385000  0.03750000  0.29882000  1.0
  N  N40  1  0.52725000  0.49423000  0.72579000  1.0
  N  N41  1  0.02725000  0.00577000  0.77421000  1.0
  N  N42  1  0.47275000  0.50577000  0.27422000  1.0
  N  N43  1  0.97275000  0.99423000  0.22578000  1.0
  N  N44  1  0.43262000  0.37529000  0.71645000  1.0
  N  N45  1  0.93262000  0.12472000  0.78355000  1.0
  N  N46  1  0.56738000  0.62472000  0.28355000  1.0
  N  N47  1  0.06738000  0.87528000  0.21645000  1.0
  N  N48  1  0.48117000  0.33833000  0.78694000  1.0
  N  N49  1  0.98117000  0.16167000  0.71306000  1.0
  N  N50  1  0.51883000  0.66167000  0.21306000  1.0
  N  N51  1  0.01883000  0.83833000  0.28694000  1.0
  N  N52  1  0.68456000  0.42342000  0.90952000  1.0
  N  N53  1  0.18456000  0.07658000  0.59048000  1.0
  N  N54  1  0.31544000  0.57658000  0.09048000  1.0
  N  N55  1  0.81544000  0.92342000  0.40952000  1.0
  N  N56  1  0.41234000  0.22369000  0.80424000  1.0
  N  N57  1  0.91234000  0.27631000  0.69575000  1.0
  N  N58  1  0.58766000  0.77630000  0.19576000  1.0
  N  N59  1  0.08766000  0.72369000  0.30424000  1.0
  N  N60  1  0.69401000  0.28573000  0.00035000  1.0
  N  N61  1  0.19402000  0.21427000  0.49965000  1.0
  N  N62  1  0.30598000  0.71427000  0.99965000  1.0
  N  N63  1  0.80598000  0.78573000  0.50035000  1.0
  N  N64  1  0.28352000  0.11015000  0.96947000  1.0
  N  N65  1  0.78352000  0.38985000  0.53053000  1.0
  N  N66  1  0.71648000  0.88985000  0.03053000  1.0
  N  N67  1  0.21648000  0.61015000  0.46947000  1.0
  N  N68  1  0.44554000  0.94819000  0.84751000  1.0
  N  N69  1  0.94554000  0.55181000  0.65249000  1.0
  N  N70  1  0.55446000  0.05181000  0.15249000  1.0
  N  N71  1  0.05446000  0.44819000  0.34751000  1.0
  O  O72  1  0.23686000  0.01623000  0.00383000  1.0
  O  O73  1  0.73687000  0.48377000  0.49617000  1.0
  O  O74  1  0.76313000  0.98377000  0.99617000  1.0
  O  O75  1  0.26313000  0.51623000  0.50383000  1.0
  O  O76  1  0.22879000  0.23723000  0.00059000  1.0
  O  O77  1  0.72879000  0.26277000  0.49941000  1.0
  O  O78  1  0.77121000  0.76277000  0.99941000  1.0
  O  O79  1  0.27121000  0.73723000  0.50059000  1.0
  O  O80  1  0.35807000  0.84113000  0.85708000  1.0
  O  O81  1  0.85807000  0.65887000  0.64292000  1.0
  O  O82  1  0.64193000  0.15887000  0.14292000  1.0
  O  O83  1  0.14193000  0.34113000  0.35708000  1.0
  O  O84  1  0.57577000  0.93475000  0.78879000  1.0
  O  O85  1  0.07577000  0.56525000  0.71121000  1.0
  O  O86  1  0.42423000  0.06525000  0.21121000  1.0
  O  O87  1  0.92423000  0.43475000  0.28879000  1.0
  O  O88  1  0.91820000  0.48635000  0.12247000  1.0
  O  O89  1  0.41820000  0.01365000  0.37753000  1.0
  O  O90  1  0.08179000  0.51365000  0.87753000  1.0
  O  O91  1  0.58180000  0.98635000  0.62247000  1.0
