# generated using pymatgen
data_CuH11C8SN5O3
_symmetry_space_group_name_H-M   'P 1'
_cell_length_a   9.16287000
_cell_length_b   11.21020000
_cell_length_c   11.42600000
_cell_angle_alpha   90.00000000
_cell_angle_beta   91.26080000
_cell_angle_gamma   90.00000000
_symmetry_Int_Tables_number   1
_chemical_formula_structural   CuH11C8SN5O3
_chemical_formula_sum   'Cu4 H44 C32 S4 N20 O12'
_cell_volume   1173.36721371
_cell_formula_units_Z   4
loop_
 _symmetry_equiv_pos_site_id
 _symmetry_equiv_pos_as_xyz
  1  'x, y, z'
loop_
 _atom_site_type_symbol
 _atom_site_label
 _atom_site_symmetry_multiplicity
 _atom_site_fract_x
 _atom_site_fract_y
 _atom_site_fract_z
 _atom_site_occupancy
  Cu  Cu0  1  0.83342000  0.56315000  0.30699000  1.0
  Cu  Cu1  1  0.66659000  0.06316000  0.69303000  1.0
  Cu  Cu2  1  0.16658000  0.43684000  0.69303000  1.0
  Cu  Cu3  1  0.33342000  0.93685000  0.30698000  1.0
  H  H4  1  0.87644000  0.37721000  0.55379000  1.0
  H  H5  1  0.62352000  0.87723000  0.44624000  1.0
  H  H6  1  0.12352000  0.62277000  0.44624000  1.0
  H  H7  1  0.37644000  0.12279000  0.55379000  1.0
  H  H8  1  0.72979000  0.39838000  0.65172000  1.0
  H  H9  1  0.77013000  0.89837000  0.34828000  1.0
  H  H10  1  0.27012000  0.60163000  0.34828000  1.0
  H  H11  1  0.22979000  0.10162000  0.65172000  1.0
  H  H12  1  0.60700000  0.32290000  0.48292000  1.0
  H  H13  1  0.89296000  0.82288000  0.51705000  1.0
  H  H14  1  0.39295000  0.67712000  0.51705000  1.0
  H  H15  1  0.10700000  0.17710000  0.48291000  1.0
  H  H16  1  0.58257000  0.47908000  0.46783000  1.0
  H  H17  1  0.91740000  0.97905000  0.53216000  1.0
  H  H18  1  0.41740000  0.52095000  0.53216000  1.0
  H  H19  1  0.08257000  0.02092000  0.46783000  1.0
  H  H20  1  0.52208000  0.42405000  0.27975000  1.0
  H  H21  1  0.97790000  0.92408000  0.72024000  1.0
  H  H22  1  0.47790000  0.57592000  0.72023000  1.0
  H  H23  1  0.02208000  0.07595000  0.27974000  1.0
  H  H24  1  0.59966000  0.28119000  0.26183000  1.0
  H  H25  1  0.90041000  0.78120000  0.73816000  1.0
  H  H26  1  0.40041000  0.71880000  0.73816000  1.0
  H  H27  1  0.09966000  0.21881000  0.26183000  1.0
  H  H28  1  0.91187000  0.61731000  0.05591000  1.0
  H  H29  1  0.58817000  0.11731000  0.94410000  1.0
  H  H30  1  0.08817000  0.38270000  0.94410000  1.0
  H  H31  1  0.41186000  0.88269000  0.05591000  1.0
  H  H32  1  0.83217000  0.53799000  0.85662000  1.0
  H  H33  1  0.66783000  0.03796000  0.14338000  1.0
  H  H34  1  0.16784000  0.46204000  0.14338000  1.0
  H  H35  1  0.33217000  0.96201000  0.85662000  1.0
  H  H36  1  0.64428000  0.37285000  0.85090000  1.0
  H  H37  1  0.85571000  0.87280000  0.14910000  1.0
  H  H38  1  0.35571000  0.62720000  0.14909000  1.0
  H  H39  1  0.14428000  0.12715000  0.85090000  1.0
  H  H40  1  0.54539000  0.29734000  0.03852000  1.0
  H  H41  1  0.95462000  0.79731000  0.96148000  1.0
  H  H42  1  0.45463000  0.70268000  0.96147000  1.0
  H  H43  1  0.04539000  0.20267000  0.03851000  1.0
  H  H44  1  0.81402000  0.34521000  0.35431000  1.0
  H  H45  1  0.68598000  0.84518000  0.64570000  1.0
  H  H46  1  0.18597000  0.65481000  0.64570000  1.0
  H  H47  1  0.31402000  0.15479000  0.35431000  1.0
  C  C48  1  0.77485000  0.42629000  0.56797000  1.0
  C  C49  1  0.72510000  0.92630000  0.43204000  1.0
  C  C50  1  0.22510000  0.57370000  0.43204000  1.0
  C  C51  1  0.27485000  0.07371000  0.56797000  1.0
  C  C52  1  0.66400000  0.40782000  0.46925000  1.0
  C  C53  1  0.83596000  0.90780000  0.53074000  1.0
  C  C54  1  0.33596000  0.59220000  0.53073000  1.0
  C  C55  1  0.16400000  0.09218000  0.46925000  1.0
  C  C56  1  0.62444000  0.37730000  0.26071000  1.0
  C  C57  1  0.87557000  0.87729000  0.73929000  1.0
  C  C58  1  0.37557000  0.62271000  0.73929000  1.0
  C  C59  1  0.12444000  0.12270000  0.26071000  1.0
  C  C60  1  0.67768000  0.41624000  0.14393000  1.0
  C  C61  1  0.82234000  0.91623000  0.85607000  1.0
  C  C62  1  0.32234000  0.58377000  0.85607000  1.0
  C  C63  1  0.17768000  0.08376000  0.14392000  1.0
  C  C64  1  0.83070000  0.54684000  0.04518000  1.0
  C  C65  1  0.66935000  0.04683000  0.95482000  1.0
  C  C66  1  0.16935000  0.45317000  0.95482000  1.0
  C  C67  1  0.33069000  0.95316000  0.04518000  1.0
  C  C68  1  0.78533000  0.50295000  0.93656000  1.0
  C  C69  1  0.71469000  0.00291000  0.06344000  1.0
  C  C70  1  0.21470000  0.49709000  0.06344000  1.0
  C  C71  1  0.28533000  0.99705000  0.93656000  1.0
  C  C72  1  0.68130000  0.41184000  0.93352000  1.0
  C  C73  1  0.81871000  0.91180000  0.06647000  1.0
  C  C74  1  0.31871000  0.58820000  0.06647000  1.0
  C  C75  1  0.18130000  0.08816000  0.93352000  1.0
  C  C76  1  0.62686000  0.36819000  0.03804000  1.0
  C  C77  1  0.87316000  0.86816000  0.96196000  1.0
  C  C78  1  0.37317000  0.63183000  0.96195000  1.0
  C  C79  1  0.12686000  0.13182000  0.03803000  1.0
  S  S80  1  0.82442000  0.57971000  0.58628000  1.0
  S  S81  1  0.67555000  0.07971000  0.41373000  1.0
  S  S82  1  0.17555000  0.42029000  0.41373000  1.0
  S  S83  1  0.32442000  0.92029000  0.58627000  1.0
  N  N84  1  0.95402000  0.68991000  0.23756000  1.0
  N  N85  1  0.54600000  0.18993000  0.76249000  1.0
  N  N86  1  0.04600000  0.31007000  0.76249000  1.0
  N  N87  1  0.45403000  0.81009000  0.23756000  1.0
  N  N88  1  0.01951000  0.76861000  0.28662000  1.0
  N  N89  1  0.48052000  0.26862000  0.71340000  1.0
  N  N90  1  0.98051000  0.23137000  0.71339000  1.0
  N  N91  1  0.51951000  0.73139000  0.28662000  1.0
  N  N92  1  0.08438000  0.84841000  0.32907000  1.0
  N  N93  1  0.41568000  0.34840000  0.67090000  1.0
  N  N94  1  0.91568000  0.15160000  0.67090000  1.0
  N  N95  1  0.58438000  0.65159000  0.32907000  1.0
  N  N96  1  0.73233000  0.40835000  0.35367000  1.0
  N  N97  1  0.76765000  0.90834000  0.64633000  1.0
  N  N98  1  0.26765000  0.59166000  0.64633000  1.0
  N  N99  1  0.23233000  0.09165000  0.35367000  1.0
  N  N100  1  0.77788000  0.50444000  0.14573000  1.0
  N  N101  1  0.72215000  0.00443000  0.85427000  1.0
  N  N102  1  0.22215000  0.49557000  0.85427000  1.0
  N  N103  1  0.27788000  0.99557000  0.14573000  1.0
  O  O104  1  0.88540000  0.61731000  0.47061000  1.0
  O  O105  1  0.61459000  0.11733000  0.52940000  1.0
  O  O106  1  0.11460000  0.38267000  0.52939000  1.0
  O  O107  1  0.38540000  0.88269000  0.47061000  1.0
  O  O108  1  0.69234000  0.64578000  0.61513000  1.0
  O  O109  1  0.80765000  0.14576000  0.38488000  1.0
  O  O110  1  0.30765000  0.35424000  0.38488000  1.0
  O  O111  1  0.19233000  0.85423000  0.61512000  1.0
  O  O112  1  0.93962000  0.58524000  0.67779000  1.0
  O  O113  1  0.56037000  0.08526000  0.32221000  1.0
  O  O114  1  0.06036000  0.41474000  0.32221000  1.0
  O  O115  1  0.43961000  0.91475000  0.67779000  1.0
