# generated using pymatgen
data_Cu2H11C7N5
_symmetry_space_group_name_H-M   'P 1'
_cell_length_a   8.05025000
_cell_length_b   10.84690000
_cell_length_c   12.26538021
_cell_angle_alpha   85.96205908
_cell_angle_beta   70.85373555
_cell_angle_gamma   68.22460000
_symmetry_Int_Tables_number   1
_chemical_formula_structural   Cu2H11C7N5
_chemical_formula_sum   'Cu8 H44 C28 N20'
_cell_volume   937.97250384
_cell_formula_units_Z   4
loop_
 _symmetry_equiv_pos_site_id
 _symmetry_equiv_pos_as_xyz
  1  'x, y, z'
loop_
 _atom_site_type_symbol
 _atom_site_label
 _atom_site_symmetry_multiplicity
 _atom_site_fract_x
 _atom_site_fract_y
 _atom_site_fract_z
 _atom_site_occupancy
  Cu  Cu0  1  0.55532000  0.43953000  0.58623000  1.0
  Cu  Cu1  1  0.58065000  0.06075000  0.91363000  1.0
  Cu  Cu2  1  0.44468000  0.56048000  0.41377000  1.0
  Cu  Cu3  1  0.41935000  0.93926000  0.08637000  1.0
  Cu  Cu4  1  0.25254000  0.16760000  0.46866000  1.0
  Cu  Cu5  1  0.88849000  0.33249000  0.03142000  1.0
  Cu  Cu6  1  0.74746000  0.83239000  0.53134000  1.0
  Cu  Cu7  1  0.11151000  0.66752000  0.96858000  1.0
  H  H8  1  0.40632000  0.95374000  0.57544000  1.0
  H  H9  1  0.93512000  0.54627000  0.92453000  1.0
  H  H10  1  0.59368000  0.04625000  0.42456000  1.0
  H  H11  1  0.06489000  0.45373000  0.07547000  1.0
  H  H12  1  0.00719000  0.02055000  0.59754000  1.0
  H  H13  1  0.62512000  0.47938000  0.90218000  1.0
  H  H14  1  0.99280000  0.97945000  0.40246000  1.0
  H  H15  1  0.37489000  0.52063000  0.09782000  1.0
  H  H16  1  0.20653000  0.89675000  0.50133000  1.0
  H  H17  1  0.60424000  0.60313000  0.99858000  1.0
  H  H18  1  0.79347000  0.10325000  0.49867000  1.0
  H  H19  1  0.39577000  0.39688000  0.00142000  1.0
  H  H20  1  0.03744000  0.80108000  0.67456000  1.0
  H  H21  1  0.51304000  0.69901000  0.82528000  1.0
  H  H22  1  0.96255000  0.19892000  0.32544000  1.0
  H  H23  1  0.48696000  0.30099000  0.17472000  1.0
  H  H24  1  0.27714000  0.76475000  0.66431000  1.0
  H  H25  1  0.70628000  0.73513000  0.83565000  1.0
  H  H26  1  0.72285000  0.23524000  0.33569000  1.0
  H  H27  1  0.29373000  0.26487000  0.16434000  1.0
  H  H28  1  0.93544000  0.97305000  0.81880000  1.0
  H  H29  1  0.72701000  0.52693000  0.68114000  1.0
  H  H30  1  0.06456000  0.02695000  0.18120000  1.0
  H  H31  1  0.27298000  0.47306000  0.31887000  1.0
  H  H32  1  0.07886000  0.83354000  0.85544000  1.0
  H  H33  1  0.76776000  0.66636000  0.64445000  1.0
  H  H34  1  0.92114000  0.16646000  0.14456000  1.0
  H  H35  1  0.23225000  0.33364000  0.35554000  1.0
  H  H36  1  0.13940000  0.02759000  0.89164000  1.0
  H  H37  1  0.05823000  0.47214000  0.60835000  1.0
  H  H38  1  0.86060000  0.97241000  0.10836000  1.0
  H  H39  1  0.94177000  0.52784000  0.39165000  1.0
  H  H40  1  0.33922000  0.90368000  0.79517000  1.0
  H  H41  1  0.03802000  0.59606000  0.70470000  1.0
  H  H42  1  0.66078000  0.09632000  0.20483000  1.0
  H  H43  1  0.96199000  0.40393000  0.29529000  1.0
  H  H44  1  0.30092000  0.12742000  0.71779000  1.0
  H  H45  1  0.14573000  0.37248000  0.78227000  1.0
  H  H46  1  0.69908000  0.87258000  0.28221000  1.0
  H  H47  1  0.85428000  0.62751000  0.21773000  1.0
  H  H48  1  0.06405000  0.15559000  0.72819000  1.0
  H  H49  1  0.94741000  0.34431000  0.77187000  1.0
  H  H50  1  0.93595000  0.84441000  0.27181000  1.0
  H  H51  1  0.05259000  0.65569000  0.22814000  1.0
  C  C52  1  0.43654000  0.35828000  0.51644000  1.0
  C  C53  1  0.31102000  0.14203000  0.98360000  1.0
  C  C54  1  0.56346000  0.64172000  0.48356000  1.0
  C  C55  1  0.68900000  0.85798000  0.01639000  1.0
  C  C56  1  0.81770000  0.34682000  0.55906000  1.0
  C  C57  1  0.72363000  0.15323000  0.94066000  1.0
  C  C58  1  0.18230000  0.65318000  0.44094000  1.0
  C  C59  1  0.27639000  0.84678000  0.05933000  1.0
  C  C60  1  0.31505000  0.08068000  0.32572000  1.0
  C  C61  1  0.72105000  0.41944000  0.17431000  1.0
  C  C62  1  0.68496000  0.91933000  0.67428000  1.0
  C  C63  1  0.27895000  0.58056000  0.82569000  1.0
  C  C64  1  0.14970000  0.94714000  0.58734000  1.0
  C  C65  1  0.68393000  0.55278000  0.91254000  1.0
  C  C66  1  0.85029000  0.05286000  0.41266000  1.0
  C  C67  1  0.31608000  0.44722000  0.08746000  1.0
  C  C68  1  0.13913000  0.84441000  0.67720000  1.0
  C  C69  1  0.66065000  0.65559000  0.82272000  1.0
  C  C70  1  0.86087000  0.15560000  0.32280000  1.0
  C  C71  1  0.33936000  0.34442000  0.17728000  1.0
  C  C72  1  0.19841000  0.97868000  0.80512000  1.0
  C  C73  1  0.98198000  0.52115000  0.69484000  1.0
  C  C74  1  0.80159000  0.02132000  0.19488000  1.0
  C  C75  1  0.01802000  0.47884000  0.30516000  1.0
  C  C76  1  0.20581000  0.07899000  0.71263000  1.0
  C  C77  1  0.99706000  0.42089000  0.78738000  1.0
  C  C78  1  0.79419000  0.92100000  0.28737000  1.0
  C  C79  1  0.00294000  0.57910000  0.21262000  1.0
  N  N80  1  0.37769000  0.28005000  0.49731000  1.0
  N  N81  1  0.15473000  0.22018000  0.00284000  1.0
  N  N82  1  0.62231000  0.71995000  0.50269000  1.0
  N  N83  1  0.84526000  0.77984000  0.99715000  1.0
  N  N84  1  0.98004000  0.28079000  0.53455000  1.0
  N  N85  1  0.79546000  0.21923000  0.96521000  1.0
  N  N86  1  0.01996000  0.71920000  0.46545000  1.0
  N  N87  1  0.20454000  0.78077000  0.03479000  1.0
  N  N88  1  0.34556000  0.02839000  0.23631000  1.0
  N  N89  1  0.61000000  0.47171000  0.26374000  1.0
  N  N90  1  0.65443000  0.97162000  0.76369000  1.0
  N  N91  1  0.38999000  0.52829000  0.73627000  1.0
  N  N92  1  0.26858000  0.01999000  0.59466000  1.0
  N  N93  1  0.88289000  0.48001000  0.90532000  1.0
  N  N94  1  0.73142000  0.98001000  0.40534000  1.0
  N  N95  1  0.11711000  0.51999000  0.09468000  1.0
  N  N96  1  0.07604000  0.90750000  0.79558000  1.0
  N  N97  1  0.77894000  0.59242000  0.70435000  1.0
  N  N98  1  0.92395000  0.09250000  0.20442000  1.0
  N  N99  1  0.22106000  0.40758000  0.29565000  1.0
