# generated using pymatgen
data_Sm2H14C18SN4O15
_symmetry_space_group_name_H-M   'P 1'
_cell_length_a   9.48237000
_cell_length_b   9.85175000
_cell_length_c   14.21710000
_cell_angle_alpha   91.37770000
_cell_angle_beta   107.68400000
_cell_angle_gamma   118.18300000
_symmetry_Int_Tables_number   1
_chemical_formula_structural   Sm2H14C18SN4O15
_chemical_formula_sum   'Sm4 H28 C36 S2 N8 O30'
_cell_volume   1092.94196016
_cell_formula_units_Z   2
loop_
 _symmetry_equiv_pos_site_id
 _symmetry_equiv_pos_as_xyz
  1  'x, y, z'
loop_
 _atom_site_type_symbol
 _atom_site_label
 _atom_site_symmetry_multiplicity
 _atom_site_fract_x
 _atom_site_fract_y
 _atom_site_fract_z
 _atom_site_occupancy
  Sm  Sm0  1  0.32242000  0.63885000  0.01056000  1.0
  Sm  Sm1  1  0.67758000  0.36115000  0.98944000  1.0
  Sm  Sm2  1  0.59829000  0.92983000  0.84152000  1.0
  Sm  Sm3  1  0.40170000  0.07017000  0.15848000  1.0
  H  H4  1  0.02226000  0.50849000  0.58105000  1.0
  H  H5  1  0.97774000  0.49151000  0.41895000  1.0
  H  H6  1  0.68203000  0.94797000  0.39020000  1.0
  H  H7  1  0.31797000  0.05203000  0.60980000  1.0
  H  H8  1  0.10564000  0.08875000  0.74031000  1.0
  H  H9  1  0.89436000  0.91124000  0.25969000  1.0
  H  H10  1  0.93977000  0.74527000  0.73770000  1.0
  H  H11  1  0.06023000  0.25474000  0.26230000  1.0
  H  H12  1  0.62472000  0.62365000  0.36151000  1.0
  H  H13  1  0.37528000  0.37635000  0.63849000  1.0
  H  H14  1  0.54182000  0.18397000  0.54847000  1.0
  H  H15  1  0.45818000  0.81603000  0.45153000  1.0
  H  H16  1  0.77290000  0.23333000  0.41233000  1.0
  H  H17  1  0.22710000  0.76667000  0.58767000  1.0
  H  H18  1  0.81450000  0.80255000  0.53483000  1.0
  H  H19  1  0.18550000  0.19745000  0.46517000  1.0
  H  H20  1  0.55865000  0.72502000  0.65361000  1.0
  H  H21  1  0.44135000  0.27498000  0.34639000  1.0
  H  H22  1  0.70206000  0.90433000  0.67027000  1.0
  H  H23  1  0.29794000  0.09567000  0.32973000  1.0
  H  H24  1  0.70916000  0.72606000  0.96372000  1.0
  H  H25  1  0.29084000  0.27394000  0.03628000  1.0
  H  H26  1  0.77972000  0.72271000  0.87944000  1.0
  H  H27  1  0.22028000  0.27729000  0.12056000  1.0
  H  H28  1  0.98254000  0.20349000  0.91133000  1.0
  H  H29  1  0.01746000  0.79651000  0.08867000  1.0
  H  H30  1  0.98275000  0.04717000  0.88481000  1.0
  H  H31  1  0.01725000  0.95283000  0.11519000  1.0
  C  C32  1  0.28168000  0.62161000  0.75624000  1.0
  C  C33  1  0.71832000  0.37839000  0.24376000  1.0
  C  C34  1  0.15860000  0.45333000  0.71086000  1.0
  C  C35  1  0.84140000  0.54667000  0.28914000  1.0
  C  C36  1  0.03629000  0.41578000  0.61477000  1.0
  C  C37  1  0.96371000  0.58422000  0.38523000  1.0
  C  C38  1  0.93928000  0.25988000  0.56522000  1.0
  C  C39  1  0.06072000  0.74012000  0.43478000  1.0
  C  C40  1  0.77409000  0.03120000  0.45988000  1.0
  C  C41  1  0.22591000  0.96880000  0.54012000  1.0
  C  C42  1  0.96209000  0.14072000  0.61000000  1.0
  C  C43  1  0.03791000  0.85927000  0.39000000  1.0
  C  C44  1  0.08463000  0.17843000  0.70585000  1.0
  C  C45  1  0.91537000  0.82157000  0.29415000  1.0
  C  C46  1  0.18149000  0.33496000  0.75674000  1.0
  C  C47  1  0.81851000  0.66504000  0.24326000  1.0
  C  C48  1  0.31803000  0.37113000  0.85801000  1.0
  C  C49  1  0.68197000  0.62887000  0.14199000  1.0
  C  C50  1  0.91023000  0.53504000  0.85776000  1.0
  C  C51  1  0.08977000  0.46496000  0.14224000  1.0
  C  C52  1  0.81541000  0.49913000  0.74609000  1.0
  C  C53  1  0.18459000  0.50088000  0.25391000  1.0
  C  C54  1  0.85174000  0.62460000  0.69610000  1.0
  C  C55  1  0.14826000  0.37540000  0.30390000  1.0
  C  C56  1  0.76828000  0.58778000  0.59182000  1.0
  C  C57  1  0.23172000  0.41222000  0.40818000  1.0
  C  C58  1  0.65407000  0.58091000  0.43039000  1.0
  C  C59  1  0.34593000  0.41909000  0.56961000  1.0
  C  C60  1  0.65758000  0.43003000  0.53744000  1.0
  C  C61  1  0.34242000  0.56997000  0.46256000  1.0
  C  C62  1  0.62562000  0.30578000  0.58821000  1.0
  C  C63  1  0.37438000  0.69422000  0.41179000  1.0
  C  C64  1  0.70094000  0.34092000  0.69348000  1.0
  C  C65  1  0.29906000  0.65908000  0.30652000  1.0
  C  C66  1  0.65650000  0.20919000  0.74817000  1.0
  C  C67  1  0.34351000  0.79081000  0.25183000  1.0
  S  S68  1  0.71687000  0.02286000  0.08489000  1.0
  S  S69  1  0.28313000  0.97714000  0.91511000  1.0
  N  N70  1  0.81825000  0.18492000  0.46975000  1.0
  N  N71  1  0.18175000  0.81508000  0.53025000  1.0
  N  N72  1  0.85445000  0.99785000  0.54219000  1.0
  N  N73  1  0.14555000  0.00215000  0.45781000  1.0
  N  N74  1  0.58860000  0.43051000  0.43617000  1.0
  N  N75  1  0.41140000  0.56949000  0.56383000  1.0
  N  N76  1  0.76393000  0.68004000  0.52102000  1.0
  N  N77  1  0.23607000  0.31996000  0.47898000  1.0
  O  O78  1  0.31077000  0.72495000  0.70200000  1.0
  O  O79  1  0.68923000  0.27505000  0.29800000  1.0
  O  O80  1  0.37310000  0.66421000  0.85127000  1.0
  O  O81  1  0.62690000  0.33579000  0.14873000  1.0
  O  O82  1  0.29127000  0.39708000  0.93822000  1.0
  O  O83  1  0.70874000  0.60292000  0.06178000  1.0
  O  O84  1  0.44738000  0.36412000  0.85761000  1.0
  O  O85  1  0.55262000  0.63588000  0.14239000  1.0
  O  O86  1  0.84670000  0.56586000  0.91711000  1.0
  O  O87  1  0.15330000  0.43414000  0.08289000  1.0
  O  O88  1  0.05035000  0.53643000  0.88565000  1.0
  O  O89  1  0.94964000  0.46357000  0.11435000  1.0
  O  O90  1  0.68918000  0.23461000  0.84400000  1.0
  O  O91  1  0.31082000  0.76539000  0.15600000  1.0
  O  O92  1  0.58467000  0.06898000  0.70019000  1.0
  O  O93  1  0.41533000  0.93102000  0.29981000  1.0
  O  O94  1  0.72649000  0.13546000  0.01392000  1.0
  O  O95  1  0.27351000  0.86454000  0.98609000  1.0
  O  O96  1  0.64169000  0.04151000  0.15773000  1.0
  O  O97  1  0.35831000  0.95849000  0.84227000  1.0
  O  O98  1  0.88519000  0.03994000  0.13552000  1.0
  O  O99  1  0.11481000  0.96006000  0.86448000  1.0
  O  O100  1  0.59482000  0.86368000  0.01518000  1.0
  O  O101  1  0.40518000  0.13632000  0.98482000  1.0
  O  O102  1  0.65467000  0.82303000  0.70762000  1.0
  O  O103  1  0.34534000  0.17697000  0.29238000  1.0
  O  O104  1  0.73678000  0.77955000  0.90868000  1.0
  O  O105  1  0.26322000  0.22045000  0.09132000  1.0
  O  O106  1  0.90854000  0.09333000  0.87756000  1.0
  O  O107  1  0.09146000  0.90667000  0.12244000  1.0
