# generated using pymatgen
data_AlH5C10SNClO5
_symmetry_space_group_name_H-M   'P 1'
_cell_length_a   6.60319000
_cell_length_b   10.99583781
_cell_length_c   12.26630000
_cell_angle_alpha   97.13437458
_cell_angle_beta   99.59270000
_cell_angle_gamma   105.56936910
_symmetry_Int_Tables_number   1
_chemical_formula_structural   AlH5C10SNClO5
_chemical_formula_sum   'Al2 H10 C20 S2 N2 Cl2 O10'
_cell_volume   832.46392582
_cell_formula_units_Z   2
loop_
 _symmetry_equiv_pos_site_id
 _symmetry_equiv_pos_as_xyz
  1  'x, y, z'
loop_
 _atom_site_type_symbol
 _atom_site_label
 _atom_site_symmetry_multiplicity
 _atom_site_fract_x
 _atom_site_fract_y
 _atom_site_fract_z
 _atom_site_occupancy
  Al  Al0  1  0.99743000  0.50172000  0.50286000  1.0
  Al  Al1  1  0.49844000  0.50407000  0.50338000  1.0
  H  H2  1  0.33983000  0.66676000  0.56445000  1.0
  H  H3  1  0.64924000  0.33890000  0.44944000  1.0
  H  H4  1  0.54856000  0.75034000  0.34606000  1.0
  H  H5  1  0.34242000  0.85466000  0.22314000  1.0
  H  H6  1  0.82007000  0.21990000  0.34925000  1.0
  H  H7  1  0.48032000  0.09044000  0.22357000  1.0
  H  H8  1  0.41557000  0.57811000  0.87637000  1.0
  H  H9  1  0.25186000  0.57715000  0.74949000  1.0
  H  H10  1  0.57884000  0.42466000  0.12860000  1.0
  H  H11  1  0.74205000  0.42633000  0.25577000  1.0
  C  C12  1  0.85765000  0.72592000  0.49187000  1.0
  C  C13  1  0.81264000  0.52038000  0.70232000  1.0
  C  C14  1  0.14130000  0.27881000  0.51203000  1.0
  C  C15  1  0.18241000  0.48469000  0.30315000  1.0
  C  C16  1  0.09481000  0.54107000  0.87664000  1.0
  C  C17  1  0.89954000  0.46187000  0.12852000  1.0
  C  C18  1  0.87956000  0.51206000  0.81825000  1.0
  C  C19  1  0.11485000  0.49171000  0.18714000  1.0
  C  C20  1  0.89547000  0.48021000  0.01487000  1.0
  C  C21  1  0.09867000  0.52270000  0.99027000  1.0
  C  C22  1  0.92910000  0.86820000  0.49579000  1.0
  C  C23  1  0.80293000  0.92609000  0.42463000  1.0
  C  C24  1  0.11908000  0.94241000  0.56807000  1.0
  C  C25  1  0.60776000  0.85340000  0.34912000  1.0
  C  C26  1  0.49227000  0.91205000  0.27995000  1.0
  C  C27  1  0.07157000  0.13600000  0.50468000  1.0
  C  C28  1  0.19041000  0.07763000  0.57331000  1.0
  C  C29  1  0.87776000  0.06189000  0.42776000  1.0
  C  C30  1  0.75859000  0.11827000  0.35225000  1.0
  C  C31  1  0.56923000  0.04517000  0.28068000  1.0
  S  S32  1  0.69111000  0.45976000  0.90033000  1.0
  S  S33  1  0.30325000  0.54391000  0.10491000  1.0
  N  N34  1  0.27263000  0.58303000  0.83439000  1.0
  N  N35  1  0.72161000  0.41960000  0.17079000  1.0
  Cl  Cl36  1  0.41905000  0.16778000  0.66914000  1.0
  Cl  Cl37  1  0.26671000  0.87459000  0.65880000  1.0
  O  O38  1  0.98321000  0.66385000  0.46378000  1.0
  O  O39  1  0.61297000  0.49711000  0.65809000  1.0
  O  O40  1  0.32056000  0.32991000  0.48749000  1.0
  O  O41  1  0.02934000  0.44748000  0.35601000  1.0
  O  O42  1  0.01099000  0.33807000  0.53901000  1.0
  O  O43  1  0.38302000  0.51268000  0.34805000  1.0
  O  O44  1  0.67771000  0.67759000  0.51721000  1.0
  O  O45  1  0.96613000  0.55406000  0.64923000  1.0
  O  O46  1  0.29492000  0.57344000  0.55352000  1.0
  O  O47  1  0.69881000  0.43112000  0.45182000  1.0
