# generated using pymatgen
data_CdH11C16N3O7
_symmetry_space_group_name_H-M   'P 1'
_cell_length_a   8.49185000
_cell_length_b   10.27330000
_cell_length_c   10.53240000
_cell_angle_alpha   108.47800000
_cell_angle_beta   93.74380000
_cell_angle_gamma   102.35300000
_symmetry_Int_Tables_number   1
_chemical_formula_structural   CdH11C16N3O7
_chemical_formula_sum   'Cd2 H22 C32 N6 O14'
_cell_volume   842.46247029
_cell_formula_units_Z   2
loop_
 _symmetry_equiv_pos_site_id
 _symmetry_equiv_pos_as_xyz
  1  'x, y, z'
loop_
 _atom_site_type_symbol
 _atom_site_label
 _atom_site_symmetry_multiplicity
 _atom_site_fract_x
 _atom_site_fract_y
 _atom_site_fract_z
 _atom_site_occupancy
  Cd  Cd0  1  0.46452000  0.40296000  0.62685000  1.0
  Cd  Cd1  1  0.53548000  0.59704000  0.37315000  1.0
  H  H2  1  0.26229000  0.17521000  0.94149000  1.0
  H  H3  1  0.73771000  0.82478000  0.05850000  1.0
  H  H4  1  0.48315000  0.92266000  0.62978000  1.0
  H  H5  1  0.51685000  0.07734000  0.37022000  1.0
  H  H6  1  0.31034000  0.76502000  0.94239000  1.0
  H  H7  1  0.68966000  0.23498000  0.05761000  1.0
  H  H8  1  0.75757000  0.29551000  0.52331000  1.0
  H  H9  1  0.24244000  0.70450000  0.47670000  1.0
  H  H10  1  0.74115000  0.61574000  0.87394000  1.0
  H  H11  1  0.25886000  0.38426000  0.12606000  1.0
  H  H12  1  0.03207000  0.64143000  0.96278000  1.0
  H  H13  1  0.96793000  0.35857000  0.03722000  1.0
  H  H14  1  0.19040000  0.48202000  0.82031000  1.0
  H  H15  1  0.80960000  0.51798000  0.17969000  1.0
  H  H16  1  0.17867000  0.12213000  0.37948000  1.0
  H  H17  1  0.82132000  0.87787000  0.62052000  1.0
  H  H18  1  0.97912000  0.01253000  0.31362000  1.0
  H  H19  1  0.02088000  0.98747000  0.68638000  1.0
  H  H20  1  0.76715000  0.02505000  0.48870000  1.0
  H  H21  1  0.23285000  0.97495000  0.51130000  1.0
  H  H22  1  0.84749000  0.13679000  0.65705000  1.0
  H  H23  1  0.15251000  0.86321000  0.34295000  1.0
  C  C24  1  0.44661000  0.69142000  0.71644000  1.0
  C  C25  1  0.55340000  0.30857000  0.28356000  1.0
  C  C26  1  0.40682000  0.17893000  0.72243000  1.0
  C  C27  1  0.59317000  0.82107000  0.27757000  1.0
  C  C28  1  0.37931000  0.06204000  0.78192000  1.0
  C  C29  1  0.62069000  0.93795000  0.21808000  1.0
  C  C30  1  0.30161000  0.07879000  0.89678000  1.0
  C  C31  1  0.69838000  0.92121000  0.10322000  1.0
  C  C32  1  0.42704000  0.93643000  0.72199000  1.0
  C  C33  1  0.57296000  0.06357000  0.27801000  1.0
  C  C34  1  0.40195000  0.82937000  0.77966000  1.0
  C  C35  1  0.59805000  0.17062000  0.22033000  1.0
  C  C36  1  0.32758000  0.84707000  0.89652000  1.0
  C  C37  1  0.67242000  0.15293000  0.10348000  1.0
  C  C38  1  0.27588000  0.97026000  0.95133000  1.0
  C  C39  1  0.72411000  0.02973000  0.04867000  1.0
  C  C40  1  0.82375000  0.36976000  0.62027000  1.0
  C  C41  1  0.17625000  0.63024000  0.37974000  1.0
  C  C42  1  0.81500000  0.54985000  0.81656000  1.0
  C  C43  1  0.18500000  0.45015000  0.18344000  1.0
  C  C44  1  0.97641000  0.56268000  0.86477000  1.0
  C  C45  1  0.02359000  0.43732000  0.13523000  1.0
  C  C46  1  0.98528000  0.37513000  0.66129000  1.0
  C  C47  1  0.01473000  0.62487000  0.33871000  1.0
  C  C48  1  0.06371000  0.47461000  0.78629000  1.0
  C  C49  1  0.93629000  0.52539000  0.21372000  1.0
  C  C50  1  0.07308000  0.28558000  0.56475000  1.0
  C  C51  1  0.92693000  0.71442000  0.43525000  1.0
  C  C52  1  0.07389000  0.05531000  0.40275000  1.0
  C  C53  1  0.92611000  0.94469000  0.59725000  1.0
  C  C54  1  0.87688000  0.06626000  0.56472000  1.0
  C  C55  1  0.12312000  0.93374000  0.43528000  1.0
  N  N56  1  0.74092000  0.45497000  0.69613000  1.0
  N  N57  1  0.25908000  0.54503000  0.30387000  1.0
  N  N58  1  0.00997000  0.14421000  0.51514000  1.0
  N  N59  1  0.99003000  0.85580000  0.48487000  1.0
  N  N60  1  0.19018000  0.98594000  0.06946000  1.0
  N  N61  1  0.80982000  0.01406000  0.93053000  1.0
  O  O62  1  0.47732000  0.16242000  0.61740000  1.0
  O  O63  1  0.52268000  0.83757000  0.38259000  1.0
  O  O64  1  0.35621000  0.28837000  0.77979000  1.0
  O  O65  1  0.64379000  0.71163000  0.22021000  1.0
  O  O66  1  0.44637000  0.61208000  0.78791000  1.0
  O  O67  1  0.55363000  0.38792000  0.21209000  1.0
  O  O68  1  0.47594000  0.65805000  0.59515000  1.0
  O  O69  1  0.52406000  0.34194000  0.40485000  1.0
  O  O70  1  0.16254000  0.88568000  0.11382000  1.0
  O  O71  1  0.83746000  0.11432000  0.88618000  1.0
  O  O72  1  0.14865000  0.09816000  0.11890000  1.0
  O  O73  1  0.85135000  0.90184000  0.88110000  1.0
  O  O74  1  0.19626000  0.34583000  0.52568000  1.0
  O  O75  1  0.80374000  0.65418000  0.47433000  1.0
