# generated using pymatgen
data_CdH10C6N2O5
_symmetry_space_group_name_H-M   'P 1'
_cell_length_a   7.31996000
_cell_length_b   7.73390000
_cell_length_c   9.66298961
_cell_angle_alpha   66.41675019
_cell_angle_beta   67.75266736
_cell_angle_gamma   89.99120000
_symmetry_Int_Tables_number   1
_chemical_formula_structural   CdH10C6N2O5
_chemical_formula_sum   'Cd2 H20 C12 N4 O10'
_cell_volume   456.58622704
_cell_formula_units_Z   2
loop_
 _symmetry_equiv_pos_site_id
 _symmetry_equiv_pos_as_xyz
  1  'x, y, z'
loop_
 _atom_site_type_symbol
 _atom_site_label
 _atom_site_symmetry_multiplicity
 _atom_site_fract_x
 _atom_site_fract_y
 _atom_site_fract_z
 _atom_site_occupancy
  Cd  Cd0  1  0.57705000  0.19386000  0.61243000  1.0
  Cd  Cd1  1  0.18954000  0.80610000  0.38761000  1.0
  H  H2  1  0.38540000  0.88417000  0.99984000  1.0
  H  H3  1  0.38521000  0.11602000  0.00005000  1.0
  H  H4  1  0.10894000  0.97412000  0.74020000  1.0
  H  H5  1  0.84929000  0.02593000  0.25975000  1.0
  H  H6  1  0.84963000  0.71395000  0.25934000  1.0
  H  H7  1  0.10862000  0.28602000  0.74061000  1.0
  H  H8  1  0.22664000  0.80321000  0.85070000  1.0
  H  H9  1  0.07733000  0.19688000  0.14922000  1.0
  H  H10  1  0.07788000  0.65397000  0.14857000  1.0
  H  H11  1  0.22615000  0.34616000  0.85131000  1.0
  H  H12  1  0.69191000  0.94453000  0.11057000  1.0
  H  H13  1  0.80236000  0.05536000  0.88947000  1.0
  H  H14  1  0.72314000  0.39294000  0.21361000  1.0
  H  H15  1  0.93672000  0.60693000  0.78649000  1.0
  H  H16  1  0.55429000  0.44309000  0.11355000  1.0
  H  H17  1  0.66790000  0.55689000  0.88645000  1.0
  H  H18  1  0.95074000  0.17089000  0.44800000  1.0
  H  H19  1  0.39881000  0.82907000  0.55211000  1.0
  H  H20  1  0.39898000  0.61873000  0.55199000  1.0
  H  H21  1  0.95074000  0.38119000  0.44811000  1.0
  C  C22  1  0.29907000  0.00007000  0.99995000  1.0
  C  C23  1  0.13828000  0.91765000  0.85226000  1.0
  C  C24  1  0.99061000  0.08241000  0.14767000  1.0
  C  C25  1  0.99095000  0.76983000  0.14724000  1.0
  C  C26  1  0.13799000  0.23023000  0.85266000  1.0
  C  C27  1  0.83484000  0.99998000  0.00000000  1.0
  C  C28  1  0.56477000  0.38352000  0.23267000  1.0
  C  C29  1  0.79747000  0.61644000  0.76734000  1.0
  C  C30  1  0.47017000  0.50343000  0.32458000  1.0
  C  C31  1  0.79478000  0.49650000  0.67544000  1.0
  C  C32  1  0.79457000  0.82816000  0.67534000  1.0
  C  C33  1  0.46988000  0.17183000  0.32472000  1.0
  N  N34  1  0.26065000  0.07625000  0.84786000  1.0
  N  N35  1  0.10867000  0.92384000  0.15207000  1.0
  N  N36  1  0.94838000  0.84234000  0.99978000  1.0
  N  N37  1  0.94808000  0.15766000  0.00018000  1.0
  O  O38  1  0.48326000  0.46886000  0.46158000  1.0
  O  O39  1  0.94485000  0.53106000  0.53848000  1.0
  O  O40  1  0.94457000  0.93054000  0.53834000  1.0
  O  O41  1  0.48289000  0.06947000  0.46173000  1.0
  O  O42  1  0.38725000  0.63537000  0.25736000  1.0
  O  O43  1  0.64461000  0.36465000  0.74261000  1.0
  O  O44  1  0.64434000  0.89280000  0.74253000  1.0
  O  O45  1  0.38678000  0.10716000  0.25753000  1.0
  O  O46  1  0.90817000  0.29733000  0.40555000  1.0
  O  O47  1  0.31388000  0.70261000  0.59456000  1.0
