# generated using pymatgen
data_ZnH12C9N4O3
_symmetry_space_group_name_H-M   'P 1'
_cell_length_a   9.21064000
_cell_length_b   9.25806331
_cell_length_c   9.61636000
_cell_angle_alpha   61.53328099
_cell_angle_beta   89.99930000
_cell_angle_gamma   89.99979462
_symmetry_Int_Tables_number   1
_chemical_formula_structural   ZnH12C9N4O3
_chemical_formula_sum   'Zn2 H24 C18 N8 O6'
_cell_volume   720.86849776
_cell_formula_units_Z   2
loop_
 _symmetry_equiv_pos_site_id
 _symmetry_equiv_pos_as_xyz
  1  'x, y, z'
loop_
 _atom_site_type_symbol
 _atom_site_label
 _atom_site_symmetry_multiplicity
 _atom_site_fract_x
 _atom_site_fract_y
 _atom_site_fract_z
 _atom_site_occupancy
  Zn  Zn0  1  0.43303000  0.72603000  0.86832000  1.0
  Zn  Zn1  1  0.93303000  0.27398000  0.13167000  1.0
  H  H2  1  0.74617000  0.57317000  0.89019000  1.0
  H  H3  1  0.24617000  0.42683000  0.10979000  1.0
  H  H4  1  0.56386000  0.20622000  0.48457000  1.0
  H  H5  1  0.06385000  0.79379000  0.51544000  1.0
  H  H6  1  0.75475000  0.18752000  0.46463000  1.0
  H  H7  1  0.25474000  0.81250000  0.53536000  1.0
  H  H8  1  0.40012000  0.06730000  0.35227000  1.0
  H  H9  1  0.90012000  0.93271000  0.64772000  1.0
  H  H10  1  0.42621000  0.45343000  0.24062000  1.0
  H  H11  1  0.92620000  0.54656000  0.75938000  1.0
  H  H12  1  0.38006000  0.73560000  0.17939000  1.0
  H  H13  1  0.88003000  0.26438000  0.82064000  1.0
  H  H14  1  0.21966000  0.83181000  0.07021000  1.0
  H  H15  1  0.71964000  0.16816000  0.92981000  1.0
  H  H16  1  0.71832000  0.99924000  0.35773000  1.0
  H  H17  1  0.21833000  0.00078000  0.64225000  1.0
  H  H18  1  0.31935000  0.10335000  0.04721000  1.0
  H  H19  1  0.81937000  0.89663000  0.95282000  1.0
  H  H20  1  0.26072000  0.95818000  0.23698000  1.0
  H  H21  1  0.76073000  0.04179000  0.76305000  1.0
  H  H22  1  0.35911000  0.00474000  0.85422000  1.0
  H  H23  1  0.85911000  0.99524000  0.14580000  1.0
  H  H24  1  0.51388000  0.93843000  0.95616000  1.0
  H  H25  1  0.01388000  0.06156000  0.04385000  1.0
  C  C26  1  0.69006000  0.50742000  0.00242000  1.0
  C  C27  1  0.19005000  0.49258000  0.99757000  1.0
  C  C28  1  0.64831000  0.19258000  0.41063000  1.0
  C  C29  1  0.14831000  0.80743000  0.58935000  1.0
  C  C30  1  0.52653000  0.44714000  0.18463000  1.0
  C  C31  1  0.02653000  0.55288000  0.81533000  1.0
  C  C32  1  0.63860000  0.33595000  0.24899000  1.0
  C  C33  1  0.13860000  0.66406000  0.75100000  1.0
  C  C34  1  0.33309000  0.85233000  0.09025000  1.0
  C  C35  1  0.83312000  0.14765000  0.90976000  1.0
  C  C36  1  0.61554000  0.89141000  0.58648000  1.0
  C  C37  1  0.11554000  0.10861000  0.41352000  1.0
  C  C38  1  0.62487000  0.02565000  0.41242000  1.0
  C  C39  1  0.12487000  0.97436000  0.58759000  1.0
  C  C40  1  0.34327000  0.98070000  0.14652000  1.0
  C  C41  1  0.84327000  0.01927000  0.85350000  1.0
  C  C42  1  0.49372000  0.98285000  0.21209000  1.0
  C  C43  1  0.99373000  0.01714000  0.78792000  1.0
  N  N44  1  0.41206000  0.90380000  0.93945000  1.0
  N  N45  1  0.91207000  0.09621000  0.06055000  1.0
  N  N46  1  0.49604000  0.02809000  0.32560000  1.0
  N  N47  1  0.99604000  0.97193000  0.67439000  1.0
  N  N48  1  0.55967000  0.55515000  0.02875000  1.0
  N  N49  1  0.05968000  0.44486000  0.97123000  1.0
  N  N50  1  0.74214000  0.37533000  0.13156000  1.0
  N  N51  1  0.24214000  0.62468000  0.86842000  1.0
  O  O52  1  0.48576000  0.86002000  0.64360000  1.0
  O  O53  1  0.98577000  0.14001000  0.35638000  1.0
  O  O54  1  0.72983000  0.82911000  0.66174000  1.0
  O  O55  1  0.22983000  0.17090000  0.33826000  1.0
  O  O56  1  0.60414000  0.94195000  0.16249000  1.0
  O  O57  1  0.10415000  0.05803000  0.83752000  1.0
