# generated using pymatgen
data_ZnH20C24N6Cl2O3
_symmetry_space_group_name_H-M   'P 1'
_cell_length_a   9.41258000
_cell_length_b   10.47740000
_cell_length_c   31.53870000
_cell_angle_alpha   86.26010000
_cell_angle_beta   89.99990000
_cell_angle_gamma   89.99980000
_symmetry_Int_Tables_number   1
_chemical_formula_structural   ZnH20C24N6Cl2O3
_chemical_formula_sum   'Zn4 H80 C96 N24 Cl8 O12'
_cell_volume   3103.70295195
_cell_formula_units_Z   4
loop_
 _symmetry_equiv_pos_site_id
 _symmetry_equiv_pos_as_xyz
  1  'x, y, z'
loop_
 _atom_site_type_symbol
 _atom_site_label
 _atom_site_symmetry_multiplicity
 _atom_site_fract_x
 _atom_site_fract_y
 _atom_site_fract_z
 _atom_site_occupancy
  Zn  Zn0  1  0.22955000  0.44669000  0.23603000  1.0
  Zn  Zn1  1  0.72955000  0.05331000  0.26397000  1.0
  Zn  Zn2  1  0.77045000  0.55331000  0.76397000  1.0
  Zn  Zn3  1  0.27045000  0.94669000  0.73603000  1.0
  H  H4  1  0.38216000  0.70241000  0.22515000  1.0
  H  H5  1  0.88216000  0.79759000  0.27485000  1.0
  H  H6  1  0.61784000  0.29759000  0.77485000  1.0
  H  H7  1  0.11784000  0.20241000  0.72515000  1.0
  H  H8  1  0.40218000  0.90364000  0.26686000  1.0
  H  H9  1  0.90219000  0.59637000  0.23314000  1.0
  H  H10  1  0.59782000  0.09636000  0.73314000  1.0
  H  H11  1  0.09781000  0.40363000  0.76685000  1.0
  H  H12  1  0.24622000  0.92506000  0.32895000  1.0
  H  H13  1  0.74622000  0.57494000  0.17105000  1.0
  H  H14  1  0.75379000  0.07494000  0.67106000  1.0
  H  H15  1  0.25376000  0.42506000  0.82895000  1.0
  H  H16  1  0.05887000  0.56092000  0.30314000  1.0
  H  H17  1  0.55887000  0.93908000  0.19686000  1.0
  H  H18  1  0.94112000  0.43909000  0.69686000  1.0
  H  H19  1  0.44112000  0.06092000  0.80314000  1.0
  H  H20  1  0.98354000  0.06514000  0.42517000  1.0
  H  H21  1  0.48355000  0.43485000  0.07483000  1.0
  H  H22  1  0.01644000  0.93487000  0.57483000  1.0
  H  H23  1  0.51646000  0.56515000  0.92516000  1.0
  H  H24  1  0.87714000  0.18533000  0.48283000  1.0
  H  H25  1  0.37715000  0.31465000  0.01717000  1.0
  H  H26  1  0.12285000  0.81467000  0.51717000  1.0
  H  H27  1  0.62285000  0.68535000  0.98282000  1.0
  H  H28  1  0.69776000  0.08194000  0.53200000  1.0
  H  H29  1  0.19775000  0.41803000  0.96801000  1.0
  H  H30  1  0.30225000  0.91805000  0.46800000  1.0
  H  H31  1  0.80224000  0.58197000  0.03199000  1.0
  H  H32  1  0.61872000  0.85720000  0.52160000  1.0
  H  H33  1  0.11871000  0.64277000  0.97841000  1.0
  H  H34  1  0.38130000  0.14279000  0.47841000  1.0
  H  H35  1  0.88128000  0.35722000  0.02159000  1.0
  H  H36  1  0.89285000  0.70968000  0.53054000  1.0
  H  H37  1  0.39286000  0.79028000  0.96947000  1.0
  H  H38  1  0.10716000  0.29032000  0.46946000  1.0
  H  H39  1  0.60715000  0.20970000  0.03054000  1.0
  H  H40  1  0.93676000  0.51576000  0.57894000  1.0
  H  H41  1  0.43678000  0.98420000  0.92107000  1.0
  H  H42  1  0.06324000  0.48424000  0.42107000  1.0
  H  H43  1  0.56324000  0.01578000  0.07893000  1.0
  H  H44  1  0.81408000  0.30981000  0.56516000  1.0
  H  H45  1  0.31411000  0.19015000  0.93484000  1.0
  H  H46  1  0.18589000  0.69019000  0.43485000  1.0
  H  H47  1  0.68591000  0.80983000  0.06516000  1.0
  H  H48  1  0.65463000  0.29869000  0.50268000  1.0
  H  H49  1  0.15465000  0.20129000  0.99732000  1.0
  H  H50  1  0.34535000  0.70131000  0.49733000  1.0
  H  H51  1  0.84537000  0.79870000  0.00268000  1.0
  H  H52  1  0.31550000  0.21861000  0.41175000  1.0
  H  H53  1  0.81551000  0.28138000  0.08825000  1.0
  H  H54  1  0.68450000  0.78138000  0.58825000  1.0
  H  H55  1  0.18449000  0.71861000  0.91175000  1.0
  H  H56  1  0.14892000  0.11679000  0.36206000  1.0
  H  H57  1  0.64893000  0.38321000  0.13794000  1.0
  H  H58  1  0.85108000  0.88321000  0.63794000  1.0
  H  H59  1  0.35107000  0.61679000  0.86206000  1.0
  H  H60  1  0.11923000  0.21393000  0.28793000  1.0
  H  H61  1  0.61924000  0.28607000  0.21206000  1.0
  H  H62  1  0.88077000  0.78608000  0.71207000  1.0
  H  H63  1  0.38077000  0.71392000  0.78794000  1.0
  H  H64  1  0.42127000  0.49191000  0.30828000  1.0
  H  H65  1  0.92127000  0.00809000  0.19172000  1.0
  H  H66  1  0.57872000  0.50811000  0.69173000  1.0
  H  H67  1  0.07872000  0.99190000  0.80827000  1.0
  H  H68  1  0.96282000  0.68113000  0.35371000  1.0
  H  H69  1  0.46283000  0.81887000  0.14629000  1.0
  H  H70  1  0.03718000  0.31887000  0.64629000  1.0
  H  H71  1  0.53717000  0.18114000  0.85370000  1.0
  H  H72  1  0.85493000  0.73759000  0.40731000  1.0
  H  H73  1  0.35492000  0.76240000  0.09269000  1.0
  H  H74  1  0.14507000  0.26241000  0.59269000  1.0
  H  H75  1  0.64507000  0.23760000  0.90731000  1.0
  H  H76  1  0.58222000  0.58940000  0.43232000  1.0
  H  H77  1  0.08222000  0.91059000  0.06768000  1.0
  H  H78  1  0.41778000  0.41060000  0.56769000  1.0
  H  H79  1  0.91778000  0.08941000  0.93231000  1.0
  H  H80  1  0.49829000  0.52310000  0.37522000  1.0
  H  H81  1  0.99830000  0.97689000  0.12478000  1.0
  H  H82  1  0.50169000  0.47691000  0.62479000  1.0
  H  H83  1  0.00170000  0.02310000  0.87522000  1.0
  C  C84  1  0.31369000  0.72037000  0.25202000  1.0
  C  C85  1  0.81370000  0.77964000  0.24798000  1.0
  C  C86  1  0.68630000  0.27964000  0.74798000  1.0
  C  C87  1  0.18629000  0.22037000  0.75201000  1.0
  C  C88  1  0.32524000  0.82829000  0.27531000  1.0
  C  C89  1  0.82525000  0.67172000  0.22468000  1.0
  C  C90  1  0.67476000  0.17172000  0.72469000  1.0
  C  C91  1  0.17475000  0.32829000  0.77531000  1.0
  C  C92  1  0.23805000  0.84169000  0.31040000  1.0
  C  C93  1  0.73805000  0.65831000  0.18960000  1.0
  C  C94  1  0.76196000  0.15831000  0.68961000  1.0
  C  C95  1  0.26194000  0.34169000  0.81039000  1.0
  C  C96  1  0.13879000  0.74475000  0.32127000  1.0
  C  C97  1  0.63880000  0.75525000  0.17873000  1.0
  C  C98  1  0.86121000  0.25525000  0.67874000  1.0
  C  C99  1  0.36120000  0.24475000  0.82126000  1.0
  C  C100  1  0.13333000  0.63960000  0.29593000  1.0
  C  C101  1  0.63333000  0.86041000  0.20406000  1.0
  C  C102  1  0.86666000  0.36041000  0.70406000  1.0
  C  C103  1  0.36666000  0.13960000  0.79593000  1.0
  C  C104  1  0.03396000  0.83529000  0.38552000  1.0
  C  C105  1  0.53396000  0.66471000  0.11448000  1.0
  C  C106  1  0.96604000  0.16472000  0.61448000  1.0
  C  C107  1  0.46604000  0.33529000  0.88552000  1.0
  C  C108  1  0.86500000  0.89356000  0.44192000  1.0
  C  C109  1  0.36500000  0.60643000  0.05808000  1.0
  C  C110  1  0.13500000  0.10645000  0.55808000  1.0
  C  C111  1  0.63500000  0.39357000  0.94191000  1.0
  C  C112  1  0.90533000  0.02058000  0.44671000  1.0
  C  C113  1  0.40534000  0.47940000  0.05329000  1.0
  C  C114  1  0.09466000  0.97942000  0.55329000  1.0
  C  C115  1  0.59467000  0.52060000  0.94671000  1.0
  C  C116  1  0.84485000  0.08684000  0.47908000  1.0
  C  C117  1  0.34485000  0.41313000  0.02092000  1.0
  C  C118  1  0.15515000  0.91315000  0.52092000  1.0
  C  C119  1  0.65515000  0.58686000  0.97907000  1.0
  C  C120  1  0.74340000  0.02970000  0.50653000  1.0
  C  C121  1  0.24340000  0.47028000  0.99348000  1.0
  C  C122  1  0.25660000  0.97030000  0.49347000  1.0
  C  C123  1  0.75659000  0.52971000  0.00652000  1.0
  C  C124  1  0.70029000  0.90409000  0.50157000  1.0
  C  C125  1  0.20028000  0.59589000  0.99843000  1.0
  C  C126  1  0.29972000  0.09590000  0.49843000  1.0
  C  C127  1  0.79971000  0.40410000  0.00156000  1.0
  C  C128  1  0.76263000  0.83755000  0.46975000  1.0
  C  C129  1  0.26262000  0.66242000  0.03026000  1.0
  C  C130  1  0.23738000  0.16244000  0.53026000  1.0
  C  C131  1  0.73737000  0.33757000  0.96974000  1.0
  C  C132  1  0.75070000  0.61172000  0.49049000  1.0
  C  C133  1  0.25070000  0.88825000  0.00951000  1.0
  C  C134  1  0.24930000  0.38828000  0.50951000  1.0
  C  C135  1  0.74930000  0.11174000  0.99049000  1.0
  C  C136  1  0.84196000  0.61902000  0.52487000  1.0
  C  C137  1  0.34198000  0.88095000  0.97513000  1.0
  C  C138  1  0.15804000  0.38098000  0.47514000  1.0
  C  C139  1  0.65803000  0.11903000  0.02486000  1.0
  C  C140  1  0.86575000  0.50972000  0.55181000  1.0
  C  C141  1  0.36577000  0.99024000  0.94819000  1.0
  C  C142  1  0.13424000  0.49027000  0.44819000  1.0
  C  C143  1  0.63425000  0.00974000  0.05181000  1.0
  C  C144  1  0.79797000  0.39515000  0.54409000  1.0
  C  C145  1  0.29799000  0.10482000  0.95590000  1.0
  C  C146  1  0.20202000  0.60486000  0.45591000  1.0
  C  C147  1  0.70203000  0.89516000  0.04409000  1.0
  C  C148  1  0.70777000  0.38732000  0.50917000  1.0
  C  C149  1  0.20779000  0.11266000  0.99082000  1.0
  C  C150  1  0.29221000  0.61268000  0.49083000  1.0
  C  C151  1  0.79222000  0.88734000  0.00917000  1.0
  C  C152  1  0.68424000  0.49548000  0.48166000  1.0
  C  C153  1  0.18424000  0.00451000  0.01834000  1.0
  C  C154  1  0.31577000  0.50452000  0.51835000  1.0
  C  C155  1  0.81577000  0.99549000  0.98166000  1.0
  C  C156  1  0.52855000  0.39917000  0.42803000  1.0
  C  C157  1  0.02856000  0.10082000  0.07197000  1.0
  C  C158  1  0.47145000  0.60083000  0.57197000  1.0
  C  C159  1  0.97145000  0.89918000  0.92803000  1.0
  C  C160  1  0.37954000  0.36557000  0.36413000  1.0
  C  C161  1  0.87954000  0.13443000  0.13586000  1.0
  C  C162  1  0.62046000  0.63443000  0.63587000  1.0
  C  C163  1  0.12046000  0.86557000  0.86413000  1.0
  C  C164  1  0.30263000  0.25712000  0.37919000  1.0
  C  C165  1  0.80264000  0.24288000  0.12081000  1.0
  C  C166  1  0.69737000  0.74289000  0.62081000  1.0
  C  C167  1  0.19737000  0.75712000  0.87919000  1.0
  C  C168  1  0.21008000  0.20117000  0.35147000  1.0
  C  C169  1  0.71008000  0.29882000  0.14853000  1.0
  C  C170  1  0.78993000  0.79883000  0.64853000  1.0
  C  C171  1  0.28991000  0.70117000  0.85147000  1.0
  C  C172  1  0.19427000  0.25313000  0.30995000  1.0
  C  C173  1  0.69428000  0.24687000  0.19005000  1.0
  C  C174  1  0.80573000  0.74687000  0.69005000  1.0
  C  C175  1  0.30573000  0.75313000  0.80995000  1.0
  C  C176  1  0.36118000  0.40954000  0.32164000  1.0
  C  C177  1  0.86118000  0.09046000  0.17836000  1.0
  C  C178  1  0.63881000  0.59047000  0.67837000  1.0
  C  C179  1  0.13881000  0.90953000  0.82164000  1.0
  N  N180  1  0.21838000  0.62786000  0.26244000  1.0
  N  N181  1  0.71838000  0.87215000  0.23756000  1.0
  N  N182  1  0.78162000  0.37215000  0.73756000  1.0
  N  N183  1  0.28161000  0.12785000  0.76243000  1.0
  N  N184  1  0.04298000  0.74560000  0.35481000  1.0
  N  N185  1  0.54298000  0.75440000  0.14519000  1.0
  N  N186  1  0.95702000  0.25441000  0.64519000  1.0
  N  N187  1  0.45701000  0.24560000  0.85481000  1.0
  N  N188  1  0.91351000  0.81814000  0.40988000  1.0
  N  N189  1  0.41351000  0.68185000  0.09012000  1.0
  N  N190  1  0.08648000  0.18186000  0.59012000  1.0
  N  N191  1  0.58649000  0.31815000  0.90987000  1.0
  N  N192  1  0.59952000  0.49926000  0.44517000  1.0
  N  N193  1  0.09953000  0.00073000  0.05483000  1.0
  N  N194  1  0.40047000  0.50074000  0.55484000  1.0
  N  N195  1  0.90047000  0.99928000  0.94516000  1.0
  N  N196  1  0.46909000  0.43666000  0.38882000  1.0
  N  N197  1  0.96910000  0.06334000  0.11118000  1.0
  N  N198  1  0.53090000  0.56335000  0.61118000  1.0
  N  N199  1  0.03090000  0.93666000  0.88882000  1.0
  N  N200  1  0.26959000  0.35611000  0.29555000  1.0
  N  N201  1  0.76960000  0.14389000  0.20445000  1.0
  N  N202  1  0.73040000  0.64390000  0.70446000  1.0
  N  N203  1  0.23041000  0.85611000  0.79555000  1.0
  Cl  Cl204  1  0.41401000  0.46909000  0.19279000  1.0
  Cl  Cl205  1  0.91399000  0.03091000  0.30721000  1.0
  Cl  Cl206  1  0.58599000  0.53091000  0.80721000  1.0
  Cl  Cl207  1  0.08600000  0.96909000  0.69279000  1.0
  Cl  Cl208  1  0.01497000  0.38326000  0.21836000  1.0
  Cl  Cl209  1  0.51496000  0.11674000  0.28164000  1.0
  Cl  Cl210  1  0.98504000  0.61674000  0.78164000  1.0
  Cl  Cl211  1  0.48503000  0.88326000  0.71836000  1.0
  O  O212  1  0.12597000  0.91638000  0.39070000  1.0
  O  O213  1  0.62597000  0.58362000  0.10930000  1.0
  O  O214  1  0.87403000  0.08362000  0.60930000  1.0
  O  O215  1  0.37403000  0.41639000  0.89070000  1.0
  O  O216  1  0.71851000  0.71362000  0.46160000  1.0
  O  O217  1  0.21850000  0.78637000  0.03841000  1.0
  O  O218  1  0.28150000  0.28638000  0.53841000  1.0
  O  O219  1  0.78148000  0.21363000  0.96159000  1.0
  O  O220  1  0.52025000  0.29001000  0.44480000  1.0
  O  O221  1  0.02027000  0.20998000  0.05520000  1.0
  O  O222  1  0.47976000  0.70999000  0.55520000  1.0
  O  O223  1  0.97975000  0.79002000  0.94480000  1.0
