# generated using pymatgen
data_GdPH11C9SNO9
_symmetry_space_group_name_H-M   'P 1'
_cell_length_a   6.78689000
_cell_length_b   7.54442000
_cell_length_c   13.35630000
_cell_angle_alpha   90.68620000
_cell_angle_beta   93.22790000
_cell_angle_gamma   101.86700000
_symmetry_Int_Tables_number   1
_chemical_formula_structural   GdPH11C9SNO9
_chemical_formula_sum   'Gd2 P2 H22 C18 S2 N2 O18'
_cell_volume   668.01232468
_cell_formula_units_Z   2
loop_
 _symmetry_equiv_pos_site_id
 _symmetry_equiv_pos_as_xyz
  1  'x, y, z'
loop_
 _atom_site_type_symbol
 _atom_site_label
 _atom_site_symmetry_multiplicity
 _atom_site_fract_x
 _atom_site_fract_y
 _atom_site_fract_z
 _atom_site_occupancy
  Gd  Gd0  1  0.28510000  0.76857000  0.45497000  1.0
  Gd  Gd1  1  0.71490000  0.23143000  0.54502000  1.0
  P  P2  1  0.25015000  0.38519000  0.62225000  1.0
  P  P3  1  0.74985000  0.61481000  0.37775000  1.0
  H  H4  1  0.16140000  0.10604000  0.77580000  1.0
  H  H5  1  0.83860000  0.89397000  0.22420000  1.0
  H  H6  1  0.16387000  0.12614000  0.96281000  1.0
  H  H7  1  0.83613000  0.87386000  0.03719000  1.0
  H  H8  1  0.21032000  0.32022000  0.12099000  1.0
  H  H9  1  0.78967000  0.67977000  0.87901000  1.0
  H  H10  1  0.27388000  0.62776000  0.19971000  1.0
  H  H11  1  0.72611000  0.37224000  0.80029000  1.0
  H  H12  1  0.33649000  0.89878000  0.09653000  1.0
  H  H13  1  0.66351000  0.10122000  0.90348000  1.0
  H  H14  1  0.33802000  0.86980000  0.90839000  1.0
  H  H15  1  0.66198000  0.13020000  0.09161000  1.0
  H  H16  1  0.31276000  0.67608000  0.76741000  1.0
  H  H17  1  0.68725000  0.32393000  0.23259000  1.0
  H  H18  1  0.22878000  0.38880000  0.34307000  1.0
  H  H19  1  0.77122000  0.61120000  0.65693000  1.0
  H  H20  1  0.02255000  0.41787000  0.38385000  1.0
  H  H21  1  0.97745000  0.58214000  0.61615000  1.0
  H  H22  1  0.22803000  0.91899000  0.64657000  1.0
  H  H23  1  0.77197000  0.08100000  0.35343000  1.0
  H  H24  1  0.10730000  0.03777000  0.57922000  1.0
  H  H25  1  0.89270000  0.96222000  0.42078000  1.0
  C  C26  1  0.23808000  0.39538000  0.75956000  1.0
  C  C27  1  0.76193000  0.60463000  0.24044000  1.0
  C  C28  1  0.19404000  0.23628000  0.81545000  1.0
  C  C29  1  0.80597000  0.76372000  0.18455000  1.0
  C  C30  1  0.19454000  0.24838000  0.91848000  1.0
  C  C31  1  0.80546000  0.75162000  0.08152000  1.0
  C  C32  1  0.23373000  0.41896000  0.96897000  1.0
  C  C33  1  0.76627000  0.58105000  0.03103000  1.0
  C  C34  1  0.23568000  0.43986000  0.07458000  1.0
  C  C35  1  0.76432000  0.56014000  0.92542000  1.0
  C  C36  1  0.27291000  0.61050000  0.11867000  1.0
  C  C37  1  0.72709000  0.38950000  0.88133000  1.0
  C  C38  1  0.30846000  0.76612000  0.05892000  1.0
  C  C39  1  0.69154000  0.23388000  0.94108000  1.0
  C  C40  1  0.30884000  0.75165000  0.95569000  1.0
  C  C41  1  0.69117000  0.24835000  0.04431000  1.0
  C  C42  1  0.27236000  0.57728000  0.91000000  1.0
  C  C43  1  0.72764000  0.42272000  0.09000000  1.0
  S  S44  1  0.39823000  0.08154000  0.30840000  1.0
  S  S45  1  0.60177000  0.91846000  0.69160000  1.0
  N  N46  1  0.27388000  0.55632000  0.80779000  1.0
  N  N47  1  0.72612000  0.44368000  0.19221000  1.0
  O  O48  1  0.24615000  0.57804000  0.58956000  1.0
  O  O49  1  0.75385000  0.42196000  0.41044000  1.0
  O  O50  1  0.44254000  0.32050000  0.60516000  1.0
  O  O51  1  0.55746000  0.67950000  0.39484000  1.0
  O  O52  1  0.05922000  0.24842000  0.58629000  1.0
  O  O53  1  0.94078000  0.75158000  0.41371000  1.0
  O  O54  1  0.27124000  0.89846000  0.28631000  1.0
  O  O55  1  0.72876000  0.10154000  0.71369000  1.0
  O  O56  1  0.43439000  0.08793000  0.42202000  1.0
  O  O57  1  0.56561000  0.91207000  0.57798000  1.0
  O  O58  1  0.29952000  0.22725000  0.27387000  1.0
  O  O59  1  0.70047000  0.77275000  0.72612000  1.0
  O  O60  1  0.59653000  0.09967000  0.26131000  1.0
  O  O61  1  0.40347000  0.90033000  0.73869000  1.0
  O  O62  1  0.15910000  0.48200000  0.36916000  1.0
  O  O63  1  0.84090000  0.51800000  0.63084000  1.0
  O  O64  1  0.13864000  0.91459000  0.58470000  1.0
  O  O65  1  0.86136000  0.08541000  0.41530000  1.0
