# generated using pymatgen
data_AlH6(C6O5)2
_symmetry_space_group_name_H-M   'P 1'
_cell_length_a   6.66180000
_cell_length_b   10.99480208
_cell_length_c   11.04720000
_cell_angle_alpha   89.24740700
_cell_angle_beta   72.66530000
_cell_angle_gamma   74.11473554
_symmetry_Int_Tables_number   1
_chemical_formula_structural   AlH6(C6O5)2
_chemical_formula_sum   'Al2 H12 C24 O20'
_cell_volume   740.84038420
_cell_formula_units_Z   2
loop_
 _symmetry_equiv_pos_site_id
 _symmetry_equiv_pos_as_xyz
  1  'x, y, z'
loop_
 _atom_site_type_symbol
 _atom_site_label
 _atom_site_symmetry_multiplicity
 _atom_site_fract_x
 _atom_site_fract_y
 _atom_site_fract_z
 _atom_site_occupancy
  Al  Al0  1  0.99608000  0.51117000  0.49173000  1.0
  Al  Al1  1  0.49207000  0.51098000  0.49334000  1.0
  H  H2  1  0.35683000  0.35805000  0.41074000  1.0
  H  H3  1  0.66176000  0.66907000  0.51053000  1.0
  H  H4  1  0.71761000  0.55550000  0.87561000  1.0
  H  H5  1  0.26656000  0.46164000  0.11093000  1.0
  H  H6  1  0.51440000  0.23799000  0.69105000  1.0
  H  H7  1  0.80170000  0.76818000  0.66292000  1.0
  H  H8  1  0.53195000  0.53909000  0.20760000  1.0
  H  H9  1  0.45530000  0.46922000  0.77854000  1.0
  H  H10  1  0.33100000  0.85265000  0.19022000  1.0
  H  H11  1  0.11440000  0.15977000  0.22023000  1.0
  H  H12  1  0.37906000  0.19574000  0.95599000  1.0
  H  H13  1  0.51015000  0.71227000  0.72732000  1.0
  C  C14  1  0.84144000  0.28694000  0.51506000  1.0
  C  C15  1  0.85846000  0.50026000  0.26327000  1.0
  C  C16  1  0.14073000  0.73687000  0.47681000  1.0
  C  C17  1  0.12773000  0.52222000  0.72315000  1.0
  C  C18  1  0.92414000  0.50412000  0.12469000  1.0
  C  C19  1  0.06098000  0.51386000  0.86117000  1.0
  C  C20  1  0.76592000  0.52945000  0.05792000  1.0
  C  C21  1  0.21945000  0.48325000  0.92775000  1.0
  C  C22  1  0.83786000  0.53537000  0.92676000  1.0
  C  C23  1  0.14713000  0.48142000  0.05914000  1.0
  C  C24  1  0.91509000  0.14489000  0.51032000  1.0
  C  C25  1  0.78118000  0.07557000  0.59020000  1.0
  C  C26  1  0.12086000  0.08207000  0.42745000  1.0
  C  C27  1  0.57789000  0.13512000  0.68366000  1.0
  C  C28  1  0.45913000  0.06503000  0.76416000  1.0
  C  C29  1  0.06556000  0.87845000  0.48927000  1.0
  C  C30  1  0.19812000  0.94750000  0.41689000  1.0
  C  C31  1  0.85940000  0.94012000  0.57961000  1.0
  C  C32  1  0.73551000  0.87060000  0.66506000  1.0
  C  C33  1  0.53999000  0.93012000  0.75558000  1.0
  C  C34  1  0.43043000  0.88175000  0.33581000  1.0
  C  C35  1  0.26822000  0.15438000  0.34619000  1.0
  C  C36  1  0.23582000  0.12921000  0.85483000  1.0
  C  C37  1  0.42397000  0.85623000  0.85366000  1.0
  O  O38  1  0.97605000  0.34439000  0.52794000  1.0
  O  O39  1  0.65286000  0.51271000  0.32043000  1.0
  O  O40  1  0.32735000  0.68419000  0.48988000  1.0
  O  O41  1  0.98459000  0.54352000  0.66460000  1.0
  O  O42  1  0.01006000  0.68026000  0.45717000  1.0
  O  O43  1  0.33404000  0.50944000  0.66714000  1.0
  O  O44  1  0.65466000  0.33948000  0.50255000  1.0
  O  O45  1  0.00203000  0.48358000  0.32071000  1.0
  O  O46  1  0.29902000  0.44805000  0.44076000  1.0
  O  O47  1  0.68507000  0.58494000  0.54337000  1.0
  O  O48  1  0.54884000  0.54907000  0.11574000  1.0
  O  O49  1  0.43891000  0.45130000  0.86885000  1.0
  O  O50  1  0.46373000  0.83605000  0.21647000  1.0
  O  O51  1  0.58468000  0.87046000  0.37675000  1.0
  O  O52  1  0.23382000  0.18790000  0.23392000  1.0
  O  O53  1  0.41534000  0.18010000  0.37513000  1.0
  O  O54  1  0.23025000  0.20013000  0.95602000  1.0
  O  O55  1  0.06753000  0.12180000  0.83753000  1.0
  O  O56  1  0.43023000  0.73790000  0.81774000  1.0
  O  O57  1  0.32942000  0.89938000  0.96381000  1.0
