# generated using pymatgen
data_SnH20C14(NO3)2
_symmetry_space_group_name_H-M   'P 1'
_cell_length_a   7.79592000
_cell_length_b   7.82961000
_cell_length_c   14.18020000
_cell_angle_alpha   88.38500000
_cell_angle_beta   82.97350000
_cell_angle_gamma   75.77680000
_symmetry_Int_Tables_number   1
_chemical_formula_structural   SnH20C14(NO3)2
_chemical_formula_sum   'Sn2 H40 C28 N4 O12'
_cell_volume   832.71010126
_cell_formula_units_Z   2
loop_
 _symmetry_equiv_pos_site_id
 _symmetry_equiv_pos_as_xyz
  1  'x, y, z'
loop_
 _atom_site_type_symbol
 _atom_site_label
 _atom_site_symmetry_multiplicity
 _atom_site_fract_x
 _atom_site_fract_y
 _atom_site_fract_z
 _atom_site_occupancy
  Sn  Sn0  1  0.89774000  0.43912000  0.18348000  1.0
  Sn  Sn1  1  0.52085000  0.03903000  0.10981000  1.0
  H  H2  1  0.33029000  0.99561000  0.36870000  1.0
  H  H3  1  0.27809000  0.86096000  0.28523000  1.0
  H  H4  1  0.95821000  0.92647000  0.36769000  1.0
  H  H5  1  0.12084000  0.80443000  0.43633000  1.0
  H  H6  1  0.76709000  0.13271000  0.44527000  1.0
  H  H7  1  0.94935000  0.23087000  0.66307000  1.0
  H  H8  1  0.44335000  0.58276000  0.76376000  1.0
  H  H9  1  0.32011000  0.52661000  0.62035000  1.0
  H  H10  1  0.23356000  0.35072000  0.50875000  1.0
  H  H11  1  0.32270000  0.35026000  0.38583000  1.0
  H  H12  1  0.31296000  0.53621000  0.45870000  1.0
  H  H13  1  0.89123000  0.32625000  0.00383000  1.0
  H  H14  1  0.94805000  0.14044000  0.08031000  1.0
  H  H15  1  0.11258000  0.25503000  0.03606000  1.0
  H  H16  1  0.20216000  0.54836000  0.18818000  1.0
  H  H17  1  0.07572000  0.56917000  0.30354000  1.0
  H  H18  1  0.01208000  0.73166000  0.21469000  1.0
  H  H19  1  0.55649000  0.40289000  0.21426000  1.0
  H  H20  1  0.56567000  0.61335000  0.25608000  1.0
  H  H21  1  0.63904000  0.42147000  0.32528000  1.0
  H  H22  1  0.11946000  0.65284000  0.01963000  1.0
  H  H23  1  0.01780000  0.56270000  0.93535000  1.0
  H  H24  1  0.04681000  0.94622000  0.91956000  1.0
  H  H25  1  0.23310000  0.77225000  0.87810000  1.0
  H  H26  1  0.77439000  0.93824000  0.85802000  1.0
  H  H27  1  0.94148000  0.70829000  0.62729000  1.0
  H  H28  1  0.42906000  0.88957000  0.52304000  1.0
  H  H29  1  0.31029000  0.05457000  0.66972000  1.0
  H  H30  1  0.29933000  0.27518000  0.77447000  1.0
  H  H31  1  0.30465000  0.23443000  0.89904000  1.0
  H  H32  1  0.22670000  0.09059000  0.82796000  1.0
  H  H33  1  0.55317000  0.25460000  0.95912000  1.0
  H  H34  1  0.57931000  0.36329000  0.06254000  1.0
  H  H35  1  0.36142000  0.35889000  0.03929000  1.0
  H  H36  1  0.35431000  0.76959000  0.12594000  1.0
  H  H37  1  0.44696000  0.78784000  0.00584000  1.0
  H  H38  1  0.24130000  0.93856000  0.05165000  1.0
  H  H39  1  0.60689000  0.11000000  0.28085000  1.0
  H  H40  1  0.80569000  0.00496000  0.20789000  1.0
  H  H41  1  0.66385000  0.87562000  0.26551000  1.0
  C  C42  1  0.15723000  0.13398000  0.27076000  1.0
  C  C43  1  0.21986000  0.97476000  0.33263000  1.0
  C  C44  1  0.07234000  0.93413000  0.40420000  1.0
  C  C45  1  0.01679000  0.06469000  0.48603000  1.0
  C  C46  1  0.74475000  0.26211000  0.57062000  1.0
  C  C47  1  0.81271000  0.29356000  0.65289000  1.0
  C  C48  1  0.70215000  0.40829000  0.72161000  1.0
  C  C49  1  0.52628000  0.49230000  0.71027000  1.0
  C  C50  1  0.45745000  0.46050000  0.62840000  1.0
  C  C51  1  0.56467000  0.34665000  0.55861000  1.0
  C  C52  1  0.33241000  0.39246000  0.45745000  1.0
  C  C53  1  0.97104000  0.27013000  0.06071000  1.0
  C  C54  1  0.06881000  0.59163000  0.22731000  1.0
  C  C55  1  0.63164000  0.47280000  0.25300000  1.0
  C  C56  1  0.84354000  0.76521000  0.02274000  1.0
  C  C57  1  0.02341000  0.68758000  0.96711000  1.0
  C  C58  1  0.08733000  0.81056000  0.89204000  1.0
  C  C59  1  0.01833000  0.80107000  0.79719000  1.0
  C  C60  1  0.73900000  0.87925000  0.72136000  1.0
  C  C61  1  0.80428000  0.78425000  0.63758000  1.0
  C  C62  1  0.69200000  0.78925000  0.56738000  1.0
  C  C63  1  0.51525000  0.88640000  0.57800000  1.0
  C  C64  1  0.44856000  0.98013000  0.66162000  1.0
  C  C65  1  0.55772000  0.97813000  0.73321000  1.0
  C  C66  1  0.32141000  0.17305000  0.82929000  1.0
  C  C67  1  0.50071000  0.28347000  0.03368000  1.0
  C  C68  1  0.37177000  0.86218000  0.06828000  1.0
  C  C69  1  0.66715000  0.00163000  0.23083000  1.0
  N  N70  1  0.83938000  0.14806000  0.49804000  1.0
  N  N71  1  0.77440000  0.44219000  0.80678000  1.0
  N  N72  1  0.84112000  0.88184000  0.79545000  1.0
  N  N73  1  0.76252000  0.68894000  0.48113000  1.0
  O  O74  1  0.99223000  0.21448000  0.28435000  1.0
  O  O75  1  0.26686000  0.18317000  0.20859000  1.0
  O  O76  1  0.12485000  0.08852000  0.53841000  1.0
  O  O77  1  0.67806000  0.54968000  0.86629000  1.0
  O  O78  1  0.93081000  0.36231000  0.81715000  1.0
  O  O79  1  0.51074000  0.30703000  0.47652000  1.0
  O  O80  1  0.76220000  0.92381000  0.00324000  1.0
  O  O81  1  0.77869000  0.67767000  0.08788000  1.0
  O  O82  1  0.11671000  0.72322000  0.72832000  1.0
  O  O83  1  0.66553000  0.70344000  0.41597000  1.0
  O  O84  1  0.91708000  0.59251000  0.47486000  1.0
  O  O85  1  0.50230000  0.06763000  0.81622000  1.0
