# generated using pymatgen
data_CuH11C17NO4
_symmetry_space_group_name_H-M   'P 1'
_cell_length_a   18.44560000
_cell_length_b   18.47130000
_cell_length_c   18.47130000
_cell_angle_alpha   109.49800000
_cell_angle_beta   109.44400000
_cell_angle_gamma   109.44500000
_symmetry_Int_Tables_number   1
_chemical_formula_structural   CuH11C17NO4
_chemical_formula_sum   'Cu12 H132 C204 N12 O48'
_cell_volume   4846.28046979
_cell_formula_units_Z   12
loop_
 _symmetry_equiv_pos_site_id
 _symmetry_equiv_pos_as_xyz
  1  'x, y, z'
loop_
 _atom_site_type_symbol
 _atom_site_label
 _atom_site_symmetry_multiplicity
 _atom_site_fract_x
 _atom_site_fract_y
 _atom_site_fract_z
 _atom_site_occupancy
  Cu  Cu0  1  0.44739000  0.50598000  0.93653000  1.0
  Cu  Cu1  1  0.94142000  0.43056000  0.49403000  1.0
  Cu  Cu2  1  0.51086000  0.06348000  0.56944000  1.0
  Cu  Cu3  1  0.98913000  0.43055000  0.93652000  1.0
  Cu  Cu4  1  0.05261000  0.06346000  0.49402000  1.0
  Cu  Cu5  1  0.55858000  0.50597000  0.56944000  1.0
  Cu  Cu6  1  0.55261000  0.49402000  0.06347000  1.0
  Cu  Cu7  1  0.05858000  0.56944000  0.50597000  1.0
  Cu  Cu8  1  0.48913000  0.93651000  0.43055000  1.0
  Cu  Cu9  1  0.01087000  0.56945000  0.06348000  1.0
  Cu  Cu10  1  0.94739000  0.93653000  0.50598000  1.0
  Cu  Cu11  1  0.44142000  0.49403000  0.43055000  1.0
  H  H12  1  0.26526000  0.47021000  0.88458000  1.0
  H  H13  1  0.49105000  0.57543000  0.82855000  1.0
  H  H14  1  0.15434000  0.51248000  0.81979000  1.0
  H  H15  1  0.52784000  0.66531000  0.75814000  1.0
  H  H16  1  0.28847000  0.67964000  0.70374000  1.0
  H  H17  1  0.18872000  0.60551000  0.74950000  1.0
  H  H18  1  0.42835000  0.71895000  0.69740000  1.0
  H  H19  1  0.50196000  0.62730000  0.27936000  1.0
  H  H20  1  0.37066000  0.22980000  0.00061000  1.0
  H  H21  1  0.79505000  0.41437000  0.52978000  1.0
  H  H22  1  0.91561000  0.25312000  0.42457000  1.0
  H  H23  1  0.64187000  0.30731000  0.48753000  1.0
  H  H24  1  0.86250000  0.09282000  0.33469000  1.0
  H  H25  1  0.60881000  0.02410000  0.32038000  1.0
  H  H26  1  0.58321000  0.14399000  0.39450000  1.0
  H  H27  1  0.70938000  0.97845000  0.28106000  1.0
  H  H28  1  0.87466000  0.65206000  0.37270000  1.0
  H  H29  1  0.14087000  0.77082000  0.77021000  1.0
  H  H30  1  0.38067000  0.11542000  0.58562000  1.0
  H  H31  1  0.66251000  0.17147000  0.74689000  1.0
  H  H32  1  0.33455000  0.18020000  0.69268000  1.0
  H  H33  1  0.76971000  0.24190000  0.90719000  1.0
  H  H34  1  0.58472000  0.29626000  0.97590000  1.0
  H  H35  1  0.43921000  0.25049000  0.85600000  1.0
  H  H36  1  0.73094000  0.30262000  0.02156000  1.0
  H  H37  1  0.22259000  0.72064000  0.34795000  1.0
  H  H38  1  0.37005000  0.99940000  0.22918000  1.0
  H  H39  1  0.11933000  0.41438000  0.88459000  1.0
  H  H40  1  0.83749000  0.25311000  0.82852000  1.0
  H  H41  1  0.16545000  0.30732000  0.81980000  1.0
  H  H42  1  0.73029000  0.09281000  0.75810000  1.0
  H  H43  1  0.91528000  0.02410000  0.70374000  1.0
  H  H44  1  0.06079000  0.14400000  0.74951000  1.0
  H  H45  1  0.76905000  0.97844000  0.69738000  1.0
  H  H46  1  0.27741000  0.65206000  0.27936000  1.0
  H  H47  1  0.12995000  0.77082000  0.00060000  1.0
  H  H48  1  0.23474000  0.11541000  0.52978000  1.0
  H  H49  1  0.00895000  0.17144000  0.42457000  1.0
  H  H50  1  0.34565000  0.18021000  0.48752000  1.0
  H  H51  1  0.97216000  0.24186000  0.33468000  1.0
  H  H52  1  0.21154000  0.29627000  0.32036000  1.0
  H  H53  1  0.31128000  0.25050000  0.39449000  1.0
  H  H54  1  0.07166000  0.30260000  0.28105000  1.0
  H  H55  1  0.99803000  0.72064000  0.37270000  1.0
  H  H56  1  0.12934000  0.99939000  0.77021000  1.0
  H  H57  1  0.70496000  0.47023000  0.58563000  1.0
  H  H58  1  0.58439000  0.57543000  0.74688000  1.0
  H  H59  1  0.85814000  0.51248000  0.69269000  1.0
  H  H60  1  0.63750000  0.66531000  0.90719000  1.0
  H  H61  1  0.89119000  0.67962000  0.97591000  1.0
  H  H62  1  0.91679000  0.60550000  0.85601000  1.0
  H  H63  1  0.79062000  0.71893000  0.02155000  1.0
  H  H64  1  0.62535000  0.62730000  0.34795000  1.0
  H  H65  1  0.35913000  0.22979000  0.22919000  1.0
  H  H66  1  0.73474000  0.52978000  0.11541000  1.0
  H  H67  1  0.50895000  0.42457000  0.17145000  1.0
  H  H68  1  0.84565000  0.48752000  0.18021000  1.0
  H  H69  1  0.47216000  0.33468000  0.24186000  1.0
  H  H70  1  0.71153000  0.32036000  0.29626000  1.0
  H  H71  1  0.81127000  0.39449000  0.25050000  1.0
  H  H72  1  0.57165000  0.28105000  0.30260000  1.0
  H  H73  1  0.49803000  0.37270000  0.72064000  1.0
  H  H74  1  0.62934000  0.77021000  0.99939000  1.0
  H  H75  1  0.20496000  0.58563000  0.47022000  1.0
  H  H76  1  0.08439000  0.74688000  0.57543000  1.0
  H  H77  1  0.35814000  0.69269000  0.51248000  1.0
  H  H78  1  0.13751000  0.90719000  0.66531000  1.0
  H  H79  1  0.39120000  0.97591000  0.67962000  1.0
  H  H80  1  0.41680000  0.85601000  0.60550000  1.0
  H  H81  1  0.29063000  0.02155000  0.71893000  1.0
  H  H82  1  0.12534000  0.34795000  0.62730000  1.0
  H  H83  1  0.85913000  0.22919000  0.22979000  1.0
  H  H84  1  0.61932000  0.88458000  0.41438000  1.0
  H  H85  1  0.33749000  0.82852000  0.25311000  1.0
  H  H86  1  0.66545000  0.81980000  0.30732000  1.0
  H  H87  1  0.23029000  0.75810000  0.09280000  1.0
  H  H88  1  0.41528000  0.70373000  0.02410000  1.0
  H  H89  1  0.56079000  0.74951000  0.14400000  1.0
  H  H90  1  0.26905000  0.69738000  0.97844000  1.0
  H  H91  1  0.77741000  0.27936000  0.65205000  1.0
  H  H92  1  0.62994000  0.00060000  0.77081000  1.0
  H  H93  1  0.88067000  0.58562000  0.11542000  1.0
  H  H94  1  0.16251000  0.74689000  0.17148000  1.0
  H  H95  1  0.83455000  0.69267000  0.18020000  1.0
  H  H96  1  0.26971000  0.90719000  0.24190000  1.0
  H  H97  1  0.08472000  0.97590000  0.29626000  1.0
  H  H98  1  0.93921000  0.85599000  0.25049000  1.0
  H  H99  1  0.23094000  0.02155000  0.30262000  1.0
  H  H100  1  0.72260000  0.34795000  0.72065000  1.0
  H  H101  1  0.87006000  0.22919000  0.99940000  1.0
  H  H102  1  0.76526000  0.88459000  0.47022000  1.0
  H  H103  1  0.99105000  0.82855000  0.57543000  1.0
  H  H104  1  0.65435000  0.81979000  0.51248000  1.0
  H  H105  1  0.02784000  0.75814000  0.66532000  1.0
  H  H106  1  0.78846000  0.70374000  0.67964000  1.0
  H  H107  1  0.68873000  0.74950000  0.60551000  1.0
  H  H108  1  0.92834000  0.69740000  0.71895000  1.0
  H  H109  1  0.00197000  0.27936000  0.62730000  1.0
  H  H110  1  0.87066000  0.00061000  0.22979000  1.0
  H  H111  1  0.29505000  0.52978000  0.41438000  1.0
  H  H112  1  0.41561000  0.42457000  0.25312000  1.0
  H  H113  1  0.14187000  0.48753000  0.30732000  1.0
  H  H114  1  0.36250000  0.33469000  0.09282000  1.0
  H  H115  1  0.10881000  0.32038000  0.02410000  1.0
  H  H116  1  0.08321000  0.39450000  0.14400000  1.0
  H  H117  1  0.20938000  0.28107000  0.97845000  1.0
  H  H118  1  0.37465000  0.37269000  0.65205000  1.0
  H  H119  1  0.64087000  0.77021000  0.77081000  1.0
  H  H120  1  0.26647000  0.51647000  0.03295000  1.0
  H  H121  1  0.43113000  0.68111000  0.36223000  1.0
  H  H122  1  0.75001000  0.51648000  0.48353000  1.0
  H  H123  1  0.75000000  0.68112000  0.31889000  1.0
  H  H124  1  0.23353000  0.96705000  0.48353000  1.0
  H  H125  1  0.06887000  0.63777000  0.31889000  1.0
  H  H126  1  0.73353000  0.48354000  0.96706000  1.0
  H  H127  1  0.56888000  0.31889000  0.63777000  1.0
  H  H128  1  0.25001000  0.48353000  0.51648000  1.0
  H  H129  1  0.24999000  0.31888000  0.68111000  1.0
  H  H130  1  0.76647000  0.03294000  0.51646000  1.0
  H  H131  1  0.93113000  0.36223000  0.68111000  1.0
  H  H132  1  0.25000000  0.23761000  0.76239000  1.0
  H  H133  1  0.25000000  0.07294000  0.92707000  1.0
  H  H134  1  0.01239000  0.52479000  0.76239000  1.0
  H  H135  1  0.17706000  0.85413000  0.92706000  1.0
  H  H136  1  0.48760000  0.23760000  0.47521000  1.0
  H  H137  1  0.32293000  0.07294000  0.14587000  1.0
  H  H138  1  0.75000000  0.76239000  0.23761000  1.0
  H  H139  1  0.75000000  0.92707000  0.07293000  1.0
  H  H140  1  0.98761000  0.47522000  0.23761000  1.0
  H  H141  1  0.82294000  0.14587000  0.07294000  1.0
  H  H142  1  0.51239000  0.76239000  0.52478000  1.0
  H  H143  1  0.67706000  0.92706000  0.85413000  1.0
  C  C144  1  0.37100000  0.57948000  0.80989000  1.0
  C  C145  1  0.27674000  0.50843000  0.85152000  1.0
  C  C146  1  0.44900000  0.60089000  0.80360000  1.0
  C  C147  1  0.31259000  0.60868000  0.77312000  1.0
  C  C148  1  0.21483000  0.53297000  0.81569000  1.0
  C  C149  1  0.46851000  0.65048000  0.76409000  1.0
  C  C150  1  0.33455000  0.65949000  0.73282000  1.0
  C  C151  1  0.23356000  0.58383000  0.77730000  1.0
  C  C152  1  0.41163000  0.68043000  0.72888000  1.0
  C  C153  1  0.43423000  0.54645000  0.10010000  1.0
  C  C154  1  0.38988000  0.57151000  0.15103000  1.0
  C  C155  1  0.43512000  0.61552000  0.24393000  1.0
  C  C156  1  0.38241000  0.33950000  0.93011000  1.0
  C  C157  1  0.31503000  0.24418000  0.88706000  1.0
  C  C158  1  0.31697000  0.19691000  0.93267000  1.0
  C  C159  1  0.79151000  0.23041000  0.42053000  1.0
  C  C160  1  0.76831000  0.34310000  0.49158000  1.0
  C  C161  1  0.84810000  0.20271000  0.39911000  1.0
  C  C162  1  0.70390000  0.16444000  0.39133000  1.0
  C  C163  1  0.68187000  0.28273000  0.46704000  1.0
  C  C164  1  0.81802000  0.11362000  0.34953000  1.0
  C  C165  1  0.67504000  0.07333000  0.34052000  1.0
  C  C166  1  0.64973000  0.19347000  0.41619000  1.0
  C  C167  1  0.73118000  0.04844000  0.31958000  1.0
  C  C168  1  0.88778000  0.55365000  0.45355000  1.0
  C  C169  1  0.81836000  0.57952000  0.42849000  1.0
  C  C170  1  0.81960000  0.62841000  0.38448000  1.0
  C  C171  1  0.04292000  0.59061000  0.66050000  1.0
  C  C172  1  0.07085000  0.64288000  0.75582000  1.0
  C  C173  1  0.12006000  0.73576000  0.80309000  1.0
  C  C174  1  0.56111000  0.19013000  0.76960000  1.0
  C  C175  1  0.42522000  0.14848000  0.65690000  1.0
  C  C176  1  0.64541000  0.19642000  0.79730000  1.0
  C  C177  1  0.53947000  0.22690000  0.83556000  1.0
  C  C178  1  0.39913000  0.18431000  0.71726000  1.0
  C  C179  1  0.70442000  0.23593000  0.88639000  1.0
  C  C180  1  0.60172000  0.26719000  0.92667000  1.0
  C  C181  1  0.45625000  0.22270000  0.80652000  1.0
  C  C182  1  0.68275000  0.27115000  0.95157000  1.0
  C  C183  1  0.33412000  0.89990000  0.44635000  1.0
  C  C184  1  0.23883000  0.84897000  0.42048000  1.0
  C  C185  1  0.19117000  0.75607000  0.37159000  1.0
  C  C186  1  0.45231000  0.06989000  0.40939000  1.0
  C  C187  1  0.42797000  0.11294000  0.35712000  1.0
  C  C188  1  0.38430000  0.06734000  0.26424000  1.0
  C  C189  1  0.93889000  0.23040000  0.80987000  1.0
  C  C190  1  0.07478000  0.34310000  0.85152000  1.0
  C  C191  1  0.85459000  0.20270000  0.80357000  1.0
  C  C192  1  0.96053000  0.16444000  0.77311000  1.0
  C  C193  1  0.10086000  0.28274000  0.81570000  1.0
  C  C194  1  0.79558000  0.11361000  0.76406000  1.0
  C  C195  1  0.89828000  0.07333000  0.73281000  1.0
  C  C196  1  0.04375000  0.19348000  0.77730000  1.0
  C  C197  1  0.81725000  0.04844000  0.72886000  1.0
  C  C198  1  0.16587000  0.55364000  0.10009000  1.0
  C  C199  1  0.26116000  0.57952000  0.15103000  1.0
  C  C200  1  0.30883000  0.62841000  0.24393000  1.0
  C  C201  1  0.04769000  0.59060000  0.93010000  1.0
  C  C202  1  0.07203000  0.64288000  0.88706000  1.0
  C  C203  1  0.11570000  0.73576000  0.93267000  1.0
  C  C204  1  0.12900000  0.19011000  0.42051000  1.0
  C  C205  1  0.22326000  0.14848000  0.49157000  1.0
  C  C206  1  0.05100000  0.19640000  0.39911000  1.0
  C  C207  1  0.18741000  0.22688000  0.39132000  1.0
  C  C208  1  0.28516000  0.18430000  0.46703000  1.0
  C  C209  1  0.03149000  0.23591000  0.34952000  1.0
  C  C210  1  0.16545000  0.26718000  0.34051000  1.0
  C  C211  1  0.26644000  0.22270000  0.41617000  1.0
  C  C212  1  0.08838000  0.27113000  0.31957000  1.0
  C  C213  1  0.06577000  0.89990000  0.45355000  1.0
  C  C214  1  0.11012000  0.84897000  0.42849000  1.0
  C  C215  1  0.06488000  0.75607000  0.38448000  1.0
  C  C216  1  0.11758000  0.06989000  0.66050000  1.0
  C  C217  1  0.18497000  0.11294000  0.75582000  1.0
  C  C218  1  0.18303000  0.06733000  0.80309000  1.0
  C  C219  1  0.70850000  0.57947000  0.76960000  1.0
  C  C220  1  0.73169000  0.50843000  0.65691000  1.0
  C  C221  1  0.65190000  0.60088000  0.79730000  1.0
  C  C222  1  0.79610000  0.60867000  0.83557000  1.0
  C  C223  1  0.81814000  0.53297000  0.71728000  1.0
  C  C224  1  0.68198000  0.65046000  0.88639000  1.0
  C  C225  1  0.82496000  0.65947000  0.92668000  1.0
  C  C226  1  0.85028000  0.58382000  0.80653000  1.0
  C  C227  1  0.76883000  0.68041000  0.95156000  1.0
  C  C228  1  0.61223000  0.54645000  0.44636000  1.0
  C  C229  1  0.68164000  0.57151000  0.42048000  1.0
  C  C230  1  0.68041000  0.61552000  0.37159000  1.0
  C  C231  1  0.45708000  0.33950000  0.40940000  1.0
  C  C232  1  0.42915000  0.24418000  0.35712000  1.0
  C  C233  1  0.37994000  0.19691000  0.26424000  1.0
  C  C234  1  0.62900000  0.42051000  0.19011000  1.0
  C  C235  1  0.72326000  0.49157000  0.14848000  1.0
  C  C236  1  0.55100000  0.39911000  0.19640000  1.0
  C  C237  1  0.68741000  0.39132000  0.22688000  1.0
  C  C238  1  0.78516000  0.46703000  0.18430000  1.0
  C  C239  1  0.53149000  0.34952000  0.23591000  1.0
  C  C240  1  0.66545000  0.34051000  0.26718000  1.0
  C  C241  1  0.76644000  0.41617000  0.22270000  1.0
  C  C242  1  0.58837000  0.31957000  0.27113000  1.0
  C  C243  1  0.56577000  0.45354000  0.89990000  1.0
  C  C244  1  0.61012000  0.42849000  0.84897000  1.0
  C  C245  1  0.56488000  0.38448000  0.75607000  1.0
  C  C246  1  0.61758000  0.66050000  0.06989000  1.0
  C  C247  1  0.68497000  0.75582000  0.11294000  1.0
  C  C248  1  0.68303000  0.80309000  0.06733000  1.0
  C  C249  1  0.20850000  0.76960000  0.57947000  1.0
  C  C250  1  0.23169000  0.65691000  0.50843000  1.0
  C  C251  1  0.15190000  0.79730000  0.60088000  1.0
  C  C252  1  0.29610000  0.83557000  0.60867000  1.0
  C  C253  1  0.31814000  0.71727000  0.53296000  1.0
  C  C254  1  0.18199000  0.88639000  0.65047000  1.0
  C  C255  1  0.32496000  0.92668000  0.65947000  1.0
  C  C256  1  0.35028000  0.80653000  0.58382000  1.0
  C  C257  1  0.26883000  0.95156000  0.68042000  1.0
  C  C258  1  0.11223000  0.44636000  0.54645000  1.0
  C  C259  1  0.18164000  0.42048000  0.57151000  1.0
  C  C260  1  0.18040000  0.37159000  0.61552000  1.0
  C  C261  1  0.95709000  0.40940000  0.33950000  1.0
  C  C262  1  0.92915000  0.35713000  0.24418000  1.0
  C  C263  1  0.87994000  0.26425000  0.19691000  1.0
  C  C264  1  0.43889000  0.80987000  0.23040000  1.0
  C  C265  1  0.57478000  0.85151000  0.34310000  1.0
  C  C266  1  0.35459000  0.80357000  0.20270000  1.0
  C  C267  1  0.46053000  0.77310000  0.16444000  1.0
  C  C268  1  0.60086000  0.81569000  0.28273000  1.0
  C  C269  1  0.29557000  0.76406000  0.11360000  1.0
  C  C270  1  0.39828000  0.73281000  0.07333000  1.0
  C  C271  1  0.54375000  0.77730000  0.19348000  1.0
  C  C272  1  0.31725000  0.72885000  0.04843000  1.0
  C  C273  1  0.66587000  0.10009000  0.55364000  1.0
  C  C274  1  0.76116000  0.15103000  0.57952000  1.0
  C  C275  1  0.80883000  0.24393000  0.62841000  1.0
  C  C276  1  0.54769000  0.93010000  0.59060000  1.0
  C  C277  1  0.57203000  0.88706000  0.64288000  1.0
  C  C278  1  0.61570000  0.93266000  0.73575000  1.0
  C  C279  1  0.06111000  0.76960000  0.19013000  1.0
  C  C280  1  0.92522000  0.65690000  0.14848000  1.0
  C  C281  1  0.14541000  0.79730000  0.19642000  1.0
  C  C282  1  0.03947000  0.83556000  0.22689000  1.0
  C  C283  1  0.89913000  0.71726000  0.18431000  1.0
  C  C284  1  0.20442000  0.88639000  0.23594000  1.0
  C  C285  1  0.10172000  0.92667000  0.26719000  1.0
  C  C286  1  0.95625000  0.80652000  0.22270000  1.0
  C  C287  1  0.18275000  0.95156000  0.27114000  1.0
  C  C288  1  0.83413000  0.44636000  0.89991000  1.0
  C  C289  1  0.73884000  0.42048000  0.84897000  1.0
  C  C290  1  0.69117000  0.37159000  0.75607000  1.0
  C  C291  1  0.95231000  0.40939000  0.06989000  1.0
  C  C292  1  0.92797000  0.35712000  0.11294000  1.0
  C  C293  1  0.88431000  0.26424000  0.06734000  1.0
  C  C294  1  0.87100000  0.80989000  0.57948000  1.0
  C  C295  1  0.77674000  0.85152000  0.50843000  1.0
  C  C296  1  0.94900000  0.80360000  0.60089000  1.0
  C  C297  1  0.81259000  0.77311000  0.60868000  1.0
  C  C298  1  0.71484000  0.81569000  0.53297000  1.0
  C  C299  1  0.96851000  0.76409000  0.65048000  1.0
  C  C300  1  0.83455000  0.73282000  0.65949000  1.0
  C  C301  1  0.73356000  0.77730000  0.58383000  1.0
  C  C302  1  0.91163000  0.72887000  0.68043000  1.0
  C  C303  1  0.93423000  0.10009000  0.54645000  1.0
  C  C304  1  0.88988000  0.15103000  0.57151000  1.0
  C  C305  1  0.93512000  0.24393000  0.61552000  1.0
  C  C306  1  0.88241000  0.93011000  0.33950000  1.0
  C  C307  1  0.81503000  0.88706000  0.24418000  1.0
  C  C308  1  0.81697000  0.93267000  0.19691000  1.0
  C  C309  1  0.29151000  0.42053000  0.23041000  1.0
  C  C310  1  0.26832000  0.49158000  0.34310000  1.0
  C  C311  1  0.34810000  0.39911000  0.20271000  1.0
  C  C312  1  0.20390000  0.39133000  0.16444000  1.0
  C  C313  1  0.18187000  0.46704000  0.28273000  1.0
  C  C314  1  0.31802000  0.34953000  0.11362000  1.0
  C  C315  1  0.17504000  0.34053000  0.07333000  1.0
  C  C316  1  0.14973000  0.41619000  0.19348000  1.0
  C  C317  1  0.23118000  0.31958000  0.04844000  1.0
  C  C318  1  0.38777000  0.45355000  0.55365000  1.0
  C  C319  1  0.31836000  0.42849000  0.57952000  1.0
  C  C320  1  0.31959000  0.38448000  0.62841000  1.0
  C  C321  1  0.54291000  0.66050000  0.59060000  1.0
  C  C322  1  0.57085000  0.75582000  0.64288000  1.0
  C  C323  1  0.62006000  0.80309000  0.73576000  1.0
  C  C324  1  0.30250000  0.55250000  0.10500000  1.0
  C  C325  1  0.39501000  0.64500000  0.29000000  1.0
  C  C326  1  0.75000000  0.55250000  0.44750000  1.0
  C  C327  1  0.75000000  0.64500000  0.35500000  1.0
  C  C328  1  0.19749000  0.89500000  0.44750000  1.0
  C  C329  1  0.10499000  0.71000000  0.35500000  1.0
  C  C330  1  0.69749000  0.44751000  0.89500000  1.0
  C  C331  1  0.60499000  0.35500000  0.71001000  1.0
  C  C332  1  0.25000000  0.44750000  0.55250000  1.0
  C  C333  1  0.25000000  0.35500000  0.64500000  1.0
  C  C334  1  0.80251000  0.10500000  0.55249000  1.0
  C  C335  1  0.89501000  0.28999000  0.64500000  1.0
  C  C336  1  0.25000000  0.20156000  0.79844000  1.0
  C  C337  1  0.25000000  0.10908000  0.89092000  1.0
  C  C338  1  0.04844000  0.59688000  0.79844000  1.0
  C  C339  1  0.14092000  0.78184000  0.89092000  1.0
  C  C340  1  0.45156000  0.20156000  0.40313000  1.0
  C  C341  1  0.35908000  0.10908000  0.21816000  1.0
  C  C342  1  0.75000000  0.79844000  0.20156000  1.0
  C  C343  1  0.75000000  0.89092000  0.10908000  1.0
  C  C344  1  0.95156000  0.40313000  0.20156000  1.0
  C  C345  1  0.85909000  0.21817000  0.10909000  1.0
  C  C346  1  0.54843000  0.79843000  0.59687000  1.0
  C  C347  1  0.64092000  0.89091000  0.78183000  1.0
  N  N348  1  0.35212000  0.53063000  0.84973000  1.0
  N  N349  1  0.82149000  0.31911000  0.46938000  1.0
  N  N350  1  0.50239000  0.15028000  0.68089000  1.0
  N  N351  1  0.99761000  0.31911000  0.84972000  1.0
  N  N352  1  0.14788000  0.15027000  0.46937000  1.0
  N  N353  1  0.67852000  0.53063000  0.68090000  1.0
  N  N354  1  0.64788000  0.46937000  0.15027000  1.0
  N  N355  1  0.17852000  0.68090000  0.53062000  1.0
  N  N356  1  0.49761000  0.84972000  0.31910000  1.0
  N  N357  1  0.00239000  0.68089000  0.15028000  1.0
  N  N358  1  0.85212000  0.84973000  0.53063000  1.0
  N  N359  1  0.32149000  0.46938000  0.31911000  1.0
  O  O360  1  0.40465000  0.54011000  0.02388000  1.0
  O  O361  1  0.36298000  0.38083000  0.89049000  1.0
  O  O362  1  0.45344000  0.37039000  0.00123000  1.0
  O  O363  1  0.49817000  0.53438000  0.13594000  1.0
  O  O364  1  0.86455000  0.48378000  0.45992000  1.0
  O  O365  1  0.98216000  0.50965000  0.61917000  1.0
  O  O366  1  0.08303000  0.63083000  0.62960000  1.0
  O  O367  1  0.96379000  0.60156000  0.46561000  1.0
  O  O368  1  0.38077000  0.97614000  0.51622000  1.0
  O  O369  1  0.47252000  0.10953000  0.49035000  1.0
  O  O370  1  0.45219000  0.99876000  0.36917000  1.0
  O  O371  1  0.36222000  0.86405000  0.39844000  1.0
  O  O372  1  0.11923000  0.48378000  0.02386000  1.0
  O  O373  1  0.02748000  0.50965000  0.89047000  1.0
  O  O374  1  0.04781000  0.63083000  0.00123000  1.0
  O  O375  1  0.13777000  0.60155000  0.13595000  1.0
  O  O376  1  0.09536000  0.97613000  0.45989000  1.0
  O  O377  1  0.13701000  0.10951000  0.61917000  1.0
  O  O378  1  0.04656000  0.99877000  0.62961000  1.0
  O  O379  1  0.00183000  0.86406000  0.46563000  1.0
  O  O380  1  0.63545000  0.54008000  0.51622000  1.0
  O  O381  1  0.51783000  0.38082000  0.49035000  1.0
  O  O382  1  0.41697000  0.37040000  0.36917000  1.0
  O  O383  1  0.53622000  0.53439000  0.39844000  1.0
  O  O384  1  0.59535000  0.45989000  0.97613000  1.0
  O  O385  1  0.63701000  0.61916000  0.10951000  1.0
  O  O386  1  0.54656000  0.62961000  0.99877000  1.0
  O  O387  1  0.50182000  0.46562000  0.86406000  1.0
  O  O388  1  0.13546000  0.51623000  0.54009000  1.0
  O  O389  1  0.01784000  0.49036000  0.38083000  1.0
  O  O390  1  0.91697000  0.36917000  0.37040000  1.0
  O  O391  1  0.03622000  0.39845000  0.53440000  1.0
  O  O392  1  0.61923000  0.02386000  0.48377000  1.0
  O  O393  1  0.52748000  0.89047000  0.50964000  1.0
  O  O394  1  0.54780000  0.00123000  0.63083000  1.0
  O  O395  1  0.63778000  0.13595000  0.60155000  1.0
  O  O396  1  0.88077000  0.51622000  0.97615000  1.0
  O  O397  1  0.97252000  0.49035000  0.10953000  1.0
  O  O398  1  0.95219000  0.36917000  0.99877000  1.0
  O  O399  1  0.86222000  0.39845000  0.86405000  1.0
  O  O400  1  0.90464000  0.02387000  0.54010000  1.0
  O  O401  1  0.86299000  0.89049000  0.38083000  1.0
  O  O402  1  0.95344000  0.00123000  0.37039000  1.0
  O  O403  1  0.99817000  0.13594000  0.53437000  1.0
  O  O404  1  0.36455000  0.45991000  0.48378000  1.0
  O  O405  1  0.48216000  0.61917000  0.50964000  1.0
  O  O406  1  0.58303000  0.62960000  0.63083000  1.0
  O  O407  1  0.46379000  0.46560000  0.60156000  1.0
