# generated using pymatgen
data_ZnH14(C2O)7
_symmetry_space_group_name_H-M   'P 1'
_cell_length_a   8.38201000
_cell_length_b   10.76400000
_cell_length_c   16.18850000
_cell_angle_alpha   89.99970000
_cell_angle_beta   92.53190000
_cell_angle_gamma   89.99990000
_symmetry_Int_Tables_number   1
_chemical_formula_structural   ZnH14(C2O)7
_chemical_formula_sum   'Zn4 H56 C56 O28'
_cell_volume   1459.16464996
_cell_formula_units_Z   4
loop_
 _symmetry_equiv_pos_site_id
 _symmetry_equiv_pos_as_xyz
  1  'x, y, z'
loop_
 _atom_site_type_symbol
 _atom_site_label
 _atom_site_symmetry_multiplicity
 _atom_site_fract_x
 _atom_site_fract_y
 _atom_site_fract_z
 _atom_site_occupancy
  Zn  Zn0  1  0.79919000  0.71037000  0.27192000  1.0
  Zn  Zn1  1  0.70081000  0.21038000  0.72808000  1.0
  Zn  Zn2  1  0.20081000  0.28962000  0.72808000  1.0
  Zn  Zn3  1  0.29919000  0.78962000  0.27192000  1.0
  H  H4  1  0.96476000  0.87286000  0.19206000  1.0
  H  H5  1  0.53524000  0.37286000  0.80794000  1.0
  H  H6  1  0.03524000  0.12714000  0.80794000  1.0
  H  H7  1  0.46475000  0.62714000  0.19206000  1.0
  H  H8  1  0.78440000  0.92887000  0.19163000  1.0
  H  H9  1  0.71560000  0.42887000  0.80838000  1.0
  H  H10  1  0.21561000  0.07113000  0.80837000  1.0
  H  H11  1  0.28439000  0.57113000  0.19163000  1.0
  H  H12  1  0.56776000  0.72468000  0.01676000  1.0
  H  H13  1  0.93225000  0.22469000  0.98324000  1.0
  H  H14  1  0.43223000  0.27532000  0.98324000  1.0
  H  H15  1  0.06777000  0.77532000  0.01675000  1.0
  H  H16  1  0.65635000  0.16615000  0.04987000  1.0
  H  H17  1  0.84365000  0.66615000  0.95013000  1.0
  H  H18  1  0.34365000  0.83385000  0.95013000  1.0
  H  H19  1  0.15635000  0.33385000  0.04987000  1.0
  H  H20  1  0.48622000  0.18278000  0.11173000  1.0
  H  H21  1  0.01378000  0.68279000  0.88827000  1.0
  H  H22  1  0.51378000  0.81721000  0.88826000  1.0
  H  H23  1  0.98622000  0.31721000  0.11174000  1.0
  H  H24  1  0.83385000  0.17731000  0.18663000  1.0
  H  H25  1  0.66615000  0.67732000  0.81337000  1.0
  H  H26  1  0.16615000  0.82268000  0.81336000  1.0
  H  H27  1  0.33386000  0.32268000  0.18663000  1.0
  H  H28  1  0.51769000  0.05830000  0.23831000  1.0
  H  H29  1  0.98230000  0.55830000  0.76169000  1.0
  H  H30  1  0.48231000  0.94170000  0.76168000  1.0
  H  H31  1  0.01770000  0.44170000  0.23831000  1.0
  H  H32  1  0.71598000  0.05524000  0.29532000  1.0
  H  H33  1  0.78401000  0.55524000  0.70468000  1.0
  H  H34  1  0.28402000  0.94475000  0.70468000  1.0
  H  H35  1  0.21599000  0.44476000  0.29532000  1.0
  H  H36  1  0.75570000  0.37330000  0.48696000  1.0
  H  H37  1  0.74429000  0.87330000  0.51304000  1.0
  H  H38  1  0.24430000  0.62671000  0.51304000  1.0
  H  H39  1  0.25570000  0.12671000  0.48696000  1.0
  H  H40  1  0.73855000  0.32355000  0.35555000  1.0
  H  H41  1  0.76145000  0.82356000  0.64446000  1.0
  H  H42  1  0.26145000  0.67645000  0.64446000  1.0
  H  H43  1  0.23854000  0.17645000  0.35554000  1.0
  H  H44  1  0.67478000  0.41656000  0.26912000  1.0
  H  H45  1  0.82522000  0.91656000  0.73088000  1.0
  H  H46  1  0.32522000  0.58344000  0.73088000  1.0
  H  H47  1  0.17477000  0.08345000  0.26912000  1.0
  H  H48  1  0.49590000  0.54199000  0.36679000  1.0
  H  H49  1  0.00410000  0.04199000  0.63321000  1.0
  H  H50  1  0.50410000  0.45801000  0.63321000  1.0
  H  H51  1  0.99590000  0.95802000  0.36679000  1.0
  H  H52  1  0.50818000  0.27411000  0.43570000  1.0
  H  H53  1  0.99181000  0.77410000  0.56431000  1.0
  H  H54  1  0.49182000  0.72589000  0.56431000  1.0
  H  H55  1  0.00818000  0.22589000  0.43570000  1.0
  H  H56  1  0.35142000  0.39275000  0.45164000  1.0
  H  H57  1  0.14858000  0.89274000  0.54836000  1.0
  H  H58  1  0.64858000  0.60724000  0.54836000  1.0
  H  H59  1  0.85142000  0.10724000  0.45164000  1.0
  C  C60  1  0.72689000  0.57928000  0.12890000  1.0
  C  C61  1  0.77310000  0.07928000  0.87110000  1.0
  C  C62  1  0.27309000  0.42072000  0.87111000  1.0
  C  C63  1  0.22691000  0.92072000  0.12889000  1.0
  C  C64  1  0.53875000  0.62670000  0.00813000  1.0
  C  C65  1  0.96125000  0.12670000  0.99187000  1.0
  C  C66  1  0.46123000  0.37330000  0.99187000  1.0
  C  C67  1  0.03877000  0.87330000  0.00813000  1.0
  C  C68  1  0.60986000  0.53860000  0.06141000  1.0
  C  C69  1  0.89013000  0.03861000  0.93859000  1.0
  C  C70  1  0.39013000  0.46140000  0.93860000  1.0
  C  C71  1  0.10988000  0.96140000  0.06140000  1.0
  C  C72  1  0.57066000  0.41226000  0.05412000  1.0
  C  C73  1  0.92933000  0.91227000  0.94588000  1.0
  C  C74  1  0.42932000  0.58774000  0.94589000  1.0
  C  C75  1  0.07068000  0.08774000  0.05411000  1.0
  C  C76  1  0.61457000  0.20365000  0.10858000  1.0
  C  C77  1  0.88542000  0.70366000  0.89141000  1.0
  C  C78  1  0.38542000  0.79635000  0.89141000  1.0
  C  C79  1  0.11458000  0.29634000  0.10859000  1.0
  C  C80  1  0.70709000  0.15260000  0.18207000  1.0
  C  C81  1  0.79291000  0.65260000  0.81793000  1.0
  C  C82  1  0.29291000  0.84740000  0.81792000  1.0
  C  C83  1  0.20710000  0.34740000  0.18208000  1.0
  C  C84  1  0.64288000  0.08582000  0.24173000  1.0
  C  C85  1  0.85711000  0.58582000  0.75827000  1.0
  C  C86  1  0.35712000  0.91418000  0.75826000  1.0
  C  C87  1  0.14289000  0.41418000  0.24173000  1.0
  C  C88  1  0.10768000  0.65967000  0.36916000  1.0
  C  C89  1  0.39231000  0.15967000  0.63084000  1.0
  C  C90  1  0.89232000  0.34034000  0.63084000  1.0
  C  C91  1  0.60768000  0.84033000  0.36916000  1.0
  C  C92  1  0.04483000  0.57812000  0.43472000  1.0
  C  C93  1  0.45517000  0.07812000  0.56528000  1.0
  C  C94  1  0.95516000  0.42188000  0.56528000  1.0
  C  C95  1  0.54483000  0.92188000  0.43472000  1.0
  C  C96  1  0.90504000  0.50461000  0.42520000  1.0
  C  C97  1  0.59496000  0.00462000  0.57480000  1.0
  C  C98  1  0.09496000  0.49539000  0.57480000  1.0
  C  C99  1  0.40504000  0.99539000  0.42520000  1.0
  C  C100  1  0.86376000  0.42882000  0.49086000  1.0
  C  C101  1  0.63624000  0.92882000  0.50914000  1.0
  C  C102  1  0.13624000  0.57118000  0.50914000  1.0
  C  C103  1  0.36376000  0.07118000  0.49085000  1.0
  C  C104  1  0.69290000  0.41557000  0.33667000  1.0
  C  C105  1  0.80710000  0.91558000  0.66333000  1.0
  C  C106  1  0.30710000  0.58442000  0.66333000  1.0
  C  C107  1  0.19290000  0.08443000  0.33667000  1.0
  C  C108  1  0.54184000  0.44795000  0.37754000  1.0
  C  C109  1  0.95816000  0.94795000  0.62246000  1.0
  C  C110  1  0.45816000  0.55204000  0.62246000  1.0
  C  C111  1  0.04184000  0.05205000  0.37754000  1.0
  C  C112  1  0.46284000  0.36778000  0.42356000  1.0
  C  C113  1  0.03716000  0.86778000  0.57644000  1.0
  C  C114  1  0.53716000  0.63221000  0.57644000  1.0
  C  C115  1  0.96284000  0.13221000  0.42356000  1.0
  O  O116  1  0.87240000  0.58076000  0.12047000  1.0
  O  O117  1  0.62759000  0.08076000  0.87953000  1.0
  O  O118  1  0.12759000  0.41924000  0.87953000  1.0
  O  O119  1  0.37242000  0.91924000  0.12046000  1.0
  O  O120  1  0.65758000  0.61357000  0.19705000  1.0
  O  O121  1  0.84242000  0.11358000  0.80295000  1.0
  O  O122  1  0.34242000  0.38642000  0.80295000  1.0
  O  O123  1  0.15759000  0.88643000  0.19705000  1.0
  O  O124  1  0.64384000  0.33609000  0.11248000  1.0
  O  O125  1  0.85616000  0.83609000  0.88752000  1.0
  O  O126  1  0.35615000  0.66391000  0.88752000  1.0
  O  O127  1  0.14386000  0.16391000  0.11248000  1.0
  O  O128  1  0.02878000  0.68330000  0.30193000  1.0
  O  O129  1  0.47122000  0.18331000  0.69807000  1.0
  O  O130  1  0.97122000  0.31670000  0.69807000  1.0
  O  O131  1  0.52877000  0.81670000  0.30193000  1.0
  O  O132  1  0.24916000  0.70341000  0.38056000  1.0
  O  O133  1  0.25083000  0.20340000  0.61944000  1.0
  O  O134  1  0.75083000  0.29660000  0.61944000  1.0
  O  O135  1  0.74916000  0.79659000  0.38056000  1.0
  O  O136  1  0.81804000  0.50821000  0.35174000  1.0
  O  O137  1  0.68196000  0.00821000  0.64825000  1.0
  O  O138  1  0.18196000  0.49179000  0.64826000  1.0
  O  O139  1  0.31804000  0.99180000  0.35174000  1.0
  O  O140  1  0.84727000  0.85229000  0.19329000  1.0
  O  O141  1  0.65273000  0.35229000  0.80672000  1.0
  O  O142  1  0.15273000  0.14771000  0.80671000  1.0
  O  O143  1  0.34726000  0.64771000  0.19329000  1.0
