# generated using pymatgen
data_ZnH17C16SNO4
_symmetry_space_group_name_H-M   'P 1'
_cell_length_a   7.58033000
_cell_length_b   9.58386000
_cell_length_c   11.70140000
_cell_angle_alpha   72.83500000
_cell_angle_beta   89.99980000
_cell_angle_gamma   89.99970000
_symmetry_Int_Tables_number   1
_chemical_formula_structural   ZnH17C16SNO4
_chemical_formula_sum   'Zn2 H34 C32 S2 N2 O8'
_cell_volume   812.22877923
_cell_formula_units_Z   2
loop_
 _symmetry_equiv_pos_site_id
 _symmetry_equiv_pos_as_xyz
  1  'x, y, z'
loop_
 _atom_site_type_symbol
 _atom_site_label
 _atom_site_symmetry_multiplicity
 _atom_site_fract_x
 _atom_site_fract_y
 _atom_site_fract_z
 _atom_site_occupancy
  Zn  Zn0  1  0.99196000  0.66847000  0.55842000  1.0
  Zn  Zn1  1  0.49196000  0.33153000  0.44158000  1.0
  H  H2  1  0.15368000  0.48489000  0.04341000  1.0
  H  H3  1  0.65368000  0.51511000  0.95659000  1.0
  H  H4  1  0.19911000  0.52364000  0.23696000  1.0
  H  H5  1  0.69911000  0.47636000  0.76304000  1.0
  H  H6  1  0.08805000  0.74714000  0.28011000  1.0
  H  H7  1  0.58804000  0.25286000  0.71989000  1.0
  H  H8  1  0.91543000  0.92994000  0.12385000  1.0
  H  H9  1  0.41542000  0.07006000  0.87615000  1.0
  H  H10  1  0.77752000  0.00814000  0.93000000  1.0
  H  H11  1  0.27753000  0.99186000  0.07000000  1.0
  H  H12  1  0.72831000  0.98153000  0.72817000  1.0
  H  H13  1  0.22831000  0.01846000  0.27183000  1.0
  H  H14  1  0.11715000  0.46675000  0.89250000  1.0
  H  H15  1  0.61716000  0.53325000  0.10750000  1.0
  H  H16  1  0.25081000  0.35981000  0.77217000  1.0
  H  H17  1  0.75082000  0.64019000  0.22783000  1.0
  H  H18  1  0.96052000  0.23820000  0.82653000  1.0
  H  H19  1  0.46053000  0.76180000  0.17347000  1.0
  H  H20  1  0.07626000  0.16379000  0.72572000  1.0
  H  H21  1  0.57626000  0.83622000  0.27428000  1.0
  H  H22  1  0.89705000  0.28780000  0.67362000  1.0
  H  H23  1  0.39705000  0.71220000  0.32638000  1.0
  H  H24  1  0.35714000  0.67611000  0.69735000  1.0
  H  H25  1  0.85714000  0.32389000  0.30264000  1.0
  H  H26  1  0.57094000  0.75326000  0.64264000  1.0
  H  H27  1  0.07094000  0.24674000  0.35736000  1.0
  H  H28  1  0.46026000  0.63844000  0.57062000  1.0
  H  H29  1  0.96026000  0.36156000  0.42938000  1.0
  H  H30  1  0.22625000  0.07400000  0.57755000  1.0
  H  H31  1  0.72625000  0.92600000  0.42245000  1.0
  H  H32  1  0.41823000  0.99935000  0.66057000  1.0
  H  H33  1  0.91823000  0.00065000  0.33943000  1.0
  H  H34  1  0.20897000  0.90315000  0.69610000  1.0
  H  H35  1  0.70897000  0.09685000  0.30390000  1.0
  C  C36  1  0.87913000  0.78202000  0.75938000  1.0
  C  C37  1  0.37913000  0.21798000  0.24062000  1.0
  C  C38  1  0.97918000  0.67277000  0.84573000  1.0
  C  C39  1  0.47919000  0.32723000  0.15427000  1.0
  C  C40  1  0.00626000  0.68703000  0.96500000  1.0
  C  C41  1  0.50626000  0.31296000  0.03500000  1.0
  C  C42  1  0.09956000  0.58382000  0.05745000  1.0
  C  C43  1  0.59956000  0.41618000  0.94255000  1.0
  C  C44  1  0.12703000  0.60528000  0.16810000  1.0
  C  C45  1  0.62703000  0.39472000  0.83190000  1.0
  C  C46  1  0.06510000  0.73180000  0.19283000  1.0
  C  C47  1  0.56509000  0.26820000  0.80717000  1.0
  C  C48  1  0.96963000  0.83266000  0.10618000  1.0
  C  C49  1  0.46963000  0.16734000  0.89382000  1.0
  C  C50  1  0.93650000  0.81196000  0.99328000  1.0
  C  C51  1  0.43650000  0.18804000  0.00671000  1.0
  C  C52  1  0.83330000  0.91522000  0.90630000  1.0
  C  C53  1  0.33333333  0.08478000  0.09370000  1.0
  C  C54  1  0.80457000  0.90067000  0.79522000  1.0
  C  C55  1  0.30457000  0.09933000  0.20478000  1.0
  C  C56  1  0.05313000  0.54904000  0.81832000  1.0
  C  C57  1  0.55314000  0.45096000  0.18168000  1.0
  C  C58  1  0.14072000  0.38938000  0.70810000  1.0
  C  C59  1  0.64072000  0.61062000  0.29190000  1.0
  C  C60  1  0.01021000  0.26163000  0.73480000  1.0
  C  C61  1  0.51021000  0.73838000  0.26520000  1.0
  C  C62  1  0.21974000  0.41291000  0.58325000  1.0
  C  C63  1  0.71974000  0.58709000  0.41675000  1.0
  C  C64  1  0.44079000  0.71952000  0.61856000  1.0
  C  C65  1  0.94080000  0.28048000  0.38144000  1.0
  C  C66  1  0.29281000  0.97241000  0.62542000  1.0
  C  C67  1  0.79281000  0.02759000  0.37458000  1.0
  S  S68  1  0.34307000  0.87881000  0.51756000  1.0
  S  S69  1  0.84306000  0.12119000  0.48244000  1.0
  N  N70  1  0.05583000  0.52324000  0.71482000  1.0
  N  N71  1  0.55584000  0.47676000  0.28518000  1.0
  O  O72  1  0.84877000  0.78056000  0.65031000  1.0
  O  O73  1  0.34877000  0.21944000  0.34969000  1.0
  O  O74  1  0.17420000  0.52148000  0.49754000  1.0
  O  O75  1  0.67420000  0.47852000  0.50246000  1.0
  O  O76  1  0.32822000  0.31355000  0.57610000  1.0
  O  O77  1  0.82822000  0.68645000  0.42390000  1.0
  O  O78  1  0.16469000  0.83547000  0.47563000  1.0
  O  O79  1  0.66469000  0.16453000  0.52437000  1.0
