# generated using pymatgen
data_CrGa3P4H26C8(N3O8)2
_symmetry_space_group_name_H-M   'P 1'
_cell_length_a   13.47200000
_cell_length_b   14.21920000
_cell_length_c   14.21980000
_cell_angle_alpha   110.50400000
_cell_angle_beta   108.41900000
_cell_angle_gamma   108.41300000
_symmetry_Int_Tables_number   1
_chemical_formula_structural   CrGa3P4H26C8(N3O8)2
_chemical_formula_sum   'Cr3 Ga9 P12 H78 C24 N18 O48'
_cell_volume   2123.62350473
_cell_formula_units_Z   3
loop_
 _symmetry_equiv_pos_site_id
 _symmetry_equiv_pos_as_xyz
  1  'x, y, z'
loop_
 _atom_site_type_symbol
 _atom_site_label
 _atom_site_symmetry_multiplicity
 _atom_site_fract_x
 _atom_site_fract_y
 _atom_site_fract_z
 _atom_site_occupancy
  Cr  Cr0  1  0.26708000  0.45801000  0.58853000  1.0
  Cr  Cr1  1  0.67856000  0.41149000  0.86945000  1.0
  Cr  Cr2  1  0.80898000  0.13054000  0.54198000  1.0
  Ga  Ga3  1  0.47977000  0.62553000  0.45616000  1.0
  Ga  Ga4  1  0.31902000  0.58614000  0.13004000  1.0
  Ga  Ga5  1  0.02370000  0.54399000  0.16943000  1.0
  Ga  Ga6  1  0.18895000  0.86998000  0.45611000  1.0
  Ga  Ga7  1  0.85421000  0.83063000  0.37455000  1.0
  Ga  Ga8  1  0.73289000  0.54390000  0.41386000  1.0
  Ga  Ga9  1  0.51873000  0.37193000  0.54280000  1.0
  Ga  Ga10  1  0.97597000  0.45721000  0.82920000  1.0
  Ga  Ga11  1  0.14675000  0.17086000  0.62809000  1.0
  P  P12  1  0.53997000  0.60502000  0.66119000  1.0
  P  P13  1  0.60162000  0.66655000  0.31176000  1.0
  P  P14  1  0.87880000  0.33885000  0.94391000  1.0
  P  P15  1  0.28999000  0.68838000  0.35479000  1.0
  P  P16  1  0.93490000  0.05620000  0.39501000  1.0
  P  P17  1  0.93510000  0.64523000  0.33345000  1.0
  P  P18  1  0.45795000  0.39364000  0.33923000  1.0
  P  P19  1  0.39949000  0.33234000  0.68875000  1.0
  P  P20  1  0.11877000  0.66086000  0.05434000  1.0
  P  P21  1  0.71075000  0.31123000  0.64360000  1.0
  P  P22  1  0.06440000  0.94562000  0.60651000  1.0
  P  P23  1  0.06712000  0.35640000  0.66765000  1.0
  H  H24  1  0.41713000  0.65902000  0.76586000  1.0
  H  H25  1  0.28712000  0.61019000  0.77034000  1.0
  H  H26  1  0.24256000  0.54744000  0.46029000  1.0
  H  H27  1  0.13708000  0.24216000  0.43483000  1.0
  H  H28  1  0.25686000  0.29438000  0.41931000  1.0
  H  H29  1  0.35381000  0.72294000  0.64697000  1.0
  H  H30  1  0.27678000  0.75225000  0.72596000  1.0
  H  H31  1  0.13515000  0.64343000  0.51271000  1.0
  H  H32  1  0.09851000  0.55884000  0.57686000  1.0
  H  H33  1  0.03404000  0.42514000  0.31796000  1.0
  H  H34  1  0.01641000  0.36944000  0.41064000  1.0
  H  H35  1  0.04630000  0.24011000  0.26530000  1.0
  H  H36  1  0.18246000  0.35773000  0.30649000  1.0
  H  H37  1  0.65125000  0.23413000  0.89305000  1.0
  H  H38  1  0.51675000  0.22970000  0.83981000  1.0
  H  H39  1  0.78236000  0.53967000  0.08707000  1.0
  H  H40  1  0.70230000  0.56521000  0.80733000  1.0
  H  H41  1  0.83761000  0.58071000  0.87504000  1.0
  H  H42  1  0.70698000  0.35301000  0.07588000  1.0
  H  H43  1  0.55094000  0.27399000  0.02627000  1.0
  H  H44  1  0.62264000  0.48727000  0.13076000  1.0
  H  H45  1  0.52173000  0.42312000  0.98205000  1.0
  H  H46  1  0.71616000  0.68199000  0.10713000  1.0
  H  H47  1  0.60584000  0.58933000  0.95875000  1.0
  H  H48  1  0.78107000  0.73468000  0.97478000  1.0
  H  H49  1  0.87609000  0.69353000  0.05122000  1.0
  H  H50  1  0.75802000  0.10682000  0.34097000  1.0
  H  H51  1  0.67684000  0.16018000  0.38974000  1.0
  H  H52  1  0.69500000  0.91285000  0.45246000  1.0
  H  H53  1  0.89487000  0.19259000  0.75783000  1.0
  H  H54  1  0.96243000  0.12490000  0.70558000  1.0
  H  H55  1  0.63074000  0.92407000  0.27706000  1.0
  H  H56  1  0.52438000  0.97373000  0.24766000  1.0
  H  H57  1  0.49160000  0.86928000  0.35645000  1.0
  H  H58  1  0.53951000  0.01800000  0.44109000  1.0
  H  H59  1  0.60881000  0.89276000  0.57473000  1.0
  H  H60  1  0.64689000  0.04113000  0.63048000  1.0
  H  H61  1  0.80616000  0.02506000  0.75977000  1.0
  H  H62  1  0.82468000  0.94869000  0.64212000  1.0
  H  H63  1  0.58360000  0.34451000  0.23693000  1.0
  H  H64  1  0.71269000  0.39352000  0.23076000  1.0
  H  H65  1  0.76072000  0.45241000  0.54313000  1.0
  H  H66  1  0.86117000  0.75983000  0.56531000  1.0
  H  H67  1  0.74113000  0.70380000  0.57950000  1.0
  H  H68  1  0.64733000  0.27726000  0.35160000  1.0
  H  H69  1  0.72593000  0.25178000  0.27348000  1.0
  H  H70  1  0.86439000  0.35531000  0.48577000  1.0
  H  H71  1  0.90357000  0.44325000  0.42542000  1.0
  H  H72  1  0.96767000  0.57874000  0.68530000  1.0
  H  H73  1  0.98454000  0.63070000  0.58992000  1.0
  H  H74  1  0.95531000  0.76210000  0.73313000  1.0
  H  H75  1  0.82001000  0.64586000  0.69557000  1.0
  H  H76  1  0.34677000  0.76308000  0.10756000  1.0
  H  H77  1  0.48203000  0.76925000  0.16281000  1.0
  H  H78  1  0.21761000  0.45678000  0.90930000  1.0
  H  H79  1  0.29579000  0.43473000  0.19461000  1.0
  H  H80  1  0.16154000  0.42047000  0.12429000  1.0
  H  H81  1  0.29586000  0.64841000  0.92569000  1.0
  H  H82  1  0.45261000  0.72650000  0.97835000  1.0
  H  H83  1  0.37866000  0.51422000  0.86961000  1.0
  H  H84  1  0.47822000  0.57455000  0.01790000  1.0
  H  H85  1  0.28237000  0.31466000  0.89358000  1.0
  H  H86  1  0.39466000  0.41007000  0.04090000  1.0
  H  H87  1  0.22219000  0.26689000  0.02915000  1.0
  H  H88  1  0.12442000  0.30435000  0.95035000  1.0
  H  H89  1  0.23918000  0.89240000  0.65551000  1.0
  H  H90  1  0.31915000  0.83714000  0.60641000  1.0
  H  H91  1  0.30834000  0.09074000  0.54762000  1.0
  H  H92  1  0.10128000  0.80548000  0.24017000  1.0
  H  H93  1  0.03721000  0.87567000  0.29609000  1.0
  H  H94  1  0.37025000  0.07428000  0.72281000  1.0
  H  H95  1  0.47429000  0.02157000  0.74816000  1.0
  H  H96  1  0.50909000  0.13037000  0.64467000  1.0
  H  H97  1  0.46028000  0.98210000  0.55667000  1.0
  H  H98  1  0.38885000  0.10658000  0.42126000  1.0
  H  H99  1  0.35380000  0.95925000  0.36931000  1.0
  H  H100  1  0.19312000  0.97103000  0.23790000  1.0
  H  H101  1  0.17406000  0.04970000  0.35413000  1.0
  C  C102  1  0.28470000  0.68376000  0.66709000  1.0
  C  C103  1  0.16617000  0.60038000  0.55699000  1.0
  C  C104  1  0.07829000  0.40607000  0.38282000  1.0
  C  C105  1  0.12199000  0.32294000  0.33665000  1.0
  C  C106  1  0.61772000  0.33289000  0.01664000  1.0
  C  C107  1  0.60931000  0.44299000  0.04341000  1.0
  C  C108  1  0.69556000  0.61716000  0.02321000  1.0
  C  C109  1  0.78545000  0.66334000  0.98626000  1.0
  C  C110  1  0.60079000  0.98336000  0.31619000  1.0
  C  C111  1  0.56567000  0.95663000  0.39954000  1.0
  C  C112  1  0.67214000  0.97669000  0.59383000  1.0
  C  C113  1  0.79901000  0.01363000  0.67695000  1.0
  C  C114  1  0.71667000  0.31858000  0.33280000  1.0
  C  C115  1  0.83514000  0.40089000  0.44409000  1.0
  C  C116  1  0.92279000  0.59505000  0.61831000  1.0
  C  C117  1  0.87897000  0.67902000  0.66340000  1.0
  C  C118  1  0.38400000  0.66721000  0.98583000  1.0
  C  C119  1  0.39111000  0.55588000  0.95687000  1.0
  C  C120  1  0.30452000  0.38166000  0.97686000  1.0
  C  C121  1  0.21558000  0.33658000  0.01573000  1.0
  C  C122  1  0.39820000  0.01413000  0.68142000  1.0
  C  C123  1  0.43424000  0.04312000  0.59907000  1.0
  C  C124  1  0.32770000  0.02328000  0.40496000  1.0
  C  C125  1  0.19988000  0.98439000  0.32098000  1.0
  N  N126  1  0.32461000  0.62037000  0.72012000  1.0
  N  N127  1  0.18414000  0.51037000  0.48493000  1.0
  N  N128  1  0.19112000  0.30968000  0.43158000  1.0
  N  N129  1  0.60448000  0.27988000  0.90019000  1.0
  N  N130  1  0.69928000  0.51504000  0.02539000  1.0
  N  N131  1  0.75960000  0.56843000  0.87807000  1.0
  N  N132  1  0.70413000  0.09976000  0.37960000  1.0
  N  N133  1  0.67367000  0.97457000  0.48956000  1.0
  N  N134  1  0.88139000  0.12187000  0.69029000  1.0
  N  N135  1  0.67619000  0.38237000  0.28132000  1.0
  N  N136  1  0.81798000  0.48985000  0.51780000  1.0
  N  N137  1  0.80868000  0.69139000  0.56859000  1.0
  N  N138  1  0.39496000  0.71869000  0.10107000  1.0
  N  N139  1  0.30021000  0.48215000  0.97210000  1.0
  N  N140  1  0.24003000  0.43141000  0.12285000  1.0
  N  N141  1  0.29386000  0.89890000  0.61762000  1.0
  N  N142  1  0.32812000  0.02795000  0.51016000  1.0
  N  N143  1  0.11719000  0.87719000  0.30858000  1.0
  O  O144  1  0.40520000  0.52350000  0.56997000  1.0
  O  O145  1  0.58684000  0.67687000  0.60602000  1.0
  O  O146  1  0.60094000  0.52524000  0.65792000  1.0
  O  O147  1  0.56662000  0.67855000  0.78070000  1.0
  O  O148  1  0.58634000  0.70901000  0.42099000  1.0
  O  O149  1  0.69044000  0.77907000  0.32320000  1.0
  O  O150  1  0.48546000  0.60519000  0.20082000  1.0
  O  O151  1  0.65958000  0.58906000  0.30996000  1.0
  O  O152  1  0.83524000  0.43004000  0.95350000  1.0
  O  O153  1  0.98092000  0.39415000  0.07094000  1.0
  O  O154  1  0.94297000  0.34203000  0.86733000  1.0
  O  O155  1  0.78594000  0.21935000  0.89805000  1.0
  O  O156  1  0.16549000  0.57908000  0.28798000  1.0
  O  O157  1  0.36743000  0.67701000  0.45590000  1.0
  O  O158  1  0.28465000  0.79923000  0.40434000  1.0
  O  O159  1  0.34973000  0.69022000  0.27909000  1.0
  O  O160  1  0.88171000  0.04658000  0.47657000  1.0
  O  O161  1  0.90988000  0.92915000  0.32321000  1.0
  O  O162  1  0.07568000  0.13268000  0.47477000  1.0
  O  O163  1  0.88797000  0.10213000  0.32142000  1.0
  O  O164  1  0.87735000  0.71204000  0.29103000  1.0
  O  O165  1  0.91146000  0.54422000  0.22092000  1.0
  O  O166  1  0.88026000  0.59555000  0.39470000  1.0
  O  O167  1  0.07057000  0.72091000  0.41099000  1.0
  O  O168  1  0.59149000  0.47693000  0.43136000  1.0
  O  O169  1  0.41055000  0.32049000  0.39326000  1.0
  O  O170  1  0.39480000  0.47190000  0.34123000  1.0
  O  O171  1  0.43341000  0.32126000  0.22014000  1.0
  O  O172  1  0.41420000  0.28795000  0.57938000  1.0
  O  O173  1  0.31022000  0.22082000  0.67853000  1.0
  O  O174  1  0.51638000  0.39303000  0.79949000  1.0
  O  O175  1  0.34398000  0.41137000  0.69130000  1.0
  O  O176  1  0.16017000  0.56872000  0.04545000  1.0
  O  O177  1  0.01718000  0.60674000  0.92722000  1.0
  O  O178  1  0.05381000  0.65894000  0.13075000  1.0
  O  O179  1  0.21332000  0.77993000  0.10092000  1.0
  O  O180  1  0.83489000  0.42055000  0.70856000  1.0
  O  O181  1  0.63177000  0.32153000  0.54233000  1.0
  O  O182  1  0.71675000  0.20042000  0.59351000  1.0
  O  O183  1  0.65266000  0.30873000  0.72006000  1.0
  O  O184  1  0.11467000  0.95449000  0.52326000  1.0
  O  O185  1  0.08997000  0.07275000  0.67951000  1.0
  O  O186  1  0.92300000  0.86922000  0.52815000  1.0
  O  O187  1  0.11234000  0.89904000  0.67901000  1.0
  O  O188  1  0.12622000  0.29141000  0.71207000  1.0
  O  O189  1  0.08942000  0.45771000  0.77917000  1.0
  O  O190  1  0.12333000  0.40642000  0.60696000  1.0
  O  O191  1  0.93254000  0.27996000  0.58864000  1.0
