# generated using pymatgen
data_CuH14C8N2O3
_symmetry_space_group_name_H-M   'P 1'
_cell_length_a   8.16720000
_cell_length_b   8.17436000
_cell_length_c   15.63120000
_cell_angle_alpha   89.97910000
_cell_angle_beta   89.92650000
_cell_angle_gamma   89.94660000
_symmetry_Int_Tables_number   1
_chemical_formula_structural   CuH14C8N2O3
_chemical_formula_sum   'Cu4 H56 C32 N8 O12'
_cell_volume   1043.56305676
_cell_formula_units_Z   4
loop_
 _symmetry_equiv_pos_site_id
 _symmetry_equiv_pos_as_xyz
  1  'x, y, z'
loop_
 _atom_site_type_symbol
 _atom_site_label
 _atom_site_symmetry_multiplicity
 _atom_site_fract_x
 _atom_site_fract_y
 _atom_site_fract_z
 _atom_site_occupancy
  Cu  Cu0  1  0.41772000  0.81205000  0.25613000  1.0
  Cu  Cu1  1  0.58257000  0.18860000  0.75592000  1.0
  Cu  Cu2  1  0.81136000  0.58233000  0.50648000  1.0
  Cu  Cu3  1  0.18821000  0.41774000  0.00634000  1.0
  H  H4  1  0.28551000  0.05437000  0.07991000  1.0
  H  H5  1  0.71553000  0.94584000  0.58002000  1.0
  H  H6  1  0.05049000  0.71520000  0.33106000  1.0
  H  H7  1  0.94722000  0.28504000  0.82988000  1.0
  H  H8  1  0.47213000  0.98003000  0.03928000  1.0
  H  H9  1  0.52965000  0.02094000  0.53918000  1.0
  H  H10  1  0.98124000  0.52779000  0.28938000  1.0
  H  H11  1  0.02123000  0.47160000  0.78930000  1.0
  H  H12  1  0.62580000  0.05575000  0.16230000  1.0
  H  H13  1  0.37460000  0.94540000  0.66215000  1.0
  H  H14  1  0.05566000  0.37457000  0.41327000  1.0
  H  H15  1  0.94446000  0.62513000  0.91237000  1.0
  H  H16  1  0.49134000  0.22528000  0.14606000  1.0
  H  H17  1  0.50837000  0.77544000  0.64559000  1.0
  H  H18  1  0.22509000  0.50831000  0.39560000  1.0
  H  H19  1  0.77500000  0.49086000  0.89598000  1.0
  H  H20  1  0.66922000  0.04143000  0.30736000  1.0
  H  H21  1  0.32993000  0.95873000  0.80659000  1.0
  H  H22  1  0.04114000  0.33136000  0.55666000  1.0
  H  H23  1  0.95844000  0.66860000  0.05723000  1.0
  H  H24  1  0.51235000  0.09507000  0.37969000  1.0
  H  H25  1  0.48573000  0.90565000  0.87946000  1.0
  H  H26  1  0.09446000  0.48644000  0.62984000  1.0
  H  H27  1  0.90442000  0.51229000  0.12965000  1.0
  H  H28  1  0.69499000  0.32586000  0.36528000  1.0
  H  H29  1  0.30362000  0.67432000  0.86506000  1.0
  H  H30  1  0.32531000  0.30367000  0.61553000  1.0
  H  H31  1  0.67328000  0.69512000  0.11502000  1.0
  H  H32  1  0.50979000  0.38504000  0.31513000  1.0
  H  H33  1  0.48955000  0.61537000  0.81535000  1.0
  H  H34  1  0.38517000  0.48898000  0.56570000  1.0
  H  H35  1  0.61450000  0.50994000  0.06480000  1.0
  H  H36  1  0.68018000  0.32880000  0.25155000  1.0
  H  H37  1  0.31987000  0.67109000  0.75134000  1.0
  H  H38  1  0.32921000  0.31942000  0.50176000  1.0
  H  H39  1  0.67121000  0.67996000  0.00129000  1.0
  H  H40  1  0.28806000  0.27645000  0.26920000  1.0
  H  H41  1  0.71199000  0.72336000  0.76871000  1.0
  H  H42  1  0.27827000  0.71211000  0.51950000  1.0
  H  H43  1  0.72357000  0.28747000  0.01894000  1.0
  H  H44  1  0.20234000  0.11767000  0.20857000  1.0
  H  H45  1  0.79794000  0.88320000  0.70868000  1.0
  H  H46  1  0.11931000  0.79820000  0.45897000  1.0
  H  H47  1  0.88324000  0.20206000  0.95847000  1.0
  H  H48  1  0.06061000  0.13322000  0.34603000  1.0
  H  H49  1  0.93793000  0.86669000  0.84642000  1.0
  H  H50  1  0.13337000  0.93843000  0.59694000  1.0
  H  H51  1  0.86702000  0.06067000  0.09589000  1.0
  H  H52  1  0.24507000  0.10499000  0.40434000  1.0
  H  H53  1  0.75255000  0.89372000  0.90434000  1.0
  H  H54  1  0.10592000  0.75311000  0.65464000  1.0
  H  H55  1  0.89454000  0.24505000  0.15425000  1.0
  H  H56  1  0.16731000  0.94460000  0.33970000  1.0
  H  H57  1  0.83053000  0.05499000  0.84020000  1.0
  H  H58  1  0.94527000  0.83089000  0.59000000  1.0
  H  H59  1  0.05562000  0.16735000  0.08969000  1.0
  C  C60  1  0.28260000  0.56337000  0.15931000  1.0
  C  C61  1  0.71774000  0.43638000  0.65812000  1.0
  C  C62  1  0.56238000  0.71938000  0.40985000  1.0
  C  C63  1  0.43812000  0.28327000  0.90928000  1.0
  C  C64  1  0.30322000  0.70920000  0.09799000  1.0
  C  C65  1  0.69675000  0.29086000  0.59725000  1.0
  C  C66  1  0.70785000  0.69603000  0.34855000  1.0
  C  C67  1  0.29205000  0.30345000  0.84813000  1.0
  C  C68  1  0.40021000  0.99291000  0.09861000  1.0
  C  C69  1  0.60078000  0.00737000  0.59860000  1.0
  C  C70  1  0.99160000  0.59880000  0.34904000  1.0
  C  C71  1  0.00809000  0.39987000  0.84863000  1.0
  C  C72  1  0.49722000  0.09493000  0.16316000  1.0
  C  C73  1  0.50301000  0.90563000  0.66300000  1.0
  C  C74  1  0.09491000  0.50298000  0.41344000  1.0
  C  C75  1  0.90538000  0.49668000  0.91312000  1.0
  C  C76  1  0.56245000  0.12177000  0.31605000  1.0
  C  C77  1  0.43662000  0.87850000  0.81572000  1.0
  C  C78  1  0.12178000  0.43748000  0.56606000  1.0
  C  C79  1  0.87792000  0.56215000  0.06597000  1.0
  C  C80  1  0.61402000  0.30059000  0.31098000  1.0
  C  C81  1  0.38519000  0.69956000  0.81088000  1.0
  C  C82  1  0.30067000  0.38505000  0.56126000  1.0
  C  C83  1  0.69897000  0.61398000  0.06077000  1.0
  C  C84  1  0.27460000  0.14267000  0.26610000  1.0
  C  C85  1  0.72496000  0.85727000  0.76597000  1.0
  C  C86  1  0.14427000  0.72545000  0.51638000  1.0
  C  C87  1  0.85754000  0.27429000  0.01598000  1.0
  C  C88  1  0.18313000  0.07773000  0.34372000  1.0
  C  C89  1  0.81525000  0.92175000  0.84394000  1.0
  C  C90  1  0.07866000  0.81580000  0.59418000  1.0
  C  C91  1  0.92230000  0.18309000  0.09365000  1.0
  N  N92  1  0.36741000  0.83606000  0.13790000  1.0
  N  N93  1  0.63416000  0.16421000  0.63768000  1.0
  N  N94  1  0.83352000  0.62805000  0.38805000  1.0
  N  N95  1  0.16492000  0.36762000  0.88808000  1.0
  N  N96  1  0.43855000  0.06708000  0.25238000  1.0
  N  N97  1  0.56116000  0.93269000  0.75217000  1.0
  N  N98  1  0.06832000  0.56231000  0.50259000  1.0
  N  N99  1  0.93286000  0.43809000  0.00234000  1.0
  O  O100  1  0.32602000  0.58013000  0.23690000  1.0
  O  O101  1  0.67467000  0.42125000  0.73567000  1.0
  O  O102  1  0.58018000  0.68103000  0.48813000  1.0
  O  O103  1  0.42067000  0.32506000  0.98710000  1.0
  O  O104  1  0.22066000  0.43224000  0.13013000  1.0
  O  O105  1  0.78016000  0.56742000  0.62876000  1.0
  O  O106  1  0.43067000  0.77952000  0.38008000  1.0
  O  O107  1  0.57016000  0.22340000  0.87962000  1.0
  O  O108  1  0.25956000  0.69636000  0.02070000  1.0
  O  O109  1  0.73875000  0.30412000  0.51959000  1.0
  O  O110  1  0.69658000  0.74192000  0.27149000  1.0
  O  O111  1  0.30474000  0.25961000  0.77082000  1.0
