# generated using pymatgen
data_CdH3C5N5O2
_symmetry_space_group_name_H-M   'P 1'
_cell_length_a   6.64201000
_cell_length_b   9.96156000
_cell_length_c   11.88830000
_cell_angle_alpha   89.99960000
_cell_angle_beta   100.93100000
_cell_angle_gamma   89.99950000
_symmetry_Int_Tables_number   1
_chemical_formula_structural   CdH3C5N5O2
_chemical_formula_sum   'Cd4 H12 C20 N20 O8'
_cell_volume   772.31514053
_cell_formula_units_Z   4
loop_
 _symmetry_equiv_pos_site_id
 _symmetry_equiv_pos_as_xyz
  1  'x, y, z'
loop_
 _atom_site_type_symbol
 _atom_site_label
 _atom_site_symmetry_multiplicity
 _atom_site_fract_x
 _atom_site_fract_y
 _atom_site_fract_z
 _atom_site_occupancy
  Cd  Cd0  1  0.33679000  0.63847000  0.42169000  1.0
  Cd  Cd1  1  0.16321000  0.13847000  0.57831000  1.0
  Cd  Cd2  1  0.66321000  0.36152000  0.57831000  1.0
  Cd  Cd3  1  0.83679000  0.86153000  0.42168000  1.0
  H  H4  1  0.15722000  0.18784000  0.18537000  1.0
  H  H5  1  0.34278000  0.68783000  0.81463000  1.0
  H  H6  1  0.84279000  0.81216000  0.81462000  1.0
  H  H7  1  0.65722000  0.31217000  0.18537000  1.0
  H  H8  1  0.25273000  0.49660000  0.96618000  1.0
  H  H9  1  0.24728000  0.99660000  0.03383000  1.0
  H  H10  1  0.74727000  0.50340000  0.03383000  1.0
  H  H11  1  0.75272000  0.00341000  0.96617000  1.0
  H  H12  1  0.35462000  0.65152000  0.13584000  1.0
  H  H13  1  0.14539000  0.15152000  0.86417000  1.0
  H  H14  1  0.64538000  0.34848000  0.86417000  1.0
  H  H15  1  0.85460000  0.84848000  0.13583000  1.0
  C  C16  1  0.24786000  0.33046000  0.38737000  1.0
  C  C17  1  0.25214000  0.83047000  0.61263000  1.0
  C  C18  1  0.75214000  0.66953000  0.61263000  1.0
  C  C19  1  0.74787000  0.16953000  0.38737000  1.0
  C  C20  1  0.24940000  0.37754000  0.26699000  1.0
  C  C21  1  0.25060000  0.87754000  0.73301000  1.0
  C  C22  1  0.75060000  0.62246000  0.73301000  1.0
  C  C23  1  0.74940000  0.12246000  0.26699000  1.0
  C  C24  1  0.19669000  0.29212000  0.17241000  1.0
  C  C25  1  0.30331000  0.79212000  0.82759000  1.0
  C  C26  1  0.80331000  0.70787000  0.82759000  1.0
  C  C27  1  0.69669000  0.20788000  0.17241000  1.0
  C  C28  1  0.25315000  0.46195000  0.05327000  1.0
  C  C29  1  0.24686000  0.96195000  0.94673000  1.0
  C  C30  1  0.74685000  0.53806000  0.94673000  1.0
  C  C31  1  0.75314000  0.03806000  0.05327000  1.0
  C  C32  1  0.30876000  0.54794000  0.14697000  1.0
  C  C33  1  0.19124000  0.04794000  0.85303000  1.0
  C  C34  1  0.69123000  0.45206000  0.85303000  1.0
  C  C35  1  0.80876000  0.95206000  0.14697000  1.0
  N  N36  1  0.49271000  0.81101000  0.34802000  1.0
  N  N37  1  0.00728000  0.31101000  0.65198000  1.0
  N  N38  1  0.50729000  0.18899000  0.65197000  1.0
  N  N39  1  0.99272000  0.68899000  0.34803000  1.0
  N  N40  1  0.38802000  0.89106000  0.28614000  1.0
  N  N41  1  0.11197000  0.39105000  0.71386000  1.0
  N  N42  1  0.61197000  0.10894000  0.71386000  1.0
  N  N43  1  0.88803000  0.60895000  0.28614000  1.0
  N  N44  1  0.29070000  0.96840000  0.22589000  1.0
  N  N45  1  0.20929000  0.46839000  0.77411000  1.0
  N  N46  1  0.70930000  0.03160000  0.77411000  1.0
  N  N47  1  0.79071000  0.53161000  0.22589000  1.0
  N  N48  1  0.30666000  0.50476000  0.25323000  1.0
  N  N49  1  0.19335000  0.00476000  0.74677000  1.0
  N  N50  1  0.69335000  0.49524000  0.74677000  1.0
  N  N51  1  0.80665000  0.99524000  0.25322000  1.0
  N  N52  1  0.19812000  0.33390000  0.06536000  1.0
  N  N53  1  0.30188000  0.83390000  0.93464000  1.0
  N  N54  1  0.80188000  0.66610000  0.93464000  1.0
  N  N55  1  0.69812000  0.16611000  0.06536000  1.0
  O  O56  1  0.30975000  0.41159000  0.47040000  1.0
  O  O57  1  0.19025000  0.91159000  0.52961000  1.0
  O  O58  1  0.69025000  0.58841000  0.52961000  1.0
  O  O59  1  0.80976000  0.08841000  0.47039000  1.0
  O  O60  1  0.18668000  0.21194000  0.39833000  1.0
  O  O61  1  0.31334000  0.71194000  0.60168000  1.0
  O  O62  1  0.81332000  0.78806000  0.60167000  1.0
  O  O63  1  0.68668000  0.28806000  0.39833000  1.0
