# generated using pymatgen
data_ZnH13C20N5O4
_symmetry_space_group_name_H-M   'P 1'
_cell_length_a   8.48162000
_cell_length_b   10.02780000
_cell_length_c   11.72980000
_cell_angle_alpha   89.57970000
_cell_angle_beta   85.57980000
_cell_angle_gamma   68.80650000
_symmetry_Int_Tables_number   1
_chemical_formula_structural   ZnH13C20N5O4
_chemical_formula_sum   'Zn2 H26 C40 N10 O8'
_cell_volume   927.17429302
_cell_formula_units_Z   2
loop_
 _symmetry_equiv_pos_site_id
 _symmetry_equiv_pos_as_xyz
  1  'x, y, z'
loop_
 _atom_site_type_symbol
 _atom_site_label
 _atom_site_symmetry_multiplicity
 _atom_site_fract_x
 _atom_site_fract_y
 _atom_site_fract_z
 _atom_site_occupancy
  Zn  Zn0  1  0.45418000  0.83827000  0.40513000  1.0
  Zn  Zn1  1  0.54582000  0.16173000  0.59487000  1.0
  H  H2  1  0.38699000  0.13245000  0.13115000  1.0
  H  H3  1  0.61302000  0.86755000  0.86886000  1.0
  H  H4  1  0.39559000  0.32117000  0.99539000  1.0
  H  H5  1  0.60442000  0.67882000  0.00461000  1.0
  H  H6  1  0.39073000  0.55602000  0.07046000  1.0
  H  H7  1  0.60928000  0.44397000  0.92955000  1.0
  H  H8  1  0.38212000  0.40535000  0.41371000  1.0
  H  H9  1  0.61788000  0.59465000  0.58629000  1.0
  H  H10  1  0.33229000  0.65203000  0.56005000  1.0
  H  H11  1  0.66771000  0.34797000  0.43995000  1.0
  H  H12  1  0.15541000  0.67250000  0.74486000  1.0
  H  H13  1  0.84459000  0.32750000  0.25514000  1.0
  H  H14  1  0.96013000  0.13061000  0.70312000  1.0
  H  H15  1  0.03986000  0.86940000  0.29688000  1.0
  H  H16  1  0.15662000  0.09201000  0.52713000  1.0
  H  H17  1  0.84338000  0.90799000  0.47287000  1.0
  H  H18  1  0.07329000  0.60889000  0.07211000  1.0
  H  H19  1  0.92671000  0.39111000  0.92789000  1.0
  H  H20  1  0.04537000  0.47944000  0.25248000  1.0
  H  H21  1  0.95463000  0.52056000  0.74752000  1.0
  H  H22  1  0.78771000  0.59204000  0.38990000  1.0
  H  H23  1  0.21229000  0.40796000  0.61010000  1.0
  H  H24  1  0.59666000  0.93951000  0.18262000  1.0
  H  H25  1  0.40334000  0.06049000  0.81738000  1.0
  H  H26  1  0.75297000  0.12549000  0.85319000  1.0
  H  H27  1  0.24703000  0.87452000  0.14681000  1.0
  C  C28  1  0.37724000  0.14436000  0.36471000  1.0
  C  C29  1  0.62276000  0.85563000  0.63529000  1.0
  C  C30  1  0.37950000  0.25791000  0.28140000  1.0
  C  C31  1  0.62050000  0.74209000  0.71860000  1.0
  C  C32  1  0.38519000  0.23449000  0.16319000  1.0
  C  C33  1  0.61481000  0.76550000  0.83681000  1.0
  C  C34  1  0.39024000  0.34078000  0.08714000  1.0
  C  C35  1  0.60977000  0.65921000  0.91286000  1.0
  C  C36  1  0.38960000  0.47096000  0.12852000  1.0
  C  C37  1  0.61040000  0.52903000  0.87148000  1.0
  C  C38  1  0.38906000  0.49382000  0.24632000  1.0
  C  C39  1  0.61094000  0.50618000  0.75368000  1.0
  C  C40  1  0.38321000  0.38747000  0.32218000  1.0
  C  C41  1  0.61679000  0.61254000  0.67782000  1.0
  C  C42  1  0.39764000  0.62981000  0.29100000  1.0
  C  C43  1  0.60236000  0.37019000  0.70900000  1.0
  C  C44  1  0.24973000  0.75590000  0.59595000  1.0
  C  C45  1  0.75027000  0.24410000  0.40405000  1.0
  C  C46  1  0.14992000  0.76748000  0.69730000  1.0
  C  C47  1  0.85007000  0.23253000  0.30270000  1.0
  C  C48  1  0.04414000  0.90332000  0.74003000  1.0
  C  C49  1  0.95586000  0.09668000  0.25997000  1.0
  C  C50  1  0.04197000  0.02250000  0.67582000  1.0
  C  C51  1  0.95803000  0.97750000  0.32417000  1.0
  C  C52  1  0.14915000  0.00170000  0.57640000  1.0
  C  C53  1  0.85085000  0.99831000  0.42360000  1.0
  C  C54  1  0.94647000  0.91326000  0.84942000  1.0
  C  C55  1  0.05353000  0.08674000  0.15057000  1.0
  C  C56  1  0.85558000  0.86477000  0.01178000  1.0
  C  C57  1  0.14441000  0.13523000  0.98822000  1.0
  C  C58  1  0.83972000  0.78576000  0.11428000  1.0
  C  C59  1  0.16028000  0.21424000  0.88572000  1.0
  C  C60  1  0.96480000  0.65327000  0.13439000  1.0
  C  C61  1  0.03520000  0.34673000  0.86561000  1.0
  C  C62  1  0.94871000  0.58176000  0.23423000  1.0
  C  C63  1  0.05129000  0.41824000  0.76577000  1.0
  C  C64  1  0.80679000  0.64339000  0.31058000  1.0
  C  C65  1  0.19321000  0.35661000  0.68942000  1.0
  C  C66  1  0.69970000  0.83876000  0.19499000  1.0
  C  C67  1  0.30030000  0.16124000  0.80501000  1.0
  N  N68  1  0.25305000  0.87121000  0.53687000  1.0
  N  N69  1  0.74695000  0.12878000  0.46313000  1.0
  N  N70  1  0.97583000  0.80702000  0.92413000  1.0
  N  N71  1  0.02417000  0.19298000  0.07587000  1.0
  N  N72  1  0.81412000  0.02929000  0.89254000  1.0
  N  N73  1  0.18588000  0.97071000  0.10746000  1.0
  N  N74  1  0.75309000  0.00079000  0.99529000  1.0
  N  N75  1  0.24691000  0.99921000  0.00471000  1.0
  N  N76  1  0.68353000  0.76896000  0.29033000  1.0
  N  N77  1  0.31647000  0.23104000  0.70967000  1.0
  O  O78  1  0.37097000  0.02850000  0.32403000  1.0
  O  O79  1  0.62903000  0.97150000  0.67597000  1.0
  O  O80  1  0.37955000  0.16868000  0.47056000  1.0
  O  O81  1  0.62045000  0.83131000  0.52944000  1.0
  O  O82  1  0.46267000  0.62553000  0.38674000  1.0
  O  O83  1  0.53733000  0.37448000  0.61326000  1.0
  O  O84  1  0.34388000  0.74337000  0.23442000  1.0
  O  O85  1  0.65611000  0.25664000  0.76558000  1.0
