# generated using pymatgen
data_Zn2H5C7O8
_symmetry_space_group_name_H-M   'P 1'
_cell_length_a   10.91840000
_cell_length_b   11.01810000
_cell_length_c   11.02340000
_cell_angle_alpha   100.52550000
_cell_angle_beta   96.83590000
_cell_angle_gamma   90.23130000
_symmetry_Int_Tables_number   1
_chemical_formula_structural   Zn2H5C7O8
_chemical_formula_sum   'Zn4 H10 C14 O16'
_cell_volume   1294.08160635
_cell_formula_units_Z   2
loop_
 _symmetry_equiv_pos_site_id
 _symmetry_equiv_pos_as_xyz
  1  'x, y, z'
loop_
 _atom_site_type_symbol
 _atom_site_label
 _atom_site_symmetry_multiplicity
 _atom_site_fract_x
 _atom_site_fract_y
 _atom_site_fract_z
 _atom_site_occupancy
  Zn  Zn0  1  0.60327000  0.39356000  0.39377000  1.0
  Zn  Zn1  1  0.38687000  0.58858000  0.39234000  1.0
  Zn  Zn2  1  0.60082000  0.62445000  0.62584000  1.0
  Zn  Zn3  1  0.40693000  0.39824000  0.58344000  1.0
  H  H4  1  0.41888000  0.02037000  0.60324000  1.0
  H  H5  1  0.25730000  0.20320000  0.80872000  1.0
  H  H6  1  0.00816000  0.60845000  0.61531000  1.0
  H  H7  1  0.98468000  0.39631000  0.38673000  1.0
  H  H8  1  0.63583000  0.04375000  0.34304000  1.0
  H  H9  1  0.61014000  0.68632000  0.98090000  1.0
  H  H10  1  0.25716000  0.34932000  0.01151000  1.0
  H  H11  1  0.35833000  0.25097000  0.08743000  1.0
  H  H12  1  0.36089000  0.10621000  0.88175000  1.0
  H  H13  1  0.20793000  0.12377000  0.92232000  1.0
  C  C14  1  0.16900000  0.47440000  0.47027000  1.0
  C  C15  1  0.53130000  0.03141000  0.46418000  1.0
  C  C16  1  0.47373000  0.96893000  0.53596000  1.0
  C  C17  1  0.96561000  0.53752000  0.53972000  1.0
  C  C18  1  0.32962000  0.28054000  0.99816000  1.0
  C  C19  1  0.28639000  0.17195000  0.89650000  1.0
  C  C20  1  0.03172000  0.46583000  0.46154000  1.0
  C  C21  1  0.52262000  0.53634000  0.96901000  1.0
  C  C22  1  0.47653000  0.44843000  0.02482000  1.0
  C  C23  1  0.82931000  0.52479000  0.52773000  1.0
  C  C24  1  0.48377000  0.46610000  0.16463000  1.0
  C  C25  1  0.51544000  0.52792000  0.83313000  1.0
  C  C26  1  0.48073000  0.83282000  0.52763000  1.0
  C  C27  1  0.51868000  0.16767000  0.47388000  1.0
  O  O28  1  0.50015000  0.50214000  0.49862000  1.0
  O  O29  1  0.40592000  0.76773000  0.44295000  1.0
  O  O30  1  0.44494000  0.22242000  0.54504000  1.0
  O  O31  1  0.55815000  0.79413000  0.60683000  1.0
  O  O32  1  0.58498000  0.21637000  0.40582000  1.0
  O  O33  1  0.60442000  0.97672000  0.37963000  1.0
  O  O34  1  0.58331000  0.63865000  0.04052000  1.0
  O  O35  1  0.43464000  0.33708000  0.95873000  1.0
  O  O36  1  0.55534000  0.39417000  0.21595000  1.0
  O  O37  1  0.44974000  0.44220000  0.76192000  1.0
  O  O38  1  0.21352000  0.54139000  0.40292000  1.0
  O  O39  1  0.77639000  0.59967000  0.60672000  1.0
  O  O40  1  0.22775000  0.41161000  0.54320000  1.0
  O  O41  1  0.77704000  0.44091000  0.44105000  1.0
  O  O42  1  0.41485000  0.54706000  0.21676000  1.0
  O  O43  1  0.57642000  0.61384000  0.79880000  1.0
