# generated using pymatgen
data_Al6H44C90S5O49
_symmetry_space_group_name_H-M   'P 1'
_cell_length_a   11.97790000
_cell_length_b   12.08480000
_cell_length_c   27.78110000
_cell_angle_alpha   87.17790000
_cell_angle_beta   89.16760000
_cell_angle_gamma   62.99400000
_symmetry_Int_Tables_number   1
_chemical_formula_structural   Al6H44C90S5O49
_chemical_formula_sum   'Al6 H44 C90 S5 O49'
_cell_volume   3578.35533378
_cell_formula_units_Z   1
loop_
 _symmetry_equiv_pos_site_id
 _symmetry_equiv_pos_as_xyz
  1  'x, y, z'
loop_
 _atom_site_type_symbol
 _atom_site_label
 _atom_site_symmetry_multiplicity
 _atom_site_fract_x
 _atom_site_fract_y
 _atom_site_fract_z
 _atom_site_occupancy
  Al  Al0  1  0.79486000  0.60636000  0.49329000  1.0
  Al  Al1  1  0.05762000  0.35900000  0.49895000  1.0
  Al  Al2  1  0.06434000  0.60458000  0.49928000  1.0
  Al  Al3  1  0.83664000  0.08991000  0.97885000  1.0
  Al  Al4  1  0.58807000  0.06135000  0.98526000  1.0
  Al  Al5  1  0.57233000  0.31806000  0.98527000  1.0
  H  H6  1  0.37674000  0.12160000  0.23805000  1.0
  H  H7  1  0.90027000  0.59641000  0.20704000  1.0
  H  H8  1  0.73880000  0.52824000  0.20150000  1.0
  H  H9  1  0.62448000  0.44538000  0.27496000  1.0
  H  H10  1  0.96664000  0.41597000  0.25516000  1.0
  H  H11  1  0.92387000  0.11030000  0.27960000  1.0
  H  H12  1  0.69686000  0.22051000  0.22513000  1.0
  H  H13  1  0.34475000  0.49562000  0.61717000  1.0
  H  H14  1  0.29671000  0.47850000  0.87533000  1.0
  H  H15  1  0.39547000  0.12982000  0.76852000  1.0
  H  H16  1  0.44166000  0.08643000  0.85610000  1.0
  H  H17  1  0.20796000  0.22760000  0.71768000  1.0
  H  H18  1  0.17052000  0.25180000  0.62995000  1.0
  H  H19  1  0.05100000  0.74288000  0.62402000  1.0
  H  H20  1  0.68781000  0.76748000  0.78265000  1.0
  H  H21  1  0.15154000  0.30547000  0.27295000  1.0
  H  H22  1  0.03660000  0.77363000  0.71101000  1.0
  H  H23  1  0.00272000  0.84682000  0.77375000  1.0
  H  H24  1  0.65399000  0.82723000  0.70867000  1.0
  H  H25  1  0.67349000  0.78863000  0.62144000  1.0
  H  H26  1  0.69385000  0.55805000  0.61348000  1.0
  H  H27  1  0.99512000  0.27675000  0.78583000  1.0
  H  H28  1  0.66192000  0.56143000  0.70198000  1.0
  H  H29  1  0.59548000  0.48485000  0.76527000  1.0
  H  H30  1  0.14195000  0.46936000  0.19380000  1.0
  H  H31  1  0.56684000  0.46157000  0.85369000  1.0
  H  H32  1  0.96374000  0.18789000  0.71734000  1.0
  H  H33  1  0.27835000  0.56091000  0.25093000  1.0
  H  H34  1  0.50299000  0.37646000  0.21658000  1.0
  H  H35  1  0.85284000  0.99674000  0.25738000  1.0
  H  H36  1  0.07466000  0.63297000  0.26475000  1.0
  H  H37  1  0.55934000  0.83643000  0.20771000  1.0
  H  H38  1  0.64893000  0.07373000  0.18123000  1.0
  H  H39  1  0.17471000  0.98125000  0.23160000  1.0
  H  H40  1  0.44303000  0.19293000  0.37132000  1.0
  H  H41  1  0.19415000  0.62409000  0.82005000  1.0
  H  H42  1  0.45388000  0.43682000  0.74580000  1.0
  H  H43  1  0.50712000  0.75569000  0.83487000  1.0
  H  H44  1  0.04489000  0.93995000  0.94738000  1.0
  H  H45  1  0.08796000  0.19547000  0.86036000  1.0
  H  H46  1  0.99508000  0.12462000  0.59011000  1.0
  H  H47  1  0.07078000  0.88641000  0.16222000  1.0
  H  H48  1  0.59370000  0.71444000  0.45911000  1.0
  H  H49  1  0.06467000  0.98856000  0.00093000  1.0
  C  C50  1  0.88543000  0.39231000  0.42705000  1.0
  C  C51  1  0.25938000  0.40046000  0.38460000  1.0
  C  C52  1  0.42385000  0.36137000  0.22884000  1.0
  C  C53  1  0.35100000  0.30959000  0.19676000  1.0
  C  C54  1  0.29794000  0.46395000  0.24767000  1.0
  C  C55  1  0.30034000  0.37409000  0.29155000  1.0
  C  C56  1  0.22347000  0.41386000  0.21679000  1.0
  C  C57  1  0.22844000  0.32227000  0.25928000  1.0
  C  C58  1  0.37792000  0.28183000  0.14760000  1.0
  C  C59  1  0.27803000  0.39481000  0.34125000  1.0
  C  C60  1  0.86241000  0.90764000  0.24656000  1.0
  C  C61  1  0.20893000  0.41787000  0.43275000  1.0
  C  C62  1  0.97351000  0.81564000  0.21472000  1.0
  C  C63  1  0.82974000  0.84225000  0.09043000  1.0
  C  C64  1  0.88761000  0.78539000  0.37707000  1.0
  C  C65  1  0.76398000  0.88958000  0.21676000  1.0
  C  C66  1  0.87587000  0.79649000  0.18310000  1.0
  C  C67  1  0.78039000  0.77582000  0.25031000  1.0
  C  C68  1  0.87740000  0.79693000  0.28246000  1.0
  C  C69  1  0.89018000  0.68525000  0.21888000  1.0
  C  C70  1  0.98627000  0.70524000  0.25011000  1.0
  C  C71  1  0.85944000  0.81094000  0.13251000  1.0
  C  C72  1  0.89934000  0.74423000  0.42718000  1.0
  C  C73  1  0.88117000  0.79507000  0.33333333  1.0
  C  C74  1  0.71527000  0.38930000  0.25890000  1.0
  C  C75  1  0.77992000  0.43568000  0.21927000  1.0
  C  C76  1  0.79142000  0.29715000  0.09904000  1.0
  C  C77  1  0.86843000  0.35466000  0.38058000  1.0
  C  C78  1  0.75528000  0.26554000  0.23259000  1.0
  C  C79  1  0.81845000  0.31316000  0.19158000  1.0
  C  C80  1  0.88105000  0.20273000  0.26162000  1.0
  C  C81  1  0.84183000  0.32632000  0.28895000  1.0
  C  C82  1  0.94556000  0.24919000  0.22184000  1.0
  C  C83  1  0.87313000  0.38840000  0.56441000  1.0
  C  C84  1  0.90601000  0.37326000  0.24804000  1.0
  C  C85  1  0.80420000  0.30561000  0.14183000  1.0
  C  C86  1  0.85660000  0.33734000  0.33858000  1.0
  C  C87  1  0.25080000  0.37843000  0.61765000  1.0
  C  C88  1  0.31513000  0.43574000  0.63864000  1.0
  C  C89  1  0.34358000  0.41653000  0.68788000  1.0
  C  C90  1  0.30141000  0.34483000  0.71788000  1.0
  C  C91  1  0.24070000  0.28451000  0.69586000  1.0
  C  C92  1  0.21773000  0.29911000  0.64637000  1.0
  C  C93  1  0.28885000  0.42770000  0.80281000  1.0
  C  C94  1  0.20553000  0.40820000  0.56686000  1.0
  C  C95  1  0.31893000  0.40142000  0.85190000  1.0
  C  C96  1  0.39945000  0.18185000  0.84107000  1.0
  C  C97  1  0.37213000  0.20708000  0.79191000  1.0
  C  C98  1  0.32076000  0.32854000  0.77110000  1.0
  C  C99  1  0.37727000  0.27929000  0.87123000  1.0
  C  C100  1  0.86357000  0.76287000  0.61740000  1.0
  C  C101  1  0.96403000  0.76239000  0.64280000  1.0
  C  C102  1  0.95467000  0.78137000  0.69186000  1.0
  C  C103  1  0.84442000  0.80209000  0.71698000  1.0
  C  C104  1  0.74223000  0.80705000  0.69066000  1.0
  C  C105  1  0.88069000  0.72560000  0.56667000  1.0
  C  C106  1  0.75169000  0.78698000  0.64161000  1.0
  C  C107  1  0.74649000  0.80382000  0.79808000  1.0
  C  C108  1  0.73354000  0.83084000  0.84651000  1.0
  C  C109  1  0.91356000  0.87222000  0.84173000  1.0
  C  C110  1  0.92383000  0.84541000  0.79315000  1.0
  C  C111  1  0.83713000  0.81874000  0.76946000  1.0
  C  C112  1  0.80993000  0.87671000  0.86867000  1.0
  C  C113  1  0.84517000  0.37291000  0.61582000  1.0
  C  C114  1  0.75116000  0.47726000  0.63681000  1.0
  C  C115  1  0.73507000  0.47913000  0.68640000  1.0
  C  C116  1  0.42730000  0.27006000  0.27130000  1.0
  C  C117  1  0.81333000  0.37673000  0.71641000  1.0
  C  C118  1  0.90534000  0.27105000  0.69520000  1.0
  C  C119  1  0.92150000  0.26712000  0.64531000  1.0
  C  C120  1  0.90035000  0.31854000  0.80041000  1.0
  C  C121  1  0.88602000  0.31257000  0.85014000  1.0
  C  C122  1  0.66047000  0.42505000  0.83842000  1.0
  C  C123  1  0.67664000  0.43605000  0.78901000  1.0
  C  C124  1  0.79680000  0.37808000  0.76906000  1.0
  C  C125  1  0.76367000  0.36085000  0.86924000  1.0
  C  C126  1  0.78558000  0.91109000  0.04504000  1.0
  C  C127  1  0.35388000  0.21927000  0.24058000  1.0
  C  C128  1  0.44809000  0.24337000  0.05646000  1.0
  C  C129  1  0.76927000  0.27143000  0.05139000  1.0
  C  C130  1  0.77322000  0.94399000  0.91407000  1.0
  C  C131  1  0.42814000  0.25187000  0.92112000  1.0
  C  C132  1  0.73937000  0.32343000  0.91822000  1.0
  C  C133  1  0.40297000  0.26199000  0.10515000  1.0
  C  C134  1  0.64756000  0.98592000  0.19427000  1.0
  C  C135  1  0.22045000  0.56213000  0.78913000  1.0
  C  C136  1  0.42165000  0.46925000  0.70796000  1.0
  C  C137  1  0.00400000  0.26380000  0.87930000  1.0
  C  C138  1  0.01564000  0.14759000  0.62607000  1.0
  C  C139  1  0.07030000  0.85347000  0.20015000  1.0
  S  S140  1  0.65494000  0.75000000  0.27318000  1.0
  S  S141  1  0.08715000  0.15700000  0.19201000  1.0
  S  S142  1  0.55546000  0.18403000  0.30999000  1.0
  S  S143  1  0.62411000  0.79351000  0.88085000  1.0
  S  S144  1  0.04658000  0.89828000  0.86164000  1.0
  O  O145  1  0.81269000  0.72275000  0.44405000  1.0
  O  O146  1  0.18194000  0.32923000  0.54581000  1.0
  O  O147  1  0.18474000  0.51495000  0.54803000  1.0
  O  O148  1  0.98079000  0.71740000  0.54523000  1.0
  O  O149  1  0.97512000  0.52247000  0.49643000  1.0
  O  O150  1  0.84985000  0.16959000  0.03477000  1.0
  O  O151  1  0.85754000  0.94821000  0.02398000  1.0
  O  O152  1  0.67399000  0.93529000  0.03205000  1.0
  O  O153  1  0.47501000  0.13998000  0.03764000  1.0
  O  O154  1  0.46295000  0.33379000  0.03624000  1.0
  O  O155  1  0.66740000  0.35043000  0.03062000  1.0
  O  O156  1  0.81055000  0.50119000  0.43809000  1.0
  O  O157  1  0.82281000  0.22375000  0.93769000  1.0
  O  O158  1  0.83455000  0.00098000  0.92549000  1.0
  O  O159  1  0.67727000  0.94987000  0.93731000  1.0
  O  O160  1  0.46131000  0.14221000  0.94002000  1.0
  O  O161  1  0.44439000  0.33655000  0.94121000  1.0
  O  O162  1  0.62935000  0.38706000  0.93626000  1.0
  O  O163  1  0.66483000  0.15556000  0.98490000  1.0
  O  O164  1  0.97927000  0.31259000  0.45282000  1.0
  O  O165  1  0.18111000  0.33378000  0.45020000  1.0
  O  O166  1  0.19038000  0.51760000  0.45242000  1.0
  O  O167  1  0.00089000  0.72576000  0.44911000  1.0
  O  O168  1  0.80094000  0.69847000  0.54824000  1.0
  O  O169  1  0.79487000  0.48103000  0.53989000  1.0
  O  O170  1  0.98207000  0.31026000  0.54900000  1.0
  O  O171  1  0.70621000  0.62539000  0.29398000  1.0
  O  O172  1  0.57479000  0.85508000  0.30007000  1.0
  O  O173  1  0.58849000  0.75021000  0.22373000  1.0
  O  O174  1  0.55395000  0.97141000  0.18714000  1.0
  O  O175  1  0.06019000  0.08526000  0.15810000  1.0
  O  O176  1  0.14170000  0.23658000  0.17599000  1.0
  O  O177  1  0.17598000  0.06405000  0.23342000  1.0
  O  O178  1  0.64525000  0.07902000  0.28501000  1.0
  O  O179  1  0.59282000  0.26854000  0.33119000  1.0
  O  O180  1  0.49632000  0.12708000  0.34972000  1.0
  O  O181  1  0.19301000  0.60749000  0.74790000  1.0
  O  O182  1  0.45500000  0.53920000  0.68580000  1.0
  O  O183  1  0.69126000  0.71076000  0.92054000  1.0
  O  O184  1  0.50459000  0.90098000  0.88668000  1.0
  O  O185  1  0.59660000  0.71006000  0.84299000  1.0
  O  O186  1  0.14670000  0.82223000  0.82952000  1.0
  O  O187  1  0.00400000  0.03161000  0.85553000  1.0
  O  O188  1  0.07780000  0.84775000  0.91247000  1.0
  O  O189  1  0.01251000  0.29998000  0.91869000  1.0
  O  O190  1  0.10926000  0.07534000  0.64908000  1.0
  O  O191  1  0.14264000  0.85757000  0.23050000  1.0
  O  O192  1  0.63125000  0.68383000  0.49062000  1.0
  O  O193  1  0.01098000  0.01158000  0.97268000  1.0
