# generated using pymatgen
data_CdH6C7SNClO2
_symmetry_space_group_name_H-M   'P 1'
_cell_length_a   8.53164000
_cell_length_b   14.78340000
_cell_length_c   14.78340000
_cell_angle_alpha   116.40800000
_cell_angle_beta   101.07300000
_cell_angle_gamma   101.07200000
_symmetry_Int_Tables_number   1
_chemical_formula_structural   CdH6C7SNClO2
_chemical_formula_sum   'Cd6 H36 C42 S6 N6 Cl6 O12'
_cell_volume   1555.12343299
_cell_formula_units_Z   6
loop_
 _symmetry_equiv_pos_site_id
 _symmetry_equiv_pos_as_xyz
  1  'x, y, z'
loop_
 _atom_site_type_symbol
 _atom_site_label
 _atom_site_symmetry_multiplicity
 _atom_site_fract_x
 _atom_site_fract_y
 _atom_site_fract_z
 _atom_site_occupancy
  Cd  Cd0  1  0.56832000  0.25054000  0.57169000  1.0
  Cd  Cd1  1  0.31756000  0.32099000  0.74944000  1.0
  Cd  Cd2  1  0.99650000  0.42828000  0.67895000  1.0
  Cd  Cd3  1  0.81756000  0.74944000  0.32099000  1.0
  Cd  Cd4  1  0.49650000  0.67895000  0.42828000  1.0
  Cd  Cd5  1  0.06833000  0.57169000  0.25054000  1.0
  H  H6  1  0.91784000  0.47139000  0.00098000  1.0
  H  H7  1  0.44555000  0.52973000  0.52873000  1.0
  H  H8  1  0.91669000  0.99917000  0.47048000  1.0
  H  H9  1  0.94555000  0.52873000  0.52973000  1.0
  H  H10  1  0.41669000  0.47048000  0.99918000  1.0
  H  H11  1  0.41784000  0.00098000  0.47139000  1.0
  H  H12  1  0.82580000  0.30352000  0.83284000  1.0
  H  H13  1  0.52169000  0.52945000  0.69654000  1.0
  H  H14  1  0.99291000  0.16728000  0.47076000  1.0
  H  H15  1  0.02170000  0.69654000  0.52945000  1.0
  H  H16  1  0.49291000  0.47076000  0.16728000  1.0
  H  H17  1  0.32580000  0.83284000  0.30352000  1.0
  H  H18  1  0.01624000  0.16017000  0.01299000  1.0
  H  H19  1  0.85595000  0.85277000  0.83963000  1.0
  H  H20  1  0.00326000  0.98694000  0.14718000  1.0
  H  H21  1  0.35596000  0.83963000  0.85277000  1.0
  H  H22  1  0.50326000  0.14718000  0.98694000  1.0
  H  H23  1  0.51623000  0.01299000  0.16016000  1.0
  H  H24  1  0.09540000  0.33660000  0.17563000  1.0
  H  H25  1  0.75859000  0.83891000  0.66320000  1.0
  H  H26  1  0.91990000  0.82436000  0.16104000  1.0
  H  H27  1  0.25859000  0.66320000  0.83891000  1.0
  H  H28  1  0.41990000  0.16104000  0.82436000  1.0
  H  H29  1  0.59540000  0.17562000  0.33660000  1.0
  H  H30  1  0.74019000  0.03862000  0.61536000  1.0
  H  H31  1  0.70091000  0.57675000  0.96129000  1.0
  H  H32  1  0.12526000  0.38473000  0.42334000  1.0
  H  H33  1  0.20091000  0.96130000  0.57675000  1.0
  H  H34  1  0.62526000  0.42334000  0.38473000  1.0
  H  H35  1  0.24019000  0.61536000  0.03861000  1.0
  H  H36  1  0.66262000  0.13844000  0.69537000  1.0
  H  H37  1  0.52363000  0.55697000  0.86145000  1.0
  H  H38  1  0.96751000  0.30486000  0.44314000  1.0
  H  H39  1  0.02363000  0.86146000  0.55697000  1.0
  H  H40  1  0.46751000  0.44314000  0.30486000  1.0
  H  H41  1  0.16262000  0.69537000  0.13843000  1.0
  C  C42  1  0.93733000  0.40047000  0.00044000  1.0
  C  C43  1  0.53613000  0.60007000  0.59957000  1.0
  C  C44  1  0.93686000  0.99967000  0.40010000  1.0
  C  C45  1  0.03613000  0.59957000  0.60007000  1.0
  C  C46  1  0.43686000  0.40011000  0.99967000  1.0
  C  C47  1  0.43733000  0.00044000  0.40047000  1.0
  C  C48  1  0.88587000  0.30504000  0.90551000  1.0
  C  C49  1  0.58031000  0.60057000  0.69499000  1.0
  C  C50  1  0.98051000  0.09459000  0.39962000  1.0
  C  C51  1  0.08031000  0.69499000  0.60057000  1.0
  C  C52  1  0.48051000  0.39963000  0.09460000  1.0
  C  C53  1  0.38587000  0.90551000  0.30504000  1.0
  C  C54  1  0.91308000  0.21469000  0.90657000  1.0
  C  C55  1  0.69807000  0.69192000  0.78525000  1.0
  C  C56  1  0.00663000  0.09347000  0.30818000  1.0
  C  C57  1  0.19807000  0.78526000  0.69192000  1.0
  C  C58  1  0.50663000  0.30819000  0.09347000  1.0
  C  C59  1  0.41308000  0.90657000  0.21469000  1.0
  C  C60  1  0.99073000  0.22683000  0.00631000  1.0
  C  C61  1  0.76365000  0.77946000  0.77305000  1.0
  C  C62  1  0.98452000  0.99368000  0.22056000  1.0
  C  C63  1  0.26366000  0.77305000  0.77946000  1.0
  C  C64  1  0.48452000  0.22056000  0.99369000  1.0
  C  C65  1  0.49073000  0.00630000  0.22682000  1.0
  C  C66  1  0.03610000  0.32515000  0.09741000  1.0
  C  C67  1  0.71059000  0.77222000  0.67474000  1.0
  C  C68  1  0.93878000  0.90260000  0.22779000  1.0
  C  C69  1  0.21059000  0.67474000  0.77222000  1.0
  C  C70  1  0.43878000  0.22779000  0.90260000  1.0
  C  C71  1  0.53609000  0.09741000  0.32514000  1.0
  C  C72  1  0.77723000  0.11645000  0.68849000  1.0
  C  C73  1  0.66016000  0.57199000  0.88344000  1.0
  C  C74  1  0.08900000  0.31163000  0.42803000  1.0
  C  C75  1  0.16017000  0.88345000  0.57199000  1.0
  C  C76  1  0.58900000  0.42803000  0.31163000  1.0
  C  C77  1  0.27723000  0.68849000  0.11644000  1.0
  C  C78  1  0.90546000  0.19788000  0.67995000  1.0
  C  C79  1  0.70701000  0.48188000  0.80202000  1.0
  C  C80  1  0.22555000  0.32002000  0.51803000  1.0
  C  C81  1  0.20702000  0.80202000  0.48188000  1.0
  C  C82  1  0.72555000  0.51803000  0.32002000  1.0
  C  C83  1  0.40546000  0.67995000  0.19788000  1.0
  S  S84  1  0.85833000  0.09056000  0.79338000  1.0
  S  S85  1  0.76745000  0.70273000  0.90931000  1.0
  S  S86  1  0.06514000  0.20663000  0.29724000  1.0
  S  S87  1  0.26745000  0.90931000  0.70273000  1.0
  S  S88  1  0.56514000  0.29724000  0.20663000  1.0
  S  S89  1  0.35832000  0.79338000  0.09056000  1.0
  N  N90  1  0.01095000  0.41178000  0.09553000  1.0
  N  N91  1  0.59860000  0.68377000  0.58819000  1.0
  N  N92  1  0.91541000  0.90454000  0.31632000  1.0
  N  N93  1  0.09860000  0.58819000  0.68377000  1.0
  N  N94  1  0.41542000  0.31632000  0.90454000  1.0
  N  N95  1  0.51095000  0.09553000  0.41178000  1.0
  Cl  Cl96  1  0.37262000  0.14490000  0.63117000  1.0
  Cl  Cl97  1  0.22736000  0.48611000  0.85501000  1.0
  Cl  Cl98  1  0.74145000  0.36877000  0.51385000  1.0
  Cl  Cl99  1  0.72736000  0.85501000  0.48611000  1.0
  Cl  Cl100  1  0.24145000  0.51385000  0.36877000  1.0
  Cl  Cl101  1  0.87262000  0.63118000  0.14490000  1.0
  O  O102  1  0.84686000  0.25594000  0.64713000  1.0
  O  O103  1  0.59030000  0.39107000  0.74386000  1.0
  O  O104  1  0.19949000  0.35269000  0.60883000  1.0
  O  O105  1  0.09031000  0.74387000  0.39107000  1.0
  O  O106  1  0.69949000  0.60883000  0.35270000  1.0
  O  O107  1  0.34686000  0.64713000  0.25594000  1.0
  O  O108  1  0.05668000  0.20244000  0.70422000  1.0
  O  O109  1  0.85375000  0.50142000  0.79755000  1.0
  O  O110  1  0.35260000  0.29579000  0.49840000  1.0
  O  O111  1  0.35375000  0.79755000  0.50142000  1.0
  O  O112  1  0.85260000  0.49840000  0.29579000  1.0
  O  O113  1  0.55668000  0.70422000  0.20244000  1.0
