# generated using pymatgen
data_ZnH15C23N2O5
_symmetry_space_group_name_H-M   'P 1'
_cell_length_a   14.31670000
_cell_length_b   14.31670000
_cell_length_c   16.26340000
_cell_angle_alpha   101.86800000
_cell_angle_beta   101.86800000
_cell_angle_gamma   117.13500000
_symmetry_Int_Tables_number   1
_chemical_formula_structural   ZnH15C23N2O5
_chemical_formula_sum   'Zn4 H60 C92 N8 O20'
_cell_volume   2726.14756902
_cell_formula_units_Z   4
loop_
 _symmetry_equiv_pos_site_id
 _symmetry_equiv_pos_as_xyz
  1  'x, y, z'
loop_
 _atom_site_type_symbol
 _atom_site_label
 _atom_site_symmetry_multiplicity
 _atom_site_fract_x
 _atom_site_fract_y
 _atom_site_fract_z
 _atom_site_occupancy
  Zn  Zn0  1  0.56476000  0.59545000  0.36167000  1.0
  Zn  Zn1  1  0.40455000  0.43524000  0.13833000  1.0
  Zn  Zn2  1  0.43524000  0.40455000  0.63833000  1.0
  Zn  Zn3  1  0.59545000  0.56476000  0.86167000  1.0
  H  H4  1  0.61865000  0.30989000  0.37951000  1.0
  H  H5  1  0.72160000  0.20807000  0.38720000  1.0
  H  H6  1  0.98996000  0.46977000  0.34108000  1.0
  H  H7  1  0.88724000  0.57078000  0.33537000  1.0
  H  H8  1  0.92611000  0.22143000  0.20937000  1.0
  H  H9  1  0.10501000  0.30221000  0.17447000  1.0
  H  H10  1  0.29177000  0.49167000  0.45378000  1.0
  H  H11  1  0.11391000  0.41131000  0.48811000  1.0
  H  H12  1  0.49142000  0.61581000  0.51828000  1.0
  H  H13  1  0.57853000  0.71343000  0.68343000  1.0
  H  H14  1  0.89500000  0.89390000  0.64626000  1.0
  H  H15  1  0.79485000  0.78664000  0.48091000  1.0
  H  H16  1  0.73966000  0.84074000  0.81319000  1.0
  H  H17  1  0.07913000  0.92245000  0.90267000  1.0
  H  H18  1  0.83398000  0.00994000  0.93156000  1.0
  H  H19  1  0.69011000  0.38135000  0.12049000  1.0
  H  H20  1  0.79193000  0.27840000  0.11280000  1.0
  H  H21  1  0.53023000  0.01004000  0.15892000  1.0
  H  H22  1  0.42922000  0.11276000  0.16463000  1.0
  H  H23  1  0.77857000  0.07389000  0.29063000  1.0
  H  H24  1  0.69779000  0.89499000  0.32553000  1.0
  H  H25  1  0.50832000  0.70823000  0.04622000  1.0
  H  H26  1  0.58869000  0.88609000  0.01189000  1.0
  H  H27  1  0.38419000  0.50858000  0.98172000  1.0
  H  H28  1  0.28657000  0.42147000  0.81657000  1.0
  H  H29  1  0.10610000  0.10500000  0.85374000  1.0
  H  H30  1  0.21336000  0.20515000  0.01909000  1.0
  H  H31  1  0.15926000  0.26034000  0.68681000  1.0
  H  H32  1  0.07755000  0.92088000  0.59733000  1.0
  H  H33  1  0.99006000  0.16602000  0.56844000  1.0
  H  H34  1  0.38135000  0.69011000  0.62049000  1.0
  H  H35  1  0.27840000  0.79193000  0.61280000  1.0
  H  H36  1  0.01004000  0.53023000  0.65892000  1.0
  H  H37  1  0.11275000  0.42922000  0.66463000  1.0
  H  H38  1  0.07389000  0.77857000  0.79063000  1.0
  H  H39  1  0.89499000  0.69779000  0.82553000  1.0
  H  H40  1  0.70823000  0.50832000  0.54622000  1.0
  H  H41  1  0.88609000  0.58869000  0.51189000  1.0
  H  H42  1  0.50858000  0.38419000  0.48172000  1.0
  H  H43  1  0.42147000  0.28657000  0.31657000  1.0
  H  H44  1  0.10500000  0.10610000  0.35374000  1.0
  H  H45  1  0.20515000  0.21336000  0.51909000  1.0
  H  H46  1  0.26034000  0.15926000  0.18681000  1.0
  H  H47  1  0.92088000  0.07755000  0.09733000  1.0
  H  H48  1  0.16602000  0.99006000  0.06844000  1.0
  H  H49  1  0.30989000  0.61866000  0.87951000  1.0
  H  H50  1  0.20807000  0.72160000  0.88720000  1.0
  H  H51  1  0.46977000  0.98996000  0.84108000  1.0
  H  H52  1  0.57078000  0.88725000  0.83537000  1.0
  H  H53  1  0.22143000  0.92611000  0.70937000  1.0
  H  H54  1  0.30221000  0.10501000  0.67447000  1.0
  H  H55  1  0.49168000  0.29177000  0.95378000  1.0
  H  H56  1  0.41131000  0.11391000  0.98811000  1.0
  H  H57  1  0.61581000  0.49142000  0.01828000  1.0
  H  H58  1  0.71343000  0.57853000  0.18343000  1.0
  H  H59  1  0.89390000  0.89500000  0.14626000  1.0
  H  H60  1  0.78665000  0.79485000  0.98091000  1.0
  H  H61  1  0.84074000  0.73966000  0.31319000  1.0
  H  H62  1  0.92245000  0.07913000  0.40267000  1.0
  H  H63  1  0.00994000  0.83398000  0.43156000  1.0
  C  C64  1  0.74686000  0.44722000  0.35722000  1.0
  C  C65  1  0.70033000  0.34466000  0.37174000  1.0
  C  C66  1  0.75711000  0.28786000  0.37617000  1.0
  C  C67  1  0.86146000  0.33310000  0.36504000  1.0
  C  C68  1  0.90907000  0.43505000  0.35001000  1.0
  C  C69  1  0.85144000  0.49106000  0.34649000  1.0
  C  C70  1  0.69015000  0.51207000  0.35597000  1.0
  C  C71  1  0.01241000  0.31324000  0.35018000  1.0
  C  C72  1  0.00715000  0.28028000  0.26171000  1.0
  C  C73  1  0.10593000  0.32552000  0.24287000  1.0
  C  C74  1  0.20861000  0.40264000  0.31173000  1.0
  C  C75  1  0.21179000  0.43250000  0.40042000  1.0
  C  C76  1  0.11348000  0.38751000  0.41998000  1.0
  C  C77  1  0.31404000  0.45086000  0.29033000  1.0
  C  C78  1  0.58011000  0.67921000  0.54897000  1.0
  C  C79  1  0.62905000  0.73484000  0.64084000  1.0
  C  C80  1  0.74439000  0.81266000  0.67765000  1.0
  C  C81  1  0.80531000  0.83402000  0.61932000  1.0
  C  C82  1  0.75029000  0.77541000  0.52833000  1.0
  C  C83  1  0.79716000  0.86203000  0.77507000  1.0
  C  C84  1  0.94974000  0.95955000  0.90617000  1.0
  C  C85  1  0.04505000  0.95658000  0.94588000  1.0
  C  C86  1  0.90613000  0.00482000  0.96172000  1.0
  C  C87  1  0.55278000  0.25314000  0.14278000  1.0
  C  C88  1  0.65534000  0.29967000  0.12826000  1.0
  C  C89  1  0.71214000  0.24289000  0.12383000  1.0
  C  C90  1  0.66690000  0.13854000  0.13496000  1.0
  C  C91  1  0.56494000  0.09093000  0.14999000  1.0
  C  C92  1  0.50894000  0.14856000  0.15351000  1.0
  C  C93  1  0.48793000  0.30985000  0.14403000  1.0
  C  C94  1  0.68676000  0.98759000  0.14982000  1.0
  C  C95  1  0.71972000  0.99285000  0.23830000  1.0
  C  C96  1  0.67448000  0.89407000  0.25713000  1.0
  C  C97  1  0.59736000  0.79139000  0.18827000  1.0
  C  C98  1  0.56749000  0.78821000  0.09958000  1.0
  C  C99  1  0.61249000  0.88652000  0.08002000  1.0
  C  C100  1  0.54914000  0.68596000  0.20967000  1.0
  C  C101  1  0.32079000  0.41989000  0.95103000  1.0
  C  C102  1  0.26516000  0.37095000  0.85916000  1.0
  C  C103  1  0.18734000  0.25561000  0.82235000  1.0
  C  C104  1  0.16598000  0.19469000  0.88069000  1.0
  C  C105  1  0.22460000  0.24971000  0.97167000  1.0
  C  C106  1  0.13797000  0.20284000  0.72493000  1.0
  C  C107  1  0.04045000  0.05026000  0.59383000  1.0
  C  C108  1  0.04342000  0.95495000  0.55412000  1.0
  C  C109  1  0.99518000  0.09387000  0.53828000  1.0
  C  C110  1  0.25314000  0.55278000  0.64278000  1.0
  C  C111  1  0.29967000  0.65534000  0.62826000  1.0
  C  C112  1  0.24289000  0.71214000  0.62383000  1.0
  C  C113  1  0.13854000  0.66690000  0.63496000  1.0
  C  C114  1  0.09093000  0.56494000  0.64999000  1.0
  C  C115  1  0.14856000  0.50894000  0.65351000  1.0
  C  C116  1  0.30985000  0.48793000  0.64403000  1.0
  C  C117  1  0.98759000  0.68676000  0.64982000  1.0
  C  C118  1  0.99285000  0.71972000  0.73829000  1.0
  C  C119  1  0.89407000  0.67447000  0.75713000  1.0
  C  C120  1  0.79139000  0.59736000  0.68827000  1.0
  C  C121  1  0.78821000  0.56749000  0.59958000  1.0
  C  C122  1  0.88652000  0.61249000  0.58002000  1.0
  C  C123  1  0.68596000  0.54914000  0.70967000  1.0
  C  C124  1  0.41989000  0.32079000  0.45103000  1.0
  C  C125  1  0.37095000  0.26516000  0.35916000  1.0
  C  C126  1  0.25561000  0.18734000  0.32235000  1.0
  C  C127  1  0.19469000  0.16598000  0.38069000  1.0
  C  C128  1  0.24971000  0.22459000  0.47167000  1.0
  C  C129  1  0.20284000  0.13797000  0.22493000  1.0
  C  C130  1  0.05026000  0.04045000  0.09383000  1.0
  C  C131  1  0.95495000  0.04341000  0.05412000  1.0
  C  C132  1  0.09387000  0.99518000  0.03828000  1.0
  C  C133  1  0.44722000  0.74686000  0.85722000  1.0
  C  C134  1  0.34466000  0.70033000  0.87174000  1.0
  C  C135  1  0.28786000  0.75711000  0.87617000  1.0
  C  C136  1  0.33310000  0.86146000  0.86504000  1.0
  C  C137  1  0.43506000  0.90907000  0.85001000  1.0
  C  C138  1  0.49106000  0.85144000  0.84649000  1.0
  C  C139  1  0.51207000  0.69015000  0.85597000  1.0
  C  C140  1  0.31324000  0.01241000  0.85018000  1.0
  C  C141  1  0.28028000  0.00715000  0.76171000  1.0
  C  C142  1  0.32553000  0.10594000  0.74287000  1.0
  C  C143  1  0.40264000  0.20861000  0.81173000  1.0
  C  C144  1  0.43251000  0.21179000  0.90042000  1.0
  C  C145  1  0.38751000  0.11348000  0.91998000  1.0
  C  C146  1  0.45087000  0.31404000  0.79033000  1.0
  C  C147  1  0.67921000  0.58011000  0.04897000  1.0
  C  C148  1  0.73484000  0.62905000  0.14084000  1.0
  C  C149  1  0.81266000  0.74439000  0.17765000  1.0
  C  C150  1  0.83402000  0.80531000  0.11931000  1.0
  C  C151  1  0.77541000  0.75029000  0.02833000  1.0
  C  C152  1  0.86203000  0.79716000  0.27507000  1.0
  C  C153  1  0.95955000  0.94974000  0.40617000  1.0
  C  C154  1  0.95658000  0.04505000  0.44588000  1.0
  C  C155  1  0.00482000  0.90613000  0.46172000  1.0
  N  N156  1  0.63941000  0.69820000  0.49334000  1.0
  N  N157  1  0.90425000  0.91829000  0.81279000  1.0
  N  N158  1  0.30180000  0.36059000  0.00666000  1.0
  N  N159  1  0.08171000  0.09575000  0.68721000  1.0
  N  N160  1  0.36059000  0.30180000  0.50666000  1.0
  N  N161  1  0.09575000  0.08171000  0.18721000  1.0
  N  N162  1  0.69820000  0.63941000  0.99334000  1.0
  N  N163  1  0.91829000  0.90425000  0.31279000  1.0
  O  O164  1  0.91297000  0.27194000  0.36925000  1.0
  O  O165  1  0.58883000  0.46567000  0.35718000  1.0
  O  O166  1  0.74100000  0.61096000  0.35572000  1.0
  O  O167  1  0.40437000  0.52404000  0.35476000  1.0
  O  O168  1  0.30435000  0.41371000  0.20882000  1.0
  O  O169  1  0.72806000  0.08703000  0.13074000  1.0
  O  O170  1  0.53433000  0.41117000  0.14283000  1.0
  O  O171  1  0.38903000  0.25900000  0.14428000  1.0
  O  O172  1  0.47596000  0.59563000  0.14524000  1.0
  O  O173  1  0.58630000  0.69565000  0.29118000  1.0
  O  O174  1  0.08703000  0.72806000  0.63074000  1.0
  O  O175  1  0.41117000  0.53433000  0.64283000  1.0
  O  O176  1  0.25900000  0.38903000  0.64428000  1.0
  O  O177  1  0.59563000  0.47596000  0.64524000  1.0
  O  O178  1  0.69565000  0.58630000  0.79118000  1.0
  O  O179  1  0.27194000  0.91297000  0.86925000  1.0
  O  O180  1  0.46567000  0.58884000  0.85717000  1.0
  O  O181  1  0.61097000  0.74100000  0.85572000  1.0
  O  O182  1  0.52405000  0.40437000  0.85476000  1.0
  O  O183  1  0.41370000  0.30435000  0.70882000  1.0
