# generated using pymatgen
data_ZnH21C34NO4
_symmetry_space_group_name_H-M   'P 1'
_cell_length_a   15.66050000
_cell_length_b   18.29020000
_cell_length_c   19.65440000
_cell_angle_alpha   90.16080000
_cell_angle_beta   90.37340000
_cell_angle_gamma   67.09100000
_symmetry_Int_Tables_number   1
_chemical_formula_structural   ZnH21C34NO4
_chemical_formula_sum   'Zn2 H42 C68 N2 O8'
_cell_volume   5185.52644093
_cell_formula_units_Z   2
loop_
 _symmetry_equiv_pos_site_id
 _symmetry_equiv_pos_as_xyz
  1  'x, y, z'
loop_
 _atom_site_type_symbol
 _atom_site_label
 _atom_site_symmetry_multiplicity
 _atom_site_fract_x
 _atom_site_fract_y
 _atom_site_fract_z
 _atom_site_occupancy
  Zn  Zn0  1  0.50469000  0.42131000  0.50123000  1.0
  Zn  Zn1  1  0.49528000  0.57828000  0.50244000  1.0
  H  H2  1  0.60151000  0.38023000  0.06514000  1.0
  H  H3  1  0.38800000  0.86624000  0.42809000  1.0
  H  H4  1  0.60558000  0.27087000  0.57109000  1.0
  H  H5  1  0.39273000  0.72782000  0.43295000  1.0
  H  H6  1  0.52517000  0.05820000  0.60793000  1.0
  H  H7  1  0.47511000  0.94102000  0.39057000  1.0
  H  H8  1  0.52943000  0.92191000  0.60647000  1.0
  H  H9  1  0.47081000  0.07741000  0.39196000  1.0
  H  H10  1  0.22751000  0.47124000  0.47423000  1.0
  H  H11  1  0.76997000  0.53137000  0.48713000  1.0
  H  H12  1  0.18629000  0.71539000  0.48857000  1.0
  H  H13  1  0.39868000  0.61970000  0.93807000  1.0
  H  H14  1  0.81169000  0.28752000  0.46988000  1.0
  H  H15  1  0.97927000  0.25130000  0.44639000  1.0
  H  H16  1  0.01553000  0.75520000  0.47830000  1.0
  H  H17  1  0.17727000  0.39518000  0.43865000  1.0
  H  H18  1  0.81510000  0.61385000  0.46659000  1.0
  H  H19  1  0.49611000  0.61835000  0.28539000  1.0
  H  H20  1  0.50666000  0.38024000  0.71799000  1.0
  H  H21  1  0.49577000  0.61922000  0.15813000  1.0
  H  H22  1  0.50547000  0.38015000  0.84514000  1.0
  H  H23  1  0.50336000  0.38128000  0.15746000  1.0
  H  H24  1  0.60190000  0.37970000  0.93928000  1.0
  H  H25  1  0.49560000  0.61879000  0.84534000  1.0
  H  H26  1  0.50455000  0.38153000  0.28472000  1.0
  H  H27  1  0.49333000  0.61859000  0.71816000  1.0
  H  H28  1  0.15482000  0.29809000  0.32386000  1.0
  H  H29  1  0.26026000  0.16027000  0.29454000  1.0
  H  H30  1  0.29961000  0.05342000  0.38205000  1.0
  H  H31  1  0.23533000  0.08572000  0.49898000  1.0
  H  H32  1  0.12842000  0.22337000  0.52734000  1.0
  H  H33  1  0.80389000  0.73590000  0.37080000  1.0
  H  H34  1  0.69180000  0.87655000  0.37247000  1.0
  H  H35  1  0.39813000  0.62016000  0.06393000  1.0
  H  H36  1  0.68130000  0.96047000  0.47453000  1.0
  H  H37  1  0.78245000  0.90255000  0.57540000  1.0
  H  H38  1  0.89465000  0.76223000  0.57325000  1.0
  H  H39  1  0.38981000  0.34350000  0.43182000  1.0
  H  H40  1  0.61467000  0.65590000  0.56694000  1.0
  H  H41  1  0.38273000  0.20889000  0.42887000  1.0
  H  H42  1  0.62184000  0.79060000  0.56691000  1.0
  H  H43  1  0.61099000  0.13228000  0.57293000  1.0
  C  C44  1  0.49969000  0.49955000  0.63439000  1.0
  C  C45  1  0.50456000  0.43211000  0.81746000  1.0
  C  C46  1  0.49954000  0.50027000  0.14891000  1.0
  C  C47  1  0.50057000  0.49946000  0.85424000  1.0
  C  C48  1  0.50282000  0.43312000  0.18538000  1.0
  C  C49  1  0.49654000  0.56672000  0.81756000  1.0
  C  C50  1  0.50275000  0.43308000  0.25613000  1.0
  C  C51  1  0.49620000  0.56672000  0.74679000  1.0
  C  C52  1  0.50001000  0.50002000  0.29238000  1.0
  C  C53  1  0.50021000  0.49934000  0.71062000  1.0
  C  C54  1  0.55568000  0.43245000  0.03730000  1.0
  C  C55  1  0.50042000  0.49958000  0.36855000  1.0
  C  C56  1  0.44447000  0.56747000  0.96588000  1.0
  C  C57  1  0.55590000  0.43217000  0.96651000  1.0
  C  C58  1  0.44412000  0.56769000  0.03667000  1.0
  C  C59  1  0.68124000  0.43668000  0.49598000  1.0
  C  C60  1  0.31847000  0.56382000  0.49302000  1.0
  C  C61  1  0.50033000  0.49969000  0.92934000  1.0
  C  C62  1  0.49975000  0.50019000  0.07383000  1.0
  C  C63  1  0.43704000  0.29450000  0.46229000  1.0
  C  C64  1  0.56592000  0.70478000  0.53715000  1.0
  C  C65  1  0.43440000  0.21943000  0.46044000  1.0
  C  C66  1  0.10329000  0.41155000  0.44643000  1.0
  C  C67  1  0.56874000  0.77979000  0.53735000  1.0
  C  C68  1  0.49706000  0.15854000  0.50073000  1.0
  C  C69  1  0.50423000  0.84054000  0.49800000  1.0
  C  C70  1  0.55954000  0.17741000  0.54163000  1.0
  C  C71  1  0.44049000  0.82132000  0.45891000  1.0
  C  C72  1  0.55772000  0.25389000  0.54066000  1.0
  C  C73  1  0.44200000  0.74496000  0.46150000  1.0
  C  C74  1  0.51540000  0.03227000  0.55995000  1.0
  C  C75  1  0.48478000  0.96706000  0.43855000  1.0
  C  C76  1  0.51755000  0.95557000  0.55917000  1.0
  C  C77  1  0.89004000  0.59638000  0.46653000  1.0
  C  C78  1  0.48277000  0.04374000  0.43924000  1.0
  C  C79  1  0.50230000  0.92172000  0.49842000  1.0
  C  C80  1  0.49815000  0.07758000  0.49997000  1.0
  C  C81  1  0.78234000  0.41239000  0.48107000  1.0
  C  C82  1  0.21592000  0.59002000  0.48270000  1.0
  C  C83  1  0.93404000  0.31296000  0.45584000  1.0
  C  C84  1  0.06158000  0.69265000  0.47728000  1.0
  C  C85  1  0.84114000  0.33255000  0.46890000  1.0
  C  C86  1  0.15623000  0.67105000  0.48286000  1.0
  C  C87  1  0.81803000  0.47070000  0.47786000  1.0
  C  C88  1  0.06955000  0.35248000  0.44333000  1.0
  C  C89  1  0.17913000  0.53294000  0.47355000  1.0
  C  C90  1  0.91225000  0.45291000  0.46465000  1.0
  C  C91  1  0.08311000  0.55292000  0.46669000  1.0
  C  C92  1  0.97255000  0.37153000  0.45479000  1.0
  C  C93  1  0.02228000  0.63487000  0.47127000  1.0
  C  C94  1  0.94878000  0.51435000  0.46309000  1.0
  C  C95  1  0.04556000  0.49259000  0.45862000  1.0
  C  C96  1  0.13403000  0.26996000  0.42739000  1.0
  C  C97  1  0.17290000  0.25144000  0.36224000  1.0
  C  C98  1  0.23212000  0.17391000  0.34586000  1.0
  C  C99  1  0.92374000  0.65552000  0.46958000  1.0
  C  C100  1  0.25401000  0.11405000  0.39480000  1.0
  C  C101  1  0.21740000  0.13207000  0.46028000  1.0
  C  C102  1  0.15745000  0.20937000  0.47634000  1.0
  C  C103  1  0.85719000  0.73965000  0.47166000  1.0
  C  C104  1  0.79879000  0.77260000  0.41570000  1.0
  C  C105  1  0.73603000  0.85162000  0.41670000  1.0
  C  C106  1  0.73027000  0.89879000  0.47384000  1.0
  C  C107  1  0.78709000  0.86628000  0.53027000  1.0
  C  C108  1  0.85030000  0.78742000  0.52916000  1.0
  C  C109  1  0.49703000  0.56708000  0.25655000  1.0
  C  C110  1  0.50451000  0.43200000  0.74667000  1.0
  C  C111  1  0.49637000  0.56734000  0.18577000  1.0
  N  N112  1  0.49766000  0.31142000  0.50155000  1.0
  N  N113  1  0.50325000  0.68782000  0.50032000  1.0
  O  O114  1  0.51099000  0.43443000  0.60457000  1.0
  O  O115  1  0.50168000  0.56105000  0.39850000  1.0
  O  O116  1  0.48786000  0.56497000  0.60522000  1.0
  O  O117  1  0.49958000  0.43763000  0.39755000  1.0
  O  O118  1  0.64817000  0.38314000  0.49533000  1.0
  O  O119  1  0.35225000  0.61694000  0.49296000  1.0
  O  O120  1  0.63562000  0.51030000  0.50757000  1.0
  O  O121  1  0.36405000  0.48960000  0.50127000  1.0
