# generated using pymatgen
data_Tb2CuH16C32(N2O13)2
_symmetry_space_group_name_H-M   'P 1'
_cell_length_a   9.82517000
_cell_length_b   10.25360000
_cell_length_c   11.00200000
_cell_angle_alpha   70.18640000
_cell_angle_beta   85.17430000
_cell_angle_gamma   71.32730000
_symmetry_Int_Tables_number   1
_chemical_formula_structural   Tb2CuH16C32(N2O13)2
_chemical_formula_sum   'Tb2 Cu1 H16 C32 N4 O26'
_cell_volume   987.50468780
_cell_formula_units_Z   1
loop_
 _symmetry_equiv_pos_site_id
 _symmetry_equiv_pos_as_xyz
  1  'x, y, z'
loop_
 _atom_site_type_symbol
 _atom_site_label
 _atom_site_symmetry_multiplicity
 _atom_site_fract_x
 _atom_site_fract_y
 _atom_site_fract_z
 _atom_site_occupancy
  Tb  Tb0  1  0.40520000  0.90608000  0.41700000  1.0
  Tb  Tb1  1  0.59479000  0.09392000  0.58300000  1.0
  Cu  Cu2  1  0.50000000  0.50000000  0.50000000  1.0
  H  H3  1  0.91841000  0.86383000  0.48399000  1.0
  H  H4  1  0.08159000  0.13617000  0.51600000  1.0
  H  H5  1  0.80904000  0.46636000  0.66231000  1.0
  H  H6  1  0.19096000  0.53365000  0.33769000  1.0
  H  H7  1  0.25049000  0.45490000  0.65283000  1.0
  H  H8  1  0.74951000  0.54510000  0.34717000  1.0
  H  H9  1  0.46223000  0.87109000  0.97838000  1.0
  H  H10  1  0.53777000  0.12890000  0.02162000  1.0
  H  H11  1  0.34943000  0.48720000  0.20349000  1.0
  H  H12  1  0.65057000  0.51280000  0.79651000  1.0
  H  H13  1  0.29222000  0.64900000  0.78913000  1.0
  H  H14  1  0.70778000  0.35099000  0.21087000  1.0
  H  H15  1  0.22152000  0.17336000  0.18892000  1.0
  H  H16  1  0.77848000  0.82664000  0.81108000  1.0
  H  H17  1  0.12534000  0.07331000  0.26419000  1.0
  H  H18  1  0.87467000  0.92669000  0.73581000  1.0
  C  C19  1  0.09561000  0.66762000  0.56105000  1.0
  C  C20  1  0.90439000  0.33239000  0.43894000  1.0
  C  C21  1  0.94943000  0.74688000  0.53592000  1.0
  C  C22  1  0.05056000  0.25312000  0.46408000  1.0
  C  C23  1  0.84603000  0.67477000  0.57042000  1.0
  C  C24  1  0.15397000  0.32523000  0.42958000  1.0
  C  C25  1  0.88744000  0.52503000  0.63765000  1.0
  C  C26  1  0.11256000  0.47497000  0.36235000  1.0
  C  C27  1  0.03161000  0.45083000  0.67122000  1.0
  C  C28  1  0.96839000  0.54917000  0.32877000  1.0
  C  C29  1  0.13799000  0.51831000  0.63105000  1.0
  C  C30  1  0.86201000  0.48170000  0.36895000  1.0
  C  C31  1  0.20204000  0.74622000  0.50537000  1.0
  C  C32  1  0.79796000  0.25377000  0.49463000  1.0
  C  C33  1  0.69336000  0.75460000  0.52742000  1.0
  C  C34  1  0.30663000  0.24540000  0.47258000  1.0
  C  C35  1  0.38218000  0.76801000  0.87108000  1.0
  C  C36  1  0.61782000  0.23199000  0.12892000  1.0
  C  C37  1  0.41895000  0.78351000  0.98493000  1.0
  C  C38  1  0.58106000  0.21648000  0.01507000  1.0
  C  C39  1  0.40608000  0.68293000  0.10505000  1.0
  C  C40  1  0.59392000  0.31706000  0.89495000  1.0
  C  C41  1  0.35263000  0.56998000  0.11143000  1.0
  C  C42  1  0.64737000  0.43002000  0.88857000  1.0
  C  C43  1  0.30512000  0.56416000  0.99855000  1.0
  C  C44  1  0.69488000  0.43584000  0.00145000  1.0
  C  C45  1  0.32097000  0.66024000  0.87748000  1.0
  C  C46  1  0.67903000  0.33976000  0.12252000  1.0
  C  C47  1  0.41735000  0.85946000  0.74043000  1.0
  C  C48  1  0.58266000  0.14053000  0.25957000  1.0
  C  C49  1  0.44969000  0.68694000  0.23125000  1.0
  C  C50  1  0.55031000  0.31306000  0.76876000  1.0
  N  N51  1  0.07261000  0.29346000  0.74547000  1.0
  N  N52  1  0.92738000  0.70655000  0.25452000  1.0
  N  N53  1  0.24154000  0.44991000  0.00891000  1.0
  N  N54  1  0.75846000  0.55009000  0.99110000  1.0
  O  O55  1  0.33473000  0.67721000  0.49336000  1.0
  O  O56  1  0.66527000  0.32279000  0.50664000  1.0
  O  O57  1  0.16217000  0.88421000  0.46630000  1.0
  O  O58  1  0.83782000  0.11579000  0.53370000  1.0
  O  O59  1  0.64120000  0.88924000  0.51754000  1.0
  O  O60  1  0.35880000  0.11076000  0.48246000  1.0
  O  O61  1  0.61798000  0.69028000  0.49633000  1.0
  O  O62  1  0.38202000  0.30972000  0.50366000  1.0
  O  O63  1  0.97376000  0.23939000  0.78430000  1.0
  O  O64  1  0.02624000  0.76061000  0.21570000  1.0
  O  O65  1  0.20222000  0.22453000  0.76320000  1.0
  O  O66  1  0.79778000  0.77548000  0.23680000  1.0
  O  O67  1  0.38452000  0.83411000  0.64352000  1.0
  O  O68  1  0.61548000  0.16588000  0.35648000  1.0
  O  O69  1  0.48153000  0.94974000  0.73871000  1.0
  O  O70  1  0.51847000  0.05025000  0.26129000  1.0
  O  O71  1  0.43592000  0.80668000  0.24589000  1.0
  O  O72  1  0.56408000  0.19333000  0.75411000  1.0
  O  O73  1  0.49679000  0.55848000  0.31513000  1.0
  O  O74  1  0.50322000  0.44152000  0.68487000  1.0
  O  O75  1  0.24446000  0.35715000  0.11825000  1.0
  O  O76  1  0.75554000  0.64285000  0.88175000  1.0
  O  O77  1  0.18790000  0.45059000  0.91092000  1.0
  O  O78  1  0.81210000  0.54941000  0.08908000  1.0
  O  O79  1  0.22144000  0.08193000  0.25706000  1.0
  O  O80  1  0.77856000  0.91807000  0.74295000  1.0
