# generated using pymatgen
data_SrH11C7NO8
_symmetry_space_group_name_H-M   'P 1'
_cell_length_a   7.06686000
_cell_length_b   8.68293000
_cell_length_c   10.00250000
_cell_angle_alpha   71.33540000
_cell_angle_beta   73.64730000
_cell_angle_gamma   81.06500000
_symmetry_Int_Tables_number   1
_chemical_formula_structural   SrH11C7NO8
_chemical_formula_sum   'Sr2 H22 C14 N2 O16'
_cell_volume   556.52464543
_cell_formula_units_Z   2
loop_
 _symmetry_equiv_pos_site_id
 _symmetry_equiv_pos_as_xyz
  1  'x, y, z'
loop_
 _atom_site_type_symbol
 _atom_site_label
 _atom_site_symmetry_multiplicity
 _atom_site_fract_x
 _atom_site_fract_y
 _atom_site_fract_z
 _atom_site_occupancy
  Sr  Sr0  1  0.27145000  0.12341000  0.40137000  1.0
  Sr  Sr1  1  0.72855000  0.87658000  0.59864000  1.0
  H  H2  1  0.37762000  0.93744000  0.91463000  1.0
  H  H3  1  0.62237000  0.06258000  0.08537000  1.0
  H  H4  1  0.03072000  0.65599000  0.29730000  1.0
  H  H5  1  0.96928000  0.34402000  0.70270000  1.0
  H  H6  1  0.88419000  0.72467000  0.89044000  1.0
  H  H7  1  0.11580000  0.27533000  0.10956000  1.0
  H  H8  1  0.91919000  0.39264000  0.41960000  1.0
  H  H9  1  0.08081000  0.60735000  0.58041000  1.0
  H  H10  1  0.87031000  0.24255000  0.55628000  1.0
  H  H11  1  0.12969000  0.75745000  0.44372000  1.0
  H  H12  1  0.34338000  0.38956000  0.54357000  1.0
  H  H13  1  0.65662000  0.61044000  0.45643000  1.0
  H  H14  1  0.31513000  0.83426000  0.23322000  1.0
  H  H15  1  0.68487000  0.16574000  0.76678000  1.0
  H  H16  1  0.54041000  0.38719000  0.41862000  1.0
  H  H17  1  0.45958000  0.61280000  0.58138000  1.0
  H  H18  1  0.35769000  0.37984000  0.06804000  1.0
  H  H19  1  0.64231000  0.62016000  0.93196000  1.0
  H  H20  1  0.44222000  0.79202000  0.35937000  1.0
  H  H21  1  0.55778000  0.20797000  0.64063000  1.0
  H  H22  1  0.46019000  0.43118000  0.16603000  1.0
  H  H23  1  0.53980000  0.56881000  0.83398000  1.0
  C  C24  1  0.18125000  0.91279000  0.72074000  1.0
  C  C25  1  0.81876000  0.08721000  0.27926000  1.0
  C  C26  1  0.13636000  0.83848000  0.88280000  1.0
  C  C27  1  0.86364000  0.16152000  0.11720000  1.0
  C  C28  1  0.25126000  0.86274000  0.96672000  1.0
  C  C29  1  0.74874000  0.13725000  0.03328000  1.0
  C  C30  1  0.05742000  0.70582000  0.17915000  1.0
  C  C31  1  0.94258000  0.29419000  0.82086000  1.0
  C  C32  1  0.93353000  0.67507000  0.10480000  1.0
  C  C33  1  0.06648000  0.32493000  0.89518000  1.0
  C  C34  1  0.97464000  0.74463000  0.95418000  1.0
  C  C35  1  0.02535000  0.25537000  0.04583000  1.0
  C  C36  1  0.76041000  0.57255000  0.18432000  1.0
  C  C37  1  0.23961000  0.42745000  0.81569000  1.0
  N  N38  1  0.21142000  0.79928000  0.11201000  1.0
  N  N39  1  0.78858000  0.20073000  0.88799000  1.0
  O  O40  1  0.64146000  0.56389000  0.11374000  1.0
  O  O41  1  0.35854000  0.43612000  0.88625000  1.0
  O  O42  1  0.74132000  0.49948000  0.32055000  1.0
  O  O43  1  0.25869000  0.50052000  0.67944000  1.0
  O  O44  1  0.04304000  0.93265000  0.65719000  1.0
  O  O45  1  0.95696000  0.06736000  0.34280000  1.0
  O  O46  1  0.35551000  0.95560000  0.65338000  1.0
  O  O47  1  0.64449000  0.04440000  0.34663000  1.0
  O  O48  1  0.98080000  0.31120000  0.49271000  1.0
  O  O49  1  0.01920000  0.68880000  0.50729000  1.0
  O  O50  1  0.33448000  0.86171000  0.31977000  1.0
  O  O51  1  0.66553000  0.13829000  0.68023000  1.0
  O  O52  1  0.43250000  0.31860000  0.48923000  1.0
  O  O53  1  0.56750000  0.68140000  0.51077000  1.0
  O  O54  1  0.36270000  0.35674000  0.17093000  1.0
  O  O55  1  0.63730000  0.64325000  0.82907000  1.0
