# generated using pymatgen
data_CdH10C12(NO)4
_symmetry_space_group_name_H-M   'P 1'
_cell_length_a   17.56198931
_cell_length_b   17.56180000
_cell_length_c   17.56200000
_cell_angle_alpha   115.59500000
_cell_angle_beta   97.81620770
_cell_angle_gamma   115.59497804
_symmetry_Int_Tables_number   1
_chemical_formula_structural   CdH10C12(NO)4
_chemical_formula_sum   'Cd8 H80 C96 N32 O32'
_cell_volume   4044.20074936
_cell_formula_units_Z   8
loop_
 _symmetry_equiv_pos_site_id
 _symmetry_equiv_pos_as_xyz
  1  'x, y, z'
loop_
 _atom_site_type_symbol
 _atom_site_label
 _atom_site_symmetry_multiplicity
 _atom_site_fract_x
 _atom_site_fract_y
 _atom_site_fract_z
 _atom_site_occupancy
  Cd  Cd0  1  0.83650000  0.88720000  0.29150000  1.0
  Cd  Cd1  1  0.79150000  0.95500000  0.90430000  1.0
  Cd  Cd2  1  0.94930000  0.54500000  0.33650000  1.0
  Cd  Cd3  1  0.59570000  0.38720000  0.55070000  1.0
  Cd  Cd4  1  0.05070000  0.45500000  0.66350000  1.0
  Cd  Cd5  1  0.16350000  0.11280000  0.70850000  1.0
  Cd  Cd6  1  0.20850000  0.04500000  0.09570000  1.0
  Cd  Cd7  1  0.40430000  0.61280000  0.44930000  1.0
  H  H8  1  0.88571000  0.70280000  0.44116000  1.0
  H  H9  1  0.94115000  0.05544000  0.23835000  1.0
  H  H10  1  0.18291000  0.44455000  0.38571000  1.0
  H  H11  1  0.26164000  0.20279000  0.31709000  1.0
  H  H12  1  0.81709000  0.55545000  0.61429000  1.0
  H  H13  1  0.11429000  0.29720000  0.55884000  1.0
  H  H14  1  0.05885000  0.94456000  0.76165000  1.0
  H  H15  1  0.73836000  0.79721000  0.68291000  1.0
  H  H16  1  0.87770000  0.19987000  0.58674000  1.0
  H  H17  1  0.08674000  0.20904000  0.88687000  1.0
  H  H18  1  0.67783000  0.29096000  0.37770000  1.0
  H  H19  1  0.61313000  0.69987000  0.82217000  1.0
  H  H20  1  0.32217000  0.70904000  0.62230000  1.0
  H  H21  1  0.12230000  0.80013000  0.41326000  1.0
  H  H22  1  0.91326000  0.79096000  0.11313000  1.0
  H  H23  1  0.38687000  0.30013000  0.17783000  1.0
  H  H24  1  0.66237000  0.70237000  0.30957000  1.0
  H  H25  1  0.80958000  0.14721000  0.10721000  1.0
  H  H26  1  0.96001000  0.35280000  0.16238000  1.0
  H  H27  1  0.39279000  0.20237000  0.53999000  1.0
  H  H28  1  0.03999000  0.64720000  0.83762000  1.0
  H  H29  1  0.33763000  0.29763000  0.69043000  1.0
  H  H30  1  0.19042000  0.85279000  0.89279000  1.0
  H  H31  1  0.60721000  0.79763000  0.46001000  1.0
  H  H32  1  0.94631000  0.82338000  0.38906000  1.0
  H  H33  1  0.88907000  0.94275000  0.06568000  1.0
  H  H34  1  0.12293000  0.55725000  0.44632000  1.0
  H  H35  1  0.43432000  0.32338000  0.37707000  1.0
  H  H36  1  0.87707000  0.44275000  0.55368000  1.0
  H  H37  1  0.05368000  0.17661000  0.61093000  1.0
  H  H38  1  0.11093000  0.05725000  0.93432000  1.0
  H  H39  1  0.56568000  0.67662000  0.62293000  1.0
  H  H40  1  0.62142000  0.57880000  0.38286000  1.0
  H  H41  1  0.88286000  0.26144000  0.30406000  1.0
  H  H42  1  0.04262000  0.23856000  0.12142000  1.0
  H  H43  1  0.19594000  0.07880000  0.45738000  1.0
  H  H44  1  0.95738000  0.76144000  0.87858000  1.0
  H  H45  1  0.37858000  0.42120000  0.61714000  1.0
  H  H46  1  0.11714000  0.73856000  0.69594000  1.0
  H  H47  1  0.80406000  0.92120000  0.54262000  1.0
  H  H48  1  0.80083000  0.61459000  0.49053000  1.0
  H  H49  1  0.99053000  0.18970000  0.37594000  1.0
  H  H50  1  0.18624000  0.31029000  0.30083000  1.0
  H  H51  1  0.12405000  0.11458000  0.31376000  1.0
  H  H52  1  0.81376000  0.68971000  0.69917000  1.0
  H  H53  1  0.19917000  0.38541000  0.50947000  1.0
  H  H54  1  0.00947000  0.81030000  0.62406000  1.0
  H  H55  1  0.87595000  0.88542000  0.68624000  1.0
  H  H56  1  0.71266000  0.99238000  0.29900000  1.0
  H  H57  1  0.79901000  0.08635000  0.80663000  1.0
  H  H58  1  0.72028000  0.41365000  0.21266000  1.0
  H  H59  1  0.69338000  0.49238000  0.77972000  1.0
  H  H60  1  0.27972000  0.58635000  0.78734000  1.0
  H  H61  1  0.28734000  0.00762000  0.70099000  1.0
  H  H62  1  0.20100000  0.91366000  0.19337000  1.0
  H  H63  1  0.30662000  0.50762000  0.22028000  1.0
  H  H64  1  0.90766000  0.05914000  0.52626000  1.0
  H  H65  1  0.02626000  0.11860000  0.96711000  1.0
  H  H66  1  0.84852000  0.38141000  0.40767000  1.0
  H  H67  1  0.53289000  0.55915000  0.65149000  1.0
  H  H68  1  0.15148000  0.61859000  0.59233000  1.0
  H  H69  1  0.09234000  0.94086000  0.47374000  1.0
  H  H70  1  0.97374000  0.88140000  0.03289000  1.0
  H  H71  1  0.46711000  0.44085000  0.34851000  1.0
  H  H72  1  0.68621000  0.14747000  0.38986000  1.0
  H  H73  1  0.88986000  0.20365000  0.74239000  1.0
  H  H74  1  0.53874000  0.29635000  0.18621000  1.0
  H  H75  1  0.75761000  0.64747000  0.96126000  1.0
  H  H76  1  0.46126000  0.70365000  0.81379000  1.0
  H  H77  1  0.31379000  0.85253000  0.61014000  1.0
  H  H78  1  0.11014000  0.79635000  0.25761000  1.0
  H  H79  1  0.24239000  0.35253000  0.03874000  1.0
  H  H80  1  0.78167000  0.26850000  0.60155000  1.0
  H  H81  1  0.10155000  0.31988000  0.83304000  1.0
  H  H82  1  0.51316000  0.18012000  0.28166000  1.0
  H  H83  1  0.66695000  0.76850000  0.98683000  1.0
  H  H84  1  0.48683000  0.81988000  0.71833000  1.0
  H  H85  1  0.21833000  0.73150000  0.39845000  1.0
  H  H86  1  0.89845000  0.68012000  0.16695000  1.0
  H  H87  1  0.33305000  0.23150000  0.01317000  1.0
  C  C88  1  0.75096000  0.67660000  0.38575000  1.0
  C  C89  1  0.88575000  0.13479000  0.20915000  1.0
  C  C90  1  0.07436000  0.36521000  0.25096000  1.0
  C  C91  1  0.29085000  0.17660000  0.42564000  1.0
  C  C92  1  0.92564000  0.63479000  0.74904000  1.0
  C  C93  1  0.24904000  0.32340000  0.61425000  1.0
  C  C94  1  0.11425000  0.86521000  0.79085000  1.0
  C  C95  1  0.70915000  0.82340000  0.57436000  1.0
  C  C96  1  0.72895000  0.71652000  0.33976000  1.0
  C  C97  1  0.83977000  0.11081000  0.12324000  1.0
  C  C98  1  0.01243000  0.38919000  0.22895000  1.0
  C  C99  1  0.37676000  0.21653000  0.48757000  1.0
  C  C100  1  0.98757000  0.61081000  0.77105000  1.0
  C  C101  1  0.27105000  0.28348000  0.66024000  1.0
  C  C102  1  0.16023000  0.88919000  0.87676000  1.0
  C  C103  1  0.62324000  0.78347000  0.51243000  1.0
  C  C104  1  0.87570000  0.78030000  0.38025000  1.0
  C  C105  1  0.88026000  0.00456000  0.09996000  1.0
  C  C106  1  0.09540000  0.49544000  0.37570000  1.0
  C  C107  1  0.40004000  0.28029000  0.40460000  1.0
  C  C108  1  0.90460000  0.50456000  0.62430000  1.0
  C  C109  1  0.12430000  0.21970000  0.61975000  1.0
  C  C110  1  0.11974000  0.99544000  0.90004000  1.0
  C  C111  1  0.59996000  0.71971000  0.59541000  1.0
  C  C112  1  0.69495000  0.60953000  0.40920000  1.0
  C  C113  1  0.90920000  0.21425000  0.29967000  1.0
  C  C114  1  0.08542000  0.28575000  0.19495000  1.0
  C  C115  1  0.20033000  0.10953000  0.41458000  1.0
  C  C116  1  0.91458000  0.71425000  0.80505000  1.0
  C  C117  1  0.30505000  0.39047000  0.59080000  1.0
  C  C118  1  0.09080000  0.78575000  0.70033000  1.0
  C  C119  1  0.79967000  0.89047000  0.58542000  1.0
  C  C120  1  0.72759000  0.58431000  0.46222000  1.0
  C  C121  1  0.96221000  0.23462000  0.37790000  1.0
  C  C122  1  0.14328000  0.26538000  0.22759000  1.0
  C  C123  1  0.12210000  0.08431000  0.35673000  1.0
  C  C124  1  0.85672000  0.73462000  0.77241000  1.0
  C  C125  1  0.27241000  0.41568000  0.53778000  1.0
  C  C126  1  0.03779000  0.76538000  0.62210000  1.0
  C  C127  1  0.87790000  0.91569000  0.64327000  1.0
  C  C128  1  0.66888000  0.51573000  0.48593000  1.0
  C  C129  1  0.98592000  0.31704000  0.47020000  1.0
  C  C130  1  0.15316000  0.18296000  0.16888000  1.0
  C  C131  1  0.02980000  0.01572000  0.34684000  1.0
  C  C132  1  0.84684000  0.81704000  0.83112000  1.0
  C  C133  1  0.33112000  0.48427000  0.51407000  1.0
  C  C134  1  0.01408000  0.68296000  0.52980000  1.0
  C  C135  1  0.97020000  0.98428000  0.65315000  1.0
  C  C136  1  0.77569000  0.11663000  0.44759000  1.0
  C  C137  1  0.94760000  0.17191000  0.83096000  1.0
  C  C138  1  0.65906000  0.32810000  0.27569000  1.0
  C  C139  1  0.66904000  0.61664000  0.84094000  1.0
  C  C140  1  0.34094000  0.67190000  0.72431000  1.0
  C  C141  1  0.22431000  0.88337000  0.55241000  1.0
  C  C142  1  0.05240000  0.82809000  0.16903000  1.0
  C  C143  1  0.33096000  0.38336000  0.15906000  1.0
  C  C144  1  0.75890000  0.03165000  0.36969000  1.0
  C  C145  1  0.86970000  0.11080000  0.83805000  1.0
  C  C146  1  0.72725000  0.38920000  0.25890000  1.0
  C  C147  1  0.66195000  0.53164000  0.77274000  1.0
  C  C148  1  0.27275000  0.61080000  0.74110000  1.0
  C  C149  1  0.24110000  0.96835000  0.63031000  1.0
  C  C150  1  0.13030000  0.88920000  0.16195000  1.0
  C  C151  1  0.33805000  0.46836000  0.22726000  1.0
  C  C152  1  0.86018000  0.06422000  0.48485000  1.0
  C  C153  1  0.98485000  0.12467000  0.92063000  1.0
  C  C154  1  0.79596000  0.37533000  0.36018000  1.0
  C  C155  1  0.57937000  0.56422000  0.70404000  1.0
  C  C156  1  0.20404000  0.62467000  0.63982000  1.0
  C  C157  1  0.13982000  0.93578000  0.51515000  1.0
  C  C158  1  0.01515000  0.87533000  0.07937000  1.0
  C  C159  1  0.42063000  0.43578000  0.29596000  1.0
  C  C160  1  0.73230000  0.17098000  0.45531000  1.0
  C  C161  1  0.95531000  0.22301000  0.78433000  1.0
  C  C162  1  0.56132000  0.27699000  0.23230000  1.0
  C  C163  1  0.71567000  0.67098000  0.93868000  1.0
  C  C164  1  0.43868000  0.72301000  0.76770000  1.0
  C  C165  1  0.26770000  0.82902000  0.54469000  1.0
  C  C166  1  0.04469000  0.77699000  0.21567000  1.0
  C  C167  1  0.28433000  0.32902000  0.06132000  1.0
  C  C168  1  0.73914000  0.24303000  0.53357000  1.0
  C  C169  1  0.03357000  0.29443000  0.79054000  1.0
  C  C170  1  0.49611000  0.20557000  0.23914000  1.0
  C  C171  1  0.70946000  0.74303000  0.00389000  1.0
  C  C172  1  0.50389000  0.79443000  0.76086000  1.0
  C  C173  1  0.26086000  0.75697000  0.46643000  1.0
  C  C174  1  0.96643000  0.70557000  0.20946000  1.0
  C  C175  1  0.29054000  0.25697000  0.99611000  1.0
  C  C176  1  0.68475000  0.28729000  0.53141000  1.0
  C  C177  1  0.03141000  0.34666000  0.74412000  1.0
  C  C178  1  0.39746000  0.15334000  0.18475000  1.0
  C  C179  1  0.75588000  0.78729000  0.10255000  1.0
  C  C180  1  0.60254000  0.84666000  0.81525000  1.0
  C  C181  1  0.31525000  0.71271000  0.46859000  1.0
  C  C182  1  0.96859000  0.65334000  0.25588000  1.0
  C  C183  1  0.24412000  0.21271000  0.89745000  1.0
  N  N184  1  0.84476000  0.71916000  0.41043000  1.0
  N  N185  1  0.91043000  0.06567000  0.19127000  1.0
  N  N186  1  0.12560000  0.43432000  0.34476000  1.0
  N  N187  1  0.30872000  0.21915000  0.37439000  1.0
  N  N188  1  0.87440000  0.56567000  0.65524000  1.0
  N  N189  1  0.15525000  0.28085000  0.58958000  1.0
  N  N190  1  0.08957000  0.93433000  0.80873000  1.0
  N  N191  1  0.69128000  0.78085000  0.62561000  1.0
  N  N192  1  0.80720000  0.78103000  0.33730000  1.0
  N  N193  1  0.83730000  0.03010000  0.05627000  1.0
  N  N194  1  0.02617000  0.46990000  0.30720000  1.0
  N  N195  1  0.44373000  0.28103000  0.47383000  1.0
  N  N196  1  0.97383000  0.53010000  0.69280000  1.0
  N  N197  1  0.19280000  0.21897000  0.66270000  1.0
  N  N198  1  0.16270000  0.96990000  0.94373000  1.0
  N  N199  1  0.55627000  0.71897000  0.52617000  1.0
  N  N200  1  0.84041000  0.13518000  0.51951000  1.0
  N  N201  1  0.01952000  0.17911000  0.88434000  1.0
  N  N202  1  0.70523000  0.32089000  0.34041000  1.0
  N  N203  1  0.61567000  0.63519000  0.79477000  1.0
  N  N204  1  0.29477000  0.67911000  0.65959000  1.0
  N  N205  1  0.15959000  0.86482000  0.48049000  1.0
  N  N206  1  0.98048000  0.82089000  0.11566000  1.0
  N  N207  1  0.38433000  0.36481000  0.20523000  1.0
  N  N208  1  0.81115000  0.99966000  0.39383000  1.0
  N  N209  1  0.89383000  0.08268000  0.89417000  1.0
  N  N210  1  0.81149000  0.41733000  0.31115000  1.0
  N  N211  1  0.60584000  0.49966000  0.68852000  1.0
  N  N212  1  0.18851000  0.58267000  0.68885000  1.0
  N  N213  1  0.18885000  0.00034000  0.60617000  1.0
  N  N214  1  0.10617000  0.91732000  0.10583000  1.0
  N  N215  1  0.39416000  0.50033000  0.31148000  1.0
  O  O216  1  0.68165000  0.34067000  0.60733000  1.0
  O  O217  1  0.10732000  0.42567000  0.76665000  1.0
  O  O218  1  0.34098000  0.07432000  0.18165000  1.0
  O  O219  1  0.73334000  0.84066000  0.15902000  1.0
  O  O220  1  0.65902000  0.92568000  0.81835000  1.0
  O  O221  1  0.31835000  0.65933000  0.39267000  1.0
  O  O222  1  0.89267000  0.57432000  0.23334000  1.0
  O  O223  1  0.26666000  0.15934000  0.84098000  1.0
  O  O224  1  0.64152000  0.27174000  0.45561000  1.0
  O  O225  1  0.95561000  0.31409000  0.68387000  1.0
  O  O226  1  0.36978000  0.18590000  0.14152000  1.0
  O  O227  1  0.81612000  0.77173000  0.13021000  1.0
  O  O228  1  0.63022000  0.81410000  0.85848000  1.0
  O  O229  1  0.35848000  0.72826000  0.54439000  1.0
  O  O230  1  0.04439000  0.68591000  0.31613000  1.0
  O  O231  1  0.18388000  0.22827000  0.86979000  1.0
  O  O232  1  0.71269000  0.50864000  0.54608000  1.0
  O  O233  1  0.04609000  0.33340000  0.53745000  1.0
  O  O234  1  0.20405000  0.16661000  0.21270000  1.0
  O  O235  1  0.96256000  0.00865000  0.29595000  1.0
  O  O236  1  0.79595000  0.83339000  0.78730000  1.0
  O  O237  1  0.28731000  0.49135000  0.45392000  1.0
  O  O238  1  0.95391000  0.66660000  0.46256000  1.0
  O  O239  1  0.03744000  0.99135000  0.70410667  1.0
  O  O240  1  0.58223000  0.46616000  0.45082000  1.0
  O  O241  1  0.95082000  0.36859000  0.48466000  1.0
  O  O242  1  0.11608000  0.13142000  0.08224000  1.0
  O  O243  1  0.01534000  0.96616000  0.38393000  1.0
  O  O244  1  0.88392000  0.86858000  0.91776000  1.0
  O  O245  1  0.41777000  0.53384000  0.54918000  1.0
  O  O246  1  0.04918000  0.63141000  0.51534000  1.0
  O  O247  1  0.98466000  0.03384000  0.61607000  1.0
