# generated using pymatgen
data_UH13C8NO7
_symmetry_space_group_name_H-M   'P 1'
_cell_length_a   8.13699000
_cell_length_b   12.04540000
_cell_length_c   12.30940000
_cell_angle_alpha   89.99990000
_cell_angle_beta   89.99990000
_cell_angle_gamma   95.14050000
_symmetry_Int_Tables_number   1
_chemical_formula_structural   UH13C8NO7
_chemical_formula_sum   'U4 H52 C32 N4 O28'
_cell_volume   1201.63240163
_cell_formula_units_Z   4
loop_
 _symmetry_equiv_pos_site_id
 _symmetry_equiv_pos_as_xyz
  1  'x, y, z'
loop_
 _atom_site_type_symbol
 _atom_site_label
 _atom_site_symmetry_multiplicity
 _atom_site_fract_x
 _atom_site_fract_y
 _atom_site_fract_z
 _atom_site_occupancy
  U  U0  1  0.86334000  0.30152000  0.40005000  1.0
  U  U1  1  0.63666000  0.19848000  0.90004000  1.0
  U  U2  1  0.13665000  0.69849000  0.59994000  1.0
  U  U3  1  0.36334000  0.80151000  0.09995000  1.0
  H  H4  1  0.56887000  0.60390000  0.59443000  1.0
  H  H5  1  0.93112000  0.89610000  0.09442000  1.0
  H  H6  1  0.43112000  0.39610000  0.40558000  1.0
  H  H7  1  0.06888000  0.10390000  0.90558000  1.0
  H  H8  1  0.66401000  0.58511000  0.72079000  1.0
  H  H9  1  0.83599000  0.91489000  0.22079000  1.0
  H  H10  1  0.33599000  0.41489000  0.27921000  1.0
  H  H11  1  0.16402000  0.08511000  0.77921000  1.0
  H  H12  1  0.37845000  0.47515000  0.68864000  1.0
  H  H13  1  0.12155000  0.02485000  0.18864000  1.0
  H  H14  1  0.62155000  0.52485000  0.31136000  1.0
  H  H15  1  0.87845000  0.97515000  0.81136000  1.0
  H  H16  1  0.47307000  0.39516000  0.59113000  1.0
  H  H17  1  0.02693000  0.10484000  0.09113000  1.0
  H  H18  1  0.52693000  0.60484000  0.40887000  1.0
  H  H19  1  0.97307000  0.89515000  0.90887000  1.0
  H  H20  1  0.32144000  0.17833000  0.26100000  1.0
  H  H21  1  0.17856000  0.32167000  0.76100000  1.0
  H  H22  1  0.67856000  0.82167000  0.73900000  1.0
  H  H23  1  0.82144000  0.67833000  0.23900000  1.0
  H  H24  1  0.45240000  0.06864000  0.24789000  1.0
  H  H25  1  0.04760000  0.43136000  0.74789000  1.0
  H  H26  1  0.54760000  0.93136000  0.75211000  1.0
  H  H27  1  0.95240000  0.56864000  0.25211000  1.0
  H  H28  1  0.53796000  0.20960000  0.23820000  1.0
  H  H29  1  0.96203000  0.29040000  0.73821000  1.0
  H  H30  1  0.46204000  0.79040000  0.76180000  1.0
  H  H31  1  0.03797000  0.70960000  0.26180000  1.0
  H  H32  1  0.51694000  0.14173000  0.60536000  1.0
  H  H33  1  0.98306000  0.35828000  0.10536000  1.0
  H  H34  1  0.48306000  0.85827000  0.39464000  1.0
  H  H35  1  0.01694000  0.64173000  0.89464000  1.0
  H  H36  1  0.34790000  0.03722000  0.62491000  1.0
  H  H37  1  0.15211000  0.46278000  0.12491000  1.0
  H  H38  1  0.65211000  0.96278000  0.37509000  1.0
  H  H39  1  0.84789000  0.53722000  0.87509000  1.0
  H  H40  1  0.31123000  0.18041000  0.61403000  1.0
  H  H41  1  0.18877000  0.31959000  0.11402000  1.0
  H  H42  1  0.68877000  0.81959000  0.38598000  1.0
  H  H43  1  0.81123000  0.68041000  0.88598000  1.0
  H  H44  1  0.23452000  0.00751000  0.34801000  1.0
  H  H45  1  0.26548000  0.49249000  0.84801000  1.0
  H  H46  1  0.76548000  0.99249000  0.65199000  1.0
  H  H47  1  0.73452000  0.50751000  0.15199000  1.0
  H  H48  1  0.11291000  0.07639000  0.44525000  1.0
  H  H49  1  0.38709000  0.42361000  0.94524000  1.0
  H  H50  1  0.88709000  0.92361000  0.55476000  1.0
  H  H51  1  0.61291000  0.57639000  0.05475000  1.0
  H  H52  1  0.21299000  0.95617000  0.48205000  1.0
  H  H53  1  0.28701000  0.54383000  0.98205000  1.0
  H  H54  1  0.78701000  0.04383000  0.51795000  1.0
  H  H55  1  0.71299000  0.45617000  0.01795000  1.0
  C  C56  1  0.77622000  0.51119000  0.58531000  1.0
  C  C57  1  0.72377000  0.98881000  0.08531000  1.0
  C  C58  1  0.22377000  0.48881000  0.41468000  1.0
  C  C59  1  0.27623000  0.01119000  0.91469000  1.0
  C  C60  1  0.62478000  0.54219000  0.64543000  1.0
  C  C61  1  0.87522000  0.95781000  0.14543000  1.0
  C  C62  1  0.37522000  0.45781000  0.35457000  1.0
  C  C63  1  0.12478000  0.04219000  0.85457000  1.0
  C  C64  1  0.49668000  0.44444000  0.66564000  1.0
  C  C65  1  0.00332000  0.05556000  0.16564000  1.0
  C  C66  1  0.50332000  0.55556000  0.33436000  1.0
  C  C67  1  0.99669000  0.94444000  0.83436000  1.0
  C  C68  1  0.54462000  0.36489000  0.75189000  1.0
  C  C69  1  0.95537000  0.13511000  0.25188000  1.0
  C  C70  1  0.45537000  0.63511000  0.24811000  1.0
  C  C71  1  0.04463000  0.86490000  0.74811000  1.0
  C  C72  1  0.44513000  0.15336000  0.27939000  1.0
  C  C73  1  0.05487000  0.34663000  0.77940000  1.0
  C  C74  1  0.55487000  0.84663000  0.72060000  1.0
  C  C75  1  0.94513000  0.65337000  0.22060000  1.0
  C  C76  1  0.47406000  0.15858000  0.39965000  1.0
  C  C77  1  0.02594000  0.34143000  0.89965000  1.0
  C  C78  1  0.52595000  0.84142000  0.60035000  1.0
  C  C79  1  0.97406000  0.65858000  0.10035000  1.0
  C  C80  1  0.38848000  0.11624000  0.58496000  1.0
  C  C81  1  0.11152000  0.38376000  0.08496000  1.0
  C  C82  1  0.61152000  0.88376000  0.41504000  1.0
  C  C83  1  0.88848000  0.61624000  0.91504000  1.0
  C  C84  1  0.22377000  0.03218000  0.43278000  1.0
  C  C85  1  0.27623000  0.46782000  0.93278000  1.0
  C  C86  1  0.77623000  0.96782000  0.56722000  1.0
  C  C87  1  0.72377000  0.53218000  0.06722000  1.0
  N  N88  1  0.36961000  0.10220000  0.46771000  1.0
  N  N89  1  0.13039000  0.39780000  0.96771000  1.0
  N  N90  1  0.63039000  0.89780000  0.53230000  1.0
  N  N91  1  0.86961000  0.60220000  0.03229000  1.0
  O  O92  1  0.78047000  0.37311000  0.28505000  1.0
  O  O93  1  0.71953000  0.12688000  0.78505000  1.0
  O  O94  1  0.21953000  0.62688000  0.71495000  1.0
  O  O95  1  0.28047000  0.87312000  0.21495000  1.0
  O  O96  1  0.95201000  0.23016000  0.51273000  1.0
  O  O97  1  0.54799000  0.26983000  0.01274000  1.0
  O  O98  1  0.04799000  0.76984000  0.48726000  1.0
  O  O99  1  0.45200000  0.73016000  0.98727000  1.0
  O  O100  1  0.75999000  0.43094000  0.51821000  1.0
  O  O101  1  0.74001000  0.06906000  0.01821000  1.0
  O  O102  1  0.24001000  0.56906000  0.48179000  1.0
  O  O103  1  0.25999000  0.93094000  0.98179000  1.0
  O  O104  1  0.91285000  0.56854000  0.60189000  1.0
  O  O105  1  0.58713000  0.93147000  0.10190000  1.0
  O  O106  1  0.08714000  0.43147000  0.39810000  1.0
  O  O107  1  0.41286000  0.06853000  0.89811000  1.0
  O  O108  1  0.68395000  0.37889000  0.80023000  1.0
  O  O109  1  0.81605000  0.12112000  0.30023000  1.0
  O  O110  1  0.31605000  0.62112000  0.19977000  1.0
  O  O111  1  0.18395000  0.87889000  0.69977000  1.0
  O  O112  1  0.44441000  0.28052000  0.77721000  1.0
  O  O113  1  0.05558000  0.21948000  0.27722000  1.0
  O  O114  1  0.55559000  0.71948000  0.22278000  1.0
  O  O115  1  0.94442000  0.78052000  0.72278000  1.0
  O  O116  1  0.59674000  0.21940000  0.43940000  1.0
  O  O117  1  0.90326000  0.28060000  0.93940000  1.0
  O  O118  1  0.40326000  0.78060000  0.56059000  1.0
  O  O119  1  0.09674000  0.71940000  0.06060000  1.0
