# generated using pymatgen
data_CuH6C6(NO)2
_symmetry_space_group_name_H-M   'P 1'
_cell_length_a   13.88673688
_cell_length_b   13.88650000
_cell_length_c   13.88650000
_cell_angle_alpha   105.55200000
_cell_angle_beta   105.55074252
_cell_angle_gamma   117.63259153
_symmetry_Int_Tables_number   1
_chemical_formula_structural   CuH6C6(NO)2
_chemical_formula_sum   'Cu4 H24 C24 N8 O8'
_cell_volume   2029.61932827
_cell_formula_units_Z   4
loop_
 _symmetry_equiv_pos_site_id
 _symmetry_equiv_pos_as_xyz
  1  'x, y, z'
loop_
 _atom_site_type_symbol
 _atom_site_label
 _atom_site_symmetry_multiplicity
 _atom_site_fract_x
 _atom_site_fract_y
 _atom_site_fract_z
 _atom_site_occupancy
  Cu  Cu0  1  0.48159000  0.58247000  0.10088000  1.0
  Cu  Cu1  1  0.48159000  0.38071000  0.89912000  1.0
  Cu  Cu2  1  0.33247000  0.73159000  0.60088000  1.0
  Cu  Cu3  1  0.13071000  0.73159000  0.39912000  1.0
  H  H4  1  0.33443000  0.73644000  0.92908000  1.0
  H  H5  1  0.49557000  0.83059000  0.00301000  1.0
  H  H6  1  0.40968000  0.73548000  0.05518000  1.0
  H  H7  1  0.80736000  0.40535000  0.07092000  1.0
  H  H8  1  0.82758000  0.49256000  0.99699000  1.0
  H  H9  1  0.68030000  0.35451000  0.94482000  1.0
  H  H10  1  0.48645000  0.05738000  0.90203000  1.0
  H  H11  1  0.58058000  0.07758000  0.83501000  1.0
  H  H12  1  0.48548000  0.93030000  0.82580000  1.0
  H  H13  1  0.15535000  0.58442000  0.09798000  1.0
  H  H14  1  0.24257000  0.74557000  0.16499000  1.0
  H  H15  1  0.10450000  0.65967000  0.17420000  1.0
  H  H16  1  0.80736000  0.73644000  0.40201000  1.0
  H  H17  1  0.82758000  0.83059000  0.33502000  1.0
  H  H18  1  0.68030000  0.73548000  0.32580000  1.0
  H  H19  1  0.33443000  0.40535000  0.59799000  1.0
  H  H20  1  0.49557000  0.49256000  0.66497000  1.0
  H  H21  1  0.40969000  0.35451000  0.67421000  1.0
  H  H22  1  0.15535000  0.05738000  0.57093000  1.0
  H  H23  1  0.24257000  0.07758000  0.49700000  1.0
  H  H24  1  0.10450000  0.93030000  0.44482000  1.0
  H  H25  1  0.48645000  0.58442000  0.42908000  1.0
  H  H26  1  0.58058000  0.74557000  0.50300000  1.0
  H  H27  1  0.48547000  0.65967000  0.55517000  1.0
  C  C28  1  0.41726000  0.64066000  0.91117000  1.0
  C  C29  1  0.41383000  0.74105000  0.97910000  1.0
  C  C30  1  0.72949000  0.50609000  0.08882000  1.0
  C  C31  1  0.76195000  0.43473000  0.02090000  1.0
  C  C32  1  0.39064000  0.97949000  0.72341000  1.0
  C  C33  1  0.49104000  0.01196000  0.82722000  1.0
  C  C34  1  0.25607000  0.66723000  0.27658000  1.0
  C  C35  1  0.18473000  0.66381000  0.17278000  1.0
  C  C36  1  0.72949000  0.64066000  0.22340000  1.0
  C  C37  1  0.76195000  0.74105000  0.32722000  1.0
  C  C38  1  0.41726000  0.50609000  0.77659000  1.0
  C  C39  1  0.41383000  0.43473000  0.67278000  1.0
  C  C40  1  0.25607000  0.97948000  0.58884000  1.0
  C  C41  1  0.18473000  0.01195000  0.52091000  1.0
  C  C42  1  0.39064000  0.66723000  0.41115000  1.0
  C  C43  1  0.49103000  0.66381000  0.47908000  1.0
  C  C44  1  0.39587000  0.59814000  0.79773000  1.0
  C  C45  1  0.36206000  0.64155000  0.72051000  1.0
  C  C46  1  0.80040000  0.59813000  0.20226000  1.0
  C  C47  1  0.92104000  0.64155000  0.27949000  1.0
  C  C48  1  0.34811000  0.05039000  0.70229000  1.0
  C  C49  1  0.39153000  0.17104000  0.77951000  1.0
  C  C50  1  0.34810000  0.64582000  0.29771000  1.0
  C  C51  1  0.39153000  0.61202000  0.22049000  1.0
  N  N52  1  0.44770000  0.57655000  0.95310000  1.0
  N  N53  1  0.62345000  0.49460000  0.04690000  1.0
  N  N54  1  0.32654000  0.87344000  0.62885000  1.0
  N  N55  1  0.24459000  0.69769000  0.37115000  1.0
  N  N56  1  0.62345000  0.57655000  0.12885000  1.0
  N  N57  1  0.44770000  0.49460000  0.87115000  1.0
  N  N58  1  0.24459000  0.87345000  0.54691000  1.0
  N  N59  1  0.32654000  0.69769000  0.45310000  1.0
  O  O60  1  0.34752000  0.72879000  0.74899000  1.0
  O  O61  1  0.97980000  0.59853000  0.25101000  1.0
  O  O62  1  0.47877000  0.22980000  0.88128000  1.0
  O  O63  1  0.34852000  0.59749000  0.11872000  1.0
  O  O64  1  0.97980000  0.72879000  0.38127000  1.0
  O  O65  1  0.34752000  0.59853000  0.61873000  1.0
  O  O66  1  0.34852000  0.22980000  0.75102000  1.0
  O  O67  1  0.47877000  0.59749000  0.24897000  1.0
