# generated using pymatgen
data_CoH12C16(NO2)2
_symmetry_space_group_name_H-M   'P 1'
_cell_length_a   17.54020000
_cell_length_b   17.54100000
_cell_length_c   20.13840000
_cell_angle_alpha   90.01030000
_cell_angle_beta   90.00160000
_cell_angle_gamma   89.99630000
_symmetry_Int_Tables_number   1
_chemical_formula_structural   CoH12C16(NO2)2
_chemical_formula_sum   'Co12 H144 C192 N24 O48'
_cell_volume   6196.03474306
_cell_formula_units_Z   12
loop_
 _symmetry_equiv_pos_site_id
 _symmetry_equiv_pos_as_xyz
  1  'x, y, z'
loop_
 _atom_site_type_symbol
 _atom_site_label
 _atom_site_symmetry_multiplicity
 _atom_site_fract_x
 _atom_site_fract_y
 _atom_site_fract_z
 _atom_site_occupancy
  Co  Co0  1  0.24472000  0.74662000  0.00057000  1.0
  Co  Co1  1  0.75331000  0.74473000  0.00059000  1.0
  Co  Co2  1  0.75520000  0.25329000  0.00058000  1.0
  Co  Co3  1  0.24671000  0.25521000  0.00058000  1.0
  Co  Co4  1  0.74648000  0.73824000  0.33348000  1.0
  Co  Co5  1  0.76170000  0.24666000  0.33343000  1.0
  Co  Co6  1  0.25337000  0.26171000  0.33347000  1.0
  Co  Co7  1  0.23823000  0.75344000  0.33347000  1.0
  Co  Co8  1  0.74995000  0.23853000  0.66618000  1.0
  Co  Co9  1  0.26146000  0.24983000  0.66619000  1.0
  Co  Co10  1  0.25007000  0.76150000  0.66621000  1.0
  Co  Co11  1  0.73850000  0.75002000  0.66622000  1.0
  H  H12  1  0.75949000  0.49480000  0.60451000  1.0
  H  H13  1  0.00518000  0.25940000  0.60455000  1.0
  H  H14  1  0.24040000  0.50522000  0.60449000  1.0
  H  H15  1  0.99481000  0.74054000  0.60456000  1.0
  H  H16  1  0.73935000  0.99398000  0.39541000  1.0
  H  H17  1  0.50602000  0.23957000  0.39536000  1.0
  H  H18  1  0.26049000  0.00603000  0.39545000  1.0
  H  H19  1  0.49395000  0.76042000  0.39540000  1.0
  H  H20  1  0.72128000  0.38986000  0.48542000  1.0
  H  H21  1  0.11009000  0.22130000  0.48543000  1.0
  H  H22  1  0.27856000  0.61018000  0.48543000  1.0
  H  H23  1  0.88982000  0.77853000  0.48548000  1.0
  H  H24  1  0.77862000  0.88999000  0.51485000  1.0
  H  H25  1  0.60994000  0.27872000  0.51490000  1.0
  H  H26  1  0.22123000  0.11001000  0.51493000  1.0
  H  H27  1  0.38998000  0.72124000  0.51488000  1.0
  H  H28  1  0.70109000  0.45377000  0.37983000  1.0
  H  H29  1  0.04620000  0.20131000  0.37980000  1.0
  H  H30  1  0.29863000  0.54623000  0.37978000  1.0
  H  H31  1  0.95372000  0.79870000  0.37986000  1.0
  H  H32  1  0.79840000  0.95443000  0.62015000  1.0
  H  H33  1  0.54552000  0.29837000  0.62018000  1.0
  H  H34  1  0.20159000  0.04561000  0.62023000  1.0
  H  H35  1  0.45442000  0.70151000  0.62016000  1.0
  H  H36  1  0.70729000  0.57152000  0.31004000  1.0
  H  H37  1  0.92843000  0.20752000  0.31001000  1.0
  H  H38  1  0.29244000  0.42844000  0.31002000  1.0
  H  H39  1  0.07147000  0.79254000  0.31009000  1.0
  H  H40  1  0.79046000  0.07213000  0.68987000  1.0
  H  H41  1  0.42784000  0.29029000  0.68988000  1.0
  H  H42  1  0.20961000  0.92793000  0.68993000  1.0
  H  H43  1  0.57210000  0.70950000  0.68988000  1.0
  H  H44  1  0.78353000  0.70041000  0.46963000  1.0
  H  H45  1  0.79953000  0.28371000  0.46961000  1.0
  H  H46  1  0.21629000  0.29959000  0.46964000  1.0
  H  H47  1  0.20044000  0.71644000  0.46968000  1.0
  H  H48  1  0.71479000  0.20030000  0.52965000  1.0
  H  H49  1  0.29964000  0.21482000  0.52956000  1.0
  H  H50  1  0.28526000  0.79975000  0.52968000  1.0
  H  H51  1  0.70026000  0.78521000  0.52969000  1.0
  H  H52  1  0.77782000  0.59103000  0.54583000  1.0
  H  H53  1  0.90890000  0.27785000  0.54587000  1.0
  H  H54  1  0.22212000  0.40900000  0.54584000  1.0
  H  H55  1  0.09105000  0.72216000  0.54588000  1.0
  H  H56  1  0.72204000  0.09085000  0.45357000  1.0
  H  H57  1  0.40907000  0.22220000  0.45350000  1.0
  H  H58  1  0.27789000  0.90916000  0.45359000  1.0
  H  H59  1  0.59084000  0.77788000  0.45358000  1.0
  H  H60  1  0.49276000  0.75347000  0.27367000  1.0
  H  H61  1  0.74651000  0.99290000  0.27366000  1.0
  H  H62  1  0.50712000  0.24653000  0.27362000  1.0
  H  H63  1  0.25362000  0.00717000  0.27368000  1.0
  H  H64  1  0.00382000  0.25148000  0.72678000  1.0
  H  H65  1  0.24859000  0.50376000  0.72682000  1.0
  H  H66  1  0.99622000  0.74872000  0.72688000  1.0
  H  H67  1  0.75148000  0.49617000  0.72678000  1.0
  H  H68  1  0.59429000  0.72294000  0.15046000  1.0
  H  H69  1  0.77738000  0.09438000  0.15047000  1.0
  H  H70  1  0.40560000  0.27737000  0.15045000  1.0
  H  H71  1  0.22254000  0.90571000  0.15049000  1.0
  H  H72  1  0.90028000  0.22319000  0.84904000  1.0
  H  H73  1  0.27713000  0.40015000  0.84900000  1.0
  H  H74  1  0.09983000  0.77701000  0.84913000  1.0
  H  H75  1  0.72320000  0.59972000  0.84905000  1.0
  H  H76  1  0.53027000  0.71311000  0.04512000  1.0
  H  H77  1  0.78735000  0.03034000  0.04520000  1.0
  H  H78  1  0.46960000  0.28734000  0.04518000  1.0
  H  H79  1  0.21267000  0.96965000  0.04526000  1.0
  H  H80  1  0.96413000  0.20724000  0.95415000  1.0
  H  H81  1  0.29334000  0.46400000  0.95405000  1.0
  H  H82  1  0.03590000  0.79274000  0.95433000  1.0
  H  H83  1  0.70730000  0.53587000  0.95417000  1.0
  H  H84  1  0.41049000  0.72325000  0.97707000  1.0
  H  H85  1  0.77706000  0.91055000  0.97712000  1.0
  H  H86  1  0.58935000  0.27703000  0.97709000  1.0
  H  H87  1  0.22297000  0.08939000  0.97713000  1.0
  H  H88  1  0.08350000  0.21298000  0.02235000  1.0
  H  H89  1  0.28749000  0.58333000  0.02235000  1.0
  H  H90  1  0.91652000  0.78685000  0.02246000  1.0
  H  H91  1  0.71302000  0.41649000  0.02233000  1.0
  H  H92  1  0.28203000  0.77678000  0.14372000  1.0
  H  H93  1  0.72313000  0.78225000  0.14370000  1.0
  H  H94  1  0.71775000  0.22315000  0.14368000  1.0
  H  H95  1  0.27680000  0.21781000  0.14373000  1.0
  H  H96  1  0.21374000  0.26913000  0.85703000  1.0
  H  H97  1  0.23067000  0.71350000  0.85714000  1.0
  H  H98  1  0.78639000  0.73088000  0.85702000  1.0
  H  H99  1  0.76914000  0.28625000  0.85697000  1.0
  H  H100  1  0.39376000  0.77204000  0.21688000  1.0
  H  H101  1  0.72811000  0.89392000  0.21688000  1.0
  H  H102  1  0.60610000  0.22814000  0.21688000  1.0
  H  H103  1  0.27181000  0.10619000  0.21694000  1.0
  H  H104  1  0.10195000  0.26890000  0.78385000  1.0
  H  H105  1  0.23104000  0.60178000  0.78390000  1.0
  H  H106  1  0.89820000  0.73125000  0.78389000  1.0
  H  H107  1  0.76894000  0.39804000  0.78381000  1.0
  H  H108  1  0.17031000  0.91917000  0.84918000  1.0
  H  H109  1  0.58089000  0.66981000  0.84916000  1.0
  H  H110  1  0.83019000  0.08086000  0.84919000  1.0
  H  H111  1  0.41922000  0.33006000  0.84928000  1.0
  H  H112  1  0.33461000  0.42381000  0.15620000  1.0
  H  H113  1  0.07592000  0.83465000  0.15619000  1.0
  H  H114  1  0.66533000  0.57624000  0.15622000  1.0
  H  H115  1  0.92375000  0.16538000  0.15620000  1.0
  H  H116  1  0.34270000  0.94685000  0.86621000  1.0
  H  H117  1  0.55307000  0.84219000  0.86618000  1.0
  H  H118  1  0.65781000  0.05301000  0.86624000  1.0
  H  H119  1  0.44709000  0.15769000  0.86628000  1.0
  H  H120  1  0.16377000  0.45130000  0.12902000  1.0
  H  H121  1  0.04838000  0.66383000  0.12894000  1.0
  H  H122  1  0.83616000  0.54868000  0.12902000  1.0
  H  H123  1  0.95127000  0.33622000  0.12901000  1.0
  H  H124  1  0.39919000  0.03734000  0.78800000  1.0
  H  H125  1  0.46288000  0.89860000  0.78816000  1.0
  H  H126  1  0.60134000  0.96268000  0.78838000  1.0
  H  H127  1  0.53739000  0.10125000  0.78834000  1.0
  H  H128  1  0.10281000  0.53897000  0.21049000  1.0
  H  H129  1  0.96097000  0.60296000  0.21043000  1.0
  H  H130  1  0.89711000  0.46109000  0.21051000  1.0
  H  H131  1  0.03891000  0.39717000  0.21053000  1.0
  H  H132  1  0.38503000  0.14603000  0.70958000  1.0
  H  H133  1  0.35414000  0.88471000  0.70967000  1.0
  H  H134  1  0.61519000  0.85390000  0.70991000  1.0
  H  H135  1  0.64609000  0.11515000  0.70983000  1.0
  H  H136  1  0.11461000  0.64766000  0.28929000  1.0
  H  H137  1  0.85231000  0.61471000  0.28929000  1.0
  H  H138  1  0.88531000  0.35241000  0.28932000  1.0
  H  H139  1  0.14757000  0.38534000  0.28936000  1.0
  H  H140  1  0.15008000  0.14550000  0.72982000  1.0
  H  H141  1  0.35436000  0.64976000  0.72965000  1.0
  H  H142  1  0.85019000  0.85437000  0.72959000  1.0
  H  H143  1  0.64559000  0.35014000  0.72962000  1.0
  H  H144  1  0.34994000  0.64932000  0.27217000  1.0
  H  H145  1  0.85050000  0.85001000  0.27219000  1.0
  H  H146  1  0.64999000  0.35073000  0.27216000  1.0
  H  H147  1  0.14922000  0.15003000  0.27220000  1.0
  H  H148  1  0.15371000  0.03506000  0.80716000  1.0
  H  H149  1  0.46481000  0.65314000  0.80705000  1.0
  H  H150  1  0.84686000  0.96485000  0.80695000  1.0
  H  H151  1  0.53519000  0.34676000  0.80702000  1.0
  H  H152  1  0.34867000  0.53932000  0.19456000  1.0
  H  H153  1  0.96049000  0.84878000  0.19457000  1.0
  H  H154  1  0.65127000  0.46071000  0.19456000  1.0
  H  H155  1  0.03925000  0.15134000  0.19458000  1.0
  C  C156  1  0.74492000  0.37206000  0.61593000  1.0
  C  C157  1  0.12791000  0.24474000  0.61597000  1.0
  C  C158  1  0.25498000  0.62796000  0.61595000  1.0
  C  C159  1  0.87204000  0.75504000  0.61598000  1.0
  C  C160  1  0.75306000  0.87109000  0.38462000  1.0
  C  C161  1  0.62890000  0.25330000  0.38463000  1.0
  C  C162  1  0.24670000  0.12892000  0.38466000  1.0
  C  C163  1  0.37106000  0.74671000  0.38462000  1.0
  C  C164  1  0.74736000  0.44271000  0.57669000  1.0
  C  C165  1  0.05726000  0.24726000  0.57673000  1.0
  C  C166  1  0.25252000  0.55732000  0.57669000  1.0
  C  C167  1  0.94270000  0.75261000  0.57674000  1.0
  C  C168  1  0.75166000  0.94207000  0.42341000  1.0
  C  C169  1  0.55792000  0.25185000  0.42340000  1.0
  C  C170  1  0.24815000  0.05795000  0.42346000  1.0
  C  C171  1  0.44204000  0.74813000  0.42342000  1.0
  C  C172  1  0.73527000  0.44342000  0.51050000  1.0
  C  C173  1  0.05655000  0.23528000  0.51053000  1.0
  C  C174  1  0.26460000  0.55661000  0.51050000  1.0
  C  C175  1  0.94341000  0.76462000  0.51056000  1.0
  C  C176  1  0.76446000  0.94334000  0.48951000  1.0
  C  C177  1  0.55661000  0.26458000  0.48950000  1.0
  C  C178  1  0.23543000  0.05667000  0.48956000  1.0
  C  C179  1  0.44333000  0.73542000  0.48953000  1.0
  C  C180  1  0.73930000  0.51135000  0.46923000  1.0
  C  C181  1  0.98862000  0.23939000  0.46924000  1.0
  C  C182  1  0.26057000  0.48867000  0.46921000  1.0
  C  C183  1  0.01134000  0.76060000  0.46927000  1.0
  C  C184  1  0.76037000  0.01154000  0.53051000  1.0
  C  C185  1  0.48840000  0.26044000  0.53048000  1.0
  C  C186  1  0.23960000  0.98848000  0.53056000  1.0
  C  C187  1  0.51154000  0.73952000  0.53052000  1.0
  C  C188  1  0.71966000  0.50758000  0.40152000  1.0
  C  C189  1  0.99238000  0.21984000  0.40151000  1.0
  C  C190  1  0.28012000  0.49242000  0.40150000  1.0
  C  C191  1  0.00754000  0.78017000  0.40156000  1.0
  C  C192  1  0.77962000  0.00808000  0.59830000  1.0
  C  C193  1  0.49188000  0.27960000  0.59829000  1.0
  C  C194  1  0.22037000  0.99196000  0.59836000  1.0
  C  C195  1  0.50806000  0.72029000  0.59831000  1.0
  C  C196  1  0.72339000  0.57258000  0.36238000  1.0
  C  C197  1  0.92737000  0.22360000  0.36237000  1.0
  C  C198  1  0.27638000  0.42739000  0.36238000  1.0
  C  C199  1  0.07255000  0.77646000  0.36244000  1.0
  C  C200  1  0.77490000  0.07307000  0.63740000  1.0
  C  C201  1  0.42689000  0.27482000  0.63738000  1.0
  C  C202  1  0.22516000  0.92699000  0.63746000  1.0
  C  C203  1  0.57304000  0.72505000  0.63742000  1.0
  C  C204  1  0.76599000  0.64466000  0.45153000  1.0
  C  C205  1  0.85529000  0.26615000  0.45153000  1.0
  C  C206  1  0.23384000  0.35534000  0.45154000  1.0
  C  C207  1  0.14468000  0.73397000  0.45158000  1.0
  C  C208  1  0.73257000  0.14470000  0.54794000  1.0
  C  C209  1  0.35523000  0.23259000  0.54789000  1.0
  C  C210  1  0.26749000  0.85535000  0.54798000  1.0
  C  C211  1  0.64467000  0.76741000  0.54798000  1.0
  C  C212  1  0.76289000  0.58271000  0.49381000  1.0
  C  C213  1  0.91724000  0.26298000  0.49383000  1.0
  C  C214  1  0.23701000  0.41730000  0.49381000  1.0
  C  C215  1  0.08272000  0.73707000  0.49386000  1.0
  C  C216  1  0.73662000  0.08275000  0.50569000  1.0
  C  C217  1  0.41718000  0.23670000  0.50564000  1.0
  C  C218  1  0.26339000  0.91728000  0.50573000  1.0
  C  C219  1  0.58274000  0.76332000  0.50571000  1.0
  C  C220  1  0.61540000  0.73831000  0.28276000  1.0
  C  C221  1  0.76163000  0.11555000  0.28274000  1.0
  C  C222  1  0.38446000  0.26164000  0.28274000  1.0
  C  C223  1  0.23837000  0.88453000  0.28276000  1.0
  C  C224  1  0.88106000  0.23834000  0.71678000  1.0
  C  C225  1  0.26162000  0.38096000  0.71677000  1.0
  C  C226  1  0.11899000  0.76177000  0.71684000  1.0
  C  C227  1  0.73834000  0.61893000  0.71680000  1.0
  C  C228  1  0.54403000  0.74248000  0.24437000  1.0
  C  C229  1  0.75759000  0.04416000  0.24437000  1.0
  C  C230  1  0.45584000  0.25760000  0.24435000  1.0
  C  C231  1  0.24247000  0.95590000  0.24440000  1.0
  C  C232  1  0.95199000  0.24152000  0.75559000  1.0
  C  C233  1  0.25860000  0.45190000  0.75559000  1.0
  C  C234  1  0.04807000  0.75868000  0.75567000  1.0
  C  C235  1  0.74151000  0.54800000  0.75559000  1.0
  C  C236  1  0.54167000  0.73485000  0.17765000  1.0
  C  C237  1  0.76540000  0.04178000  0.17767000  1.0
  C  C238  1  0.45820000  0.26540000  0.17766000  1.0
  C  C239  1  0.23459000  0.95829000  0.17771000  1.0
  C  C240  1  0.95351000  0.23356000  0.82227000  1.0
  C  C241  1  0.26670000  0.45339000  0.82227000  1.0
  C  C242  1  0.04659000  0.76665000  0.82237000  1.0
  C  C243  1  0.73357000  0.54648000  0.82228000  1.0
  C  C244  1  0.47262000  0.74052000  0.13749000  1.0
  C  C245  1  0.75978000  0.97271000  0.13753000  1.0
  C  C246  1  0.52726000  0.25978000  0.13751000  1.0
  C  C247  1  0.24021000  0.02734000  0.13758000  1.0
  C  C248  1  0.02241000  0.23681000  0.86257000  1.0
  C  C249  1  0.26345000  0.52229000  0.86256000  1.0
  C  C250  1  0.97770000  0.76333000  0.86266000  1.0
  C  C251  1  0.73683000  0.47760000  0.86257000  1.0
  C  C252  1  0.47594000  0.72720000  0.06850000  1.0
  C  C253  1  0.77321000  0.97602000  0.06857000  1.0
  C  C254  1  0.52392000  0.27319000  0.06854000  1.0
  C  C255  1  0.22678000  0.02399000  0.06862000  1.0
  C  C256  1  0.01871000  0.22117000  0.93112000  1.0
  C  C257  1  0.27926000  0.51858000  0.93109000  1.0
  C  C258  1  0.98134000  0.77885000  0.93124000  1.0
  C  C259  1  0.72120000  0.48129000  0.93113000  1.0
  C  C260  1  0.40985000  0.73213000  0.03066000  1.0
  C  C261  1  0.76821000  0.90994000  0.03071000  1.0
  C  C262  1  0.59000000  0.26820000  0.03069000  1.0
  C  C263  1  0.23180000  0.09005000  0.03074000  1.0
  C  C264  1  0.08482000  0.22380000  0.96898000  1.0
  C  C265  1  0.27656000  0.58465000  0.96899000  1.0
  C  C266  1  0.91523000  0.77614000  0.96907000  1.0
  C  C267  1  0.72384000  0.41519000  0.96896000  1.0
  C  C268  1  0.33765000  0.76223000  0.12341000  1.0
  C  C269  1  0.73790000  0.83779000  0.12341000  1.0
  C  C270  1  0.66218000  0.23790000  0.12340000  1.0
  C  C271  1  0.26208000  0.16224000  0.12344000  1.0
  C  C272  1  0.15772000  0.25548000  0.87704000  1.0
  C  C273  1  0.24449000  0.65753000  0.87713000  1.0
  C  C274  1  0.84239000  0.74453000  0.87707000  1.0
  C  C275  1  0.75550000  0.34227000  0.87701000  1.0
  C  C276  1  0.40098000  0.75942000  0.16431000  1.0
  C  C277  1  0.74080000  0.90109000  0.16433000  1.0
  C  C278  1  0.59889000  0.24081000  0.16433000  1.0
  C  C279  1  0.25918000  0.09897000  0.16438000  1.0
  C  C280  1  0.09442000  0.25512000  0.83615000  1.0
  C  C281  1  0.24497000  0.59427000  0.83618000  1.0
  C  C282  1  0.90570000  0.74503000  0.83620000  1.0
  C  C283  1  0.75515000  0.40558000  0.83613000  1.0
  C  C284  1  0.24300000  0.84736000  0.91123000  1.0
  C  C285  1  0.65254000  0.74240000  0.91145000  1.0
  C  C286  1  0.75759000  0.15250000  0.91145000  1.0
  C  C287  1  0.34753000  0.25746000  0.91149000  1.0
  C  C288  1  0.26983000  0.35299000  0.08822000  1.0
  C  C289  1  0.14682000  0.76997000  0.08820000  1.0
  C  C290  1  0.73011000  0.64702000  0.08825000  1.0
  C  C291  1  0.85293000  0.23017000  0.08824000  1.0
  C  C292  1  0.22899000  0.91203000  0.86603000  1.0
  C  C293  1  0.58797000  0.72844000  0.86613000  1.0
  C  C294  1  0.77154000  0.08792000  0.86614000  1.0
  C  C295  1  0.41213000  0.27141000  0.86621000  1.0
  C  C296  1  0.27788000  0.41712000  0.13483000  1.0
  C  C297  1  0.08268000  0.77794000  0.13480000  1.0
  C  C298  1  0.72207000  0.58291000  0.13485000  1.0
  C  C299  1  0.91707000  0.22212000  0.13484000  1.0
  C  C300  1  0.28553000  0.95958000  0.84768000  1.0
  C  C301  1  0.54041000  0.78497000  0.84772000  1.0
  C  C302  1  0.71502000  0.04035000  0.84776000  1.0
  C  C303  1  0.45974000  0.21491000  0.84783000  1.0
  C  C304  1  0.21948000  0.46364000  0.15080000  1.0
  C  C305  1  0.03616000  0.71956000  0.15074000  1.0
  C  C306  1  0.78044000  0.53638000  0.15082000  1.0
  C  C307  1  0.96360000  0.28051000  0.15080000  1.0
  C  C308  1  0.27757000  0.02479000  0.80390000  1.0
  C  C309  1  0.47527000  0.77698000  0.80386000  1.0
  C  C310  1  0.72299000  0.97518000  0.80393000  1.0
  C  C311  1  0.52488000  0.22290000  0.80397000  1.0
  C  C312  1  0.22489000  0.52791000  0.19596000  1.0
  C  C313  1  0.97193000  0.72502000  0.19593000  1.0
  C  C314  1  0.77502000  0.47211000  0.19595000  1.0
  C  C315  1  0.02788000  0.27509000  0.19595000  1.0
  C  C316  1  0.34257000  0.05888000  0.77581000  1.0
  C  C317  1  0.44127000  0.84206000  0.77583000  1.0
  C  C318  1  0.65788000  0.94110000  0.77600000  1.0
  C  C319  1  0.55895000  0.15782000  0.77599000  1.0
  C  C320  1  0.15900000  0.56112000  0.22335000  1.0
  C  C321  1  0.93880000  0.65913000  0.22335000  1.0
  C  C322  1  0.84091000  0.43894000  0.22337000  1.0
  C  C323  1  0.06105000  0.34097000  0.22339000  1.0
  C  C324  1  0.33516000  0.11964000  0.73233000  1.0
  C  C325  1  0.38048000  0.83478000  0.73236000  1.0
  C  C326  1  0.66513000  0.88029000  0.73254000  1.0
  C  C327  1  0.61972000  0.16509000  0.73250000  1.0
  C  C328  1  0.16512000  0.62187000  0.26709000  1.0
  C  C329  1  0.87807000  0.66522000  0.26711000  1.0
  C  C330  1  0.83480000  0.37819000  0.26710000  1.0
  C  C331  1  0.12179000  0.33484000  0.26713000  1.0
  C  C332  1  0.20376000  0.11829000  0.74333000  1.0
  C  C333  1  0.38164000  0.70338000  0.74322000  1.0
  C  C334  1  0.79656000  0.88159000  0.74322000  1.0
  C  C335  1  0.61839000  0.29651000  0.74324000  1.0
  C  C336  1  0.29672000  0.62173000  0.25796000  1.0
  C  C337  1  0.87814000  0.79681000  0.25799000  1.0
  C  C338  1  0.70320000  0.37833000  0.25796000  1.0
  C  C339  1  0.12164000  0.20325000  0.25799000  1.0
  C  C340  1  0.20672000  0.05691000  0.78633000  1.0
  C  C341  1  0.44306000  0.70620000  0.78622000  1.0
  C  C342  1  0.79377000  0.94303000  0.78621000  1.0
  C  C343  1  0.55702000  0.29369000  0.78627000  1.0
  C  C344  1  0.29509000  0.56047000  0.21485000  1.0
  C  C345  1  0.93937000  0.79520000  0.21485000  1.0
  C  C346  1  0.70483000  0.43955000  0.21484000  1.0
  C  C347  1  0.06041000  0.20490000  0.21486000  1.0
  N  N348  1  0.74649000  0.64058000  0.38653000  1.0
  N  N349  1  0.85935000  0.24668000  0.38651000  1.0
  N  N350  1  0.25332000  0.35938000  0.38653000  1.0
  N  N351  1  0.14059000  0.75342000  0.38657000  1.0
  N  N352  1  0.75127000  0.14085000  0.61312000  1.0
  N  N353  1  0.35912000  0.25122000  0.61309000  1.0
  N  N354  1  0.24881000  0.85923000  0.61318000  1.0
  N  N355  1  0.64081000  0.74870000  0.61316000  1.0
  N  N356  1  0.34113000  0.74871000  0.05734000  1.0
  N  N357  1  0.75144000  0.84126000  0.05736000  1.0
  N  N358  1  0.65869000  0.25144000  0.05734000  1.0
  N  N359  1  0.24855000  0.15874000  0.05738000  1.0
  N  N360  1  0.15388000  0.24012000  0.94282000  1.0
  N  N361  1  0.25995000  0.65367000  0.94289000  1.0
  N  N362  1  0.84619000  0.75982000  0.94287000  1.0
  N  N363  1  0.74014000  0.34612000  0.94279000  1.0
  N  N364  1  0.26691000  0.14984000  0.71592000  1.0
  N  N365  1  0.35016000  0.76662000  0.71589000  1.0
  N  N366  1  0.73331000  0.85003000  0.71597000  1.0
  N  N367  1  0.64993000  0.23328000  0.71595000  1.0
  N  N368  1  0.23279000  0.65284000  0.28436000  1.0
  N  N369  1  0.84706000  0.73286000  0.28437000  1.0
  N  N370  1  0.76713000  0.34722000  0.28435000  1.0
  N  N371  1  0.15276000  0.26718000  0.28438000  1.0
  O  O372  1  0.30961000  0.82569000  0.92667000  1.0
  O  O373  1  0.67398000  0.80902000  0.92714000  1.0
  O  O374  1  0.69096000  0.17395000  0.92714000  1.0
  O  O375  1  0.32607000  0.19083000  0.92715000  1.0
  O  O376  1  0.20451000  0.33796000  0.06159000  1.0
  O  O377  1  0.16188000  0.70465000  0.06157000  1.0
  O  O378  1  0.79546000  0.66206000  0.06166000  1.0
  O  O379  1  0.83792000  0.29550000  0.06164000  1.0
  O  O380  1  0.73339000  0.30742000  0.58670000  1.0
  O  O381  1  0.19255000  0.23319000  0.58674000  1.0
  O  O382  1  0.26648000  0.69260000  0.58672000  1.0
  O  O383  1  0.80739000  0.76653000  0.58675000  1.0
  O  O384  1  0.76459000  0.80652000  0.41382000  1.0
  O  O385  1  0.69347000  0.26497000  0.41380000  1.0
  O  O386  1  0.23505000  0.19350000  0.41383000  1.0
  O  O387  1  0.30648000  0.73510000  0.41380000  1.0
  O  O388  1  0.75522000  0.37408000  0.67835000  1.0
  O  O389  1  0.12590000  0.25494000  0.67840000  1.0
  O  O390  1  0.24475000  0.62594000  0.67837000  1.0
  O  O391  1  0.87407000  0.74478000  0.67840000  1.0
  O  O392  1  0.74172000  0.87260000  0.32225000  1.0
  O  O393  1  0.62738000  0.24184000  0.32227000  1.0
  O  O394  1  0.25815000  0.12739000  0.32231000  1.0
  O  O395  1  0.37256000  0.75817000  0.32227000  1.0
  O  O396  1  0.61463000  0.74879000  0.34517000  1.0
  O  O397  1  0.75111000  0.11482000  0.34515000  1.0
  O  O398  1  0.38523000  0.25113000  0.34515000  1.0
  O  O399  1  0.24886000  0.88528000  0.34517000  1.0
  O  O400  1  0.88229000  0.24875000  0.65439000  1.0
  O  O401  1  0.25108000  0.38219000  0.65440000  1.0
  O  O402  1  0.11768000  0.75138000  0.65445000  1.0
  O  O403  1  0.74874000  0.61769000  0.65440000  1.0
  O  O404  1  0.67999000  0.72516000  0.25325000  1.0
  O  O405  1  0.77472000  0.18012000  0.25318000  1.0
  O  O406  1  0.31985000  0.27473000  0.25322000  1.0
  O  O407  1  0.22522000  0.81994000  0.25322000  1.0
  O  O408  1  0.81633000  0.22569000  0.74619000  1.0
  O  O409  1  0.27427000  0.31622000  0.74619000  1.0
  O  O410  1  0.18375000  0.77433000  0.74625000  1.0
  O  O411  1  0.72569000  0.68366000  0.74623000  1.0
  O  O412  1  0.18392000  0.81381000  0.93613000  1.0
  O  O413  1  0.68625000  0.68338000  0.93625000  1.0
  O  O414  1  0.81661000  0.18623000  0.93627000  1.0
  O  O415  1  0.31383000  0.31651000  0.93629000  1.0
  O  O416  1  0.32808000  0.31309000  0.07410000  1.0
  O  O417  1  0.18670000  0.82820000  0.07409000  1.0
  O  O418  1  0.67187000  0.68689000  0.07408000  1.0
  O  O419  1  0.81303000  0.17193000  0.07411000  1.0
