# generated using pymatgen
data_CuH24C22(NO2)2
_symmetry_space_group_name_H-M   'P 1'
_cell_length_a   9.59333000
_cell_length_b   10.65630000
_cell_length_c   20.87240000
_cell_angle_alpha   76.40000000
_cell_angle_beta   89.99940000
_cell_angle_gamma   89.99940000
_symmetry_Int_Tables_number   1
_chemical_formula_structural   CuH24C22(NO2)2
_chemical_formula_sum   'Cu4 H96 C88 N8 O16'
_cell_volume   2073.94412076
_cell_formula_units_Z   4
loop_
 _symmetry_equiv_pos_site_id
 _symmetry_equiv_pos_as_xyz
  1  'x, y, z'
loop_
 _atom_site_type_symbol
 _atom_site_label
 _atom_site_symmetry_multiplicity
 _atom_site_fract_x
 _atom_site_fract_y
 _atom_site_fract_z
 _atom_site_occupancy
  Cu  Cu0  1  0.92865000  0.14814000  0.98912000  1.0
  Cu  Cu1  1  0.57135000  0.64812000  0.48913000  1.0
  Cu  Cu2  1  0.07134000  0.85187000  0.01086000  1.0
  Cu  Cu3  1  0.42867000  0.35187000  0.51087000  1.0
  H  H4  1  0.63838000  0.19882000  0.04425000  1.0
  H  H5  1  0.86164000  0.69883000  0.54426000  1.0
  H  H6  1  0.36164000  0.80116000  0.95574000  1.0
  H  H7  1  0.13838000  0.30119000  0.45575000  1.0
  H  H8  1  0.55112000  0.35748000  0.10634000  1.0
  H  H9  1  0.94887000  0.85750000  0.60635000  1.0
  H  H10  1  0.44887000  0.64249000  0.89366000  1.0
  H  H11  1  0.05112000  0.14253000  0.39366000  1.0
  H  H12  1  0.71880000  0.51025000  0.14001000  1.0
  H  H13  1  0.78115000  0.01024000  0.64002000  1.0
  H  H14  1  0.28116000  0.48975000  0.85998000  1.0
  H  H15  1  0.21881000  0.98976000  0.35999000  1.0
  H  H16  1  0.97295000  0.58760000  0.14112000  1.0
  H  H17  1  0.52700000  0.08758000  0.64113000  1.0
  H  H18  1  0.02701000  0.41242000  0.85887000  1.0
  H  H19  1  0.47296000  0.91241000  0.35887000  1.0
  H  H20  1  0.21694000  0.57024000  0.10758000  1.0
  H  H21  1  0.28301000  0.07021000  0.60758000  1.0
  H  H22  1  0.78302000  0.42978000  0.89241000  1.0
  H  H23  1  0.71695000  0.92976000  0.39242000  1.0
  H  H24  1  0.39451000  0.46616000  0.04653000  1.0
  H  H25  1  0.10546000  0.96610000  0.54654000  1.0
  H  H26  1  0.60547000  0.53387000  0.95346000  1.0
  H  H27  1  0.89452000  0.03383000  0.45346000  1.0
  H  H28  1  0.44696000  0.29670000  0.98243000  1.0
  H  H29  1  0.05303000  0.79664000  0.48243000  1.0
  H  H30  1  0.55303000  0.70332000  0.01757000  1.0
  H  H31  1  0.94697000  0.20329000  0.51757000  1.0
  H  H32  1  0.25535000  0.14725000  0.96629000  1.0
  H  H33  1  0.24468000  0.64721000  0.46629000  1.0
  H  H34  1  0.74466000  0.85277000  0.03371000  1.0
  H  H35  1  0.75536000  0.35275000  0.53370000  1.0
  H  H36  1  0.50683000  0.00824000  0.92387000  1.0
  H  H37  1  0.99319000  0.50827000  0.42385000  1.0
  H  H38  1  0.49317000  0.99173000  0.07614000  1.0
  H  H39  1  0.00684000  0.49175000  0.57613000  1.0
  H  H40  1  0.49132000  0.14362000  0.85580000  1.0
  H  H41  1  0.00866000  0.64366000  0.35578000  1.0
  H  H42  1  0.50865000  0.85635000  0.14422000  1.0
  H  H43  1  0.99133000  0.35637000  0.64421000  1.0
  H  H44  1  0.73473000  0.95066000  0.87686000  1.0
  H  H45  1  0.76527000  0.45068000  0.37685000  1.0
  H  H46  1  0.26525000  0.04933000  0.12314000  1.0
  H  H47  1  0.23474000  0.54933000  0.62315000  1.0
  H  H48  1  0.70623000  0.07415000  0.80548000  1.0
  H  H49  1  0.79377000  0.57417000  0.30546000  1.0
  H  H50  1  0.29375000  0.92584000  0.19453000  1.0
  H  H51  1  0.20623000  0.42584000  0.69453000  1.0
  H  H52  1  0.49857000  0.85480000  0.85556000  1.0
  H  H53  1  0.00144000  0.35482000  0.35554000  1.0
  H  H54  1  0.50143000  0.14517000  0.14446000  1.0
  H  H55  1  0.99857000  0.64520000  0.64445000  1.0
  H  H56  1  0.49186000  0.96671000  0.77895000  1.0
  H  H57  1  0.00813000  0.46672000  0.27893000  1.0
  H  H58  1  0.50812000  0.03327000  0.22107000  1.0
  H  H59  1  0.99186000  0.53329000  0.72106000  1.0
  H  H60  1  0.72251000  0.76475000  0.82430000  1.0
  H  H61  1  0.77750000  0.26477000  0.32429000  1.0
  H  H62  1  0.27750000  0.23524000  0.17571000  1.0
  H  H63  1  0.22250000  0.73524000  0.67571000  1.0
  H  H64  1  0.72033000  0.87623000  0.74770000  1.0
  H  H65  1  0.77967000  0.37624000  0.24769000  1.0
  H  H66  1  0.27967000  0.12377000  0.25231000  1.0
  H  H67  1  0.22032000  0.62377000  0.75231000  1.0
  H  H68  1  0.49072000  0.67438000  0.79467000  1.0
  H  H69  1  0.00929000  0.17439000  0.29467000  1.0
  H  H70  1  0.50930000  0.32559000  0.20534000  1.0
  H  H71  1  0.99072000  0.82562000  0.70534000  1.0
  H  H72  1  0.49864000  0.78210000  0.71737000  1.0
  H  H73  1  0.00135000  0.28210000  0.21736000  1.0
  H  H74  1  0.50135000  0.21788000  0.28264000  1.0
  H  H75  1  0.99864000  0.71790000  0.78264000  1.0
  H  H76  1  0.71057000  0.56742000  0.77271000  1.0
  H  H77  1  0.78944000  0.06741000  0.27271000  1.0
  H  H78  1  0.28945000  0.43259000  0.22729000  1.0
  H  H79  1  0.21057000  0.93259000  0.72730000  1.0
  H  H80  1  0.73040000  0.68044000  0.69716000  1.0
  H  H81  1  0.76960000  0.18042000  0.19715000  1.0
  H  H82  1  0.26961000  0.31958000  0.30285000  1.0
  H  H83  1  0.23040000  0.81957000  0.80286000  1.0
  H  H84  1  0.49178000  0.48407000  0.73299000  1.0
  H  H85  1  0.00822000  0.98407000  0.23299000  1.0
  H  H86  1  0.50824000  0.51593000  0.26700000  1.0
  H  H87  1  0.99178000  0.01593000  0.76701000  1.0
  H  H88  1  0.49825000  0.60603000  0.65947000  1.0
  H  H89  1  0.00176000  0.10601000  0.15948000  1.0
  H  H90  1  0.50178000  0.39400000  0.34052000  1.0
  H  H91  1  0.99824000  0.89400000  0.84053000  1.0
  H  H92  1  0.73012000  0.51571000  0.63218000  1.0
  H  H93  1  0.76991000  0.01569000  0.13219000  1.0
  H  H94  1  0.26993000  0.48432000  0.36781000  1.0
  H  H95  1  0.23008000  0.98432000  0.86782000  1.0
  H  H96  1  0.71003000  0.38625000  0.70330000  1.0
  H  H97  1  0.79000000  0.88622000  0.20329000  1.0
  H  H98  1  0.29001000  0.61377000  0.29670000  1.0
  H  H99  1  0.21002000  0.11376000  0.79670000  1.0
  C  C100  1  0.70868000  0.26569000  0.06002000  1.0
  C  C101  1  0.79131000  0.76569000  0.56003000  1.0
  C  C102  1  0.29131000  0.73431000  0.93997000  1.0
  C  C103  1  0.20869000  0.23432000  0.43998000  1.0
  C  C104  1  0.66127000  0.35548000  0.09466000  1.0
  C  C105  1  0.83872000  0.85548000  0.59467000  1.0
  C  C106  1  0.33872000  0.64451000  0.90533000  1.0
  C  C107  1  0.16127000  0.14453000  0.40534000  1.0
  C  C108  1  0.75422000  0.43874000  0.11387000  1.0
  C  C109  1  0.74576000  0.93874000  0.61387000  1.0
  C  C110  1  0.24577000  0.56126000  0.88612000  1.0
  C  C111  1  0.25422000  0.06126000  0.38614000  1.0
  C  C112  1  0.89698000  0.43107000  0.09897000  1.0
  C  C113  1  0.60299000  0.93106000  0.59898000  1.0
  C  C114  1  0.10300000  0.56893000  0.90102000  1.0
  C  C115  1  0.39699000  0.06893000  0.40103000  1.0
  C  C116  1  0.00240000  0.51280000  0.11583000  1.0
  C  C117  1  0.49756000  0.01278000  0.61584000  1.0
  C  C118  1  0.99758000  0.48721000  0.88415000  1.0
  C  C119  1  0.50241000  0.98720000  0.38416000  1.0
  C  C120  1  0.13829000  0.50305000  0.09762000  1.0
  C  C121  1  0.36167000  0.00302000  0.59762000  1.0
  C  C122  1  0.86168000  0.49698000  0.90237000  1.0
  C  C123  1  0.63830000  0.99695000  0.40238000  1.0
  C  C124  1  0.17905000  0.40988000  0.06162000  1.0
  C  C125  1  0.32093000  0.90984000  0.56162000  1.0
  C  C126  1  0.82094000  0.59014000  0.93838000  1.0
  C  C127  1  0.67906000  0.09013000  0.43838000  1.0
  C  C128  1  0.31537000  0.39835000  0.03818000  1.0
  C  C129  1  0.18460000  0.89830000  0.53818000  1.0
  C  C130  1  0.68461000  0.60167000  0.96182000  1.0
  C  C131  1  0.81539000  0.10164000  0.46183000  1.0
  C  C132  1  0.34411000  0.30554000  0.00345000  1.0
  C  C133  1  0.15588000  0.80548000  0.50346000  1.0
  C  C134  1  0.65588000  0.69449000  0.99654000  1.0
  C  C135  1  0.84412000  0.19446000  0.49655000  1.0
  C  C136  1  0.23644000  0.22391000  0.99168000  1.0
  C  C137  1  0.26358000  0.72388000  0.49168000  1.0
  C  C138  1  0.76357000  0.77610000  0.00832000  1.0
  C  C139  1  0.73644000  0.27609000  0.50831000  1.0
  C  C140  1  0.07717000  0.32645000  0.04539000  1.0
  C  C141  1  0.42282000  0.82642000  0.54539000  1.0
  C  C142  1  0.92283000  0.67358000  0.95460000  1.0
  C  C143  1  0.57718000  0.17355000  0.45461000  1.0
  C  C144  1  0.93522000  0.33785000  0.06372000  1.0
  C  C145  1  0.56476000  0.83784000  0.56372000  1.0
  C  C146  1  0.06477000  0.66216000  0.93627000  1.0
  C  C147  1  0.43524000  0.16216000  0.43628000  1.0
  C  C148  1  0.65710000  0.15622000  0.92335000  1.0
  C  C149  1  0.84289000  0.65623000  0.42334000  1.0
  C  C150  1  0.34289000  0.84377000  0.07666000  1.0
  C  C151  1  0.15712000  0.34378000  0.57666000  1.0
  C  C152  1  0.56658000  0.07817000  0.88645000  1.0
  C  C153  1  0.93342000  0.57820000  0.38643000  1.0
  C  C154  1  0.43341000  0.92180000  0.11357000  1.0
  C  C155  1  0.06659000  0.42181000  0.61356000  1.0
  C  C156  1  0.65247000  0.00461000  0.84524000  1.0
  C  C157  1  0.84752000  0.50464000  0.34523000  1.0
  C  C158  1  0.34750000  0.99537000  0.15477000  1.0
  C  C159  1  0.15248000  0.49538000  0.65477000  1.0
  C  C160  1  0.56463000  0.91214000  0.81616000  1.0
  C  C161  1  0.93537000  0.41216000  0.31615000  1.0
  C  C162  1  0.43535000  0.08784000  0.18385000  1.0
  C  C163  1  0.06463000  0.58786000  0.68385000  1.0
  C  C164  1  0.65164000  0.82004000  0.78635000  1.0
  C  C165  1  0.84837000  0.32006000  0.28634000  1.0
  C  C166  1  0.34836000  0.17995000  0.21366000  1.0
  C  C167  1  0.15163000  0.67996000  0.71366000  1.0
  C  C168  1  0.56453000  0.72666000  0.75743000  1.0
  C  C169  1  0.93547000  0.22666000  0.25742000  1.0
  C  C170  1  0.43548000  0.27333000  0.24258000  1.0
  C  C171  1  0.06454000  0.77334000  0.74258000  1.0
  C  C172  1  0.65145000  0.62885000  0.73179000  1.0
  C  C173  1  0.84856000  0.12884000  0.23179000  1.0
  C  C174  1  0.34857000  0.37116000  0.26821000  1.0
  C  C175  1  0.15144000  0.87117000  0.76821000  1.0
  C  C176  1  0.56389000  0.54427000  0.69751000  1.0
  C  C177  1  0.93612000  0.04425000  0.19751000  1.0
  C  C178  1  0.43614000  0.45575000  0.30248000  1.0
  C  C179  1  0.06388000  0.95575000  0.80249000  1.0
  C  C180  1  0.65342000  0.45675000  0.66528000  1.0
  C  C181  1  0.84661000  0.95673000  0.16529000  1.0
  C  C182  1  0.34663000  0.54327000  0.33471000  1.0
  C  C183  1  0.15339000  0.04327000  0.83471000  1.0
  C  C184  1  0.56355000  0.38346000  0.62630000  1.0
  C  C185  1  0.93648000  0.88345000  0.12630000  1.0
  C  C186  1  0.43650000  0.61656000  0.37369000  1.0
  C  C187  1  0.06353000  0.11658000  0.87369000  1.0
  N  N188  1  0.84232000  0.25785000  0.04450000  1.0
  N  N189  1  0.65768000  0.75785000  0.54450000  1.0
  N  N190  1  0.15769000  0.74215000  0.95550000  1.0
  N  N191  1  0.34233000  0.24215000  0.45550000  1.0
  N  N192  1  0.10590000  0.23587000  0.01109000  1.0
  N  N193  1  0.39412000  0.73585000  0.51109000  1.0
  N  N194  1  0.89410000  0.76415000  0.98890000  1.0
  N  N195  1  0.60591000  0.26413000  0.48891000  1.0
  O  O196  1  0.75329000  0.08719000  0.95915000  1.0
  O  O197  1  0.74673000  0.58719000  0.45915000  1.0
  O  O198  1  0.24670000  0.91280000  0.04086000  1.0
  O  O199  1  0.25333000  0.41281000  0.54087000  1.0
  O  O200  1  0.63362000  0.27364000  0.91860000  1.0
  O  O201  1  0.86637000  0.77365000  0.41860000  1.0
  O  O202  1  0.36638000  0.72634000  0.08140000  1.0
  O  O203  1  0.13362000  0.22636000  0.58140000  1.0
  O  O204  1  0.53522000  0.44629000  0.56578000  1.0
  O  O205  1  0.96481000  0.94630000  0.06578000  1.0
  O  O206  1  0.46484000  0.55372000  0.43420000  1.0
  O  O207  1  0.03518000  0.05374000  0.93420000  1.0
  O  O208  1  0.52036000  0.27288000  0.65158000  1.0
  O  O209  1  0.97969000  0.77288000  0.15158000  1.0
  O  O210  1  0.47971000  0.72714000  0.34841000  1.0
  O  O211  1  0.02033000  0.22716000  0.84840000  1.0
