# generated using pymatgen
data_Ho2CuH16C32(N2O13)2
_symmetry_space_group_name_H-M   'P 1'
_cell_length_a   9.82284000
_cell_length_b   10.22900000
_cell_length_c   10.97050000
_cell_angle_alpha   70.25140000
_cell_angle_beta   84.94010000
_cell_angle_gamma   71.39870000
_symmetry_Int_Tables_number   1
_chemical_formula_structural   Ho2CuH16C32(N2O13)2
_chemical_formula_sum   'Ho2 Cu1 H16 C32 N4 O26'
_cell_volume   983.02722843
_cell_formula_units_Z   1
loop_
 _symmetry_equiv_pos_site_id
 _symmetry_equiv_pos_as_xyz
  1  'x, y, z'
loop_
 _atom_site_type_symbol
 _atom_site_label
 _atom_site_symmetry_multiplicity
 _atom_site_fract_x
 _atom_site_fract_y
 _atom_site_fract_z
 _atom_site_occupancy
  Ho  Ho0  1  0.40668000  0.40565000  0.41731000  1.0
  Ho  Ho1  1  0.59332000  0.59435000  0.58269000  1.0
  Cu  Cu2  1  0.50000000  0.00000000  0.50000000  1.0
  H  H3  1  0.91982000  0.36639000  0.48125000  1.0
  H  H4  1  0.08018000  0.63361000  0.51874000  1.0
  H  H5  1  0.80693000  0.97005000  0.66083000  1.0
  H  H6  1  0.19307000  0.02996000  0.33917000  1.0
  H  H7  1  0.24918000  0.95697000  0.65323000  1.0
  H  H8  1  0.75082000  0.04303000  0.34677000  1.0
  H  H9  1  0.46238000  0.37316000  0.97759000  1.0
  H  H10  1  0.53763000  0.62684000  0.02241000  1.0
  H  H11  1  0.35056000  0.98783000  0.20370000  1.0
  H  H12  1  0.64944000  0.01217000  0.79631000  1.0
  H  H13  1  0.29342000  0.14892000  0.78873000  1.0
  H  H14  1  0.70658000  0.85108000  0.21128000  1.0
  H  H15  1  0.12740000  0.57958000  0.27542000  1.0
  H  H16  1  0.87260000  0.42041000  0.72458000  1.0
  H  H17  1  0.22758000  0.67123000  0.19198000  1.0
  H  H18  1  0.77242000  0.32876000  0.80802000  1.0
  C  C19  1  0.09573000  0.16990000  0.56027000  1.0
  C  C20  1  0.90427000  0.83011000  0.43972000  1.0
  C  C21  1  0.94997000  0.24959000  0.53393000  1.0
  C  C22  1  0.05003000  0.75042000  0.46606000  1.0
  C  C23  1  0.84600000  0.17777000  0.56837000  1.0
  C  C24  1  0.15400000  0.82224000  0.43162000  1.0
  C  C25  1  0.88613000  0.02807000  0.63627000  1.0
  C  C26  1  0.11387000  0.97194000  0.36373000  1.0
  C  C27  1  0.02983000  0.95354000  0.67073000  1.0
  C  C28  1  0.97017000  0.04647000  0.32926000  1.0
  C  C29  1  0.13691000  0.02057000  0.63080000  1.0
  C  C30  1  0.86309000  0.97944000  0.36919000  1.0
  C  C31  1  0.20329000  0.24802000  0.50570000  1.0
  C  C32  1  0.79671000  0.75199000  0.49429000  1.0
  C  C33  1  0.69356000  0.25784000  0.52552000  1.0
  C  C34  1  0.30644000  0.74216000  0.47447000  1.0
  C  C35  1  0.38288000  0.26887000  0.87052000  1.0
  C  C36  1  0.61712000  0.73113000  0.12948000  1.0
  C  C37  1  0.41932000  0.28507000  0.98441000  1.0
  C  C38  1  0.58068000  0.71492000  0.01559000  1.0
  C  C39  1  0.40674000  0.18416000  0.10485000  1.0
  C  C40  1  0.59327000  0.81583000  0.89516000  1.0
  C  C41  1  0.35348000  0.07069000  0.11144000  1.0
  C  C42  1  0.64652000  0.92930000  0.88857000  1.0
  C  C43  1  0.30593000  0.06440000  0.99865000  1.0
  C  C44  1  0.69407000  0.93559000  0.00136000  1.0
  C  C45  1  0.32178000  0.16053000  0.87724000  1.0
  C  C46  1  0.67822000  0.83947000  0.12277000  1.0
  C  C47  1  0.41815000  0.36014000  0.73931000  1.0
  C  C48  1  0.58185000  0.63985000  0.26070000  1.0
  C  C49  1  0.45077000  0.18765000  0.23137000  1.0
  C  C50  1  0.54923000  0.81234000  0.76863000  1.0
  N  N51  1  0.06946000  0.79619000  0.74582000  1.0
  N  N52  1  0.93054000  0.20382000  0.25416000  1.0
  N  N53  1  0.24260000  0.94938000  0.00961000  1.0
  N  N54  1  0.75739000  0.05062000  0.99040000  1.0
  O  O55  1  0.33561000  0.17858000  0.49275000  1.0
  O  O56  1  0.66439000  0.82143000  0.50725000  1.0
  O  O57  1  0.16485000  0.38611000  0.46849000  1.0
  O  O58  1  0.83515000  0.61389000  0.53150000  1.0
  O  O59  1  0.64137000  0.39209000  0.51730000  1.0
  O  O60  1  0.35863000  0.60791000  0.48270000  1.0
  O  O61  1  0.61812000  0.19412000  0.49330000  1.0
  O  O62  1  0.38189000  0.80588000  0.50670000  1.0
  O  O63  1  0.96979000  0.74296000  0.78478000  1.0
  O  O64  1  0.03021000  0.25706000  0.21521000  1.0
  O  O65  1  0.19871000  0.72671000  0.76408000  1.0
  O  O66  1  0.80129000  0.27330000  0.23591000  1.0
  O  O67  1  0.38802000  0.33221000  0.64266000  1.0
  O  O68  1  0.61198000  0.66778000  0.35735000  1.0
  O  O69  1  0.48002000  0.45275000  0.73698000  1.0
  O  O70  1  0.51998000  0.54724000  0.26302000  1.0
  O  O71  1  0.43725000  0.30715000  0.24696000  1.0
  O  O72  1  0.56275000  0.69285000  0.75304000  1.0
  O  O73  1  0.49788000  0.05875000  0.31483000  1.0
  O  O74  1  0.50212000  0.94125000  0.68518000  1.0
  O  O75  1  0.24671000  0.85609000  0.11918000  1.0
  O  O76  1  0.75329000  0.14391000  0.88083000  1.0
  O  O77  1  0.18785000  0.95014000  0.91208000  1.0
  O  O78  1  0.81215000  0.04986000  0.08793000  1.0
  O  O79  1  0.22632000  0.57830000  0.25753000  1.0
  O  O80  1  0.77368000  0.42170000  0.74247000  1.0
