# generated using pymatgen
data_MnH14C11(N2O3)2
_symmetry_space_group_name_H-M   'P 1'
_cell_length_a   7.95272000
_cell_length_b   9.01483000
_cell_length_c   9.62628000
_cell_angle_alpha   90.00140000
_cell_angle_beta   90.00060000
_cell_angle_gamma   96.57730000
_symmetry_Int_Tables_number   1
_chemical_formula_structural   MnH14C11(N2O3)2
_chemical_formula_sum   'Mn2 H28 C22 N8 O12'
_cell_volume   685.58900811
_cell_formula_units_Z   2
loop_
 _symmetry_equiv_pos_site_id
 _symmetry_equiv_pos_as_xyz
  1  'x, y, z'
loop_
 _atom_site_type_symbol
 _atom_site_label
 _atom_site_symmetry_multiplicity
 _atom_site_fract_x
 _atom_site_fract_y
 _atom_site_fract_z
 _atom_site_occupancy
  Mn  Mn0  1  0.81280000  0.85151000  0.11506000  1.0
  Mn  Mn1  1  0.18720000  0.14849000  0.61506000  1.0
  H  H2  1  0.17208000  0.87875000  0.03295000  1.0
  H  H3  1  0.82793000  0.12125000  0.53296000  1.0
  H  H4  1  0.17196000  0.87851000  0.19732000  1.0
  H  H5  1  0.82805000  0.12148000  0.69733000  1.0
  H  H6  1  0.47592000  0.80685000  0.03257000  1.0
  H  H7  1  0.52409000  0.19315000  0.53258000  1.0
  H  H8  1  0.47590000  0.80681000  0.19781000  1.0
  H  H9  1  0.52410000  0.19319000  0.69782000  1.0
  H  H10  1  0.73259000  0.38671000  0.75402000  1.0
  H  H11  1  0.26740000  0.61329000  0.25405000  1.0
  H  H12  1  0.62491000  0.51310000  0.99585000  1.0
  H  H13  1  0.37509000  0.48691000  0.49587000  1.0
  H  H14  1  0.98954000  0.82446000  0.80267000  1.0
  H  H15  1  0.01046000  0.17553000  0.30267000  1.0
  H  H16  1  0.09477000  0.66357000  0.61517000  1.0
  H  H17  1  0.90522000  0.33642000  0.11518000  1.0
  H  H18  1  0.02025000  0.46895000  0.61518000  1.0
  H  H19  1  0.97973000  0.53105000  0.11519000  1.0
  H  H20  1  0.98986000  0.82448000  0.42754000  1.0
  H  H21  1  0.01015000  0.17551000  0.92754000  1.0
  H  H22  1  0.62601000  0.51297000  0.23363000  1.0
  H  H23  1  0.37398000  0.48702000  0.73365000  1.0
  H  H24  1  0.73334000  0.38644000  0.47543000  1.0
  H  H25  1  0.26665000  0.61356000  0.97546000  1.0
  H  H26  1  0.45255000  0.19207000  0.99494000  1.0
  H  H27  1  0.54747000  0.80794000  0.49493000  1.0
  H  H28  1  0.45259000  0.19189000  0.23566000  1.0
  H  H29  1  0.54743000  0.80817000  0.73565000  1.0
  C  C30  1  0.76794000  0.49550000  0.80007000  1.0
  C  C31  1  0.23206000  0.50450000  0.30009000  1.0
  C  C32  1  0.71823000  0.55858000  0.92075000  1.0
  C  C33  1  0.28176000  0.44141000  0.42076000  1.0
  C  C34  1  0.90490000  0.72354000  0.82535000  1.0
  C  C35  1  0.09510000  0.27646000  0.32536000  1.0
  C  C36  1  0.98182000  0.58183000  0.61504000  1.0
  C  C37  1  0.01817000  0.41816000  0.11505000  1.0
  C  C38  1  0.90530000  0.72354000  0.40473000  1.0
  C  C39  1  0.09470000  0.27645000  0.90474000  1.0
  C  C40  1  0.71903000  0.55854000  0.30892000  1.0
  C  C41  1  0.28096000  0.44146000  0.80894000  1.0
  C  C42  1  0.76854000  0.49534000  0.42957000  1.0
  C  C43  1  0.23145000  0.50466000  0.92959000  1.0
  C  C44  1  0.68256000  0.10150000  0.94072000  1.0
  C  C45  1  0.31743000  0.89850000  0.44071000  1.0
  C  C46  1  0.55959000  0.14738000  0.04479000  1.0
  C  C47  1  0.44042000  0.85261000  0.54479000  1.0
  C  C48  1  0.55963000  0.14728000  0.18578000  1.0
  C  C49  1  0.44036000  0.85273000  0.68580000  1.0
  C  C50  1  0.68269000  0.10133000  0.28968000  1.0
  C  C51  1  0.31732000  0.89868000  0.78967000  1.0
  N  N52  1  0.80564000  0.69981000  0.93608000  1.0
  N  N53  1  0.19436000  0.30019000  0.43609000  1.0
  N  N54  1  0.88641000  0.60141000  0.74091000  1.0
  N  N55  1  0.11359000  0.39859000  0.24092000  1.0
  N  N56  1  0.80629000  0.69983000  0.29386000  1.0
  N  N57  1  0.19371000  0.30016000  0.79387000  1.0
  N  N58  1  0.88676000  0.60128000  0.48899000  1.0
  N  N59  1  0.11323000  0.39871000  0.98901000  1.0
  O  O60  1  0.80375000  0.02697000  0.97382000  1.0
  O  O61  1  0.19625000  0.97302000  0.47381000  1.0
  O  O62  1  0.66359000  0.14454000  0.81554000  1.0
  O  O63  1  0.33642000  0.85543000  0.31553000  1.0
  O  O64  1  0.80382000  0.02677000  0.25663000  1.0
  O  O65  1  0.19618000  0.97323000  0.75662000  1.0
  O  O66  1  0.66356000  0.14435000  0.41487000  1.0
  O  O67  1  0.33645000  0.85566000  0.91484000  1.0
  O  O68  1  0.09489000  0.87279000  0.11511000  1.0
  O  O69  1  0.90512000  0.12721000  0.61512000  1.0
  O  O70  1  0.53725000  0.77382000  0.11517000  1.0
  O  O71  1  0.46275000  0.22617000  0.61518000  1.0
