# generated using pymatgen
data_CuPH24C19(NO2)5
_symmetry_space_group_name_H-M   'P 1'
_cell_length_a   10.90870000
_cell_length_b   12.37379399
_cell_length_c   20.63450000
_cell_angle_alpha   90.00005266
_cell_angle_beta   90.00040000
_cell_angle_gamma   63.84051349
_symmetry_Int_Tables_number   1
_chemical_formula_structural   CuPH24C19(NO2)5
_chemical_formula_sum   'Cu4 P4 H96 C76 N20 O40'
_cell_volume   2499.99027009
_cell_formula_units_Z   4
loop_
 _symmetry_equiv_pos_site_id
 _symmetry_equiv_pos_as_xyz
  1  'x, y, z'
loop_
 _atom_site_type_symbol
 _atom_site_label
 _atom_site_symmetry_multiplicity
 _atom_site_fract_x
 _atom_site_fract_y
 _atom_site_fract_z
 _atom_site_occupancy
  Cu  Cu0  1  0.66049000  0.67905000  0.74994000  1.0
  Cu  Cu1  1  0.33947000  0.32103000  0.24994000  1.0
  Cu  Cu2  1  0.15860000  0.68291000  0.75000000  1.0
  Cu  Cu3  1  0.84138000  0.31711000  0.25000000  1.0
  P  P4  1  0.92950000  0.65980000  0.82922000  1.0
  P  P5  1  0.07049000  0.34020000  0.32923000  1.0
  P  P6  1  0.41074000  0.65980000  0.67072000  1.0
  P  P7  1  0.58926000  0.34021000  0.17072000  1.0
  H  H8  1  0.96671000  0.53850000  0.93831000  1.0
  H  H9  1  0.03330000  0.46149000  0.43830000  1.0
  H  H10  1  0.49478000  0.53847000  0.56169000  1.0
  H  H11  1  0.50522000  0.46153000  0.06169000  1.0
  H  H12  1  0.13976000  0.43585000  0.92227000  1.0
  H  H13  1  0.86025000  0.56414000  0.42227000  1.0
  H  H14  1  0.42425000  0.43594000  0.57778000  1.0
  H  H15  1  0.57574000  0.56406000  0.07778000  1.0
  H  H16  1  0.88944000  0.40051000  0.88131000  1.0
  H  H17  1  0.11056000  0.59949000  0.38131000  1.0
  H  H18  1  0.71007000  0.40046000  0.61857000  1.0
  H  H19  1  0.28993000  0.59954000  0.11857000  1.0
  H  H20  1  0.35843000  0.49565000  0.83294000  1.0
  H  H21  1  0.64156000  0.50436000  0.33293000  1.0
  H  H22  1  0.14618000  0.49583000  0.66722000  1.0
  H  H23  1  0.85381000  0.50418000  0.16722000  1.0
  H  H24  1  0.47597000  0.26949000  0.83677000  1.0
  H  H25  1  0.52403000  0.73051000  0.33677000  1.0
  H  H26  1  0.25437000  0.26972000  0.66339000  1.0
  H  H27  1  0.74563000  0.73028000  0.16339000  1.0
  H  H28  1  0.95431000  0.87205000  0.83212000  1.0
  H  H29  1  0.04569000  0.12795000  0.33212000  1.0
  H  H30  1  0.17353000  0.87201000  0.66768000  1.0
  H  H31  1  0.82646000  0.12799000  0.16768000  1.0
  H  H32  1  0.69320000  0.26856000  0.80110000  1.0
  H  H33  1  0.30680000  0.73144000  0.30110000  1.0
  H  H34  1  0.03881000  0.26856000  0.69891000  1.0
  H  H35  1  0.96119000  0.73144000  0.19891000  1.0
  H  H36  1  0.07562000  0.31340000  0.00042000  1.0
  H  H37  1  0.92438000  0.68660000  0.50042000  1.0
  H  H38  1  0.61079000  0.31330000  0.49955000  1.0
  H  H39  1  0.38921000  0.68670000  0.99955000  1.0
  H  H40  1  0.28748000  0.22778000  0.92830000  1.0
  H  H41  1  0.71253000  0.77221000  0.42829000  1.0
  H  H42  1  0.48459000  0.22794000  0.57180000  1.0
  H  H43  1  0.51541000  0.77206000  0.07180000  1.0
  H  H44  1  0.53995000  0.10164000  0.94019000  1.0
  H  H45  1  0.46005000  0.89836000  0.44020000  1.0
  H  H46  1  0.35814000  0.10190000  0.55983000  1.0
  H  H47  1  0.64186000  0.89810000  0.05983000  1.0
  H  H48  1  0.75301000  0.87203000  0.75729000  1.0
  H  H49  1  0.24699000  0.12797000  0.25729000  1.0
  H  H50  1  0.37451000  0.87196000  0.74273000  1.0
  H  H51  1  0.62549000  0.12804000  0.24273000  1.0
  H  H52  1  0.64914000  0.09613000  0.75818000  1.0
  H  H53  1  0.35087000  0.90387000  0.25818000  1.0
  H  H54  1  0.25414000  0.09610000  0.74194000  1.0
  H  H55  1  0.74585000  0.90391000  0.24194000  1.0
  H  H56  1  0.84622000  0.09520000  0.83849000  1.0
  H  H57  1  0.15378000  0.90480000  0.33849000  1.0
  H  H58  1  0.05870000  0.09519000  0.66142000  1.0
  H  H59  1  0.94130000  0.90480000  0.16142000  1.0
  H  H60  1  0.06041000  0.12317000  0.99405000  1.0
  H  H61  1  0.93959000  0.87683000  0.49405000  1.0
  H  H62  1  0.81650000  0.12307000  0.50597000  1.0
  H  H63  1  0.18350000  0.87693000  0.00597000  1.0
  H  H64  1  0.07357000  0.10474000  0.85964000  1.0
  H  H65  1  0.92642000  0.89526000  0.35964000  1.0
  H  H66  1  0.82165000  0.10467000  0.64034000  1.0
  H  H67  1  0.17835000  0.89533000  0.14034000  1.0
  H  H68  1  0.59109000  0.49278000  0.80096000  1.0
  H  H69  1  0.40893000  0.50721000  0.30096000  1.0
  H  H70  1  0.91656000  0.49279000  0.69900000  1.0
  H  H71  1  0.08343000  0.50721000  0.19900000  1.0
  H  H72  1  0.69281000  0.78004000  0.89156000  1.0
  H  H73  1  0.30720000  0.21995000  0.39156000  1.0
  H  H74  1  0.52695000  0.78023000  0.60843000  1.0
  H  H75  1  0.47305000  0.21977000  0.10843000  1.0
  H  H76  1  0.72678000  0.89438000  0.91943000  1.0
  H  H77  1  0.27323000  0.10561000  0.41944000  1.0
  H  H78  1  0.37857000  0.89457000  0.58059000  1.0
  H  H79  1  0.62143000  0.10543000  0.08058000  1.0
  H  H80  1  0.48092000  0.74519000  0.86298000  1.0
  H  H81  1  0.51907000  0.25482000  0.36299000  1.0
  H  H82  1  0.77349000  0.74542000  0.63701000  1.0
  H  H83  1  0.22650000  0.25459000  0.13700000  1.0
  H  H84  1  0.42686000  0.68727000  0.80745000  1.0
  H  H85  1  0.57315000  0.31272000  0.30746000  1.0
  H  H86  1  0.88563000  0.68742000  0.69248000  1.0
  H  H87  1  0.11437000  0.31258000  0.19247000  1.0
  H  H88  1  0.87578000  0.36342000  0.04866000  1.0
  H  H89  1  0.12422000  0.63658000  0.54866000  1.0
  H  H90  1  0.76067000  0.36332000  0.45128000  1.0
  H  H91  1  0.23933000  0.63668000  0.95129000  1.0
  H  H92  1  0.81667000  0.26131000  0.96186000  1.0
  H  H93  1  0.18333000  0.73869000  0.46187000  1.0
  H  H94  1  0.92173000  0.26150000  0.53816000  1.0
  H  H95  1  0.07827000  0.73850000  0.03816000  1.0
  H  H96  1  0.10425000  0.71681000  0.88356000  1.0
  H  H97  1  0.89574000  0.28320000  0.38356000  1.0
  H  H98  1  0.17892000  0.71675000  0.61644000  1.0
  H  H99  1  0.82107000  0.28326000  0.11644000  1.0
  H  H100  1  0.21562000  0.76998000  0.88079000  1.0
  H  H101  1  0.78439000  0.23001000  0.38078000  1.0
  H  H102  1  0.01438000  0.76995000  0.61918000  1.0
  H  H103  1  0.98562000  0.23005000  0.11918000  1.0
  C  C104  1  0.03403000  0.46866000  0.90452000  1.0
  C  C105  1  0.96597000  0.53134000  0.40452000  1.0
  C  C106  1  0.49731000  0.46863000  0.59548000  1.0
  C  C107  1  0.50268000  0.53137000  0.09548000  1.0
  C  C108  1  0.99169000  0.36803000  0.90331000  1.0
  C  C109  1  0.00831000  0.63197000  0.40331000  1.0
  C  C110  1  0.64023000  0.36799000  0.59665000  1.0
  C  C111  1  0.35977000  0.63201000  0.09665000  1.0
  C  C112  1  0.34004000  0.44094000  0.79628000  1.0
  C  C113  1  0.65995000  0.55907000  0.29628000  1.0
  C  C114  1  0.21921000  0.44105000  0.70391000  1.0
  C  C115  1  0.78079000  0.55896000  0.20390000  1.0
  C  C116  1  0.40487000  0.31566000  0.79768000  1.0
  C  C117  1  0.59512000  0.68435000  0.29768000  1.0
  C  C118  1  0.27934000  0.31579000  0.70251000  1.0
  C  C119  1  0.72067000  0.68422000  0.20251000  1.0
  C  C120  1  0.97589000  0.92533000  0.79572000  1.0
  C  C121  1  0.02413000  0.07466000  0.29572000  1.0
  C  C122  1  0.09873000  0.92529000  0.70411000  1.0
  C  C123  1  0.90126000  0.07470000  0.20411000  1.0
  C  C124  1  0.94222000  0.11580000  0.74997000  1.0
  C  C125  1  0.05779000  0.88419000  0.24997000  1.0
  C  C126  1  0.87622000  0.24814000  0.75001000  1.0
  C  C127  1  0.12378000  0.75186000  0.25001000  1.0
  C  C128  1  0.74846000  0.31372000  0.77892000  1.0
  C  C129  1  0.25155000  0.68627000  0.27892000  1.0
  C  C130  1  0.93842000  0.31370000  0.72111000  1.0
  C  C131  1  0.06159000  0.68629000  0.22111000  1.0
  C  C132  1  0.98956000  0.31707000  0.97064000  1.0
  C  C133  1  0.01044000  0.68293000  0.47063000  1.0
  C  C134  1  0.69317000  0.31700000  0.52933000  1.0
  C  C135  1  0.30683000  0.68300000  0.02933000  1.0
  C  C136  1  0.30052000  0.95529000  0.89877000  1.0
  C  C137  1  0.69947000  0.04471000  0.39877000  1.0
  C  C138  1  0.74403000  0.95532000  0.60115000  1.0
  C  C139  1  0.25598000  0.04468000  0.10115000  1.0
  C  C140  1  0.33516000  0.13054000  0.92239000  1.0
  C  C141  1  0.66483000  0.86946000  0.42239000  1.0
  C  C142  1  0.53414000  0.13067000  0.57764000  1.0
  C  C143  1  0.46587000  0.86933000  0.07764000  1.0
  C  C144  1  0.47228000  0.06148000  0.92764000  1.0
  C  C145  1  0.52773000  0.93851000  0.42764000  1.0
  C  C146  1  0.46599000  0.06168000  0.57234000  1.0
  C  C147  1  0.53401000  0.93832000  0.07234000  1.0
  C  C148  1  0.52280000  0.93545000  0.91506000  1.0
  C  C149  1  0.47721000  0.06454000  0.41506000  1.0
  C  C150  1  0.54150000  0.93565000  0.58490000  1.0
  C  C151  1  0.45851000  0.06435000  0.08490000  1.0
  C  C152  1  0.64264000  0.92537000  0.75468000  1.0
  C  C153  1  0.35736000  0.07463000  0.25468000  1.0
  C  C154  1  0.43147000  0.92537000  0.74543000  1.0
  C  C155  1  0.56853000  0.07464000  0.24543000  1.0
  C  C156  1  0.58357000  0.05065000  0.75540000  1.0
  C  C157  1  0.41644000  0.94935000  0.25541000  1.0
  C  C158  1  0.36518000  0.05066000  0.74477000  1.0
  C  C159  1  0.63483000  0.94934000  0.24477000  1.0
  C  C160  1  0.91248000  0.05016000  0.79769000  1.0
  C  C161  1  0.08753000  0.94984000  0.29769000  1.0
  C  C162  1  0.03747000  0.05013000  0.70220000  1.0
  C  C163  1  0.96253000  0.94986000  0.20220000  1.0
  C  C164  1  0.01158000  0.18740000  0.95438000  1.0
  C  C165  1  0.98841000  0.81260000  0.45437000  1.0
  C  C166  1  0.80092000  0.18738000  0.54562000  1.0
  C  C167  1  0.19908000  0.81262000  0.04562000  1.0
  C  C168  1  0.10267000  0.15702000  0.89393000  1.0
  C  C169  1  0.89733000  0.84298000  0.39392000  1.0
  C  C170  1  0.74026000  0.15700000  0.60608000  1.0
  C  C171  1  0.25974000  0.84300000  0.10608000  1.0
  C  C172  1  0.37487000  0.24995000  0.75011000  1.0
  C  C173  1  0.62514000  0.75005000  0.25011000  1.0
  C  C174  1  0.68892000  0.43843000  0.77809000  1.0
  C  C175  1  0.31108000  0.56157000  0.27809000  1.0
  C  C176  1  0.87316000  0.43841000  0.72191000  1.0
  C  C177  1  0.12684000  0.56158000  0.22191000  1.0
  C  C178  1  0.44141000  0.11656000  0.75010000  1.0
  C  C179  1  0.55860000  0.88344000  0.25010000  1.0
  N  N180  1  0.56814000  0.86322000  0.75003000  1.0
  N  N181  1  0.43185000  0.13678000  0.25003000  1.0
  N  N182  1  0.75044000  0.49956000  0.74998000  1.0
  N  N183  1  0.24955000  0.50046000  0.24998000  1.0
  N  N184  1  0.06806000  0.86377000  0.74992000  1.0
  N  N185  1  0.93195000  0.13623000  0.24991000  1.0
  N  N186  1  0.24911000  0.50210000  0.75009000  1.0
  N  N187  1  0.75089000  0.49790000  0.25009000  1.0
  N  N188  1  0.43695000  0.88647000  0.90259000  1.0
  N  N189  1  0.56305000  0.11352000  0.40260000  1.0
  N  N190  1  0.67635000  0.88658000  0.59734000  1.0
  N  N191  1  0.32366000  0.11341000  0.09734000  1.0
  N  N192  1  0.24944000  0.08121000  0.90711000  1.0
  N  N193  1  0.75055000  0.91879000  0.40711000  1.0
  N  N194  1  0.66921000  0.08126000  0.59289000  1.0
  N  N195  1  0.33080000  0.91873000  0.09289000  1.0
  N  N196  1  0.65676000  0.86158000  0.91557000  1.0
  N  N197  1  0.34324000  0.13842000  0.41557000  1.0
  N  N198  1  0.48140000  0.86178000  0.58443000  1.0
  N  N199  1  0.51861000  0.13821000  0.08443000  1.0
  O  O200  1  0.20493000  0.69446000  0.87899000  1.0
  O  O201  1  0.79507000  0.30554000  0.37899000  1.0
  O  O202  1  0.10059000  0.69442000  0.62102000  1.0
  O  O203  1  0.89941000  0.30558000  0.12102000  1.0
  O  O204  1  0.02800000  0.51764000  0.84083000  1.0
  O  O205  1  0.97200000  0.48236000  0.34083000  1.0
  O  O206  1  0.45452000  0.51762000  0.65919000  1.0
  O  O207  1  0.54547000  0.48238000  0.15919000  1.0
  O  O208  1  0.94852000  0.73147000  0.88508000  1.0
  O  O209  1  0.05147000  0.26854000  0.38509000  1.0
  O  O210  1  0.32002000  0.73135000  0.61485000  1.0
  O  O211  1  0.67998000  0.26866000  0.11484000  1.0
  O  O212  1  0.78046000  0.67918000  0.82475000  1.0
  O  O213  1  0.21959000  0.32078000  0.32471000  1.0
  O  O214  1  0.54040000  0.67920000  0.67517000  1.0
  O  O215  1  0.45958000  0.32077000  0.17522000  1.0
  O  O216  1  0.97857000  0.68411000  0.76272000  1.0
  O  O217  1  0.02142000  0.31588000  0.26273000  1.0
  O  O218  1  0.33734000  0.68419000  0.73722000  1.0
  O  O219  1  0.66269000  0.31579000  0.23721000  1.0
  O  O220  1  0.50655000  0.67274000  0.83512000  1.0
  O  O221  1  0.49344000  0.32726000  0.33513000  1.0
  O  O222  1  0.82021000  0.67303000  0.66492000  1.0
  O  O223  1  0.17978000  0.32698000  0.16491000  1.0
  O  O224  1  0.86299000  0.38592000  0.00115000  1.0
  O  O225  1  0.13700000  0.61408000  0.50115000  1.0
  O  O226  1  0.75084000  0.38587000  0.49880000  1.0
  O  O227  1  0.24916000  0.61413000  0.99880000  1.0
  O  O228  1  0.88297000  0.19070000  0.93791000  1.0
  O  O229  1  0.11704000  0.80930000  0.43791000  1.0
  O  O230  1  0.92611000  0.19088000  0.56213000  1.0
  O  O231  1  0.07389000  0.80912000  0.06213000  1.0
  O  O232  1  0.08825000  0.26710000  0.86611000  1.0
  O  O233  1  0.91174000  0.73290000  0.36610000  1.0
  O  O234  1  0.64472000  0.26710000  0.63393000  1.0
  O  O235  1  0.35528000  0.73290000  0.13394000  1.0
  O  O236  1  0.21689000  0.91357000  0.88744000  1.0
  O  O237  1  0.78312000  0.08642000  0.38744000  1.0
  O  O238  1  0.86943000  0.91354000  0.61239000  1.0
  O  O239  1  0.13057000  0.08646000  0.11240000  1.0
