# generated using pymatgen
data_ZnH8C10(N3O2)2
_symmetry_space_group_name_H-M   'P 1'
_cell_length_a   7.32331000
_cell_length_b   9.67303000
_cell_length_c   9.82390000
_cell_angle_alpha   62.11820000
_cell_angle_beta   79.64410000
_cell_angle_gamma   71.10180000
_symmetry_Int_Tables_number   1
_chemical_formula_structural   ZnH8C10(N3O2)2
_chemical_formula_sum   'Zn2 H16 C20 N12 O8'
_cell_volume   581.63461719
_cell_formula_units_Z   2
loop_
 _symmetry_equiv_pos_site_id
 _symmetry_equiv_pos_as_xyz
  1  'x, y, z'
loop_
 _atom_site_type_symbol
 _atom_site_label
 _atom_site_symmetry_multiplicity
 _atom_site_fract_x
 _atom_site_fract_y
 _atom_site_fract_z
 _atom_site_occupancy
  Zn  Zn0  1  0.24293000  0.49339000  0.08577000  1.0
  Zn  Zn1  1  0.75706000  0.50661000  0.91423000  1.0
  H  H2  1  0.86273000  0.17449000  0.42006000  1.0
  H  H3  1  0.13726000  0.82551000  0.57994000  1.0
  H  H4  1  0.07849000  0.40547000  0.41671000  1.0
  H  H5  1  0.92151000  0.59453000  0.58329000  1.0
  H  H6  1  0.12134000  0.86242000  0.91445000  1.0
  H  H7  1  0.87867000  0.13758000  0.08555000  1.0
  H  H8  1  0.16887000  0.33986000  0.67927000  1.0
  H  H9  1  0.83112000  0.66014000  0.32073000  1.0
  H  H10  1  0.46557000  0.67438000  0.41212000  1.0
  H  H11  1  0.53443000  0.32563000  0.58788000  1.0
  H  H12  1  0.30825000  0.91313000  0.08325000  1.0
  H  H13  1  0.69175000  0.08687000  0.91675000  1.0
  H  H14  1  0.47101000  0.17842000  0.38641000  1.0
  H  H15  1  0.52899000  0.82158000  0.61359000  1.0
  H  H16  1  0.25380000  0.20238000  0.00318000  1.0
  H  H17  1  0.74620000  0.79762000  0.99682000  1.0
  C  C18  1  0.88051000  0.40104000  0.21454000  1.0
  C  C19  1  0.11949000  0.59896000  0.78546000  1.0
  C  C20  1  0.91704000  0.28041000  0.37591000  1.0
  C  C21  1  0.08295000  0.71959000  0.62409000  1.0
  C  C22  1  0.02004000  0.30126000  0.46169000  1.0
  C  C23  1  0.97995000  0.69874000  0.53831000  1.0
  C  C24  1  0.11259000  0.98500000  0.82569000  1.0
  C  C25  1  0.88741000  0.01500000  0.17431000  1.0
  C  C26  1  0.14073000  0.22483000  0.71192000  1.0
  C  C27  1  0.85926000  0.77517000  0.28807000  1.0
  C  C28  1  0.36581000  0.59481000  0.26758000  1.0
  C  C29  1  0.63418000  0.40520000  0.73242000  1.0
  C  C30  1  0.41099000  0.71628000  0.29905000  1.0
  C  C31  1  0.58902000  0.28372000  0.70095000  1.0
  C  C32  1  0.36691000  0.87259000  0.19432000  1.0
  C  C33  1  0.63309000  0.12741000  0.80568000  1.0
  C  C34  1  0.43014000  0.14286000  0.30907000  1.0
  C  C35  1  0.56987000  0.85714000  0.69094000  1.0
  C  C36  1  0.31918000  0.16139000  0.11131000  1.0
  C  C37  1  0.68083000  0.83861000  0.88869000  1.0
  N  N38  1  0.07057000  0.19329000  0.61281000  1.0
  N  N39  1  0.92943000  0.80671000  0.38719000  1.0
  N  N40  1  0.05265000  0.03805000  0.68567000  1.0
  N  N41  1  0.94735000  0.96195000  0.31433000  1.0
  N  N42  1  0.16656000  0.09640000  0.84787000  1.0
  N  N43  1  0.83344000  0.90360000  0.15213000  1.0
  N  N44  1  0.38048000  0.00343000  0.21339000  1.0
  N  N45  1  0.61953000  0.99657000  0.78660000  1.0
  N  N46  1  0.45049000  0.99012000  0.34042000  1.0
  N  N47  1  0.54952000  0.00988000  0.65958000  1.0
  N  N48  1  0.34881000  0.25243000  0.16904000  1.0
  N  N49  1  0.65119000  0.74757000  0.83096000  1.0
  O  O50  1  0.76902000  0.38097000  0.14277000  1.0
  O  O51  1  0.23098000  0.61903000  0.85724000  1.0
  O  O52  1  0.95788000  0.52001000  0.15086000  1.0
  O  O53  1  0.04212000  0.47999000  0.84914000  1.0
  O  O54  1  0.33132000  0.63968000  0.12502000  1.0
  O  O55  1  0.66867000  0.36032000  0.87498000  1.0
  O  O56  1  0.35679000  0.46042000  0.37707000  1.0
  O  O57  1  0.64320000  0.53958000  0.62293000  1.0
