# generated using pymatgen
data_Zn3H44C66(NO3)4
_symmetry_space_group_name_H-M   'P 1'
_cell_length_a   10.66010000
_cell_length_b   10.75530000
_cell_length_c   12.77440000
_cell_angle_alpha   83.28050000
_cell_angle_beta   75.81480000
_cell_angle_gamma   76.15010000
_symmetry_Int_Tables_number   1
_chemical_formula_structural   Zn3H44C66(NO3)4
_chemical_formula_sum   'Zn3 H44 C66 N4 O12'
_cell_volume   1376.02500932
_cell_formula_units_Z   1
loop_
 _symmetry_equiv_pos_site_id
 _symmetry_equiv_pos_as_xyz
  1  'x, y, z'
loop_
 _atom_site_type_symbol
 _atom_site_label
 _atom_site_symmetry_multiplicity
 _atom_site_fract_x
 _atom_site_fract_y
 _atom_site_fract_z
 _atom_site_occupancy
  Zn  Zn0  1  0.50000000  0.50000000  0.00000000  1.0
  Zn  Zn1  1  0.64845000  0.73059000  0.14796000  1.0
  Zn  Zn2  1  0.35155000  0.26941000  0.85204000  1.0
  H  H3  1  0.77259000  0.10273000  0.55176000  1.0
  H  H4  1  0.22741000  0.89728000  0.44823000  1.0
  H  H5  1  0.11414000  0.84723000  0.37092000  1.0
  H  H6  1  0.88586000  0.15277000  0.62908000  1.0
  H  H7  1  0.77277000  0.38909000  0.89141000  1.0
  H  H8  1  0.22723000  0.61091000  0.10859000  1.0
  H  H9  1  0.31654000  0.63291000  0.61632000  1.0
  H  H10  1  0.68346000  0.36709000  0.38368000  1.0
  H  H11  1  0.99009000  0.09560000  0.21792000  1.0
  H  H12  1  0.00991000  0.90439000  0.78209000  1.0
  H  H13  1  0.32050000  0.96104000  0.91549000  1.0
  H  H14  1  0.67949000  0.03896000  0.08451000  1.0
  H  H15  1  0.72619000  0.72990000  0.73570000  1.0
  H  H16  1  0.27382000  0.27010000  0.26430000  1.0
  H  H17  1  0.01601000  0.52159000  0.91202000  1.0
  H  H18  1  0.98399000  0.47841000  0.08799000  1.0
  H  H19  1  0.97928000  0.25201000  0.93394000  1.0
  H  H20  1  0.02072000  0.74799000  0.06606000  1.0
  H  H21  1  0.97055000  0.78499000  0.27241000  1.0
  H  H22  1  0.02945000  0.21501000  0.72759000  1.0
  H  H23  1  0.55421000  0.33261000  0.20122000  1.0
  H  H24  1  0.44579000  0.66739000  0.79878000  1.0
  H  H25  1  0.19019000  0.50595000  0.74264000  1.0
  H  H26  1  0.80981000  0.49404000  0.25737000  1.0
  H  H27  1  0.19305000  0.02693000  0.25656000  1.0
  H  H28  1  0.80695000  0.97308000  0.74344000  1.0
  H  H29  1  0.48789000  0.62446000  0.44320000  1.0
  H  H30  1  0.51211000  0.37554000  0.55680000  1.0
  H  H31  1  0.75030000  0.18549000  0.25773000  1.0
  H  H32  1  0.24969000  0.81452000  0.74227000  1.0
  H  H33  1  0.53081000  0.82525000  0.95256000  1.0
  H  H34  1  0.46919000  0.17475000  0.04744000  1.0
  H  H35  1  0.90302000  0.72529000  0.56716000  1.0
  H  H36  1  0.09699000  0.27471000  0.43284000  1.0
  H  H37  1  0.41276000  0.89166000  0.27839000  1.0
  H  H38  1  0.58724000  0.10834000  0.72161000  1.0
  H  H39  1  0.03456000  0.57960000  0.44399000  1.0
  H  H40  1  0.96544000  0.42040000  0.55601000  1.0
  H  H41  1  0.20899000  0.55944000  0.27494000  1.0
  H  H42  1  0.79101000  0.44056000  0.72505000  1.0
  H  H43  1  0.11802000  0.10269000  0.97282000  1.0
  H  H44  1  0.88197000  0.89732000  0.02718000  1.0
  H  H45  1  0.62976000  0.02971000  0.45929000  1.0
  H  H46  1  0.37024000  0.97030000  0.54070000  1.0
  C  C47  1  0.81849000  0.03142000  0.49196000  1.0
  C  C48  1  0.18151000  0.96859000  0.50803000  1.0
  C  C49  1  0.00890000  0.89151000  0.38974000  1.0
  C  C50  1  0.99110000  0.10850000  0.61026000  1.0
  C  C51  1  0.46145000  0.58454000  0.24439000  1.0
  C  C52  1  0.53855000  0.41547000  0.75561000  1.0
  C  C53  1  0.75223000  0.63976000  0.93543000  1.0
  C  C54  1  0.24777000  0.36024000  0.06457000  1.0
  C  C55  1  0.35946000  0.59033000  0.34847000  1.0
  C  C56  1  0.64054000  0.40967000  0.65153000  1.0
  C  C57  1  0.77358000  0.34268000  0.97164000  1.0
  C  C58  1  0.22642000  0.65732000  0.02836000  1.0
  C  C59  1  0.85981000  0.62815000  0.83478000  1.0
  C  C60  1  0.14019000  0.37185000  0.16523000  1.0
  C  C61  1  0.29246000  0.61813000  0.54121000  1.0
  C  C62  1  0.70754000  0.38187000  0.45879000  1.0
  C  C63  1  0.99910000  0.12217000  0.13158000  1.0
  C  C64  1  0.00090000  0.87782000  0.86842000  1.0
  C  C65  1  0.05926000  0.61586000  0.64334000  1.0
  C  C66  1  0.94074000  0.38414000  0.35666000  1.0
  C  C67  1  0.88249000  0.20409000  0.10041000  1.0
  C  C68  1  0.11751000  0.79591000  0.89959000  1.0
  C  C69  1  0.16308000  0.60748000  0.54244000  1.0
  C  C70  1  0.83692000  0.39251000  0.45756000  1.0
  C  C71  1  0.33545000  0.94624000  0.99781000  1.0
  C  C72  1  0.66455000  0.05376000  0.00219000  1.0
  C  C73  1  0.82868000  0.68330000  0.73674000  1.0
  C  C74  1  0.17133000  0.31670000  0.26326000  1.0
  C  C75  1  0.99087000  0.56576000  0.83650000  1.0
  C  C76  1  0.00913000  0.43423000  0.16350000  1.0
  C  C77  1  0.88713000  0.26377000  0.99576000  1.0
  C  C78  1  0.11287000  0.73622000  0.00424000  1.0
  C  C79  1  0.92810000  0.85477000  0.33398000  1.0
  C  C80  1  0.07190000  0.14524000  0.66601000  1.0
  C  C81  1  0.65060000  0.31104000  0.14505000  1.0
  C  C82  1  0.34939000  0.68896000  0.85495000  1.0
  C  C83  1  0.08918000  0.55801000  0.74149000  1.0
  C  C84  1  0.91082000  0.44199000  0.25851000  1.0
  C  C85  1  0.95669000  0.98103000  0.47012000  1.0
  C  C86  1  0.04331000  0.01897000  0.52987000  1.0
  C  C87  1  0.26378000  0.98250000  0.18695000  1.0
  C  C88  1  0.73622000  0.01750000  0.81306000  1.0
  C  C89  1  0.38893000  0.61194000  0.44518000  1.0
  C  C90  1  0.61107000  0.38806000  0.55482000  1.0
  C  C91  1  0.75983000  0.22939000  0.17554000  1.0
  C  C92  1  0.24017000  0.77061000  0.82446000  1.0
  C  C93  1  0.23550000  0.00254000  0.08344000  1.0
  C  C94  1  0.76450000  0.99746000  0.91656000  1.0
  C  C95  1  0.45362000  0.87197000  0.01745000  1.0
  C  C96  1  0.54637000  0.12803000  0.98255000  1.0
  C  C97  1  0.92757000  0.67908000  0.64245000  1.0
  C  C98  1  0.07244000  0.32092000  0.35755000  1.0
  C  C99  1  0.38476000  0.90744000  0.20047000  1.0
  C  C100  1  0.61524000  0.09256000  0.79953000  1.0
  C  C101  1  0.13402000  0.58831000  0.44477000  1.0
  C  C102  1  0.86598000  0.41169000  0.55524000  1.0
  C  C103  1  0.23122000  0.57806000  0.34954000  1.0
  C  C104  1  0.76878000  0.42194000  0.65046000  1.0
  C  C105  1  0.11309000  0.07939000  0.05914000  1.0
  C  C106  1  0.88690000  0.92061000  0.94086000  1.0
  C  C107  1  0.79082000  0.90373000  0.35807000  1.0
  C  C108  1  0.20918000  0.09627000  0.64193000  1.0
  C  C109  1  0.70217000  0.86062000  0.30148000  1.0
  C  C110  1  0.29783000  0.13938000  0.69851000  1.0
  C  C111  1  0.73678000  0.99229000  0.43847000  1.0
  C  C112  1  0.26322000  0.00772000  0.56152000  1.0
  N  N113  1  0.65684000  0.36763000  0.04474000  1.0
  N  N114  1  0.34317000  0.63237000  0.95526000  1.0
  N  N115  1  0.47869000  0.85161000  0.11723000  1.0
  N  N116  1  0.52130000  0.14839000  0.88277000  1.0
  O  O117  1  0.76228000  0.80513000  0.21121000  1.0
  O  O118  1  0.23772000  0.19488000  0.78878000  1.0
  O  O119  1  0.57771000  0.59623000  0.24853000  1.0
  O  O120  1  0.42229000  0.40377000  0.75147000  1.0
  O  O121  1  0.42684000  0.57203000  0.15896000  1.0
  O  O122  1  0.57316000  0.42797000  0.84104000  1.0
  O  O123  1  0.78538000  0.65813000  0.02186000  1.0
  O  O124  1  0.21462000  0.34187000  0.97815000  1.0
  O  O125  1  0.63658000  0.63542000  0.92962000  1.0
  O  O126  1  0.36342000  0.36458000  0.07037000  1.0
  O  O127  1  0.58056000  0.87855000  0.34147000  1.0
  O  O128  1  0.41944000  0.12145000  0.65853000  1.0
