# generated using pymatgen
data_NiH20C21(NO)6
_symmetry_space_group_name_H-M   'P 1'
_cell_length_a   10.27410000
_cell_length_b   10.85040000
_cell_length_c   10.95840000
_cell_angle_alpha   71.42430000
_cell_angle_beta   70.24220000
_cell_angle_gamma   69.18440000
_symmetry_Int_Tables_number   1
_chemical_formula_structural   NiH20C21(NO)6
_chemical_formula_sum   'Ni2 H40 C42 N12 O12'
_cell_volume   1046.96639034
_cell_formula_units_Z   2
loop_
 _symmetry_equiv_pos_site_id
 _symmetry_equiv_pos_as_xyz
  1  'x, y, z'
loop_
 _atom_site_type_symbol
 _atom_site_label
 _atom_site_symmetry_multiplicity
 _atom_site_fract_x
 _atom_site_fract_y
 _atom_site_fract_z
 _atom_site_occupancy
  Ni  Ni0  1  0.53009000  0.56168000  0.69601000  1.0
  Ni  Ni1  1  0.46991000  0.43832000  0.30399000  1.0
  H  H2  1  0.77583000  0.51448000  0.54935000  1.0
  H  H3  1  0.22417000  0.48552000  0.45065000  1.0
  H  H4  1  0.69643000  0.47735000  0.46437000  1.0
  H  H5  1  0.30357000  0.52266000  0.53563000  1.0
  H  H6  1  0.09293000  0.66241000  0.99766000  1.0
  H  H7  1  0.90707000  0.33759000  0.00234000  1.0
  H  H8  1  0.68401000  0.68915000  0.94700000  1.0
  H  H9  1  0.31599000  0.31085000  0.05300000  1.0
  H  H10  1  0.07250000  0.58833000  0.64255000  1.0
  H  H11  1  0.92751000  0.41167000  0.35745000  1.0
  H  H12  1  0.94370000  0.62604000  0.22479000  1.0
  H  H13  1  0.05630000  0.37396000  0.77521000  1.0
  H  H14  1  0.95435000  0.79265000  0.12978000  1.0
  H  H15  1  0.04565000  0.20735000  0.87022000  1.0
  H  H16  1  0.80131000  0.77253000  0.26500000  1.0
  H  H17  1  0.19868000  0.22747000  0.73500000  1.0
  H  H18  1  0.70777000  0.76399000  0.47337000  1.0
  H  H19  1  0.29223000  0.23601000  0.52663000  1.0
  H  H20  1  0.26658000  0.79467000  0.58436000  1.0
  H  H21  1  0.73342000  0.20533000  0.41564000  1.0
  H  H22  1  0.30319000  0.11915000  0.35503000  1.0
  H  H23  1  0.69681000  0.88085000  0.64497000  1.0
  H  H24  1  0.32394000  0.00523000  0.25924000  1.0
  H  H25  1  0.67606000  0.99476000  0.74076000  1.0
  H  H26  1  0.16701000  0.83379000  0.36496000  1.0
  H  H27  1  0.83298000  0.16620000  0.63504000  1.0
  H  H28  1  0.07730000  0.18674000  0.51429000  1.0
  H  H29  1  0.92270000  0.81325000  0.48571000  1.0
  H  H30  1  0.49477000  0.27738000  0.71935000  1.0
  H  H31  1  0.50523000  0.72262000  0.28065000  1.0
  H  H32  1  0.63704000  0.39099000  0.97451000  1.0
  H  H33  1  0.36297000  0.60901000  0.02549000  1.0
  H  H34  1  0.65090000  0.15513000  0.15579000  1.0
  H  H35  1  0.34911000  0.84487000  0.84421000  1.0
  H  H36  1  0.63680000  0.02006000  0.10640000  1.0
  H  H37  1  0.36321000  0.97994000  0.89360000  1.0
  H  H38  1  0.87554000  0.08304000  0.20779000  1.0
  H  H39  1  0.12446000  0.91696000  0.79220000  1.0
  H  H40  1  0.85976000  0.00782000  0.85128000  1.0
  H  H41  1  0.14024000  0.99219000  0.14872000  1.0
  C  C42  1  0.25803000  0.59307000  0.77311000  1.0
  C  C43  1  0.74197000  0.40693000  0.22689000  1.0
  C  C44  1  0.09844000  0.62211000  0.81679000  1.0
  C  C45  1  0.90156000  0.37789000  0.18321000  1.0
  C  C46  1  0.02810000  0.65817000  0.93962000  1.0
  C  C47  1  0.97190000  0.34183000  0.06038000  1.0
  C  C48  1  0.87856000  0.68588000  0.98512000  1.0
  C  C49  1  0.12144000  0.31412000  0.01488000  1.0
  C  C50  1  0.79986000  0.67323000  0.90948000  1.0
  C  C51  1  0.20014000  0.32677000  0.09052000  1.0
  C  C52  1  0.87037000  0.63728000  0.78724000  1.0
  C  C53  1  0.12963000  0.36273000  0.21276000  1.0
  C  C54  1  0.01996000  0.61404000  0.73904000  1.0
  C  C55  1  0.98004000  0.38596000  0.26096000  1.0
  C  C56  1  0.78788000  0.61590000  0.70905000  1.0
  C  C57  1  0.21212000  0.38411000  0.29095000  1.0
  C  C58  1  0.88192000  0.72829000  0.18439000  1.0
  C  C59  1  0.11808000  0.27171000  0.81561000  1.0
  C  C60  1  0.59424000  0.80132000  0.47508000  1.0
  C  C61  1  0.40575000  0.19868000  0.52492000  1.0
  C  C62  1  0.37070000  0.81303000  0.53605000  1.0
  C  C63  1  0.62929000  0.18698000  0.46395000  1.0
  C  C64  1  0.29124000  0.02081000  0.36102000  1.0
  C  C65  1  0.70876000  0.97919000  0.63898000  1.0
  C  C66  1  0.09370000  0.90816000  0.42282000  1.0
  C  C67  1  0.90630000  0.09184000  0.57718000  1.0
  C  C68  1  0.13983000  0.01166000  0.43119000  1.0
  C  C69  1  0.86017000  0.98834000  0.56881000  1.0
  C  C70  1  0.04475000  0.10344000  0.50914000  1.0
  C  C71  1  0.95525000  0.89655000  0.49086000  1.0
  C  C72  1  0.54057000  0.27153000  0.79729000  1.0
  C  C73  1  0.45943000  0.72847000  0.20271000  1.0
  C  C74  1  0.61071000  0.33419000  0.92505000  1.0
  C  C75  1  0.38930000  0.66581000  0.07495000  1.0
  C  C76  1  0.68589000  0.10390000  0.07389000  1.0
  C  C77  1  0.31411000  0.89610000  0.92610000  1.0
  C  C78  1  0.92971000  0.04615000  0.11663000  1.0
  C  C79  1  0.07029000  0.95385000  0.88336000  1.0
  C  C80  1  0.84848000  0.05287000  0.03346000  1.0
  C  C81  1  0.15152000  0.94713000  0.96654000  1.0
  C  C82  1  0.92081000  0.00600000  0.91635000  1.0
  C  C83  1  0.07920000  0.99400000  0.08365000  1.0
  N  N84  1  0.49589000  0.73718000  0.56535000  1.0
  N  N85  1  0.50411000  0.26281000  0.43465000  1.0
  N  N86  1  0.39455000  0.91630000  0.43242000  1.0
  N  N87  1  0.60544000  0.08370000  0.56758000  1.0
  N  N88  1  0.53695000  0.91070000  0.39157000  1.0
  N  N89  1  0.46304000  0.08929000  0.60843000  1.0
  N  N90  1  0.55736000  0.38193000  0.81805000  1.0
  N  N91  1  0.44264000  0.61807000  0.18195000  1.0
  N  N92  1  0.62555000  0.20010000  0.96531000  1.0
  N  N93  1  0.37445000  0.79990000  0.03469000  1.0
  N  N94  1  0.58193000  0.15808000  0.88442000  1.0
  N  N95  1  0.41807000  0.84192000  0.11558000  1.0
  O  O96  1  0.33169000  0.53435000  0.67635000  1.0
  O  O97  1  0.66831000  0.46564000  0.32365000  1.0
  O  O98  1  0.32095000  0.63145000  0.83102000  1.0
  O  O99  1  0.67906000  0.36855000  0.16898000  1.0
  O  O100  1  0.85148000  0.60200000  0.59076000  1.0
  O  O101  1  0.14852000  0.39800000  0.40924000  1.0
  O  O102  1  0.65799000  0.61205000  0.77016000  1.0
  O  O103  1  0.34201000  0.38796000  0.22984000  1.0
  O  O104  1  0.70743000  0.46454000  0.55469000  1.0
  O  O105  1  0.29256000  0.53546000  0.44532000  1.0
  O  O106  1  0.80160000  0.72400000  0.10204000  1.0
  O  O107  1  0.19840000  0.27600000  0.89796000  1.0
