# generated using pymatgen
data_Sm2H10C16N2O15
_symmetry_space_group_name_H-M   'P 1'
_cell_length_a   9.42007000
_cell_length_b   11.97920000
_cell_length_c   22.33560000
_cell_angle_alpha   101.26000000
_cell_angle_beta   90.03270000
_cell_angle_gamma   113.11600000
_symmetry_Int_Tables_number   1
_chemical_formula_structural   Sm2H10C16N2O15
_chemical_formula_sum   'Sm8 H40 C64 N8 O60'
_cell_volume   2265.12690688
_cell_formula_units_Z   4
loop_
 _symmetry_equiv_pos_site_id
 _symmetry_equiv_pos_as_xyz
  1  'x, y, z'
loop_
 _atom_site_type_symbol
 _atom_site_label
 _atom_site_symmetry_multiplicity
 _atom_site_fract_x
 _atom_site_fract_y
 _atom_site_fract_z
 _atom_site_occupancy
  Sm  Sm0  1  0.68857000  0.90909000  0.56285000  1.0
  Sm  Sm1  1  0.77907000  0.09110000  0.93720000  1.0
  Sm  Sm2  1  0.31143000  0.09091000  0.43715000  1.0
  Sm  Sm3  1  0.22092000  0.90890000  0.06280000  1.0
  Sm  Sm4  1  0.49547000  0.69444000  0.81940000  1.0
  Sm  Sm5  1  0.80143000  0.30592000  0.68058000  1.0
  Sm  Sm6  1  0.50452000  0.30556000  0.18060000  1.0
  Sm  Sm7  1  0.19857000  0.69408000  0.31941000  1.0
  H  H8  1  0.68751000  0.07267000  0.47215000  1.0
  H  H9  1  0.61510000  0.92744000  0.02788000  1.0
  H  H10  1  0.31249000  0.92733000  0.52785000  1.0
  H  H11  1  0.38489000  0.07256000  0.97212000  1.0
  H  H12  1  0.84496000  0.15840000  0.51360000  1.0
  H  H13  1  0.68708000  0.84193000  0.98646000  1.0
  H  H14  1  0.15505000  0.84160000  0.48640000  1.0
  H  H15  1  0.31292000  0.15807000  0.01354000  1.0
  H  H16  1  0.79992000  0.73837000  0.61579000  1.0
  H  H17  1  0.06085000  0.26125000  0.88412000  1.0
  H  H18  1  0.20007000  0.26163000  0.38421000  1.0
  H  H19  1  0.93915000  0.73874000  0.11588000  1.0
  H  H20  1  0.86283000  0.72222000  0.54925000  1.0
  H  H21  1  0.14034000  0.27755000  0.95061000  1.0
  H  H22  1  0.13717000  0.27778000  0.45075000  1.0
  H  H23  1  0.85966000  0.72245000  0.04939000  1.0
  H  H24  1  0.91442000  0.93271000  0.45516000  1.0
  H  H25  1  0.98154000  0.06751000  0.04489000  1.0
  H  H26  1  0.08559000  0.06729000  0.54484000  1.0
  H  H27  1  0.01847000  0.93249000  0.95512000  1.0
  H  H28  1  0.91264000  0.82286000  0.48358000  1.0
  H  H29  1  0.08947000  0.17711000  0.01636000  1.0
  H  H30  1  0.08737000  0.17715000  0.51642000  1.0
  H  H31  1  0.91053000  0.82288000  0.98364000  1.0
  H  H32  1  0.25853000  0.53047000  0.65975000  1.0
  H  H33  1  0.72817000  0.47029000  0.84038000  1.0
  H  H34  1  0.74147000  0.46952000  0.34025000  1.0
  H  H35  1  0.27182000  0.52970000  0.15962000  1.0
  H  H36  1  0.15890000  0.48842000  0.46529000  1.0
  H  H37  1  0.67002000  0.51185000  0.03476000  1.0
  H  H38  1  0.84111000  0.51159000  0.53471000  1.0
  H  H39  1  0.32998000  0.48815000  0.96524000  1.0
  H  H40  1  0.23973000  0.34815000  0.72162000  1.0
  H  H41  1  0.89106000  0.65204000  0.77856000  1.0
  H  H42  1  0.76027000  0.65185000  0.27838000  1.0
  H  H43  1  0.10894000  0.34797000  0.22143000  1.0
  H  H44  1  0.18053000  0.98302000  0.62046000  1.0
  H  H45  1  0.19700000  0.01730000  0.87952000  1.0
  H  H46  1  0.81948000  0.01697000  0.37955000  1.0
  H  H47  1  0.80301000  0.98270000  0.12048000  1.0
  C  C48  1  0.41467000  0.66922000  0.61461000  1.0
  C  C49  1  0.74515000  0.33116000  0.88542000  1.0
  C  C50  1  0.58533000  0.33078000  0.38539000  1.0
  C  C51  1  0.25485000  0.66884000  0.11458000  1.0
  C  C52  1  0.28628000  0.56028000  0.61660000  1.0
  C  C53  1  0.72581000  0.44024000  0.88348000  1.0
  C  C54  1  0.71372000  0.43972000  0.38340000  1.0
  C  C55  1  0.27418000  0.55976000  0.11652000  1.0
  C  C56  1  0.19525000  0.49053000  0.56183000  1.0
  C  C57  1  0.70441000  0.50992000  0.93824000  1.0
  C  C58  1  0.80475000  0.50947000  0.43816000  1.0
  C  C59  1  0.29559000  0.49008000  0.06176000  1.0
  C  C60  1  0.23033000  0.53615000  0.50826000  1.0
  C  C61  1  0.69369000  0.46414000  0.99178000  1.0
  C  C62  1  0.76967000  0.46385000  0.49174000  1.0
  C  C63  1  0.30630000  0.53586000  0.00822000  1.0
  C  C64  1  0.35880000  0.64710000  0.51076000  1.0
  C  C65  1  0.71110000  0.35307000  0.98924000  1.0
  C  C66  1  0.64120000  0.35290000  0.48924000  1.0
  C  C67  1  0.28889000  0.64693000  0.01076000  1.0
  C  C68  1  0.51966000  0.75672000  0.67044000  1.0
  C  C69  1  0.76297000  0.24375000  0.82960000  1.0
  C  C70  1  0.48035000  0.24327000  0.32956000  1.0
  C  C71  1  0.23703000  0.75625000  0.17040000  1.0
  C  C72  1  0.06006000  0.36933000  0.56098000  1.0
  C  C73  1  0.69085000  0.63135000  0.93914000  1.0
  C  C74  1  0.93994000  0.63067000  0.43902000  1.0
  C  C75  1  0.30915000  0.36865000  0.06087000  1.0
  C  C76  1  0.39881000  0.71280000  0.45798000  1.0
  C  C77  1  0.68521000  0.28721000  0.04197000  1.0
  C  C78  1  0.60120000  0.28720000  0.54202000  1.0
  C  C79  1  0.31478000  0.71279000  0.95803000  1.0
  C  C80  1  0.44540000  0.31157000  0.70545000  1.0
  C  C81  1  0.13331000  0.68859000  0.79476000  1.0
  C  C82  1  0.55460000  0.68843000  0.29456000  1.0
  C  C83  1  0.86669000  0.31141000  0.20523000  1.0
  C  C84  1  0.28558000  0.27949000  0.70207000  1.0
  C  C85  1  0.00552000  0.72067000  0.79811000  1.0
  C  C86  1  0.71442000  0.72051000  0.29793000  1.0
  C  C87  1  0.99448000  0.27934000  0.20188000  1.0
  C  C88  1  0.18798000  0.15975000  0.67086000  1.0
  C  C89  1  0.02769000  0.84047000  0.82927000  1.0
  C  C90  1  0.81202000  0.84025000  0.32914000  1.0
  C  C91  1  0.97231000  0.15953000  0.17072000  1.0
  C  C92  1  0.25310000  0.07573000  0.64624000  1.0
  C  C93  1  0.17682000  0.92451000  0.85384000  1.0
  C  C94  1  0.74690000  0.92427000  0.35376000  1.0
  C  C95  1  0.82318000  0.07550000  0.14616000  1.0
  C  C96  1  0.41372000  0.11547000  0.65272000  1.0
  C  C97  1  0.29774000  0.88477000  0.84739000  1.0
  C  C98  1  0.58628000  0.88454000  0.34728000  1.0
  C  C99  1  0.70226000  0.11524000  0.15261000  1.0
  C  C100  1  0.56407000  0.44196000  0.73081000  1.0
  C  C101  1  0.12190000  0.55834000  0.76928000  1.0
  C  C102  1  0.43593000  0.55804000  0.26919000  1.0
  C  C103  1  0.87809000  0.44167000  0.23071000  1.0
  C  C104  1  0.01676000  0.12756000  0.65869000  1.0
  C  C105  1  0.88876000  0.87275000  0.84141000  1.0
  C  C106  1  0.98324000  0.87244000  0.34131000  1.0
  C  C107  1  0.11123000  0.12725000  0.15859000  1.0
  C  C108  1  0.49992000  0.04117000  0.62255000  1.0
  C  C109  1  0.45835000  0.95914000  0.87747000  1.0
  C  C110  1  0.50008000  0.95883000  0.37745000  1.0
  C  C111  1  0.54164000  0.04086000  0.12253000  1.0
  N  N112  1  0.45130000  0.70830000  0.56224000  1.0
  N  N113  1  0.74250000  0.29192000  0.93777000  1.0
  N  N114  1  0.54870000  0.29169000  0.43776000  1.0
  N  N115  1  0.25749000  0.70808000  0.06223000  1.0
  N  N116  1  0.50648000  0.23057000  0.68182000  1.0
  N  N117  1  0.27540000  0.76962000  0.81834000  1.0
  N  N118  1  0.49352000  0.76944000  0.31818000  1.0
  N  N119  1  0.72460000  0.23039000  0.18166000  1.0
  O  O120  1  0.75395000  0.07773000  0.50813000  1.0
  O  O121  1  0.67657000  0.92259000  0.99194000  1.0
  O  O122  1  0.24606000  0.92227000  0.49187000  1.0
  O  O123  1  0.32343000  0.07741000  0.00806000  1.0
  O  O124  1  0.78584000  0.74454000  0.57364000  1.0
  O  O125  1  0.04095000  0.25552000  0.92634000  1.0
  O  O126  1  0.21416000  0.25546000  0.42636000  1.0
  O  O127  1  0.95905000  0.74448000  0.07366000  1.0
  O  O128  1  0.85987000  0.87955000  0.48336000  1.0
  O  O129  1  0.98001000  0.12085000  0.01679000  1.0
  O  O130  1  0.14014000  0.12046000  0.51664000  1.0
  O  O131  1  0.01999000  0.87914000  0.98321000  1.0
  O  O132  1  0.63732000  0.84775000  0.66053000  1.0
  O  O133  1  0.78944000  0.15260000  0.83954000  1.0
  O  O134  1  0.36269000  0.15225000  0.33947000  1.0
  O  O135  1  0.21055000  0.84740000  0.16046000  1.0
  O  O136  1  0.47959000  0.73395000  0.72209000  1.0
  O  O137  1  0.74621000  0.26676000  0.77795000  1.0
  O  O138  1  0.52041000  0.26604000  0.27791000  1.0
  O  O139  1  0.25380000  0.73325000  0.22205000  1.0
  O  O140  1  0.99895000  0.35266000  0.61014000  1.0
  O  O141  1  0.64698000  0.64844000  0.88996000  1.0
  O  O142  1  0.00105000  0.64734000  0.38986000  1.0
  O  O143  1  0.35302000  0.35155000  0.11004000  1.0
  O  O144  1  0.01712000  0.28871000  0.50993000  1.0
  O  O145  1  0.72839000  0.71176000  0.99026000  1.0
  O  O146  1  0.98288000  0.71128000  0.49007000  1.0
  O  O147  1  0.27161000  0.28824000  0.00975000  1.0
  O  O148  1  0.30469000  0.66589000  0.41063000  1.0
  O  O149  1  0.63810000  0.33416000  0.08932000  1.0
  O  O150  1  0.69532000  0.33411000  0.58936000  1.0
  O  O151  1  0.36189000  0.66583000  0.91068000  1.0
  O  O152  1  0.52119000  0.81238000  0.46704000  1.0
  O  O153  1  0.70780000  0.18749000  0.03289000  1.0
  O  O154  1  0.47881000  0.18761000  0.53296000  1.0
  O  O155  1  0.29219000  0.81251000  0.96711000  1.0
  O  O156  1  0.70288000  0.46460000  0.71892000  1.0
  O  O157  1  0.23843000  0.53584000  0.78092000  1.0
  O  O158  1  0.29711000  0.53540000  0.28108000  1.0
  O  O159  1  0.76157000  0.46417000  0.21908000  1.0
  O  O160  1  0.51669000  0.51889000  0.76123000  1.0
  O  O161  1  0.99757000  0.48138000  0.73896000  1.0
  O  O162  1  0.48331000  0.48111000  0.23879000  1.0
  O  O163  1  0.00243000  0.51862000  0.26104000  1.0
  O  O164  1  0.95909000  0.19230000  0.69277000  1.0
  O  O165  1  0.76645000  0.80827000  0.80724000  1.0
  O  O166  1  0.04092000  0.80770000  0.30723000  1.0
  O  O167  1  0.23354000  0.19173000  0.19276000  1.0
  O  O168  1  0.94705000  0.03956000  0.61221000  1.0
  O  O169  1  0.90706000  0.96063000  0.88795000  1.0
  O  O170  1  0.05295000  0.96044000  0.38779000  1.0
  O  O171  1  0.09294000  0.03937000  0.11205000  1.0
  O  O172  1  0.43088000  0.93721000  0.58591000  1.0
  O  O173  1  0.49327000  0.06319000  0.91403000  1.0
  O  O174  1  0.56913000  0.06279000  0.41410000  1.0
  O  O175  1  0.50673000  0.93681000  0.08597000  1.0
  O  O176  1  0.64741000  0.08740000  0.63362000  1.0
  O  O177  1  0.55962000  0.91287000  0.86643000  1.0
  O  O178  1  0.35259000  0.91261000  0.36638000  1.0
  O  O179  1  0.44037000  0.08713000  0.13357000  1.0
