# generated using pymatgen
data_CuH4C7SN3O
_symmetry_space_group_name_H-M   'P 1'
_cell_length_a   5.06778000
_cell_length_b   8.48278826
_cell_length_c   19.57282309
_cell_angle_alpha   87.80125044
_cell_angle_beta   82.55452949
_cell_angle_gamma   72.64336530
_symmetry_Int_Tables_number   1
_chemical_formula_structural   CuH4C7SN3O
_chemical_formula_sum   'Cu4 H16 C28 S4 N12 O4'
_cell_volume   796.33031933
_cell_formula_units_Z   4
loop_
 _symmetry_equiv_pos_site_id
 _symmetry_equiv_pos_as_xyz
  1  'x, y, z'
loop_
 _atom_site_type_symbol
 _atom_site_label
 _atom_site_symmetry_multiplicity
 _atom_site_fract_x
 _atom_site_fract_y
 _atom_site_fract_z
 _atom_site_occupancy
  Cu  Cu0  1  0.02787000  0.44365000  0.05136000  1.0
  Cu  Cu1  1  0.52288000  0.55581000  0.94866000  1.0
  Cu  Cu2  1  0.22140000  0.05565000  0.55132000  1.0
  Cu  Cu3  1  0.82896000  0.94391000  0.44871000  1.0
  H  H4  1  0.53977000  0.19028000  0.00643000  1.0
  H  H5  1  0.73865000  0.80924000  0.99367000  1.0
  H  H6  1  0.48136000  0.30937000  0.50632000  1.0
  H  H7  1  0.29533000  0.69007000  0.49359000  1.0
  H  H8  1  0.89796000  0.94051000  0.18403000  1.0
  H  H9  1  0.01877000  0.06123000  0.81596000  1.0
  H  H10  1  0.58419000  0.56141000  0.68401000  1.0
  H  H11  1  0.83195000  0.44072000  0.31595000  1.0
  H  H12  1  0.93990000  0.98627000  0.05728000  1.0
  H  H13  1  0.98401000  0.01386000  0.94262000  1.0
  H  H14  1  0.67571000  0.51411000  0.55733000  1.0
  H  H15  1  0.74647000  0.48629000  0.44271000  1.0
  H  H16  1  0.08497000  0.30526000  0.19830000  1.0
  H  H17  1  0.58851000  0.69415000  0.80196000  1.0
  H  H18  1  0.14083000  0.19390000  0.69810000  1.0
  H  H19  1  0.03315000  0.80537000  0.30170000  1.0
  C  C20  1  0.29049000  0.10838000  0.38382000  1.0
  C  C21  1  0.78184000  0.89136000  0.61624000  1.0
  C  C22  1  0.14830000  0.39150000  0.88378000  1.0
  C  C23  1  0.42427000  0.60815000  0.11619000  1.0
  C  C24  1  0.53288000  0.16686000  0.06172000  1.0
  C  C25  1  0.76229000  0.83289000  0.93837000  1.0
  C  C26  1  0.44997000  0.33298000  0.56161000  1.0
  C  C27  1  0.34376000  0.66676000  0.43829000  1.0
  C  C28  1  0.73149000  0.02938000  0.16057000  1.0
  C  C29  1  0.91927000  0.97161000  0.83946000  1.0
  C  C30  1  0.50818000  0.47176000  0.66050000  1.0
  C  C31  1  0.64179000  0.52945000  0.33941000  1.0
  C  C32  1  0.48769000  0.11942000  0.20156000  1.0
  C  C33  1  0.80692000  0.88102000  0.79857000  1.0
  C  C34  1  0.35533000  0.38106000  0.70143000  1.0
  C  C35  1  0.43899000  0.61944000  0.29844000  1.0
  C  C36  1  0.75339000  0.05490000  0.08994000  1.0
  C  C37  1  0.89783000  0.94542000  0.91006000  1.0
  C  C38  1  0.55720000  0.44557000  0.58991000  1.0
  C  C39  1  0.59264000  0.55486000  0.41005000  1.0
  C  C40  1  0.27630000  0.22999000  0.16916000  1.0
  C  C41  1  0.67513000  0.76976000  0.83105000  1.0
  C  C42  1  0.25618000  0.26964000  0.66898000  1.0
  C  C43  1  0.19517000  0.73002000  0.33084000  1.0
  C  C44  1  0.46601000  0.09725000  0.27564000  1.0
  C  C45  1  0.83743000  0.90280000  0.72446000  1.0
  C  C46  1  0.31190000  0.40291000  0.77553000  1.0
  C  C47  1  0.49151000  0.59730000  0.22436000  1.0
  S  S48  1  0.04319000  0.15230000  0.45366000  1.0
  S  S49  1  0.64896000  0.84729000  0.54633000  1.0
  S  S50  1  0.94542000  0.34748000  0.95367000  1.0
  S  S51  1  0.24684000  0.65208000  0.04637000  1.0
  N  N52  1  0.55965000  0.02429000  0.37886000  1.0
  N  N53  1  0.96247000  0.97518000  0.62118000  1.0
  N  N54  1  0.33404000  0.47522000  0.87881000  1.0
  N  N55  1  0.68849000  0.52416000  0.12114000  1.0
  N  N56  1  0.29872000  0.25349000  0.10049000  1.0
  N  N57  1  0.65331000  0.74604000  0.89971000  1.0
  N  N58  1  0.30275000  0.24596000  0.60031000  1.0
  N  N59  1  0.14860000  0.75352000  0.39952000  1.0
  N  N60  1  0.66885000  0.01751000  0.31016000  1.0
  N  N61  1  0.99588000  0.98206000  0.68990000  1.0
  N  N62  1  0.43599000  0.48212000  0.81008000  1.0
  N  N63  1  0.72897000  0.51760000  0.18984000  1.0
  O  O64  1  0.22070000  0.15981000  0.31818000  1.0
  O  O65  1  0.69715000  0.84027000  0.68191000  1.0
  O  O66  1  0.12906000  0.34047000  0.81812000  1.0
  O  O67  1  0.28875000  0.65967000  0.18184000  1.0
