# generated using pymatgen
data_Zn4H8C58O13F24
_symmetry_space_group_name_H-M   'P 1'
_cell_length_a   21.61590000
_cell_length_b   21.61590000
_cell_length_c   34.45590000
_cell_angle_alpha   89.99970000
_cell_angle_beta   89.99980000
_cell_angle_gamma   89.99960000
_symmetry_Int_Tables_number   1
_chemical_formula_structural   Zn4H8C58O13F24
_chemical_formula_sum   'Zn8 H16 C116 O26 F48'
_cell_volume   16099.42048268
_cell_formula_units_Z   2
loop_
 _symmetry_equiv_pos_site_id
 _symmetry_equiv_pos_as_xyz
  1  'x, y, z'
loop_
 _atom_site_type_symbol
 _atom_site_label
 _atom_site_symmetry_multiplicity
 _atom_site_fract_x
 _atom_site_fract_y
 _atom_site_fract_z
 _atom_site_occupancy
  Zn  Zn0  1  0.44836000  0.44775000  0.96660000  1.0
  Zn  Zn1  1  0.44836000  0.55224000  0.03340000  1.0
  Zn  Zn2  1  0.55164000  0.55225000  0.96660000  1.0
  Zn  Zn3  1  0.55164000  0.44776000  0.03340000  1.0
  Zn  Zn4  1  0.55225000  0.55164000  0.53340000  1.0
  Zn  Zn5  1  0.44775000  0.55164000  0.46660000  1.0
  Zn  Zn6  1  0.44776000  0.44836000  0.53340000  1.0
  Zn  Zn7  1  0.55225000  0.44836000  0.46660000  1.0
  H  H8  1  0.42870000  0.43082000  0.84843000  1.0
  H  H9  1  0.38823000  0.38874000  0.78592000  1.0
  H  H10  1  0.57130000  0.56918000  0.84843000  1.0
  H  H11  1  0.61176000  0.61127000  0.78593000  1.0
  H  H12  1  0.56919000  0.57130000  0.65158000  1.0
  H  H13  1  0.61127000  0.61176000  0.71408000  1.0
  H  H14  1  0.43082000  0.42870000  0.65158000  1.0
  H  H15  1  0.38874000  0.38824000  0.71408000  1.0
  H  H16  1  0.42869000  0.56918000  0.15158000  1.0
  H  H17  1  0.38823000  0.61126000  0.21408000  1.0
  H  H18  1  0.57130000  0.43082000  0.15157000  1.0
  H  H19  1  0.61176000  0.38874000  0.21407000  1.0
  H  H20  1  0.56919000  0.42870000  0.34842000  1.0
  H  H21  1  0.61127000  0.38824000  0.28592000  1.0
  H  H22  1  0.43082000  0.57130000  0.34842000  1.0
  H  H23  1  0.38874000  0.61176000  0.28592000  1.0
  C  C24  1  0.33562000  0.50000000  0.00000000  1.0
  C  C25  1  0.50000000  0.66525000  0.00000000  1.0
  C  C26  1  0.50000000  0.50000000  0.89530000  1.0
  C  C27  1  0.66438000  0.50000000  0.00000000  1.0
  C  C28  1  0.50000000  0.33475000  0.00000000  1.0
  C  C29  1  0.50000000  0.50000000  0.10471000  1.0
  C  C30  1  0.50000000  0.66438000  0.50000000  1.0
  C  C31  1  0.33476000  0.50000000  0.50000000  1.0
  C  C32  1  0.50000000  0.50000000  0.60471000  1.0
  C  C33  1  0.49999000  0.33562000  0.50000000  1.0
  C  C34  1  0.66525000  0.50000000  0.50000000  1.0
  C  C35  1  0.50001000  0.50000000  0.39529000  1.0
  C  C36  1  0.50000000  0.73460000  0.00000000  1.0
  C  C37  1  0.55087000  0.76819000  0.98608000  1.0
  C  C38  1  0.55071000  0.83263000  0.98615000  1.0
  C  C39  1  0.44913000  0.76819000  0.01392000  1.0
  C  C40  1  0.44928000  0.83263000  0.01386000  1.0
  C  C41  1  0.50000000  0.86609000  0.00000000  1.0
  C  C42  1  0.50000000  0.93440000  0.00000000  1.0
  C  C43  1  0.49975000  0.96780000  0.03476000  1.0
  C  C44  1  0.50024000  0.96780000  0.96524000  1.0
  C  C45  1  0.50000000  0.26539000  0.00000000  1.0
  C  C46  1  0.44913000  0.23181000  0.98608000  1.0
  C  C47  1  0.44929000  0.16736000  0.98614000  1.0
  C  C48  1  0.55087000  0.23181000  0.01392000  1.0
  C  C49  1  0.55071000  0.16736000  0.01386000  1.0
  C  C50  1  0.50000000  0.13391000  0.00000000  1.0
  C  C51  1  0.50000000  0.06560000  0.00000000  1.0
  C  C52  1  0.49976000  0.03220000  0.96524000  1.0
  C  C53  1  0.50024000  0.03220000  0.03476000  1.0
  C  C54  1  0.45965000  0.46077000  0.83200000  1.0
  C  C55  1  0.45922000  0.45965000  0.79134000  1.0
  C  C56  1  0.41910000  0.41936000  0.76981000  1.0
  C  C57  1  0.54034000  0.53924000  0.83200000  1.0
  C  C58  1  0.54077000  0.54036000  0.79134000  1.0
  C  C59  1  0.58090000  0.58065000  0.76981000  1.0
  C  C60  1  0.53924000  0.54035000  0.66800000  1.0
  C  C61  1  0.54036000  0.54078000  0.70867000  1.0
  C  C62  1  0.58065000  0.58090000  0.73020000  1.0
  C  C63  1  0.46077000  0.45965000  0.66800000  1.0
  C  C64  1  0.45964000  0.45923000  0.70867000  1.0
  C  C65  1  0.41936000  0.41911000  0.73020000  1.0
  C  C66  1  0.50000000  0.50000000  0.85209000  1.0
  C  C67  1  0.50000000  0.50000000  0.77062000  1.0
  C  C68  1  0.50001000  0.50000000  0.64791000  1.0
  C  C69  1  0.50000000  0.50000000  0.72938000  1.0
  C  C70  1  0.45965000  0.53923000  0.16800000  1.0
  C  C71  1  0.45922000  0.54036000  0.20866000  1.0
  C  C72  1  0.41910000  0.58065000  0.23019000  1.0
  C  C73  1  0.54034000  0.46076000  0.16800000  1.0
  C  C74  1  0.54077000  0.45964000  0.20866000  1.0
  C  C75  1  0.58090000  0.41936000  0.23019000  1.0
  C  C76  1  0.53924000  0.45966000  0.33200000  1.0
  C  C77  1  0.54036000  0.45923000  0.29133000  1.0
  C  C78  1  0.58065000  0.41910000  0.26980000  1.0
  C  C79  1  0.46077000  0.54035000  0.33200000  1.0
  C  C80  1  0.45964000  0.54078000  0.29133000  1.0
  C  C81  1  0.41936000  0.58090000  0.26981000  1.0
  C  C82  1  0.49999000  0.50000000  0.14791000  1.0
  C  C83  1  0.50000000  0.50000000  0.22938000  1.0
  C  C84  1  0.50001000  0.50000000  0.35209000  1.0
  C  C85  1  0.50000000  0.50000000  0.27062000  1.0
  C  C86  1  0.73385000  0.50001000  0.00000000  1.0
  C  C87  1  0.76760000  0.52230000  0.96816000  1.0
  C  C88  1  0.83209000  0.52219000  0.96825000  1.0
  C  C89  1  0.76760000  0.47771000  0.03184000  1.0
  C  C90  1  0.83209000  0.47782000  0.03174000  1.0
  C  C91  1  0.86573000  0.50000000  0.00000000  1.0
  C  C92  1  0.93418000  0.50000000  0.00000000  1.0
  C  C93  1  0.96777000  0.44467000  0.00016000  1.0
  C  C94  1  0.96777000  0.55533000  0.99984000  1.0
  C  C95  1  0.26615000  0.50000000  0.00000000  1.0
  C  C96  1  0.23240000  0.52230000  0.03184000  1.0
  C  C97  1  0.16791000  0.52218000  0.03175000  1.0
  C  C98  1  0.23241000  0.47770000  0.96816000  1.0
  C  C99  1  0.16791000  0.47782000  0.96826000  1.0
  C  C100  1  0.13427000  0.50000000  0.00000000  1.0
  C  C101  1  0.06582000  0.50000000  0.00000000  1.0
  C  C102  1  0.03223000  0.55533000  0.00016000  1.0
  C  C103  1  0.03223000  0.44467000  0.99984000  1.0
  C  C104  1  0.26540000  0.50000000  0.50000000  1.0
  C  C105  1  0.23181000  0.44913000  0.51392000  1.0
  C  C106  1  0.16737000  0.44929000  0.51386000  1.0
  C  C107  1  0.23182000  0.55087000  0.48608000  1.0
  C  C108  1  0.16737000  0.55071000  0.48615000  1.0
  C  C109  1  0.13391000  0.50000000  0.50000000  1.0
  C  C110  1  0.06560000  0.50000000  0.50000000  1.0
  C  C111  1  0.03221000  0.50025000  0.46524000  1.0
  C  C112  1  0.03220000  0.49975000  0.53476000  1.0
  C  C113  1  0.73461000  0.50000000  0.50000000  1.0
  C  C114  1  0.76819000  0.55087000  0.51392000  1.0
  C  C115  1  0.83263000  0.55072000  0.51385000  1.0
  C  C116  1  0.76819000  0.44913000  0.48608000  1.0
  C  C117  1  0.83263000  0.44928000  0.48614000  1.0
  C  C118  1  0.86609000  0.50000000  0.50000000  1.0
  C  C119  1  0.93440000  0.50000000  0.50000000  1.0
  C  C120  1  0.96780000  0.50024000  0.53476000  1.0
  C  C121  1  0.96780000  0.49976000  0.46524000  1.0
  C  C122  1  0.49999000  0.26615000  0.50000000  1.0
  C  C123  1  0.47770000  0.23240000  0.53184000  1.0
  C  C124  1  0.47781000  0.16791000  0.53174000  1.0
  C  C125  1  0.52229000  0.23240000  0.46816000  1.0
  C  C126  1  0.52218000  0.16791000  0.46825000  1.0
  C  C127  1  0.50000000  0.13427000  0.50000000  1.0
  C  C128  1  0.50000000  0.06582000  0.50000000  1.0
  C  C129  1  0.55533000  0.03223000  0.49984000  1.0
  C  C130  1  0.44467000  0.03223000  0.50015000  1.0
  C  C131  1  0.49999000  0.73385000  0.50000000  1.0
  C  C132  1  0.47770000  0.76760000  0.46816000  1.0
  C  C133  1  0.47782000  0.83209000  0.46825000  1.0
  C  C134  1  0.52229000  0.76759000  0.53184000  1.0
  C  C135  1  0.52218000  0.83208000  0.53175000  1.0
  C  C136  1  0.50000000  0.86573000  0.50000000  1.0
  C  C137  1  0.50000000  0.93418000  0.50000000  1.0
  C  C138  1  0.44467000  0.96777000  0.49984000  1.0
  C  C139  1  0.55533000  0.96777000  0.50016000  1.0
  O  O140  1  0.50000000  0.50000000  0.00000000  1.0
  O  O141  1  0.36162000  0.45353000  0.98431000  1.0
  O  O142  1  0.47505000  0.63929000  0.02916000  1.0
  O  O143  1  0.54421000  0.52871000  0.91219000  1.0
  O  O144  1  0.36162000  0.54647000  0.01569000  1.0
  O  O145  1  0.45579000  0.47129000  0.91219000  1.0
  O  O146  1  0.52495000  0.63929000  0.97085000  1.0
  O  O147  1  0.63838000  0.54647000  0.98431000  1.0
  O  O148  1  0.52495000  0.36071000  0.02915000  1.0
  O  O149  1  0.63838000  0.45353000  0.01569000  1.0
  O  O150  1  0.47505000  0.36071000  0.97084000  1.0
  O  O151  1  0.45578000  0.52872000  0.08781000  1.0
  O  O152  1  0.54421000  0.47129000  0.08781000  1.0
  O  O153  1  0.50000000  0.50000000  0.50000000  1.0
  O  O154  1  0.54646000  0.63838000  0.51569000  1.0
  O  O155  1  0.36071000  0.52495000  0.47085000  1.0
  O  O156  1  0.47129000  0.45579000  0.58781000  1.0
  O  O157  1  0.45353000  0.63838000  0.48431000  1.0
  O  O158  1  0.52872000  0.54421000  0.58781000  1.0
  O  O159  1  0.36071000  0.47505000  0.52916000  1.0
  O  O160  1  0.45353000  0.36162000  0.51569000  1.0
  O  O161  1  0.63929000  0.47504000  0.47085000  1.0
  O  O162  1  0.54646000  0.36162000  0.48431000  1.0
  O  O163  1  0.63930000  0.52496000  0.52915000  1.0
  O  O164  1  0.47129000  0.54421000  0.41219000  1.0
  O  O165  1  0.52873000  0.45579000  0.41219000  1.0
  F  F166  1  0.39785000  0.73909000  0.02654000  1.0
  F  F167  1  0.39881000  0.86313000  0.02682000  1.0
  F  F168  1  0.60214000  0.73910000  0.97346000  1.0
  F  F169  1  0.60119000  0.86313000  0.97318000  1.0
  F  F170  1  0.49983000  0.93737000  0.06898000  1.0
  F  F171  1  0.50017000  0.06262000  0.06898000  1.0
  F  F172  1  0.50017000  0.93737000  0.93102000  1.0
  F  F173  1  0.49983000  0.06262000  0.93102000  1.0
  F  F174  1  0.60119000  0.13686000  0.02682000  1.0
  F  F175  1  0.60214000  0.26090000  0.02654000  1.0
  F  F176  1  0.39881000  0.13686000  0.97318000  1.0
  F  F177  1  0.39786000  0.26090000  0.97346000  1.0
  F  F178  1  0.73864000  0.45744000  0.06403000  1.0
  F  F179  1  0.86245000  0.45705000  0.06344000  1.0
  F  F180  1  0.73863000  0.54257000  0.93597000  1.0
  F  F181  1  0.86244000  0.54297000  0.93656000  1.0
  F  F182  1  0.93747000  0.39005000  0.00012000  1.0
  F  F183  1  0.06253000  0.39005000  0.99988000  1.0
  F  F184  1  0.93747000  0.60995000  0.99987000  1.0
  F  F185  1  0.06253000  0.60995000  0.00012000  1.0
  F  F186  1  0.13756000  0.45705000  0.93656000  1.0
  F  F187  1  0.26137000  0.45743000  0.93597000  1.0
  F  F188  1  0.13756000  0.54296000  0.06344000  1.0
  F  F189  1  0.26137000  0.54257000  0.06403000  1.0
  F  F190  1  0.26091000  0.60215000  0.47346000  1.0
  F  F191  1  0.13687000  0.60120000  0.47319000  1.0
  F  F192  1  0.26090000  0.39785000  0.52654000  1.0
  F  F193  1  0.13687000  0.39880000  0.52682000  1.0
  F  F194  1  0.06263000  0.50017000  0.43102000  1.0
  F  F195  1  0.93739000  0.49984000  0.43102000  1.0
  F  F196  1  0.06263000  0.49982000  0.56898000  1.0
  F  F197  1  0.93738000  0.50016000  0.56898000  1.0
  F  F198  1  0.86314000  0.39881000  0.47318000  1.0
  F  F199  1  0.73910000  0.39786000  0.47346000  1.0
  F  F200  1  0.86314000  0.60119000  0.52682000  1.0
  F  F201  1  0.73910000  0.60214000  0.52654000  1.0
  F  F202  1  0.54256000  0.26137000  0.43597000  1.0
  F  F203  1  0.54296000  0.13756000  0.43656000  1.0
  F  F204  1  0.45743000  0.26137000  0.56403000  1.0
  F  F205  1  0.45703000  0.13756000  0.56344000  1.0
  F  F206  1  0.60995000  0.06253000  0.49988000  1.0
  F  F207  1  0.60995000  0.93747000  0.50013000  1.0
  F  F208  1  0.39005000  0.06253000  0.50012000  1.0
  F  F209  1  0.39005000  0.93747000  0.49988000  1.0
  F  F210  1  0.54296000  0.86244000  0.56344000  1.0
  F  F211  1  0.54256000  0.73863000  0.56403000  1.0
  F  F212  1  0.45704000  0.86245000  0.43656000  1.0
  F  F213  1  0.45743000  0.73864000  0.43597000  1.0
