# generated using pymatgen
data_PrH6C7O9
_symmetry_space_group_name_H-M   'P 1'
_cell_length_a   7.63876000
_cell_length_b   9.49583000
_cell_length_c   14.79940000
_cell_angle_alpha   89.99980000
_cell_angle_beta   76.42500000
_cell_angle_gamma   89.99950000
_symmetry_Int_Tables_number   1
_chemical_formula_structural   PrH6C7O9
_chemical_formula_sum   'Pr4 H24 C28 O36'
_cell_volume   1043.50502448
_cell_formula_units_Z   4
loop_
 _symmetry_equiv_pos_site_id
 _symmetry_equiv_pos_as_xyz
  1  'x, y, z'
loop_
 _atom_site_type_symbol
 _atom_site_label
 _atom_site_symmetry_multiplicity
 _atom_site_fract_x
 _atom_site_fract_y
 _atom_site_fract_z
 _atom_site_occupancy
  Pr  Pr0  1  0.38292000  0.55265000  0.35276000  1.0
  Pr  Pr1  1  0.11708000  0.05264000  0.14724000  1.0
  Pr  Pr2  1  0.61707000  0.44736000  0.64724000  1.0
  Pr  Pr3  1  0.88293000  0.94735000  0.85276000  1.0
  H  H4  1  0.28270000  0.03573000  0.63377000  1.0
  H  H5  1  0.21729000  0.53571000  0.86623000  1.0
  H  H6  1  0.71729000  0.96429000  0.36623000  1.0
  H  H7  1  0.78270000  0.46427000  0.13377000  1.0
  H  H8  1  0.16524000  0.80741000  0.55222000  1.0
  H  H9  1  0.33477000  0.30739000  0.94779000  1.0
  H  H10  1  0.83477000  0.19260000  0.44779000  1.0
  H  H11  1  0.66523000  0.69259000  0.05222000  1.0
  H  H12  1  0.80676000  0.56043000  0.28760000  1.0
  H  H13  1  0.69323000  0.06043000  0.21240000  1.0
  H  H14  1  0.19323000  0.43958000  0.71240000  1.0
  H  H15  1  0.30678000  0.93956000  0.78760000  1.0
  H  H16  1  0.74246000  0.45171000  0.36715000  1.0
  H  H17  1  0.75754000  0.95171000  0.13285000  1.0
  H  H18  1  0.25752000  0.54830000  0.63286000  1.0
  H  H19  1  0.24248000  0.04828000  0.86714000  1.0
  H  H20  1  0.47189000  0.79132000  0.19157000  1.0
  H  H21  1  0.02811000  0.29132000  0.30843000  1.0
  H  H22  1  0.52811000  0.20868000  0.80843000  1.0
  H  H23  1  0.97189000  0.70869000  0.69157000  1.0
  H  H24  1  0.62105000  0.80787000  0.24521000  1.0
  H  H25  1  0.87895000  0.30788000  0.25479000  1.0
  H  H26  1  0.37895000  0.19212000  0.75479000  1.0
  H  H27  1  0.12106000  0.69213000  0.74520000  1.0
  C  C28  1  0.40239000  0.26528000  0.49598000  1.0
  C  C29  1  0.09760000  0.76527000  0.00402000  1.0
  C  C30  1  0.59759000  0.73473000  0.50402000  1.0
  C  C31  1  0.90241000  0.23472000  0.99598000  1.0
  C  C32  1  0.31443000  0.12792000  0.49492000  1.0
  C  C33  1  0.18556000  0.62790000  0.00508000  1.0
  C  C34  1  0.68555000  0.87210000  0.50508000  1.0
  C  C35  1  0.81445000  0.37208000  0.99492000  1.0
  C  C36  1  0.27039000  0.02569000  0.56263000  1.0
  C  C37  1  0.22961000  0.52566000  0.93738000  1.0
  C  C38  1  0.72961000  0.97434000  0.43738000  1.0
  C  C39  1  0.77039000  0.47432000  0.06262000  1.0
  C  C40  1  0.20871000  0.90799000  0.52049000  1.0
  C  C41  1  0.29129000  0.40797000  0.97951000  1.0
  C  C42  1  0.79128000  0.09203000  0.47951000  1.0
  C  C43  1  0.70871000  0.59201000  0.02049000  1.0
  C  C44  1  0.21554000  0.94552000  0.42971000  1.0
  C  C45  1  0.28446000  0.44550000  0.07029000  1.0
  C  C46  1  0.78445000  0.05449000  0.57029000  1.0
  C  C47  1  0.71555000  0.55449000  0.92971000  1.0
  C  C48  1  0.16438000  0.86863000  0.35326000  1.0
  C  C49  1  0.33562000  0.36861000  0.14674000  1.0
  C  C50  1  0.83561000  0.13138000  0.64674000  1.0
  C  C51  1  0.66438000  0.63137000  0.85326000  1.0
  C  C52  1  0.03453000  0.53768000  0.53905000  1.0
  C  C53  1  0.46546000  0.03767000  0.96095000  1.0
  C  C54  1  0.96545000  0.46233000  0.46095000  1.0
  C  C55  1  0.53454000  0.96232000  0.03905000  1.0
  O  O56  1  0.20230000  0.56107000  0.52402000  1.0
  O  O57  1  0.29769000  0.06106000  0.97598000  1.0
  O  O58  1  0.79769000  0.43894000  0.47598000  1.0
  O  O59  1  0.70231000  0.93893000  0.02402000  1.0
  O  O60  1  0.44500000  0.33622000  0.42128000  1.0
  O  O61  1  0.05500000  0.83621000  0.07872000  1.0
  O  O62  1  0.55500000  0.66379000  0.57871000  1.0
  O  O63  1  0.94501000  0.16378000  0.92128000  1.0
  O  O64  1  0.72969000  0.47771000  0.30330000  1.0
  O  O65  1  0.77031000  0.97771000  0.19670000  1.0
  O  O66  1  0.27030000  0.52230000  0.69670000  1.0
  O  O67  1  0.22970000  0.02228000  0.80329000  1.0
  O  O68  1  0.43257000  0.30184000  0.57381000  1.0
  O  O69  1  0.06743000  0.80182000  0.92619000  1.0
  O  O70  1  0.56742000  0.69818000  0.42619000  1.0
  O  O71  1  0.93258000  0.19816000  0.07381000  1.0
  O  O72  1  0.53104000  0.73996000  0.23450000  1.0
  O  O73  1  0.96896000  0.23997000  0.26549000  1.0
  O  O74  1  0.46896000  0.26004000  0.76550000  1.0
  O  O75  1  0.03105000  0.76004000  0.73450000  1.0
  O  O76  1  0.27873000  0.08068000  0.41345000  1.0
  O  O77  1  0.22126000  0.58066000  0.08655000  1.0
  O  O78  1  0.72126000  0.91934000  0.58655000  1.0
  O  O79  1  0.77875000  0.41933000  0.91344000  1.0
  O  O80  1  0.15488000  0.73482000  0.35971000  1.0
  O  O81  1  0.34513000  0.23480000  0.14030000  1.0
  O  O82  1  0.84511000  0.26519000  0.64030000  1.0
  O  O83  1  0.65489000  0.76519000  0.85971000  1.0
  O  O84  1  0.13215000  0.93954000  0.28640000  1.0
  O  O85  1  0.36785000  0.43952000  0.21360000  1.0
  O  O86  1  0.86785000  0.06047000  0.71360000  1.0
  O  O87  1  0.63214000  0.56047000  0.78641000  1.0
  O  O88  1  0.91904000  0.57013000  0.61247000  1.0
  O  O89  1  0.58096000  0.07012000  0.88752000  1.0
  O  O90  1  0.08095000  0.42988000  0.38752000  1.0
  O  O91  1  0.41905000  0.92987000  0.11248000  1.0
