# generated using pymatgen
data_CdH24C22(NO)4
_symmetry_space_group_name_H-M   'P 1'
_cell_length_a   7.29142000
_cell_length_b   13.37950000
_cell_length_c   14.87000000
_cell_angle_alpha   91.30840000
_cell_angle_beta   90.00000000
_cell_angle_gamma   90.00000000
_symmetry_Int_Tables_number   1
_chemical_formula_structural   CdH24C22(NO)4
_chemical_formula_sum   'Cd2 H48 C44 N8 O8'
_cell_volume   1450.27286163
_cell_formula_units_Z   2
loop_
 _symmetry_equiv_pos_site_id
 _symmetry_equiv_pos_as_xyz
  1  'x, y, z'
loop_
 _atom_site_type_symbol
 _atom_site_label
 _atom_site_symmetry_multiplicity
 _atom_site_fract_x
 _atom_site_fract_y
 _atom_site_fract_z
 _atom_site_occupancy
  Cd  Cd0  1  0.81969000  0.02128000  0.81476000  1.0
  Cd  Cd1  1  0.18031000  0.52128000  0.31476000  1.0
  H  H2  1  0.81476000  0.80693000  0.62444000  1.0
  H  H3  1  0.18524000  0.30692000  0.12444000  1.0
  H  H4  1  0.44766000  0.61851000  0.46893000  1.0
  H  H5  1  0.55234000  0.11852000  0.96893000  1.0
  H  H6  1  0.80884000  0.31275000  0.62919000  1.0
  H  H7  1  0.19116000  0.81275000  0.12919000  1.0
  H  H8  1  0.75666000  0.21484000  0.55157000  1.0
  H  H9  1  0.24334000  0.71484000  0.05156000  1.0
  H  H10  1  0.49885000  0.24235000  0.43197000  1.0
  H  H11  1  0.50115000  0.74235000  0.93197000  1.0
  H  H12  1  0.18693000  0.73350000  0.50777000  1.0
  H  H13  1  0.81307000  0.23350000  0.00776000  1.0
  H  H14  1  0.12967000  0.95149000  0.48255000  1.0
  H  H15  1  0.87033000  0.45149000  0.98255000  1.0
  H  H16  1  0.55415000  0.92224000  0.66278000  1.0
  H  H17  1  0.44585000  0.42224000  0.16277000  1.0
  H  H18  1  0.71674000  0.74753000  0.36906000  1.0
  H  H19  1  0.28325000  0.24753000  0.86906000  1.0
  H  H20  1  0.89859000  0.69127000  0.30515000  1.0
  H  H21  1  0.10141000  0.19127000  0.80515000  1.0
  H  H22  1  0.68354000  0.62848000  0.31647000  1.0
  H  H23  1  0.31646000  0.12848000  0.81647000  1.0
  H  H24  1  0.13167000  0.48623000  0.54141000  1.0
  H  H25  1  0.86833000  0.98624000  0.04141000  1.0
  H  H26  1  0.87131000  0.58652000  0.64768000  1.0
  H  H27  1  0.12869000  0.08652000  0.14768000  1.0
  H  H28  1  0.50282000  0.30084000  0.69775000  1.0
  H  H29  1  0.49718000  0.80084000  0.19774000  1.0
  H  H30  1  0.28528000  0.16408000  0.65074000  1.0
  H  H31  1  0.71473000  0.66408000  0.15073000  1.0
  H  H32  1  0.43849000  0.12453000  0.56601000  1.0
  H  H33  1  0.56151000  0.62453000  0.06600000  1.0
  H  H34  1  0.86770000  0.05271000  0.58736000  1.0
  H  H35  1  0.13230000  0.55271000  0.08736000  1.0
  H  H36  1  0.10433000  0.85461000  0.82713000  1.0
  H  H37  1  0.89567000  0.35462000  0.32713000  1.0
  H  H38  1  0.31971000  0.91662000  0.81435000  1.0
  H  H39  1  0.68029000  0.41662000  0.31435000  1.0
  H  H40  1  0.28528000  0.79654000  0.76397000  1.0
  H  H41  1  0.71472000  0.29655000  0.26398000  1.0
  H  H42  1  0.71581000  0.37921000  0.47907000  1.0
  H  H43  1  0.28419000  0.87921000  0.97907000  1.0
  H  H44  1  0.56288000  0.41860000  0.56380000  1.0
  H  H45  1  0.43712000  0.91861000  0.06380000  1.0
  H  H46  1  0.19298000  0.23008000  0.50023000  1.0
  H  H47  1  0.80702000  0.73008000  0.00022000  1.0
  H  H48  1  0.24390000  0.32814000  0.57787000  1.0
  H  H49  1  0.75611000  0.82814000  0.07787000  1.0
  C  C50  1  0.67695000  0.79079000  0.59974000  1.0
  C  C51  1  0.32305000  0.29079000  0.09974000  1.0
  C  C52  1  0.85752000  0.62805000  0.43262000  1.0
  C  C53  1  0.14248000  0.12805000  0.93261000  1.0
  C  C54  1  0.35753000  0.83330000  0.58808000  1.0
  C  C55  1  0.64247000  0.33333333  0.08808000  1.0
  C  C56  1  0.46952000  0.68596000  0.51006000  1.0
  C  C57  1  0.53047000  0.18596000  0.01006000  1.0
  C  C58  1  0.69628000  0.27805000  0.59048000  1.0
  C  C59  1  0.30372000  0.77805000  0.09047000  1.0
  C  C60  1  0.64258000  0.16401000  0.71854000  1.0
  C  C61  1  0.35743000  0.66401000  0.21853000  1.0
  C  C62  1  0.44977000  0.30607000  0.47409000  1.0
  C  C63  1  0.55023000  0.80607000  0.97409000  1.0
  C  C64  1  0.32481000  0.74973000  0.53233000  1.0
  C  C65  1  0.67519000  0.24973000  0.03233000  1.0
  C  C66  1  0.10271000  0.95271000  0.55419000  1.0
  C  C67  1  0.89729000  0.45271000  0.05419000  1.0
  C  C68  1  0.53227000  0.85464000  0.62188000  1.0
  C  C69  1  0.46773000  0.35464000  0.12188000  1.0
  C  C70  1  0.78465000  0.67663000  0.35133000  1.0
  C  C71  1  0.21535000  0.17663000  0.85133000  1.0
  C  C72  1  0.64431000  0.70739000  0.54377000  1.0
  C  C73  1  0.35569000  0.20739000  0.04377000  1.0
  C  C74  1  0.02390000  0.53752000  0.52283000  1.0
  C  C75  1  0.97609000  0.03752000  0.02283000  1.0
  C  C76  1  0.89841000  0.58682000  0.57609000  1.0
  C  C77  1  0.10160000  0.08682000  0.07609000  1.0
  C  C78  1  0.55158000  0.23710000  0.65562000  1.0
  C  C79  1  0.44842000  0.73710000  0.15562000  1.0
  C  C80  1  0.38963000  0.19112000  0.60385000  1.0
  C  C81  1  0.61038000  0.69112000  0.10384000  1.0
  C  C82  1  0.97675000  0.00260000  0.60673000  1.0
  C  C83  1  0.02325000  0.50261000  0.10673000  1.0
  C  C84  1  0.14473000  0.91469000  0.69841000  1.0
  C  C85  1  0.85526000  0.41469000  0.19841000  1.0
  C  C86  1  0.35894000  0.37913000  0.41107000  1.0
  C  C87  1  0.64106000  0.87913000  0.91107000  1.0
  C  C88  1  0.21801000  0.86796000  0.78048000  1.0
  C  C89  1  0.78199000  0.36797000  0.28048000  1.0
  C  C90  1  0.61159000  0.35203000  0.52589000  1.0
  C  C91  1  0.38841000  0.85203000  0.02589000  1.0
  C  C92  1  0.30501000  0.26501000  0.53911000  1.0
  C  C93  1  0.69499000  0.76501000  0.03911000  1.0
  N  N94  1  0.20869000  0.89761000  0.61277000  1.0
  N  N95  1  0.79131000  0.39762000  0.11277000  1.0
  N  N96  1  0.00353000  0.97802000  0.69551000  1.0
  N  N97  1  0.99647000  0.47802000  0.19551000  1.0
  N  N98  1  0.99791000  0.56413000  0.43453000  1.0
  N  N99  1  0.00209000  0.06413000  0.93453000  1.0
  N  N100  1  0.79336000  0.64352000  0.51841000  1.0
  N  N101  1  0.20664000  0.14352000  0.01841000  1.0
  O  O102  1  0.41227000  0.47050000  0.41358000  1.0
  O  O103  1  0.58773000  0.97051000  0.91358000  1.0
  O  O104  1  0.59159000  0.07226000  0.71445000  1.0
  O  O105  1  0.40842000  0.57226000  0.21445000  1.0
  O  O106  1  0.22963000  0.34848000  0.35989000  1.0
  O  O107  1  0.77035000  0.84848000  0.85989000  1.0
  O  O108  1  0.76932000  0.19494000  0.77109000  1.0
  O  O109  1  0.23068000  0.69494000  0.27109000  1.0
