# generated using pymatgen
data_TbH19C30N5O7
_symmetry_space_group_name_H-M   'P 1'
_cell_length_a   10.45690000
_cell_length_b   11.17040000
_cell_length_c   13.49700000
_cell_angle_alpha   110.16400000
_cell_angle_beta   101.31000000
_cell_angle_gamma   107.79300000
_symmetry_Int_Tables_number   1
_chemical_formula_structural   TbH19C30N5O7
_chemical_formula_sum   'Tb2 H38 C60 N10 O14'
_cell_volume   1326.57397205
_cell_formula_units_Z   2
loop_
 _symmetry_equiv_pos_site_id
 _symmetry_equiv_pos_as_xyz
  1  'x, y, z'
loop_
 _atom_site_type_symbol
 _atom_site_label
 _atom_site_symmetry_multiplicity
 _atom_site_fract_x
 _atom_site_fract_y
 _atom_site_fract_z
 _atom_site_occupancy
  Tb  Tb0  1  0.49942000  0.41579000  0.62345000  1.0
  Tb  Tb1  1  0.50058000  0.58421000  0.37655000  1.0
  H  H2  1  0.36534000  0.14580000  0.63093000  1.0
  H  H3  1  0.63466000  0.85420000  0.36907000  1.0
  H  H4  1  0.26011000  0.14977000  0.53195000  1.0
  H  H5  1  0.73989000  0.85023000  0.46804000  1.0
  H  H6  1  0.03992000  0.04959000  0.61533000  1.0
  H  H7  1  0.96008000  0.95041000  0.38467000  1.0
  H  H8  1  0.96946000  0.19184000  0.52472000  1.0
  H  H9  1  0.03053000  0.80816000  0.47528000  1.0
  H  H10  1  0.76139000  0.25236000  0.55386000  1.0
  H  H11  1  0.23861000  0.74764000  0.44614000  1.0
  H  H12  1  0.50656000  0.74205000  0.81360000  1.0
  H  H13  1  0.49344000  0.25795000  0.18641000  1.0
  H  H14  1  0.58382000  0.93547000  0.00779000  1.0
  H  H15  1  0.41618000  0.06453000  0.99221000  1.0
  H  H16  1  0.73145000  0.17818000  0.04071000  1.0
  H  H17  1  0.26855000  0.82183000  0.95929000  1.0
  H  H18  1  0.06920000  0.18527000  0.29250000  1.0
  H  H19  1  0.93080000  0.81474000  0.70750000  1.0
  H  H20  1  0.80280000  0.05830000  0.21374000  1.0
  H  H21  1  0.19720000  0.94170000  0.78626000  1.0
  H  H22  1  0.65614000  0.17686000  0.29751000  1.0
  H  H23  1  0.34386000  0.82314000  0.70250000  1.0
  H  H24  1  0.18705000  0.39209000  0.66832000  1.0
  H  H25  1  0.81294000  0.60790000  0.33169000  1.0
  H  H26  1  0.07494000  0.46094000  0.81470000  1.0
  H  H27  1  0.92505000  0.53906000  0.18531000  1.0
  H  H28  1  0.23515000  0.61637000  0.01597000  1.0
  H  H29  1  0.76485000  0.38363000  0.98403000  1.0
  H  H30  1  0.48432000  0.74863000  0.15562000  1.0
  H  H31  1  0.51569000  0.25137000  0.84438000  1.0
  H  H32  1  0.74303000  0.81797000  0.19623000  1.0
  H  H33  1  0.25697000  0.18203000  0.80377000  1.0
  H  H34  1  0.95055000  0.81561000  0.12625000  1.0
  H  H35  1  0.04945000  0.18439000  0.87375000  1.0
  H  H36  1  0.03271000  0.72251000  0.96673000  1.0
  H  H37  1  0.96729000  0.27749000  0.03326000  1.0
  H  H38  1  0.84944000  0.56575000  0.77263000  1.0
  H  H39  1  0.15056000  0.43425000  0.22737000  1.0
  C  C40  1  0.76769000  0.05830000  0.69921000  1.0
  C  C41  1  0.23231000  0.94170000  0.30079000  1.0
  C  C42  1  0.94860000  0.07527000  0.62393000  1.0
  C  C43  1  0.05140000  0.92473000  0.37607000  1.0
  C  C44  1  0.90993000  0.15539000  0.57394000  1.0
  C  C45  1  0.09008000  0.84461000  0.42606000  1.0
  C  C46  1  0.79482000  0.18813000  0.58925000  1.0
  C  C47  1  0.20517000  0.81187000  0.41075000  1.0
  C  C48  1  0.72062000  0.13762000  0.65199000  1.0
  C  C49  1  0.27938000  0.86238000  0.34801000  1.0
  C  C50  1  0.59551000  0.17164000  0.66722000  1.0
  C  C51  1  0.40449000  0.82836000  0.33279000  1.0
  C  C52  1  0.70477000  0.01572000  0.77836000  1.0
  C  C53  1  0.29524000  0.98428000  0.22164000  1.0
  C  C54  1  0.62025000  0.87658000  0.75162000  1.0
  C  C55  1  0.37975000  0.12342000  0.24838000  1.0
  C  C56  1  0.57526000  0.84868000  0.83509000  1.0
  C  C57  1  0.42475000  0.15132000  0.16491000  1.0
  C  C58  1  0.61609000  0.95561000  0.94116000  1.0
  C  C59  1  0.38391000  0.04439000  0.05884000  1.0
  C  C60  1  0.69850000  0.09016000  0.95904000  1.0
  C  C61  1  0.30150000  0.90984000  0.04096000  1.0
  C  C62  1  0.57307000  0.75646000  0.63883000  1.0
  C  C63  1  0.42693000  0.24354000  0.36117000  1.0
  C  C64  1  0.97234000  0.42966000  0.45266000  1.0
  C  C65  1  0.02766000  0.57034000  0.54734000  1.0
  C  C66  1  0.06370000  0.37075000  0.41135000  1.0
  C  C67  1  0.93630000  0.62925000  0.58865000  1.0
  C  C68  1  0.00157000  0.23579000  0.32368000  1.0
  C  C69  1  0.99843000  0.76421000  0.67632000  1.0
  C  C70  1  0.85381000  0.16431000  0.28046000  1.0
  C  C71  1  0.14619000  0.83569000  0.71954000  1.0
  C  C72  1  0.77201000  0.23081000  0.32668000  1.0
  C  C73  1  0.22799000  0.76919000  0.67332000  1.0
  C  C74  1  0.22448000  0.43721000  0.45645000  1.0
  C  C75  1  0.77552000  0.56278000  0.54355000  1.0
  C  C76  1  0.25229000  0.45679000  0.75624000  1.0
  C  C77  1  0.74771000  0.54321000  0.24376000  1.0
  C  C78  1  0.19068000  0.49736000  0.83894000  1.0
  C  C79  1  0.80932000  0.50264000  0.16106000  1.0
  C  C80  1  0.27831000  0.58135000  0.94920000  1.0
  C  C81  1  0.72169000  0.41865000  0.05081000  1.0
  C  C82  1  0.42767000  0.62446000  0.97628000  1.0
  C  C83  1  0.57233000  0.37554000  0.02372000  1.0
  C  C84  1  0.52589000  0.71317000  0.08810000  1.0
  C  C85  1  0.47411000  0.28683000  0.91190000  1.0
  C  C86  1  0.66958000  0.75278000  0.11039000  1.0
  C  C87  1  0.33042000  0.24722000  0.88961000  1.0
  C  C88  1  0.72634000  0.70735000  0.02288000  1.0
  C  C89  1  0.27366000  0.29265000  0.97712000  1.0
  C  C90  1  0.87395000  0.74609000  0.04195000  1.0
  C  C91  1  0.12605000  0.25392000  0.95805000  1.0
  C  C92  1  0.91947000  0.69505000  0.95306000  1.0
  C  C93  1  0.08053000  0.30495000  0.04694000  1.0
  C  C94  1  0.81823000  0.60797000  0.84526000  1.0
  C  C95  1  0.18177000  0.39203000  0.15474000  1.0
  C  C96  1  0.63181000  0.61846000  0.91106000  1.0
  C  C97  1  0.36819000  0.38154000  0.08894000  1.0
  C  C98  1  0.48002000  0.57634000  0.88732000  1.0
  C  C99  1  0.51998000  0.42366000  0.11268000  1.0
  N  N100  1  0.88007000  0.02780000  0.68611000  1.0
  N  N101  1  0.11993000  0.97220000  0.31389000  1.0
  N  N102  1  0.74152000  0.12066000  0.88003000  1.0
  N  N103  1  0.25848000  0.87934000  0.11997000  1.0
  N  N104  1  0.82949000  0.35980000  0.40941000  1.0
  N  N105  1  0.17051000  0.64020000  0.59059000  1.0
  N  N106  1  0.67852000  0.57200000  0.82421000  1.0
  N  N107  1  0.32148000  0.42800000  0.17579000  1.0
  N  N108  1  0.39251000  0.49441000  0.77909000  1.0
  N  N109  1  0.60749000  0.50559000  0.22091000  1.0
  O  O110  1  0.31126000  0.20105000  0.61249000  1.0
  O  O111  1  0.68874000  0.79895000  0.38751000  1.0
  O  O112  1  0.48391000  0.08056000  0.66181000  1.0
  O  O113  1  0.51609000  0.91944000  0.33819000  1.0
  O  O114  1  0.61340000  0.29683000  0.68466000  1.0
  O  O115  1  0.38660000  0.70317000  0.31534000  1.0
  O  O116  1  0.56569000  0.77893000  0.55243000  1.0
  O  O117  1  0.43431000  0.22107000  0.44757000  1.0
  O  O118  1  0.54081000  0.63603000  0.63674000  1.0
  O  O119  1  0.45919000  0.36397000  0.36326000  1.0
  O  O120  1  0.28042000  0.39700000  0.52420000  1.0
  O  O121  1  0.71958000  0.60300000  0.47580000  1.0
  O  O122  1  0.28800000  0.51135000  0.41375000  1.0
  O  O123  1  0.71200000  0.48865000  0.58625000  1.0
