# generated using pymatgen
data_CoH28C36Br4(N2O)4
_symmetry_space_group_name_H-M   'P 1'
_cell_length_a   8.86655000
_cell_length_b   9.63987000
_cell_length_c   11.78640000
_cell_angle_alpha   110.20700000
_cell_angle_beta   105.43700000
_cell_angle_gamma   90.16640000
_symmetry_Int_Tables_number   1
_chemical_formula_structural   CoH28C36Br4(N2O)4
_chemical_formula_sum   'Co1 H28 C36 Br4 N8 O4'
_cell_volume   906.27672965
_cell_formula_units_Z   1
loop_
 _symmetry_equiv_pos_site_id
 _symmetry_equiv_pos_as_xyz
  1  'x, y, z'
loop_
 _atom_site_type_symbol
 _atom_site_label
 _atom_site_symmetry_multiplicity
 _atom_site_fract_x
 _atom_site_fract_y
 _atom_site_fract_z
 _atom_site_occupancy
  Co  Co0  1  0.50000000  0.00000000  0.00001000  1.0
  H  H1  1  0.73506000  0.49769000  0.17134000  1.0
  H  H2  1  0.26495000  0.50229000  0.82865000  1.0
  H  H3  1  0.75501000  0.67641000  0.28848000  1.0
  H  H4  1  0.24498000  0.32356000  0.71151000  1.0
  H  H5  1  0.82711000  0.02279000  0.94020000  1.0
  H  H6  1  0.17286000  0.97721000  0.05980000  1.0
  H  H7  1  0.27499000  0.80469000  0.20247000  1.0
  H  H8  1  0.72498000  0.19532000  0.79751000  1.0
  H  H9  1  0.06400000  0.24485000  0.11258000  1.0
  H  H10  1  0.93599000  0.75515000  0.88740000  1.0
  H  H11  1  0.62749000  0.87197000  0.21325000  1.0
  H  H12  1  0.37251000  0.12801000  0.78676000  1.0
  H  H13  1  0.66275000  0.27096000  0.24847000  1.0
  H  H14  1  0.33728000  0.72904000  0.75156000  1.0
  H  H15  1  0.98467000  0.78513000  0.14782000  1.0
  H  H16  1  0.01529000  0.21486000  0.85216000  1.0
  H  H17  1  0.60975000  0.70226000  0.82798000  1.0
  H  H18  1  0.39023000  0.29774000  0.17202000  1.0
  H  H19  1  0.27974000  0.48212000  0.38052000  1.0
  H  H20  1  0.72028000  0.51792000  0.61948000  1.0
  H  H21  1  0.42396000  0.65663000  0.32474000  1.0
  H  H22  1  0.57603000  0.34342000  0.67525000  1.0
  H  H23  1  0.05135000  0.38149000  0.39170000  1.0
  H  H24  1  0.94869000  0.61851000  0.60830000  1.0
  H  H25  1  0.87437000  0.46680000  0.37125000  1.0
  H  H26  1  0.12567000  0.53319000  0.62876000  1.0
  H  H27  1  0.75891000  0.51037000  0.94307000  1.0
  H  H28  1  0.24106000  0.48962000  0.05692000  1.0
  C  C29  1  0.63607000  0.02568000  0.46934000  1.0
  C  C30  1  0.36394000  0.97433000  0.53067000  1.0
  C  C31  1  0.36112000  0.04776000  0.44651000  1.0
  C  C32  1  0.63890000  0.95224000  0.55350000  1.0
  C  C33  1  0.78739000  0.61284000  0.20239000  1.0
  C  C34  1  0.21261000  0.38714000  0.79761000  1.0
  C  C35  1  0.49583000  0.07280000  0.41332000  1.0
  C  C36  1  0.50418000  0.92720000  0.58669000  1.0
  C  C37  1  0.82979000  0.10582000  0.03056000  1.0
  C  C38  1  0.17020000  0.89418000  0.96944000  1.0
  C  C39  1  0.04963000  0.53360000  0.29534000  1.0
  C  C40  1  0.95037000  0.46641000  0.70465000  1.0
  C  C41  1  0.21266000  0.72907000  0.22954000  1.0
  C  C42  1  0.78733000  0.27096000  0.77045000  1.0
  C  C43  1  0.48783000  0.14311000  0.31399000  1.0
  C  C44  1  0.51217000  0.85689000  0.68601000  1.0
  C  C45  1  0.94717000  0.21474000  0.11466000  1.0
  C  C46  1  0.05283000  0.78526000  0.88534000  1.0
  C  C47  1  0.64454000  0.80157000  0.12468000  1.0
  C  C48  1  0.35545000  0.19842000  0.87532000  1.0
  C  C49  1  0.73783000  0.23149000  0.18661000  1.0
  C  C50  1  0.26218000  0.76852000  0.81341000  1.0
  C  C51  1  0.04841000  0.71732000  0.19803000  1.0
  C  C52  1  0.95157000  0.28267000  0.80195000  1.0
  C  C53  1  0.63813000  0.70961000  0.92561000  1.0
  C  C54  1  0.36186000  0.29039000  0.07439000  1.0
  C  C55  1  0.21422000  0.54842000  0.32931000  1.0
  C  C56  1  0.78580000  0.45160000  0.67069000  1.0
  C  C57  1  0.96530000  0.62087000  0.23082000  1.0
  C  C58  1  0.03470000  0.37913000  0.76917000  1.0
  C  C59  1  0.29578000  0.64629000  0.29711000  1.0
  C  C60  1  0.70421000  0.35373000  0.70288000  1.0
  C  C61  1  0.96600000  0.42090000  0.32609000  1.0
  C  C62  1  0.03403000  0.57911000  0.67391000  1.0
  C  C63  1  0.70987000  0.61330000  0.98083000  1.0
  C  C64  1  0.29011000  0.38668000  0.01917000  1.0
  Br  Br65  1  0.17186000  0.11358000  0.36930000  1.0
  Br  Br66  1  0.82815000  0.88641000  0.63070000  1.0
  Br  Br67  1  0.82412000  0.06938000  0.43438000  1.0
  Br  Br68  1  0.17590000  0.93063000  0.56564000  1.0
  N  N69  1  0.88694000  0.29285000  0.21268000  1.0
  N  N70  1  0.11308000  0.70715000  0.78733000  1.0
  N  N71  1  0.70033000  0.11790000  0.07661000  1.0
  N  N72  1  0.29967000  0.88210000  0.92341000  1.0
  N  N73  1  0.71299000  0.67288000  0.10621000  1.0
  N  N74  1  0.28699000  0.32710000  0.89379000  1.0
  N  N75  1  0.59853000  0.82694000  0.01702000  1.0
  N  N76  1  0.40146000  0.17305000  0.98300000  1.0
  O  O77  1  0.51058000  0.28231000  0.35153000  1.0
  O  O78  1  0.48945000  0.71769000  0.64847000  1.0
  O  O79  1  0.45897000  0.04824000  0.20244000  1.0
  O  O80  1  0.54103000  0.95176000  0.79757000  1.0
