# generated using pymatgen
data_CoH22C26(NO3)2
_symmetry_space_group_name_H-M   'P 1'
_cell_length_a   10.28166080
_cell_length_b   10.28130000
_cell_length_c   22.48630000
_cell_angle_alpha   90.00230000
_cell_angle_beta   89.99830002
_cell_angle_gamma   59.99948260
_symmetry_Int_Tables_number   1
_chemical_formula_structural   CoH22C26(NO3)2
_chemical_formula_sum   'Co3 H66 C78 N6 O18'
_cell_volume   2058.53222853
_cell_formula_units_Z   3
loop_
 _symmetry_equiv_pos_site_id
 _symmetry_equiv_pos_as_xyz
  1  'x, y, z'
loop_
 _atom_site_type_symbol
 _atom_site_label
 _atom_site_symmetry_multiplicity
 _atom_site_fract_x
 _atom_site_fract_y
 _atom_site_fract_z
 _atom_site_occupancy
  Co  Co0  1  0.36101000  0.27950000  0.67773000  1.0
  Co  Co1  1  0.27938000  0.35942000  0.01115000  1.0
  Co  Co2  1  0.35951000  0.36110000  0.34442000  1.0
  H  H3  1  0.23490000  0.37302000  0.79640000  1.0
  H  H4  1  0.19659000  0.56888000  0.87080000  1.0
  H  H5  1  0.38424000  0.74189000  0.74148000  1.0
  H  H6  1  0.42309000  0.53201000  0.67469000  1.0
  H  H7  1  0.05337000  0.82262000  0.88790000  1.0
  H  H8  1  0.01295000  0.02467000  0.95874000  1.0
  H  H9  1  0.43452000  0.98240000  0.90722000  1.0
  H  H10  1  0.47501000  0.78292000  0.83499000  1.0
  H  H11  1  0.04524000  0.53239000  0.68110000  1.0
  H  H12  1  0.87357000  0.74049000  0.61370000  1.0
  H  H13  1  0.23495000  0.56660000  0.48465000  1.0
  H  H14  1  0.39252000  0.37289000  0.55946000  1.0
  H  H15  1  0.74010000  0.78581000  0.52211000  1.0
  H  H16  1  0.58092000  0.98593000  0.45018000  1.0
  H  H17  1  0.96348000  0.01873000  0.39504000  1.0
  H  H18  1  0.12508000  0.81508000  0.46518000  1.0
  H  H19  1  0.56759000  0.06328000  0.56836000  1.0
  H  H20  1  0.47366000  0.95663000  0.57395000  1.0
  H  H21  1  0.58181000  0.96485000  0.63522000  1.0
  H  H22  1  0.41930000  0.02613000  0.78956000  1.0
  H  H23  1  0.60467000  0.93281000  0.75791000  1.0
  H  H24  1  0.44268000  0.97479000  0.71317000  1.0
  H  H25  1  0.37297000  0.39206000  0.12975000  1.0
  H  H26  1  0.56895000  0.23450000  0.20413000  1.0
  H  H27  1  0.74191000  0.87387000  0.07481000  1.0
  H  H28  1  0.53196000  0.04486000  0.00807000  1.0
  H  H29  1  0.82263000  0.12400000  0.22119000  1.0
  H  H30  1  0.02468000  0.96237000  0.29208000  1.0
  H  H31  1  0.98249000  0.58299000  0.24054000  1.0
  H  H32  1  0.78301000  0.74200000  0.16830000  1.0
  H  H33  1  0.53235000  0.42235000  0.01448000  1.0
  H  H34  1  0.74047000  0.38595000  0.94706000  1.0
  H  H35  1  0.56654000  0.19850000  0.81798000  1.0
  H  H36  1  0.37292000  0.23454000  0.89283000  1.0
  H  H37  1  0.78569000  0.47415000  0.85548000  1.0
  H  H38  1  0.98590000  0.43321000  0.78355000  1.0
  H  H39  1  0.01874000  0.01781000  0.72835000  1.0
  H  H40  1  0.81502000  0.05986000  0.79848000  1.0
  H  H41  1  0.06328000  0.36915000  0.90170000  1.0
  H  H42  1  0.95661000  0.56967000  0.90728000  1.0
  H  H43  1  0.96469000  0.45333000  0.96854000  1.0
  H  H44  1  0.02607000  0.55460000  0.12294000  1.0
  H  H45  1  0.93265000  0.46258000  0.09130000  1.0
  H  H46  1  0.97481000  0.58240000  0.04657000  1.0
  H  H47  1  0.39210000  0.23491000  0.46306000  1.0
  H  H48  1  0.23456000  0.19657000  0.53746000  1.0
  H  H49  1  0.87394000  0.38423000  0.40816000  1.0
  H  H50  1  0.04489000  0.42314000  0.34141000  1.0
  H  H51  1  0.12397000  0.05345000  0.55454000  1.0
  H  H52  1  0.96235000  0.01308000  0.62541000  1.0
  H  H53  1  0.58304000  0.43453000  0.57387000  1.0
  H  H54  1  0.74200000  0.47505000  0.50162000  1.0
  H  H55  1  0.42246000  0.04531000  0.34779000  1.0
  H  H56  1  0.38598000  0.87356000  0.28040000  1.0
  H  H57  1  0.19842000  0.23495000  0.15133000  1.0
  H  H58  1  0.23458000  0.39253000  0.22612000  1.0
  H  H59  1  0.47417000  0.74011000  0.18881000  1.0
  H  H60  1  0.43323000  0.58090000  0.11689000  1.0
  H  H61  1  0.01785000  0.96344000  0.06173000  1.0
  H  H62  1  0.05990000  0.12507000  0.13184000  1.0
  H  H63  1  0.36914000  0.56757000  0.23502000  1.0
  H  H64  1  0.56967000  0.47376000  0.24058000  1.0
  H  H65  1  0.45334000  0.58194000  0.30185000  1.0
  H  H66  1  0.55464000  0.41928000  0.45622000  1.0
  H  H67  1  0.46260000  0.60469000  0.42458000  1.0
  H  H68  1  0.58257000  0.44267000  0.37985000  1.0
  C  C69  1  0.26523000  0.45802000  0.78651000  1.0
  C  C70  1  0.24177000  0.56959000  0.82690000  1.0
  C  C71  1  0.28664000  0.67417000  0.81258000  1.0
  C  C72  1  0.35207000  0.66103000  0.75643000  1.0
  C  C73  1  0.37157000  0.54646000  0.71828000  1.0
  C  C74  1  0.26541000  0.79114000  0.85544000  1.0
  C  C75  1  0.13692000  0.85782000  0.89162000  1.0
  C  C76  1  0.11381000  0.97042000  0.93147000  1.0
  C  C77  1  0.21965000  0.01734000  0.93708000  1.0
  C  C78  1  0.35039000  0.94827000  0.90229000  1.0
  C  C79  1  0.37253000  0.83706000  0.86158000  1.0
  C  C80  1  0.18418000  0.14513000  0.97915000  1.0
  C  C81  1  0.08213000  0.54635000  0.63739000  1.0
  C  C82  1  0.98679000  0.65991000  0.59892000  1.0
  C  C83  1  0.03893000  0.67229000  0.54263000  1.0
  C  C84  1  0.18860000  0.56788000  0.52850000  1.0
  C  C85  1  0.27695000  0.45741000  0.56919000  1.0
  C  C86  1  0.94311000  0.78878000  0.49961000  1.0
  C  C87  1  0.78921000  0.83761000  0.49455000  1.0
  C  C88  1  0.69996000  0.94941000  0.45406000  1.0
  C  C89  1  0.76226000  0.01661000  0.41852000  1.0
  C  C90  1  0.91596000  0.96653000  0.42298000  1.0
  C  C91  1  0.00559000  0.85305000  0.46247000  1.0
  C  C92  1  0.67026000  0.14593000  0.37692000  1.0
  C  C93  1  0.50489000  0.02978000  0.59885000  1.0
  C  C94  1  0.48537000  0.01563000  0.74919000  1.0
  C  C95  1  0.45796000  0.27669000  0.11989000  1.0
  C  C96  1  0.56959000  0.18861000  0.16025000  1.0
  C  C97  1  0.67416000  0.03918000  0.14591000  1.0
  C  C98  1  0.66103000  0.98687000  0.08977000  1.0
  C  C99  1  0.54640000  0.08188000  0.05165000  1.0
  C  C100  1  0.79117000  0.94342000  0.18877000  1.0
  C  C101  1  0.85786000  0.00524000  0.22495000  1.0
  C  C102  1  0.97050000  0.91573000  0.26479000  1.0
  C  C103  1  0.01747000  0.76294000  0.27038000  1.0
  C  C104  1  0.94836000  0.70128000  0.23559000  1.0
  C  C105  1  0.83710000  0.79036000  0.19491000  1.0
  C  C106  1  0.14525000  0.67057000  0.31243000  1.0
  C  C107  1  0.54636000  0.37144000  0.97077000  1.0
  C  C108  1  0.65989000  0.35327000  0.93229000  1.0
  C  C109  1  0.67228000  0.28874000  0.87599000  1.0
  C  C110  1  0.56787000  0.24347000  0.86186000  1.0
  C  C111  1  0.45745000  0.26555000  0.90257000  1.0
  C  C112  1  0.78875000  0.26813000  0.83295000  1.0
  C  C113  1  0.83755000  0.37324000  0.82789000  1.0
  C  C114  1  0.94939000  0.35067000  0.78741000  1.0
  C  C115  1  0.01664000  0.22113000  0.75187000  1.0
  C  C116  1  0.96655000  0.11751000  0.75632000  1.0
  C  C117  1  0.85302000  0.14138000  0.79579000  1.0
  C  C118  1  0.14589000  0.18388000  0.71023000  1.0
  C  C119  1  0.02971000  0.46531000  0.93221000  1.0
  C  C120  1  0.01557000  0.49893000  0.08260000  1.0
  C  C121  1  0.27675000  0.26530000  0.45320000  1.0
  C  C122  1  0.18867000  0.24178000  0.49357000  1.0
  C  C123  1  0.03923000  0.28666000  0.47925000  1.0
  C  C124  1  0.98696000  0.35206000  0.42310000  1.0
  C  C125  1  0.08198000  0.37164000  0.38498000  1.0
  C  C126  1  0.94344000  0.26546000  0.52210000  1.0
  C  C127  1  0.00523000  0.13697000  0.55827000  1.0
  C  C128  1  0.91573000  0.11388000  0.59811000  1.0
  C  C129  1  0.76296000  0.21972000  0.60368000  1.0
  C  C130  1  0.70130000  0.35046000  0.56890000  1.0
  C  C131  1  0.79039000  0.37260000  0.52821000  1.0
  C  C132  1  0.67057000  0.18430000  0.64573000  1.0
  C  C133  1  0.37160000  0.08216000  0.30408000  1.0
  C  C134  1  0.35338000  0.98680000  0.26562000  1.0
  C  C135  1  0.28881000  0.03894000  0.20932000  1.0
  C  C136  1  0.24349000  0.18862000  0.19519000  1.0
  C  C137  1  0.26561000  0.27698000  0.23588000  1.0
  C  C138  1  0.26816000  0.94309000  0.16630000  1.0
  C  C139  1  0.37326000  0.78919000  0.16124000  1.0
  C  C140  1  0.35068000  0.69992000  0.12076000  1.0
  C  C141  1  0.22114000  0.76220000  0.08524000  1.0
  C  C142  1  0.11755000  0.91592000  0.08967000  1.0
  C  C143  1  0.14143000  0.00556000  0.12915000  1.0
  C  C144  1  0.18385000  0.67017000  0.04364000  1.0
  C  C145  1  0.46533000  0.50495000  0.26551000  1.0
  C  C146  1  0.49905000  0.48539000  0.41587000  1.0
  N  N147  1  0.32925000  0.44607000  0.73309000  1.0
  N  N148  1  0.22500000  0.44624000  0.62274000  1.0
  N  N149  1  0.44596000  0.22456000  0.06649000  1.0
  N  N150  1  0.44629000  0.32863000  0.95612000  1.0
  N  N151  1  0.22465000  0.32940000  0.39980000  1.0
  N  N152  1  0.32876000  0.22505000  0.28942000  1.0
  O  O153  1  0.06624000  0.20286000  0.00822000  1.0
  O  O154  1  0.52701000  0.18572000  0.37762000  1.0
  O  O155  1  0.73139000  0.20382000  0.34850000  1.0
  O  O156  1  0.37121000  0.15385000  0.61841000  1.0
  O  O157  1  0.47667000  0.15331000  0.73630000  1.0
  O  O158  1  0.28811000  0.18442000  0.97794000  1.0
  O  O159  1  0.20300000  0.73072000  0.34153000  1.0
  O  O160  1  0.18556000  0.28743000  0.71088000  1.0
  O  O161  1  0.20381000  0.06483000  0.68182000  1.0
  O  O162  1  0.15373000  0.47490000  0.95184000  1.0
  O  O163  1  0.15323000  0.36990000  0.06974000  1.0
  O  O164  1  0.18450000  0.52736000  0.31119000  1.0
  O  O165  1  0.73076000  0.06638000  0.67482000  1.0
  O  O166  1  0.28728000  0.52690000  0.04433000  1.0
  O  O167  1  0.06482000  0.73134000  0.01522000  1.0
  O  O168  1  0.47501000  0.37127000  0.28512000  1.0
  O  O169  1  0.37004000  0.47675000  0.40299000  1.0
  O  O170  1  0.52735000  0.28820000  0.64448000  1.0
