# generated using pymatgen
data_CoH9C8O3
_symmetry_space_group_name_H-M   'P 1'
_cell_length_a   6.87597000
_cell_length_b   15.19770000
_cell_length_c   15.20150000
_cell_angle_alpha   117.74500000
_cell_angle_beta   98.64420000
_cell_angle_gamma   98.70130000
_symmetry_Int_Tables_number   1
_chemical_formula_structural   CoH9C8O3
_chemical_formula_sum   'Co6 H54 C48 O18'
_cell_volume   1344.76169291
_cell_formula_units_Z   6
loop_
 _symmetry_equiv_pos_site_id
 _symmetry_equiv_pos_as_xyz
  1  'x, y, z'
loop_
 _atom_site_type_symbol
 _atom_site_label
 _atom_site_symmetry_multiplicity
 _atom_site_fract_x
 _atom_site_fract_y
 _atom_site_fract_z
 _atom_site_occupancy
  Co  Co0  1  0.51797000  0.40478000  0.72891000  1.0
  Co  Co1  1  0.11315000  0.32411000  0.59539000  1.0
  Co  Co2  1  0.78912000  0.27127000  0.67600000  1.0
  Co  Co3  1  0.48205000  0.59522000  0.27109000  1.0
  Co  Co4  1  0.88688000  0.67588000  0.40461000  1.0
  Co  Co5  1  0.21093000  0.72874000  0.32401000  1.0
  H  H6  1  0.62794000  0.45501000  0.97664000  1.0
  H  H7  1  0.17300000  0.52157000  0.54510000  1.0
  H  H8  1  0.65134000  0.02334000  0.47828000  1.0
  H  H9  1  0.37212000  0.54501000  0.02338000  1.0
  H  H10  1  0.82702000  0.47842000  0.45487000  1.0
  H  H11  1  0.34869000  0.97664000  0.52171000  1.0
  H  H12  1  0.89515000  0.58448000  0.87358000  1.0
  H  H13  1  0.31120000  0.28917000  0.41589000  1.0
  H  H14  1  0.02099000  0.12649000  0.71078000  1.0
  H  H15  1  0.10484000  0.41550000  0.12641000  1.0
  H  H16  1  0.68875000  0.71084000  0.58412000  1.0
  H  H17  1  0.97900000  0.87353000  0.28920000  1.0
  H  H18  1  0.57572000  0.61873000  0.88346000  1.0
  H  H19  1  0.95750000  0.26471000  0.38148000  1.0
  H  H20  1  0.69163000  0.11676000  0.73520000  1.0
  H  H21  1  0.42428000  0.38126000  0.11654000  1.0
  H  H22  1  0.04245000  0.73529000  0.61852000  1.0
  H  H23  1  0.30837000  0.88325000  0.26478000  1.0
  H  H24  1  0.03762000  0.57588000  0.72868000  1.0
  H  H25  1  0.46218000  0.15290000  0.42442000  1.0
  H  H26  1  0.30844000  0.27115000  0.84712000  1.0
  H  H27  1  0.96236000  0.42410000  0.27131000  1.0
  H  H28  1  0.53777000  0.84711000  0.57560000  1.0
  H  H29  1  0.69155000  0.72885000  0.15286000  1.0
  H  H30  1  0.11021000  0.70541000  0.82730000  1.0
  H  H31  1  0.40538000  0.12215000  0.29495000  1.0
  H  H32  1  0.28175000  0.17226000  0.87772000  1.0
  H  H33  1  0.88976000  0.29458000  0.17268000  1.0
  H  H34  1  0.59456000  0.87786000  0.70507000  1.0
  H  H35  1  0.71825000  0.82774000  0.12225000  1.0
  H  H36  1  0.90608000  0.66475000  0.71925000  1.0
  H  H37  1  0.24182000  0.05457000  0.33554000  1.0
  H  H38  1  0.18606000  0.28043000  0.94533000  1.0
  H  H39  1  0.09389000  0.33522000  0.28073000  1.0
  H  H40  1  0.75812000  0.94544000  0.66448000  1.0
  H  H41  1  0.81396000  0.71957000  0.05465000  1.0
  H  H42  1  0.63139000  0.71002000  0.74022000  1.0
  H  H43  1  0.92180000  0.03019000  0.28996000  1.0
  H  H44  1  0.89039000  0.25974000  0.96962000  1.0
  H  H45  1  0.36860000  0.28999000  0.25979000  1.0
  H  H46  1  0.07814000  0.96982000  0.71007000  1.0
  H  H47  1  0.10960000  0.74027000  0.03036000  1.0
  H  H48  1  0.51865000  0.75997000  0.84578000  1.0
  H  H49  1  0.75931000  0.08593000  0.24010000  1.0
  H  H50  1  0.67210000  0.15413000  0.91402000  1.0
  H  H51  1  0.48134000  0.24002000  0.15422000  1.0
  H  H52  1  0.24065000  0.91407000  0.75992000  1.0
  H  H53  1  0.32790000  0.84587000  0.08596000  1.0
  H  H54  1  0.39629000  0.63922000  0.73655000  1.0
  H  H55  1  0.75726000  0.09708000  0.36069000  1.0
  H  H56  1  0.65903000  0.26350000  0.90267000  1.0
  H  H57  1  0.60371000  0.36077000  0.26345000  1.0
  H  H58  1  0.24267000  0.90293000  0.63933000  1.0
  H  H59  1  0.34096000  0.73650000  0.09731000  1.0
  C  C60  1  0.82094000  0.56629000  0.17309000  1.0
  C  C61  1  0.25463000  0.60673000  0.43361000  1.0
  C  C62  1  0.64796000  0.82681000  0.39304000  1.0
  C  C63  1  0.17910000  0.43372000  0.82693000  1.0
  C  C64  1  0.74539000  0.39327000  0.56638000  1.0
  C  C65  1  0.35207000  0.17318000  0.60696000  1.0
  C  C66  1  0.86714000  0.43640000  0.89934000  1.0
  C  C67  1  0.43081000  0.46293000  0.56368000  1.0
  C  C68  1  0.96783000  0.10071000  0.53713000  1.0
  C  C69  1  0.13290000  0.56362000  0.10069000  1.0
  C  C70  1  0.56920000  0.53705000  0.43630000  1.0
  C  C71  1  0.03220000  0.89928000  0.46287000  1.0
  C  C72  1  0.91757000  0.53682000  0.08635000  1.0
  C  C73  1  0.38072000  0.54951000  0.46315000  1.0
  C  C74  1  0.83123000  0.91360000  0.45039000  1.0
  C  C75  1  0.08247000  0.46319000  0.91366000  1.0
  C  C76  1  0.61929000  0.45048000  0.53683000  1.0
  C  C77  1  0.16879000  0.08639000  0.54961000  1.0
  C  C78  1  0.79166000  0.47515000  0.98693000  1.0
  C  C79  1  0.31655000  0.51177000  0.52492000  1.0
  C  C80  1  0.80476000  0.01307000  0.48819000  1.0
  C  C81  1  0.20838000  0.52487000  0.01309000  1.0
  C  C82  1  0.68345000  0.48822000  0.47506000  1.0
  C  C83  1  0.19527000  0.98693000  0.51181000  1.0
  C  C84  1  0.83659000  0.61815000  0.82872000  1.0
  C  C85  1  0.21893000  0.21063000  0.38214000  1.0
  C  C86  1  0.00718000  0.17127000  0.78929000  1.0
  C  C87  1  0.16338000  0.38183000  0.17126000  1.0
  C  C88  1  0.78102000  0.78938000  0.61788000  1.0
  C  C89  1  0.99283000  0.82874000  0.21070000  1.0
  C  C90  1  0.65377000  0.63860000  0.83514000  1.0
  C  C91  1  0.01561000  0.19654000  0.36159000  1.0
  C  C92  1  0.81791000  0.16495000  0.80335000  1.0
  C  C93  1  0.34624000  0.36139000  0.16486000  1.0
  C  C94  1  0.98432000  0.80347000  0.63842000  1.0
  C  C95  1  0.18209000  0.83506000  0.19663000  1.0
  C  C96  1  0.97729000  0.64202000  0.77227000  1.0
  C  C97  1  0.33575000  0.13037000  0.35829000  1.0
  C  C98  1  0.20426000  0.22750000  0.86956000  1.0
  C  C99  1  0.02269000  0.35796000  0.22771000  1.0
  C  C100  1  0.66420000  0.86964000  0.64173000  1.0
  C  C101  1  0.79575000  0.77251000  0.13042000  1.0
  C  C102  1  0.54640000  0.68938000  0.78629000  1.0
  C  C103  1  0.85745000  0.09688000  0.31065000  1.0
  C  C104  1  0.75938000  0.21371000  0.90296000  1.0
  C  C105  1  0.45359000  0.31062000  0.21371000  1.0
  C  C106  1  0.14249000  0.90313000  0.68936000  1.0
  C  C107  1  0.24062000  0.78630000  0.09702000  1.0
  O  O108  1  0.93982000  0.61622000  0.26452000  1.0
  O  O109  1  0.32357000  0.64822000  0.38358000  1.0
  O  O110  1  0.67542000  0.73534000  0.35138000  1.0
  O  O111  1  0.06022000  0.38379000  0.73550000  1.0
  O  O112  1  0.67645000  0.35178000  0.61641000  1.0
  O  O113  1  0.32461000  0.26465000  0.64864000  1.0
  O  O114  1  0.73353000  0.37531000  0.80742000  1.0
  O  O115  1  0.35828000  0.43206000  0.62481000  1.0
  O  O116  1  0.92620000  0.19268000  0.56805000  1.0
  O  O117  1  0.26652000  0.62472000  0.19260000  1.0
  O  O118  1  0.64174000  0.56793000  0.37518000  1.0
  O  O119  1  0.07383000  0.80730000  0.43195000  1.0
  O  O120  1  0.62896000  0.53985000  0.15685000  1.0
  O  O121  1  0.08907000  0.61693000  0.46003000  1.0
  O  O122  1  0.47223000  0.84302000  0.38294000  1.0
  O  O123  1  0.37108000  0.46016000  0.84317000  1.0
  O  O124  1  0.91097000  0.38308000  0.53997000  1.0
  O  O125  1  0.52781000  0.15697000  0.61705000  1.0
