# generated using pymatgen
data_CuH17C20N3O4
_symmetry_space_group_name_H-M   'P 1'
_cell_length_a   8.57399000
_cell_length_b   10.38940000
_cell_length_c   11.73314469
_cell_angle_alpha   63.73029293
_cell_angle_beta   80.04093759
_cell_angle_gamma   67.01420000
_symmetry_Int_Tables_number   1
_chemical_formula_structural   CuH17C20N3O4
_chemical_formula_sum   'Cu2 H34 C40 N6 O8'
_cell_volume   862.81313012
_cell_formula_units_Z   2
loop_
 _symmetry_equiv_pos_site_id
 _symmetry_equiv_pos_as_xyz
  1  'x, y, z'
loop_
 _atom_site_type_symbol
 _atom_site_label
 _atom_site_symmetry_multiplicity
 _atom_site_fract_x
 _atom_site_fract_y
 _atom_site_fract_z
 _atom_site_occupancy
  Cu  Cu0  1  0.24991000  0.11779000  0.76430000  1.0
  Cu  Cu1  1  0.75008000  0.88221000  0.23570000  1.0
  H  H2  1  0.58127000  0.94020000  0.91798000  1.0
  H  H3  1  0.91848000  0.14184000  0.91799000  1.0
  H  H4  1  0.41869000  0.05979000  0.08203000  1.0
  H  H5  1  0.08152000  0.85819000  0.08200000  1.0
  H  H6  1  0.88593000  0.86878000  0.86386000  1.0
  H  H7  1  0.61387000  0.26743000  0.86387000  1.0
  H  H8  1  0.11404000  0.13124000  0.13616000  1.0
  H  H9  1  0.38614000  0.73258000  0.13613000  1.0
  H  H10  1  0.97389000  0.94828000  0.63464000  1.0
  H  H11  1  0.52599000  0.41702000  0.63464000  1.0
  H  H12  1  0.02611000  0.05172000  0.36540000  1.0
  H  H13  1  0.47401000  0.58297000  0.36536000  1.0
  H  H14  1  0.74462000  0.09968000  0.46573000  1.0
  H  H15  1  0.75537000  0.43434000  0.46571000  1.0
  H  H16  1  0.25539000  0.90030000  0.53429000  1.0
  H  H17  1  0.24462000  0.56566000  0.53428000  1.0
  H  H18  1  0.52500000  0.23397000  0.33494000  1.0
  H  H19  1  0.97500000  0.43113000  0.33487000  1.0
  H  H20  1  0.47502000  0.76601000  0.66507000  1.0
  H  H21  1  0.02502000  0.56888000  0.66512000  1.0
  H  H22  1  0.25005000  0.39232000  0.21518000  1.0
  H  H23  1  0.74998000  0.60767000  0.78482000  1.0
  H  H24  1  0.14149000  0.40884000  0.99117000  1.0
  H  H25  1  0.35867000  0.59995000  0.99097000  1.0
  H  H26  1  0.85852000  0.59116000  0.00883000  1.0
  H  H27  1  0.64133000  0.40004000  0.00902000  1.0
  H  H28  1  0.36362000  0.34021000  0.99084000  1.0
  H  H29  1  0.13654000  0.66875000  0.99076000  1.0
  H  H30  1  0.63639000  0.65978000  0.00916000  1.0
  H  H31  1  0.86346000  0.33125000  0.00923000  1.0
  H  H32  1  0.13990000  0.64197000  0.78599000  1.0
  H  H33  1  0.36025000  0.57160000  0.78595000  1.0
  H  H34  1  0.86011000  0.35802000  0.21400000  1.0
  H  H35  1  0.63977000  0.42838000  0.21405000  1.0
  C  C36  1  0.62176000  0.97260000  0.81906000  1.0
  C  C37  1  0.87802000  0.20831000  0.81908000  1.0
  C  C38  1  0.37821000  0.02740000  0.18095000  1.0
  C  C39  1  0.12198000  0.79172000  0.18091000  1.0
  C  C40  1  0.79331000  0.93266000  0.78742000  1.0
  C  C41  1  0.70650000  0.27996000  0.78742000  1.0
  C  C42  1  0.20668000  0.06735000  0.21259000  1.0
  C  C43  1  0.29349000  0.72006000  0.21258000  1.0
  C  C44  1  0.83993000  0.97790000  0.65969000  1.0
  C  C45  1  0.65995000  0.36233000  0.65968000  1.0
  C  C46  1  0.16007000  0.02210000  0.34032000  1.0
  C  C47  1  0.34004000  0.63768000  0.34031000  1.0
  C  C48  1  0.71384000  0.06270000  0.56677000  1.0
  C  C49  1  0.78608000  0.37028000  0.56676000  1.0
  C  C50  1  0.28616000  0.93729000  0.43324000  1.0
  C  C51  1  0.21391000  0.62973000  0.43323000  1.0
  C  C52  1  0.54449000  0.09956000  0.60492000  1.0
  C  C53  1  0.95542000  0.29517000  0.60494000  1.0
  C  C54  1  0.45551000  0.90044000  0.39509000  1.0
  C  C55  1  0.04458000  0.70484000  0.39505000  1.0
  C  C56  1  0.39907000  0.19064000  0.51738000  1.0
  C  C57  1  0.10080000  0.29178000  0.51735000  1.0
  C  C58  1  0.60093000  0.80935000  0.48262000  1.0
  C  C59  1  0.89920000  0.70823000  0.48264000  1.0
  C  C60  1  0.40378000  0.25417000  0.38445000  1.0
  C  C61  1  0.09618000  0.36145000  0.38442000  1.0
  C  C62  1  0.59623000  0.74581000  0.61555000  1.0
  C  C63  1  0.90383000  0.63856000  0.61557000  1.0
  C  C64  1  0.25001000  0.34058000  0.31883000  1.0
  C  C65  1  0.75001000  0.65941000  0.68117000  1.0
  C  C66  1  0.25570000  0.33182000  0.84355000  1.0
  C  C67  1  0.24421000  0.82443000  0.84329000  1.0
  C  C68  1  0.74430000  0.66817000  0.15646000  1.0
  C  C69  1  0.75579000  0.17557000  0.15670000  1.0
  C  C70  1  0.25219000  0.41170000  0.92751000  1.0
  C  C71  1  0.24795000  0.66055000  0.92739000  1.0
  C  C72  1  0.74782000  0.58829000  0.07249000  1.0
  C  C73  1  0.75206000  0.33944000  0.07261000  1.0
  C  C74  1  0.25008000  0.57487000  0.84983000  1.0
  C  C75  1  0.74994000  0.42512000  0.15016000  1.0
  N  N76  1  0.50080000  0.05361000  0.73022000  1.0
  N  N77  1  0.99906000  0.21593000  0.73023000  1.0
  N  N78  1  0.49918000  0.94638000  0.26979000  1.0
  N  N79  1  0.00094000  0.78409000  0.26976000  1.0
  N  N80  1  0.24992000  0.21061000  0.57847000  1.0
  N  N81  1  0.75008000  0.78940000  0.42152000  1.0
  O  O82  1  0.24317000  0.19813000  0.90124000  1.0
  O  O83  1  0.25686000  0.90045000  0.90093000  1.0
  O  O84  1  0.75682000  0.80187000  0.09876000  1.0
  O  O85  1  0.74314000  0.09955000  0.09907000  1.0
  O  O86  1  0.27050000  0.39886000  0.72506000  1.0
  O  O87  1  0.22908000  0.87584000  0.72484000  1.0
  O  O88  1  0.72950000  0.60112000  0.27494000  1.0
  O  O89  1  0.77091000  0.12416000  0.27516000  1.0
