# generated using pymatgen
data_Gd2H18(C3O8)3
_symmetry_space_group_name_H-M   'P 1'
_cell_length_a   8.80892000
_cell_length_b   8.80889000
_cell_length_c   8.80890000
_cell_angle_alpha   66.24620000
_cell_angle_beta   66.24650000
_cell_angle_gamma   66.24620000
_symmetry_Int_Tables_number   1
_chemical_formula_structural   Gd2H18(C3O8)3
_chemical_formula_sum   'Gd2 H18 C9 O24'
_cell_volume   548.52103033
_cell_formula_units_Z   1
loop_
 _symmetry_equiv_pos_site_id
 _symmetry_equiv_pos_as_xyz
  1  'x, y, z'
loop_
 _atom_site_type_symbol
 _atom_site_label
 _atom_site_symmetry_multiplicity
 _atom_site_fract_x
 _atom_site_fract_y
 _atom_site_fract_z
 _atom_site_occupancy
  Gd  Gd0  1  0.26825000  0.26824000  0.26825000  1.0
  Gd  Gd1  1  0.73175000  0.73176000  0.73176000  1.0
  H  H2  1  0.17522000  0.31065000  0.94971000  1.0
  H  H3  1  0.31065000  0.94971000  0.17522000  1.0
  H  H4  1  0.94972000  0.17522000  0.31065000  1.0
  H  H5  1  0.82478000  0.05029000  0.68935000  1.0
  H  H6  1  0.68935000  0.82478000  0.05028000  1.0
  H  H7  1  0.05028000  0.68935000  0.82478000  1.0
  H  H8  1  0.21630000  0.27611000  0.63844000  1.0
  H  H9  1  0.27611000  0.63844000  0.21630000  1.0
  H  H10  1  0.63844000  0.21630000  0.27611000  1.0
  H  H11  1  0.78370000  0.36156000  0.72389000  1.0
  H  H12  1  0.72389000  0.78371000  0.36156000  1.0
  H  H13  1  0.36156000  0.72389000  0.78370000  1.0
  H  H14  1  0.12545000  0.45927000  0.52480000  1.0
  H  H15  1  0.45926000  0.52480000  0.12545000  1.0
  H  H16  1  0.52480000  0.12545000  0.45926000  1.0
  H  H17  1  0.87455000  0.47520000  0.54074000  1.0
  H  H18  1  0.54074000  0.87455000  0.47520000  1.0
  H  H19  1  0.47520000  0.54073000  0.87455000  1.0
  C  C20  1  0.96373000  0.50000000  0.03627000  1.0
  C  C21  1  0.50000000  0.03627000  0.96373000  1.0
  C  C22  1  0.03627000  0.96373000  0.50000000  1.0
  C  C23  1  0.91442000  0.58238000  0.18362000  1.0
  C  C24  1  0.58237000  0.18362000  0.91443000  1.0
  C  C25  1  0.18363000  0.91442000  0.58237000  1.0
  C  C26  1  0.08558000  0.81638000  0.41763000  1.0
  C  C27  1  0.41763000  0.08558000  0.81638000  1.0
  C  C28  1  0.81638000  0.41763000  0.08558000  1.0
  O  O29  1  0.12649000  0.37878000  0.03787000  1.0
  O  O30  1  0.37878000  0.03787000  0.12649000  1.0
  O  O31  1  0.03788000  0.12649000  0.37878000  1.0
  O  O32  1  0.87351000  0.96212000  0.62122000  1.0
  O  O33  1  0.62122000  0.87351000  0.96212000  1.0
  O  O34  1  0.96212000  0.62122000  0.87351000  1.0
  O  O35  1  0.18056000  0.33613000  0.52966000  1.0
  O  O36  1  0.33613000  0.52966000  0.18056000  1.0
  O  O37  1  0.52966000  0.18056000  0.33613000  1.0
  O  O38  1  0.81944000  0.47034000  0.66387000  1.0
  O  O39  1  0.66387000  0.81944000  0.47034000  1.0
  O  O40  1  0.47034000  0.66387000  0.81944000  1.0
  O  O41  1  0.98962000  0.49420000  0.30099000  1.0
  O  O42  1  0.49419000  0.30099000  0.98962000  1.0
  O  O43  1  0.30099000  0.98961000  0.49420000  1.0
  O  O44  1  0.01039000  0.69902000  0.50580000  1.0
  O  O45  1  0.50581000  0.01039000  0.69901000  1.0
  O  O46  1  0.69901000  0.50580000  0.01039000  1.0
  O  O47  1  0.79797000  0.72581000  0.18116000  1.0
  O  O48  1  0.72581000  0.18116000  0.79797000  1.0
  O  O49  1  0.18116000  0.79796000  0.72581000  1.0
  O  O50  1  0.20204000  0.81884000  0.27419000  1.0
  O  O51  1  0.27419000  0.20203000  0.81884000  1.0
  O  O52  1  0.81884000  0.27419000  0.20204000  1.0
