# generated using pymatgen
data_MnH17C22(NO2)2
_symmetry_space_group_name_H-M   'P 1'
_cell_length_a   9.73582000
_cell_length_b   9.89645000
_cell_length_c   10.84850000
_cell_angle_alpha   101.14600000
_cell_angle_beta   111.57500000
_cell_angle_gamma   98.17000000
_symmetry_Int_Tables_number   1
_chemical_formula_structural   MnH17C22(NO2)2
_chemical_formula_sum   'Mn2 H34 C44 N4 O8'
_cell_volume   927.28502728
_cell_formula_units_Z   2
loop_
 _symmetry_equiv_pos_site_id
 _symmetry_equiv_pos_as_xyz
  1  'x, y, z'
loop_
 _atom_site_type_symbol
 _atom_site_label
 _atom_site_symmetry_multiplicity
 _atom_site_fract_x
 _atom_site_fract_y
 _atom_site_fract_z
 _atom_site_occupancy
  Mn  Mn0  1  0.38715000  0.05694000  0.37957000  1.0
  Mn  Mn1  1  0.61285000  0.94306000  0.62043000  1.0
  H  H2  1  0.50732000  0.78637000  0.08134000  1.0
  H  H3  1  0.49268000  0.21363000  0.91866000  1.0
  H  H4  1  0.29999000  0.65436000  0.64817000  1.0
  H  H5  1  0.70001000  0.34563000  0.35182000  1.0
  H  H6  1  0.46936000  0.29657000  0.13953000  1.0
  H  H7  1  0.53064000  0.70343000  0.86047000  1.0
  H  H8  1  0.46774000  0.49363000  0.31971000  1.0
  H  H9  1  0.53226000  0.50637000  0.68028000  1.0
  H  H10  1  0.97260000  0.13004000  0.78362000  1.0
  H  H11  1  0.02740000  0.86997000  0.21638000  1.0
  H  H12  1  0.14939000  0.51245000  0.12310000  1.0
  H  H13  1  0.85061000  0.48756000  0.87691000  1.0
  H  H14  1  0.10714000  0.42682000  0.95055000  1.0
  H  H15  1  0.89286000  0.57318000  0.04946000  1.0
  H  H16  1  0.39594000  0.94731000  0.08352000  1.0
  H  H17  1  0.60406000  0.05269000  0.91649000  1.0
  H  H18  1  0.96381000  0.78747000  0.34109000  1.0
  H  H19  1  0.03619000  0.21252000  0.65891000  1.0
  H  H20  1  0.93048000  0.33912000  0.11785000  1.0
  H  H21  1  0.06952000  0.66088000  0.88215000  1.0
  H  H22  1  0.88069000  0.25602000  0.94325000  1.0
  H  H23  1  0.11931000  0.74399000  0.05675000  1.0
  H  H24  1  0.24098000  0.29374000  0.42804000  1.0
  H  H25  1  0.75902000  0.70627000  0.57196000  1.0
  H  H26  1  0.04368000  0.27831000  0.33167000  1.0
  H  H27  1  0.95632000  0.72169000  0.66833000  1.0
  H  H28  1  0.18005000  0.42209000  0.33868000  1.0
  H  H29  1  0.81995000  0.57791000  0.66132000  1.0
  H  H30  1  0.22877000  0.42895000  0.70403000  1.0
  H  H31  1  0.77122000  0.57105000  0.29597000  1.0
  H  H32  1  0.10263000  0.97349000  0.68079000  1.0
  H  H33  1  0.89737000  0.02651000  0.31921000  1.0
  H  H34  1  0.31303000  0.88543000  0.82668000  1.0
  H  H35  1  0.68696000  0.11456000  0.17332000  1.0
  C  C36  1  0.49820000  0.67915000  0.09354000  1.0
  C  C37  1  0.50180000  0.32085000  0.90645000  1.0
  C  C38  1  0.18369000  0.63576000  0.57272000  1.0
  C  C39  1  0.81630000  0.36423000  0.42728000  1.0
  C  C40  1  0.47825000  0.40391000  0.12735000  1.0
  C  C41  1  0.52175000  0.59609000  0.87265000  1.0
  C  C42  1  0.26472000  0.85684000  0.51544000  1.0
  C  C43  1  0.73528000  0.14315000  0.48455000  1.0
  C  C44  1  0.07563000  0.51270000  0.55188000  1.0
  C  C45  1  0.92437000  0.48730000  0.44811000  1.0
  C  C46  1  0.47571000  0.51272000  0.22658000  1.0
  C  C47  1  0.52429000  0.48728000  0.77342000  1.0
  C  C48  1  0.06795000  0.09512000  0.84887000  1.0
  C  C49  1  0.93205000  0.90488000  0.15113000  1.0
  C  C50  1  0.05533000  0.45358000  0.02415000  1.0
  C  C51  1  0.94467000  0.54642000  0.97585000  1.0
  C  C52  1  0.47785000  0.76967000  0.31580000  1.0
  C  C53  1  0.52215000  0.23033000  0.68419000  1.0
  C  C54  1  0.30709000  0.98869000  0.01811000  1.0
  C  C55  1  0.69291000  0.01131000  0.98190000  1.0
  C  C56  1  0.23625000  0.07941000  0.07614000  1.0
  C  C57  1  0.76375000  0.92060000  0.92386000  1.0
  C  C58  1  0.99404000  0.70868000  0.39692000  1.0
  C  C59  1  0.00596000  0.29131000  0.60307000  1.0
  C  C60  1  0.50577000  0.57058000  0.99179000  1.0
  C  C61  1  0.49423000  0.42942000  0.00822000  1.0
  C  C62  1  0.16790000  0.22279000  0.21168000  1.0
  C  C63  1  0.83211000  0.77721000  0.78832000  1.0
  C  C64  1  0.48350000  0.65180000  0.20906000  1.0
  C  C65  1  0.51651000  0.34820000  0.79094000  1.0
  C  C66  1  0.97687000  0.31635000  0.03991000  1.0
  C  C67  1  0.02314000  0.68365000  0.96010000  1.0
  C  C68  1  0.12125000  0.13397000  0.99163000  1.0
  C  C69  1  0.87875000  0.86603000  0.00837000  1.0
  C  C70  1  0.15792000  0.30876000  0.33423000  1.0
  C  C71  1  0.84208000  0.69125000  0.66577000  1.0
  C  C72  1  0.11299000  0.41141000  0.62775000  1.0
  C  C73  1  0.88701000  0.58859000  0.37225000  1.0
  C  C74  1  0.14483000  0.73230000  0.49637000  1.0
  C  C75  1  0.85517000  0.26770000  0.50363000  1.0
  C  C76  1  0.13978000  0.00495000  0.79219000  1.0
  C  C77  1  0.86022000  0.99505000  0.20782000  1.0
  C  C78  1  0.25857000  0.95378000  0.87550000  1.0
  C  C79  1  0.74143000  0.04622000  0.12451000  1.0
  N  N80  1  0.26076000  0.13477000  0.21304000  1.0
  N  N81  1  0.73924000  0.86523000  0.78696000  1.0
  N  N82  1  0.08095000  0.22453000  0.08043000  1.0
  N  N83  1  0.91905000  0.77547000  0.91958000  1.0
  O  O84  1  0.39764000  0.85520000  0.27258000  1.0
  O  O85  1  0.60236000  0.14480000  0.72742000  1.0
  O  O86  1  0.22975000  0.93552000  0.43355000  1.0
  O  O87  1  0.77025000  0.06448000  0.56646000  1.0
  O  O88  1  0.55356000  0.77504000  0.44144000  1.0
  O  O89  1  0.44644000  0.22496000  0.55856000  1.0
  O  O90  1  0.39544000  0.87340000  0.61078000  1.0
  O  O91  1  0.60456000  0.12659000  0.38921000  1.0
