# generated using pymatgen
data_AlH9C14S2NO5
_symmetry_space_group_name_H-M   'P 1'
_cell_length_a   6.67251000
_cell_length_b   13.89760000
_cell_length_c   15.95400000
_cell_angle_alpha   90.00000000
_cell_angle_beta   90.00000000
_cell_angle_gamma   91.71640000
_symmetry_Int_Tables_number   1
_chemical_formula_structural   AlH9C14S2NO5
_chemical_formula_sum   'Al4 H36 C56 S8 N4 O20'
_cell_volume   1478.78054765
_cell_formula_units_Z   4
loop_
 _symmetry_equiv_pos_site_id
 _symmetry_equiv_pos_as_xyz
  1  'x, y, z'
loop_
 _atom_site_type_symbol
 _atom_site_label
 _atom_site_symmetry_multiplicity
 _atom_site_fract_x
 _atom_site_fract_y
 _atom_site_fract_z
 _atom_site_occupancy
  Al  Al0  1  0.00011000  0.00000000  0.99998000  1.0
  Al  Al1  1  0.50010000  0.50000000  0.50001000  1.0
  Al  Al2  1  0.50009000  0.99998000  0.99999000  1.0
  Al  Al3  1  0.00007000  0.49998000  0.49999000  1.0
  H  H4  1  0.76227000  0.12728000  0.98562000  1.0
  H  H5  1  0.73785000  0.37267000  0.48569000  1.0
  H  H6  1  0.23789000  0.87267000  0.01432000  1.0
  H  H7  1  0.26224000  0.62727000  0.51438000  1.0
  H  H8  1  0.43377000  0.66450000  0.29628000  1.0
  H  H9  1  0.06646000  0.83549000  0.79629000  1.0
  H  H10  1  0.56645000  0.33553000  0.70371000  1.0
  H  H11  1  0.93378000  0.16448000  0.20371000  1.0
  H  H12  1  0.42667000  0.78077000  0.17481000  1.0
  H  H13  1  0.07356000  0.71923000  0.67482000  1.0
  H  H14  1  0.57356000  0.21926000  0.82517000  1.0
  H  H15  1  0.92667000  0.28078000  0.32517000  1.0
  H  H16  1  0.06757000  0.71630000  0.32172000  1.0
  H  H17  1  0.43258000  0.78375000  0.82165000  1.0
  H  H18  1  0.93259000  0.28377000  0.67833000  1.0
  H  H19  1  0.56761000  0.21629000  0.17828000  1.0
  H  H20  1  0.06062000  0.83445000  0.20185000  1.0
  H  H21  1  0.43959000  0.66559000  0.70179000  1.0
  H  H22  1  0.93963000  0.16559000  0.79818000  1.0
  H  H23  1  0.56063000  0.33445000  0.29815000  1.0
  H  H24  1  0.08062000  0.03882000  0.54536000  1.0
  H  H25  1  0.41906000  0.46130000  0.04523000  1.0
  H  H26  1  0.91897000  0.96135000  0.45477000  1.0
  H  H27  1  0.58096000  0.53875000  0.95461000  1.0
  H  H28  1  0.09500000  0.94501000  0.67800000  1.0
  H  H29  1  0.40459000  0.55501000  0.17793000  1.0
  H  H30  1  0.90433000  0.05504000  0.32206000  1.0
  H  H31  1  0.59530000  0.44501000  0.82194000  1.0
  H  H32  1  0.40883000  0.94516000  0.76231000  1.0
  H  H33  1  0.09061000  0.55471000  0.26218000  1.0
  H  H34  1  0.59035000  0.05466000  0.23784000  1.0
  H  H35  1  0.90925000  0.44527000  0.73766000  1.0
  H  H36  1  0.71612000  0.03133000  0.71184000  1.0
  H  H37  1  0.78334000  0.46853000  0.21164000  1.0
  H  H38  1  0.28314000  0.96845000  0.28839000  1.0
  H  H39  1  0.21653000  0.53144000  0.78820000  1.0
  C  C40  1  0.75267000  0.61579000  0.38680000  1.0
  C  C41  1  0.74748000  0.88419000  0.88679000  1.0
  C  C42  1  0.24746000  0.38421000  0.61319000  1.0
  C  C43  1  0.25268000  0.11580000  0.11319000  1.0
  C  C44  1  0.75086000  0.68450000  0.31526000  1.0
  C  C45  1  0.74931000  0.81552000  0.81523000  1.0
  C  C46  1  0.24931000  0.31555000  0.68475000  1.0
  C  C47  1  0.25088000  0.18448000  0.18474000  1.0
  C  C48  1  0.56942000  0.70220000  0.27447000  1.0
  C  C49  1  0.93078000  0.79783000  0.77447000  1.0
  C  C50  1  0.43078000  0.29786000  0.72553000  1.0
  C  C51  1  0.06941000  0.20218000  0.22552000  1.0
  C  C52  1  0.74168000  0.88512000  0.11296000  1.0
  C  C53  1  0.75857000  0.61490000  0.61297000  1.0
  C  C54  1  0.25859000  0.11490000  0.88702000  1.0
  C  C55  1  0.24167000  0.38512000  0.38701000  1.0
  C  C56  1  0.74314000  0.81478000  0.18305000  1.0
  C  C57  1  0.75709000  0.68525000  0.68303000  1.0
  C  C58  1  0.25711000  0.18526000  0.81695000  1.0
  C  C59  1  0.24316000  0.31478000  0.31693000  1.0
  C  C60  1  0.56542000  0.76685000  0.20817000  1.0
  C  C61  1  0.93480000  0.73316000  0.70817000  1.0
  C  C62  1  0.43481000  0.23318000  0.79183000  1.0
  C  C63  1  0.06543000  0.26684000  0.29182000  1.0
  C  C64  1  0.92875000  0.73127000  0.28902000  1.0
  C  C65  1  0.57145000  0.76878000  0.78895000  1.0
  C  C66  1  0.07145000  0.26878000  0.71103000  1.0
  C  C67  1  0.42877000  0.23126000  0.21098000  1.0
  C  C68  1  0.92488000  0.79652000  0.22325000  1.0
  C  C69  1  0.57533000  0.70352000  0.72321000  1.0
  C  C70  1  0.07535000  0.20352000  0.77677000  1.0
  C  C71  1  0.42490000  0.29652000  0.27674000  1.0
  C  C72  1  0.57059000  0.08658000  0.60087000  1.0
  C  C73  1  0.92905000  0.41337000  0.10067000  1.0
  C  C74  1  0.42896000  0.91335000  0.39936000  1.0
  C  C75  1  0.07093000  0.58660000  0.89918000  1.0
  C  C76  1  0.38967000  0.08894000  0.55420000  1.0
  C  C77  1  0.11000000  0.41110000  0.05404000  1.0
  C  C78  1  0.60989000  0.91111000  0.44597000  1.0
  C  C79  1  0.88998000  0.58889000  0.94582000  1.0
  C  C80  1  0.21961000  0.03609000  0.58090000  1.0
  C  C81  1  0.28000000  0.46398000  0.08074000  1.0
  C  C82  1  0.77988000  0.96402000  0.41926000  1.0
  C  C83  1  0.71994000  0.53604000  0.91908000  1.0
  C  C84  1  0.22843000  0.98456000  0.65605000  1.0
  C  C85  1  0.27117000  0.51546000  0.15593000  1.0
  C  C86  1  0.77097000  0.01547000  0.34408000  1.0
  C  C87  1  0.72872000  0.48456000  0.84391000  1.0
  C  C88  1  0.40486000  0.98394000  0.70308000  1.0
  C  C89  1  0.09465000  0.51597000  0.20293000  1.0
  C  C90  1  0.59445000  0.01595000  0.29709000  1.0
  C  C91  1  0.90523000  0.48400000  0.79692000  1.0
  C  C92  1  0.57868000  0.03261000  0.67504000  1.0
  C  C93  1  0.92086000  0.46729000  0.17486000  1.0
  C  C94  1  0.42069000  0.96724000  0.32516000  1.0
  C  C95  1  0.07905000  0.53267000  0.82498000  1.0
  S  S96  1  0.75941000  0.15828000  0.55593000  1.0
  S  S97  1  0.74028000  0.34168000  0.05566000  1.0
  S  S98  1  0.24019000  0.84164000  0.44439000  1.0
  S  S99  1  0.25975000  0.65830000  0.94418000  1.0
  S  S100  1  0.40765000  0.16241000  0.46650000  1.0
  S  S101  1  0.09211000  0.33769000  0.96631000  1.0
  S  S102  1  0.59210000  0.83770000  0.53372000  1.0
  S  S103  1  0.90790000  0.66232000  0.03356000  1.0
  N  N104  1  0.63993000  0.20563000  0.47617000  1.0
  N  N105  1  0.85989000  0.29441000  0.97590000  1.0
  N  N106  1  0.35989000  0.79441000  0.52414000  1.0
  N  N107  1  0.14017000  0.70558000  0.02394000  1.0
  O  O108  1  0.75324000  0.05894000  0.99918000  1.0
  O  O109  1  0.74692000  0.44103000  0.49918000  1.0
  O  O110  1  0.24693000  0.94102000  0.00079000  1.0
  O  O111  1  0.25322000  0.55894000  0.50079000  1.0
  O  O112  1  0.91189000  0.91137000  0.08372000  1.0
  O  O113  1  0.58832000  0.58863000  0.58374000  1.0
  O  O114  1  0.08836000  0.08863000  0.91625000  1.0
  O  O115  1  0.41189000  0.41139000  0.41625000  1.0
  O  O116  1  0.92253000  0.59265000  0.41587000  1.0
  O  O117  1  0.57760000  0.90732000  0.91588000  1.0
  O  O118  1  0.07758000  0.40733000  0.58411000  1.0
  O  O119  1  0.42256000  0.09265000  0.08411000  1.0
  O  O120  1  0.57228000  0.91311000  0.08743000  1.0
  O  O121  1  0.92792000  0.58688000  0.58742000  1.0
  O  O122  1  0.42794000  0.08687000  0.91256000  1.0
  O  O123  1  0.07228000  0.41310000  0.41256000  1.0
  O  O124  1  0.58186000  0.58642000  0.41319000  1.0
  O  O125  1  0.91827000  0.91359000  0.91317000  1.0
  O  O126  1  0.41826000  0.41359000  0.58680000  1.0
  O  O127  1  0.08188000  0.08640000  0.08681000  1.0
