# generated using pymatgen
data_LaH8C6O7
_symmetry_space_group_name_H-M   'P 1'
_cell_length_a   8.01376000
_cell_length_b   10.97490000
_cell_length_c   12.87280000
_cell_angle_alpha   71.22350000
_cell_angle_beta   71.86550000
_cell_angle_gamma   68.59530000
_symmetry_Int_Tables_number   1
_chemical_formula_structural   LaH8C6O7
_chemical_formula_sum   'La4 H32 C24 O28'
_cell_volume   973.56574950
_cell_formula_units_Z   4
loop_
 _symmetry_equiv_pos_site_id
 _symmetry_equiv_pos_as_xyz
  1  'x, y, z'
loop_
 _atom_site_type_symbol
 _atom_site_label
 _atom_site_symmetry_multiplicity
 _atom_site_fract_x
 _atom_site_fract_y
 _atom_site_fract_z
 _atom_site_occupancy
  La  La0  1  0.05782000  0.68984000  0.77184000  1.0
  La  La1  1  0.48054000  0.18985000  0.27183000  1.0
  La  La2  1  0.94219000  0.31015000  0.22816000  1.0
  La  La3  1  0.51946000  0.81015000  0.72817000  1.0
  H  H4  1  0.90088000  0.17700000  0.51314000  1.0
  H  H5  1  0.40890000  0.67703000  0.01308000  1.0
  H  H6  1  0.09912000  0.82300000  0.48686000  1.0
  H  H7  1  0.59110000  0.32297000  0.98692000  1.0
  H  H8  1  0.83008000  0.20771000  0.64810000  1.0
  H  H9  1  0.31413000  0.70770000  0.14806000  1.0
  H  H10  1  0.16992000  0.79229000  0.35190000  1.0
  H  H11  1  0.68587000  0.29230000  0.85194000  1.0
  H  H12  1  0.49554000  0.23885000  0.64312000  1.0
  H  H13  1  0.62247000  0.73900000  0.14298000  1.0
  H  H14  1  0.50446000  0.76115000  0.35688000  1.0
  H  H15  1  0.37753000  0.26100000  0.85702000  1.0
  H  H16  1  0.59899000  0.36330000  0.54625000  1.0
  H  H17  1  0.49121000  0.86343000  0.04627000  1.0
  H  H18  1  0.40101000  0.63670000  0.45375000  1.0
  H  H19  1  0.50879000  0.13657000  0.95373000  1.0
  H  H20  1  0.94698000  0.86955000  0.02441000  1.0
  H  H21  1  0.15903000  0.36952000  0.52434000  1.0
  H  H22  1  0.05302000  0.13045000  0.97559000  1.0
  H  H23  1  0.84098000  0.63047000  0.47566000  1.0
  H  H24  1  0.90081000  0.00691000  0.91163000  1.0
  H  H25  1  0.18061000  0.50695000  0.41157000  1.0
  H  H26  1  0.09920000  0.99309000  0.08837000  1.0
  H  H27  1  0.81939000  0.49305000  0.58843000  1.0
  H  H28  1  0.81078000  0.49260000  0.85918000  1.0
  H  H29  1  0.83754000  0.99270000  0.35908000  1.0
  H  H30  1  0.18922000  0.50740000  0.14082000  1.0
  H  H31  1  0.16246000  0.00730000  0.64092000  1.0
  H  H32  1  0.99323000  0.41097000  0.91263000  1.0
  H  H33  1  0.68321000  0.91109000  0.41252000  1.0
  H  H34  1  0.00676000  0.58904000  0.08737000  1.0
  H  H35  1  0.31679000  0.08891000  0.58748000  1.0
  C  C36  1  0.81062000  0.02157000  0.64212000  1.0
  C  C37  1  0.52566000  0.52158000  0.14205000  1.0
  C  C38  1  0.18938000  0.97843000  0.35788000  1.0
  C  C39  1  0.47434000  0.47842000  0.85795000  1.0
  C  C40  1  0.79374000  0.17016000  0.59092000  1.0
  C  C41  1  0.44512000  0.67021000  0.09085000  1.0
  C  C42  1  0.20626000  0.82984000  0.40908000  1.0
  C  C43  1  0.55487000  0.32980000  0.90915000  1.0
  C  C44  1  0.60370000  0.25671000  0.56826000  1.0
  C  C45  1  0.57116000  0.75688000  0.06816000  1.0
  C  C46  1  0.39630000  0.74329000  0.43174000  1.0
  C  C47  1  0.42884000  0.24312000  0.93184000  1.0
  C  C48  1  0.56215000  0.23410000  0.47014000  1.0
  C  C49  1  0.73340000  0.73440000  0.96999000  1.0
  C  C50  1  0.43785000  0.76590000  0.52986000  1.0
  C  C51  1  0.26660000  0.26560000  0.03001000  1.0
  C  C52  1  0.18164000  0.89676000  0.89671000  1.0
  C  C53  1  0.02473000  0.39678000  0.39671000  1.0
  C  C54  1  0.81836000  0.10324000  0.10329000  1.0
  C  C55  1  0.97527000  0.60321000  0.60329000  1.0
  C  C56  1  0.99768000  0.95379000  0.96793000  1.0
  C  C57  1  0.08056000  0.45381000  0.46790000  1.0
  C  C58  1  0.00232000  0.04620000  0.03207000  1.0
  C  C59  1  0.91944000  0.54619000  0.53210000  1.0
  O  O60  1  0.96311000  0.94396000  0.66763000  1.0
  O  O61  1  0.42521000  0.44399000  0.16752000  1.0
  O  O62  1  0.03689000  0.05604000  0.33237000  1.0
  O  O63  1  0.57479000  0.55602000  0.83248000  1.0
  O  O64  1  0.67238000  0.98305000  0.65635000  1.0
  O  O65  1  0.68815000  0.48307000  0.15633000  1.0
  O  O66  1  0.32762000  0.01695000  0.34365000  1.0
  O  O67  1  0.31185000  0.51693000  0.84367000  1.0
  O  O68  1  0.66263000  0.26166000  0.37109000  1.0
  O  O69  1  0.70451000  0.76188000  0.87093000  1.0
  O  O70  1  0.33737000  0.73834000  0.62892000  1.0
  O  O71  1  0.29549000  0.23812000  0.12907000  1.0
  O  O72  1  0.42721000  0.19217000  0.48241000  1.0
  O  O73  1  0.89794000  0.69250000  0.98232000  1.0
  O  O74  1  0.57279000  0.80783000  0.51759000  1.0
  O  O75  1  0.10206000  0.30751000  0.01768000  1.0
  O  O76  1  0.19583000  0.80829000  0.84501000  1.0
  O  O77  1  0.15061000  0.30827000  0.34502000  1.0
  O  O78  1  0.80417000  0.19171000  0.15499000  1.0
  O  O79  1  0.84939000  0.69173000  0.65498000  1.0
  O  O80  1  0.31935000  0.93276000  0.88693000  1.0
  O  O81  1  0.86076000  0.43280000  0.38700000  1.0
  O  O82  1  0.68065000  0.06724000  0.11307000  1.0
  O  O83  1  0.13924000  0.56720000  0.61300000  1.0
  O  O84  1  0.94189000  0.48226000  0.85061000  1.0
  O  O85  1  0.72542000  0.98230000  0.35045000  1.0
  O  O86  1  0.05811000  0.51774000  0.14939000  1.0
  O  O87  1  0.27458000  0.01770000  0.64955000  1.0
