# generated using pymatgen
data_MgH22PtC18N4Cl2O7
_symmetry_space_group_name_H-M   'P 1'
_cell_length_a   9.15176000
_cell_length_b   11.93490000
_cell_length_c   13.67300000
_cell_angle_alpha   68.93570000
_cell_angle_beta   80.28420000
_cell_angle_gamma   68.90590000
_symmetry_Int_Tables_number   1
_chemical_formula_structural   MgH22PtC18N4Cl2O7
_chemical_formula_sum   'Mg2 H44 Pt2 C36 N8 Cl4 O14'
_cell_volume   1298.92329446
_cell_formula_units_Z   2
loop_
 _symmetry_equiv_pos_site_id
 _symmetry_equiv_pos_as_xyz
  1  'x, y, z'
loop_
 _atom_site_type_symbol
 _atom_site_label
 _atom_site_symmetry_multiplicity
 _atom_site_fract_x
 _atom_site_fract_y
 _atom_site_fract_z
 _atom_site_occupancy
  Mg  Mg0  1  0.75472000  0.01707000  0.05949000  1.0
  Mg  Mg1  1  0.24528000  0.98293000  0.94051000  1.0
  H  H2  1  0.59706000  0.88994000  0.00884000  1.0
  H  H3  1  0.40295000  0.11005000  0.99116000  1.0
  H  H4  1  0.63077000  0.99593000  0.90903000  1.0
  H  H5  1  0.36923000  0.00407000  0.09097000  1.0
  H  H6  1  0.49093000  0.45993000  0.68222000  1.0
  H  H7  1  0.50907000  0.54008000  0.31778000  1.0
  H  H8  1  0.62325000  0.25847000  0.82404000  1.0
  H  H9  1  0.37675000  0.74153000  0.17597000  1.0
  H  H10  1  0.03987000  0.36621000  0.75369000  1.0
  H  H11  1  0.96014000  0.63379000  0.24631000  1.0
  H  H12  1  0.40628000  0.61990000  0.55254000  1.0
  H  H13  1  0.59372000  0.38010000  0.44746000  1.0
  H  H14  1  0.34897000  0.78430000  0.37712000  1.0
  H  H15  1  0.65103000  0.21570000  0.62288000  1.0
  H  H16  1  0.81063000  0.81162000  0.36070000  1.0
  H  H17  1  0.18938000  0.18838000  0.63929000  1.0
  H  H18  1  0.92137000  0.99050000  0.25828000  1.0
  H  H19  1  0.07862000  0.00951000  0.74171000  1.0
  H  H20  1  0.94349000  0.28787000  0.07454000  1.0
  H  H21  1  0.05653000  0.71213000  0.92545000  1.0
  H  H22  1  0.14061000  0.24253000  0.10963000  1.0
  H  H23  1  0.85940000  0.75747000  0.89036000  1.0
  H  H24  1  0.98303000  0.33195000  0.17827000  1.0
  H  H25  1  0.01698000  0.66805000  0.82172000  1.0
  H  H26  1  0.22456000  0.05932000  0.28078000  1.0
  H  H27  1  0.77544000  0.94068000  0.71921000  1.0
  H  H28  1  0.07578000  0.99744000  0.35795000  1.0
  H  H29  1  0.92422000  0.00256000  0.64204000  1.0
  H  H30  1  0.07241000  0.15112000  0.35011000  1.0
  H  H31  1  0.92759000  0.84888000  0.64988000  1.0
  H  H32  1  0.54119000  0.26584000  0.12312000  1.0
  H  H33  1  0.45881000  0.73415000  0.87689000  1.0
  H  H34  1  0.35434000  0.32255000  0.88855000  1.0
  H  H35  1  0.64566000  0.67745000  0.11145000  1.0
  H  H36  1  0.28627000  0.48981000  0.86626000  1.0
  H  H37  1  0.71373000  0.51019000  0.13374000  1.0
  H  H38  1  0.16944000  0.39485000  0.94402000  1.0
  H  H39  1  0.83056000  0.60515000  0.05598000  1.0
  H  H40  1  0.18449000  0.47662000  0.09942000  1.0
  H  H41  1  0.81550000  0.52337000  0.90058000  1.0
  H  H42  1  0.30490000  0.56384000  0.01400000  1.0
  H  H43  1  0.69509000  0.43616000  0.98601000  1.0
  H  H44  1  0.37766000  0.44502000  0.13489000  1.0
  H  H45  1  0.62232000  0.55497000  0.86512000  1.0
  Pt  Pt46  1  0.95339000  0.61634000  0.56860000  1.0
  Pt  Pt47  1  0.04661000  0.38366000  0.43140000  1.0
  C  C48  1  0.69743000  0.51690000  0.64179000  1.0
  C  C49  1  0.30257000  0.48311000  0.35821000  1.0
  C  C50  1  0.61137000  0.43742000  0.70120000  1.0
  C  C51  1  0.38863000  0.56258000  0.29881000  1.0
  C  C52  1  0.68301000  0.32689000  0.78014000  1.0
  C  C53  1  0.31700000  0.67312000  0.21986000  1.0
  C  C54  1  0.83976000  0.29883000  0.79897000  1.0
  C  C55  1  0.16025000  0.70117000  0.20103000  1.0
  C  C56  1  0.91816000  0.38428000  0.74074000  1.0
  C  C57  1  0.08185000  0.61573000  0.25925000  1.0
  C  C58  1  0.92742000  0.17297000  0.87516000  1.0
  C  C59  1  0.07257000  0.82703000  0.12484000  1.0
  C  C60  1  0.64222000  0.62406000  0.54790000  1.0
  C  C61  1  0.35778000  0.37594000  0.45211000  1.0
  C  C62  1  0.49459000  0.66284000  0.50836000  1.0
  C  C63  1  0.50542000  0.33716000  0.49164000  1.0
  C  C64  1  0.46186000  0.75508000  0.41071000  1.0
  C  C65  1  0.53814000  0.24491000  0.58930000  1.0
  C  C66  1  0.57670000  0.80817000  0.35450000  1.0
  C  C67  1  0.42329000  0.19183000  0.64550000  1.0
  C  C68  1  0.71906000  0.77084000  0.40028000  1.0
  C  C69  1  0.28094000  0.22915000  0.59972000  1.0
  C  C70  1  0.55087000  0.89927000  0.24386000  1.0
  C  C71  1  0.44913000  0.10073000  0.75614000  1.0
  C  C72  1  0.91582000  0.08246000  0.19732000  1.0
  C  C73  1  0.08418000  0.91755000  0.80267000  1.0
  C  C74  1  0.01816000  0.25886000  0.13985000  1.0
  C  C75  1  0.98185000  0.74114000  0.86014000  1.0
  C  C76  1  0.09982000  0.08406000  0.30639000  1.0
  C  C77  1  0.90018000  0.91595000  0.69360000  1.0
  C  C78  1  0.49038000  0.27021000  0.05357000  1.0
  C  C79  1  0.50961000  0.72979000  0.94643000  1.0
  C  C80  1  0.29016000  0.39674000  0.92362000  1.0
  C  C81  1  0.70983000  0.60327000  0.07638000  1.0
  C  C82  1  0.30546000  0.47011000  0.06901000  1.0
  C  C83  1  0.69452000  0.52989000  0.93100000  1.0
  N  N84  1  0.84904000  0.49131000  0.66403000  1.0
  N  N85  1  0.15096000  0.50869000  0.33597000  1.0
  N  N86  1  0.75163000  0.68114000  0.49482000  1.0
  N  N87  1  0.24837000  0.31886000  0.50518000  1.0
  N  N88  1  0.00389000  0.14069000  0.21514000  1.0
  N  N89  1  0.99612000  0.85932000  0.78485000  1.0
  N  N90  1  0.36771000  0.37470000  0.01673000  1.0
  N  N91  1  0.63228000  0.62530000  0.98328000  1.0
  Cl  Cl92  1  0.17394000  0.53404000  0.66591000  1.0
  Cl  Cl93  1  0.82606000  0.46597000  0.33409000  1.0
  Cl  Cl94  1  0.05675000  0.76631000  0.45192000  1.0
  Cl  Cl95  1  0.94325000  0.23370000  0.54809000  1.0
  O  O96  1  0.85207000  0.09636000  0.91954000  1.0
  O  O97  1  0.14793000  0.90364000  0.08046000  1.0
  O  O98  1  0.07093000  0.15275000  0.88405000  1.0
  O  O99  1  0.92908000  0.84725000  0.11596000  1.0
  O  O100  1  0.64541000  0.96144000  0.20469000  1.0
  O  O101  1  0.35458000  0.03856000  0.79531000  1.0
  O  O102  1  0.43696000  0.90317000  0.19993000  1.0
  O  O103  1  0.56304000  0.09683000  0.80007000  1.0
  O  O104  1  0.83206000  0.12640000  0.11956000  1.0
  O  O105  1  0.16794000  0.87361000  0.88044000  1.0
  O  O106  1  0.54678000  0.18355000  0.01364000  1.0
  O  O107  1  0.45323000  0.81645000  0.98636000  1.0
  O  O108  1  0.67360000  0.93471000  0.97944000  1.0
  O  O109  1  0.32641000  0.06529000  0.02056000  1.0
