# generated using pymatgen
data_Ag2H8C17(O2F3)2
_symmetry_space_group_name_H-M   'P 1'
_cell_length_a   6.61948000
_cell_length_b   31.36210000
_cell_length_c   31.36260000
_cell_angle_alpha   89.99980000
_cell_angle_beta   89.99990000
_cell_angle_gamma   90.00000000
_symmetry_Int_Tables_number   1
_chemical_formula_structural   Ag2H8C17(O2F3)2
_chemical_formula_sum   'Ag16 H64 C136 O32 F48'
_cell_volume   6510.90065270
_cell_formula_units_Z   8
loop_
 _symmetry_equiv_pos_site_id
 _symmetry_equiv_pos_as_xyz
  1  'x, y, z'
loop_
 _atom_site_type_symbol
 _atom_site_label
 _atom_site_symmetry_multiplicity
 _atom_site_fract_x
 _atom_site_fract_y
 _atom_site_fract_z
 _atom_site_occupancy
  Ag  Ag0  1  0.00643000  0.56980000  0.51971000  1.0
  Ag  Ag1  1  0.67803000  0.53536000  0.47734000  1.0
  Ag  Ag2  1  0.00644000  0.93020000  0.98029000  1.0
  Ag  Ag3  1  0.67804000  0.96464000  0.02266000  1.0
  Ag  Ag4  1  0.49359000  0.51971000  0.93019000  1.0
  Ag  Ag5  1  0.82196000  0.47734000  0.96464000  1.0
  Ag  Ag6  1  0.49360000  0.98029000  0.56980000  1.0
  Ag  Ag7  1  0.82201000  0.02266000  0.53536000  1.0
  Ag  Ag8  1  0.50641000  0.48029000  0.06980000  1.0
  Ag  Ag9  1  0.17802000  0.52266000  0.03536000  1.0
  Ag  Ag10  1  0.50643000  0.01971000  0.43020000  1.0
  Ag  Ag11  1  0.17806000  0.97734000  0.46464000  1.0
  Ag  Ag12  1  0.99356000  0.43020000  0.48029000  1.0
  Ag  Ag13  1  0.32195000  0.46465000  0.52266000  1.0
  Ag  Ag14  1  0.99359000  0.06981000  0.01971000  1.0
  Ag  Ag15  1  0.32196000  0.03536000  0.97734000  1.0
  H  H16  1  0.06251000  0.70212000  0.45873000  1.0
  H  H17  1  0.95575000  0.77155000  0.42804000  1.0
  H  H18  1  0.41965000  0.71221000  0.37744000  1.0
  H  H19  1  0.52853000  0.64381000  0.40870000  1.0
  H  H20  1  0.57653000  0.79395000  0.46653000  1.0
  H  H21  1  0.58877000  0.85709000  0.51374000  1.0
  H  H22  1  0.80701000  0.93349000  0.40956000  1.0
  H  H23  1  0.77041000  0.87226000  0.36130000  1.0
  H  H24  1  0.06252000  0.79788000  0.04127000  1.0
  H  H25  1  0.95576000  0.72845000  0.07196000  1.0
  H  H26  1  0.41967000  0.78779000  0.12256000  1.0
  H  H27  1  0.52854000  0.85619000  0.09131000  1.0
  H  H28  1  0.57652000  0.70606000  0.03348000  1.0
  H  H29  1  0.58876000  0.64292000  0.98626000  1.0
  H  H30  1  0.80697000  0.56651000  0.09043000  1.0
  H  H31  1  0.77039000  0.62774000  0.13870000  1.0
  H  H32  1  0.43749000  0.45874000  0.79788000  1.0
  H  H33  1  0.54425000  0.42805000  0.72845000  1.0
  H  H34  1  0.08034000  0.37744000  0.78779000  1.0
  H  H35  1  0.97145000  0.40869000  0.85620000  1.0
  H  H36  1  0.92347000  0.46653000  0.70606000  1.0
  H  H37  1  0.91124000  0.51374000  0.64292000  1.0
  H  H38  1  0.69303000  0.40957000  0.56652000  1.0
  H  H39  1  0.72961000  0.36130000  0.62774000  1.0
  H  H40  1  0.43747000  0.04126000  0.70212000  1.0
  H  H41  1  0.54423000  0.07195000  0.77155000  1.0
  H  H42  1  0.08035000  0.12255000  0.71221000  1.0
  H  H43  1  0.97146000  0.09130000  0.64381000  1.0
  H  H44  1  0.92347000  0.03347000  0.79394000  1.0
  H  H45  1  0.91126000  0.98626000  0.85708000  1.0
  H  H46  1  0.69301000  0.09043000  0.93348000  1.0
  H  H47  1  0.72958000  0.13870000  0.87226000  1.0
  H  H48  1  0.56252000  0.54126000  0.20212000  1.0
  H  H49  1  0.45577000  0.57195000  0.27155000  1.0
  H  H50  1  0.91964000  0.62255000  0.21221000  1.0
  H  H51  1  0.02853000  0.59130000  0.14381000  1.0
  H  H52  1  0.07654000  0.53347000  0.29394000  1.0
  H  H53  1  0.08875000  0.48626000  0.35708000  1.0
  H  H54  1  0.30698000  0.59043000  0.43348000  1.0
  H  H55  1  0.27041000  0.63870000  0.37226000  1.0
  H  H56  1  0.56252000  0.95873000  0.29788000  1.0
  H  H57  1  0.45575000  0.92804000  0.22845000  1.0
  H  H58  1  0.91963000  0.87745000  0.28779000  1.0
  H  H59  1  0.02852000  0.90870000  0.35619000  1.0
  H  H60  1  0.07653000  0.96653000  0.20606000  1.0
  H  H61  1  0.08878000  0.01374000  0.14292000  1.0
  H  H62  1  0.30699000  0.90957000  0.06652000  1.0
  H  H63  1  0.27038000  0.86130000  0.12774000  1.0
  H  H64  1  0.93748000  0.29788000  0.54127000  1.0
  H  H65  1  0.04422000  0.22845000  0.57196000  1.0
  H  H66  1  0.58034000  0.28779000  0.62255000  1.0
  H  H67  1  0.47147000  0.35620000  0.59130000  1.0
  H  H68  1  0.42344000  0.20606000  0.53347000  1.0
  H  H69  1  0.41123000  0.14292000  0.48626000  1.0
  H  H70  1  0.19305000  0.06651000  0.59044000  1.0
  H  H71  1  0.22961000  0.12773000  0.63870000  1.0
  H  H72  1  0.93748000  0.20212000  0.95873000  1.0
  H  H73  1  0.04423000  0.27155000  0.92804000  1.0
  H  H74  1  0.58033000  0.21221000  0.87744000  1.0
  H  H75  1  0.47145000  0.14380000  0.90869000  1.0
  H  H76  1  0.42346000  0.29394000  0.96652000  1.0
  H  H77  1  0.41123000  0.35708000  0.01374000  1.0
  H  H78  1  0.19303000  0.43349000  0.90957000  1.0
  H  H79  1  0.22962000  0.37227000  0.86130000  1.0
  C  C80  1  0.84809000  0.62632000  0.45550000  1.0
  C  C81  1  0.79959000  0.66853000  0.43577000  1.0
  C  C82  1  0.92160000  0.70464000  0.44095000  1.0
  C  C83  1  0.86118000  0.74356000  0.42365000  1.0
  C  C84  1  0.67944000  0.74730000  0.40094000  1.0
  C  C85  1  0.55967000  0.71092000  0.39542000  1.0
  C  C86  1  0.61963000  0.67226000  0.41281000  1.0
  C  C87  1  0.62383000  0.79051000  0.38090000  1.0
  C  C88  1  0.39236000  0.79428000  0.37212000  1.0
  C  C89  1  0.73488000  0.79275000  0.33701000  1.0
  C  C90  1  0.67281000  0.82837000  0.41031000  1.0
  C  C91  1  0.62585000  0.82451000  0.45379000  1.0
  C  C92  1  0.63411000  0.85980000  0.48048000  1.0
  C  C93  1  0.69820000  0.89945000  0.46484000  1.0
  C  C94  1  0.68668000  0.93748000  0.49335000  1.0
  C  C95  1  0.75634000  0.90292000  0.42213000  1.0
  C  C96  1  0.73827000  0.86793000  0.39497000  1.0
  C  C97  1  0.84811000  0.87368000  0.04451000  1.0
  C  C98  1  0.79959000  0.83147000  0.06424000  1.0
  C  C99  1  0.92161000  0.79536000  0.05906000  1.0
  C  C100  1  0.86118000  0.75643000  0.07636000  1.0
  C  C101  1  0.67946000  0.75270000  0.09906000  1.0
  C  C102  1  0.55970000  0.78908000  0.10459000  1.0
  C  C103  1  0.61964000  0.82774000  0.08720000  1.0
  C  C104  1  0.62383000  0.70949000  0.11910000  1.0
  C  C105  1  0.39236000  0.70572000  0.12788000  1.0
  C  C106  1  0.73487000  0.70725000  0.16299000  1.0
  C  C107  1  0.67280000  0.67163000  0.08969000  1.0
  C  C108  1  0.62584000  0.67549000  0.04621000  1.0
  C  C109  1  0.63408000  0.64021000  0.01952000  1.0
  C  C110  1  0.69817000  0.60056000  0.03516000  1.0
  C  C111  1  0.68664000  0.56252000  0.00665000  1.0
  C  C112  1  0.75632000  0.59708000  0.07786000  1.0
  C  C113  1  0.73825000  0.63207000  0.10503000  1.0
  C  C114  1  0.65191000  0.45550000  0.87368000  1.0
  C  C115  1  0.70041000  0.43577000  0.83147000  1.0
  C  C116  1  0.57840000  0.44095000  0.79536000  1.0
  C  C117  1  0.63882000  0.42365000  0.75644000  1.0
  C  C118  1  0.82055000  0.40095000  0.75270000  1.0
  C  C119  1  0.94031000  0.39542000  0.78908000  1.0
  C  C120  1  0.88036000  0.41280000  0.82774000  1.0
  C  C121  1  0.87617000  0.38090000  0.70949000  1.0
  C  C122  1  0.10764000  0.37213000  0.70572000  1.0
  C  C123  1  0.76512000  0.33701000  0.70725000  1.0
  C  C124  1  0.82720000  0.41031000  0.67163000  1.0
  C  C125  1  0.87416000  0.45379000  0.67549000  1.0
  C  C126  1  0.86591000  0.48048000  0.64020000  1.0
  C  C127  1  0.80183000  0.46484000  0.60055000  1.0
  C  C128  1  0.81338000  0.49335000  0.56252000  1.0
  C  C129  1  0.74368000  0.42214000  0.59708000  1.0
  C  C130  1  0.76175000  0.39498000  0.63207000  1.0
  C  C131  1  0.65190000  0.04450000  0.62632000  1.0
  C  C132  1  0.70041000  0.06423000  0.66853000  1.0
  C  C133  1  0.57839000  0.05905000  0.70464000  1.0
  C  C134  1  0.63881000  0.07635000  0.74356000  1.0
  C  C135  1  0.82055000  0.09905000  0.74730000  1.0
  C  C136  1  0.94031000  0.10458000  0.71092000  1.0
  C  C137  1  0.88036000  0.08719000  0.67226000  1.0
  C  C138  1  0.87617000  0.11910000  0.79051000  1.0
  C  C139  1  0.10763000  0.12787000  0.79428000  1.0
  C  C140  1  0.76511000  0.16299000  0.79275000  1.0
  C  C141  1  0.82719000  0.08969000  0.82837000  1.0
  C  C142  1  0.87416000  0.04621000  0.82451000  1.0
  C  C143  1  0.86592000  0.01952000  0.85979000  1.0
  C  C144  1  0.80183000  0.03516000  0.89944000  1.0
  C  C145  1  0.81338000  0.00665000  0.93748000  1.0
  C  C146  1  0.74367000  0.07786000  0.90292000  1.0
  C  C147  1  0.76173000  0.10502000  0.86793000  1.0
  C  C148  1  0.34810000  0.54450000  0.12632000  1.0
  C  C149  1  0.29959000  0.56423000  0.16853000  1.0
  C  C150  1  0.42161000  0.55905000  0.20464000  1.0
  C  C151  1  0.36119000  0.57635000  0.24356000  1.0
  C  C152  1  0.17945000  0.59905000  0.24730000  1.0
  C  C153  1  0.05968000  0.60457000  0.21092000  1.0
  C  C154  1  0.11963000  0.58719000  0.17226000  1.0
  C  C155  1  0.12384000  0.61910000  0.29051000  1.0
  C  C156  1  0.89237000  0.62787000  0.29428000  1.0
  C  C157  1  0.23489000  0.66299000  0.29275000  1.0
  C  C158  1  0.17282000  0.58969000  0.32837000  1.0
  C  C159  1  0.12586000  0.54621000  0.32451000  1.0
  C  C160  1  0.13409000  0.51951000  0.35979000  1.0
  C  C161  1  0.19817000  0.53516000  0.39944000  1.0
  C  C162  1  0.18661000  0.50665000  0.43748000  1.0
  C  C163  1  0.25633000  0.57786000  0.40292000  1.0
  C  C164  1  0.23827000  0.60502000  0.36793000  1.0
  C  C165  1  0.34810000  0.95550000  0.37368000  1.0
  C  C166  1  0.29959000  0.93577000  0.33147000  1.0
  C  C167  1  0.42161000  0.94095000  0.29536000  1.0
  C  C168  1  0.36117000  0.92365000  0.25644000  1.0
  C  C169  1  0.17943000  0.90095000  0.25270000  1.0
  C  C170  1  0.05967000  0.89543000  0.28908000  1.0
  C  C171  1  0.11963000  0.91281000  0.32774000  1.0
  C  C172  1  0.12382000  0.88090000  0.20949000  1.0
  C  C173  1  0.89235000  0.87213000  0.20572000  1.0
  C  C174  1  0.23488000  0.83702000  0.20725000  1.0
  C  C175  1  0.17280000  0.91031000  0.17163000  1.0
  C  C176  1  0.12586000  0.95379000  0.17549000  1.0
  C  C177  1  0.13411000  0.98049000  0.14021000  1.0
  C  C178  1  0.19819000  0.96484000  0.10056000  1.0
  C  C179  1  0.18666000  0.99335000  0.06253000  1.0
  C  C180  1  0.25633000  0.92214000  0.09708000  1.0
  C  C181  1  0.23825000  0.89498000  0.13207000  1.0
  C  C182  1  0.15189000  0.37368000  0.54450000  1.0
  C  C183  1  0.20040000  0.33147000  0.56423000  1.0
  C  C184  1  0.07839000  0.29536000  0.55905000  1.0
  C  C185  1  0.13881000  0.25644000  0.57635000  1.0
  C  C186  1  0.32055000  0.25270000  0.59905000  1.0
  C  C187  1  0.44031000  0.28908000  0.60458000  1.0
  C  C188  1  0.38037000  0.32774000  0.58719000  1.0
  C  C189  1  0.37616000  0.20949000  0.61910000  1.0
  C  C190  1  0.60762000  0.20572000  0.62788000  1.0
  C  C191  1  0.26509000  0.20725000  0.66299000  1.0
  C  C192  1  0.32718000  0.17163000  0.58969000  1.0
  C  C193  1  0.37414000  0.17549000  0.54621000  1.0
  C  C194  1  0.36589000  0.14020000  0.51952000  1.0
  C  C195  1  0.30182000  0.10055000  0.53516000  1.0
  C  C196  1  0.31338000  0.06252000  0.50665000  1.0
  C  C197  1  0.24368000  0.09708000  0.57786000  1.0
  C  C198  1  0.26174000  0.13207000  0.60502000  1.0
  C  C199  1  0.15189000  0.12632000  0.95550000  1.0
  C  C200  1  0.20040000  0.16853000  0.93577000  1.0
  C  C201  1  0.07839000  0.20464000  0.94095000  1.0
  C  C202  1  0.13882000  0.24357000  0.92365000  1.0
  C  C203  1  0.32055000  0.24730000  0.90094000  1.0
  C  C204  1  0.44030000  0.21092000  0.89542000  1.0
  C  C205  1  0.38035000  0.17226000  0.91280000  1.0
  C  C206  1  0.37617000  0.29051000  0.88090000  1.0
  C  C207  1  0.60764000  0.29428000  0.87212000  1.0
  C  C208  1  0.26513000  0.29275000  0.83701000  1.0
  C  C209  1  0.32720000  0.32837000  0.91031000  1.0
  C  C210  1  0.37415000  0.32451000  0.95379000  1.0
  C  C211  1  0.36591000  0.35979000  0.98048000  1.0
  C  C212  1  0.30182000  0.39945000  0.96484000  1.0
  C  C213  1  0.31335000  0.43748000  0.99335000  1.0
  C  C214  1  0.24368000  0.40292000  0.92214000  1.0
  C  C215  1  0.26175000  0.36793000  0.89497000  1.0
  O  O216  1  0.73229000  0.59544000  0.44545000  1.0
  O  O217  1  0.99743000  0.62502000  0.48155000  1.0
  O  O218  1  0.53934000  0.93684000  0.51970000  1.0
  O  O219  1  0.81644000  0.96768000  0.48935000  1.0
  O  O220  1  0.73231000  0.90456000  0.05455000  1.0
  O  O221  1  0.99743000  0.87498000  0.01846000  1.0
  O  O222  1  0.53931000  0.56316000  0.98029000  1.0
  O  O223  1  0.81639000  0.53232000  0.01065000  1.0
  O  O224  1  0.76768000  0.44545000  0.90456000  1.0
  O  O225  1  0.50259000  0.48155000  0.87498000  1.0
  O  O226  1  0.96071000  0.51970000  0.56316000  1.0
  O  O227  1  0.68360000  0.48935000  0.53233000  1.0
  O  O228  1  0.76769000  0.05455000  0.59544000  1.0
  O  O229  1  0.50258000  0.01845000  0.62502000  1.0
  O  O230  1  0.96071000  0.98030000  0.93684000  1.0
  O  O231  1  0.68361000  0.01065000  0.96767000  1.0
  O  O232  1  0.23230000  0.55454000  0.09544000  1.0
  O  O233  1  0.49742000  0.51845000  0.12502000  1.0
  O  O234  1  0.03927000  0.48030000  0.43684000  1.0
  O  O235  1  0.31638000  0.51065000  0.46767000  1.0
  O  O236  1  0.23232000  0.94545000  0.40456000  1.0
  O  O237  1  0.49742000  0.98155000  0.37498000  1.0
  O  O238  1  0.03934000  0.01971000  0.06316000  1.0
  O  O239  1  0.31643000  0.98935000  0.03233000  1.0
  O  O240  1  0.26768000  0.40456000  0.55455000  1.0
  O  O241  1  0.00257000  0.37498000  0.51845000  1.0
  O  O242  1  0.46070000  0.06316000  0.48030000  1.0
  O  O243  1  0.18363000  0.03232000  0.51066000  1.0
  O  O244  1  0.26768000  0.09544000  0.94545000  1.0
  O  O245  1  0.00257000  0.12503000  0.98155000  1.0
  O  O246  1  0.46068000  0.43684000  0.01970000  1.0
  O  O247  1  0.18359000  0.46767000  0.98935000  1.0
  F  F248  1  0.32943000  0.76927000  0.33938000  1.0
  F  F249  1  0.28542000  0.78275000  0.40763000  1.0
  F  F250  1  0.33719000  0.83482000  0.36269000  1.0
  F  F251  1  0.72080000  0.75563000  0.31511000  1.0
  F  F252  1  0.93451000  0.80108000  0.34263000  1.0
  F  F253  1  0.65891000  0.82403000  0.31118000  1.0
  F  F254  1  0.32942000  0.73073000  0.16062000  1.0
  F  F255  1  0.28542000  0.71725000  0.09237000  1.0
  F  F256  1  0.33718000  0.66518000  0.13731000  1.0
  F  F257  1  0.72079000  0.74436000  0.18490000  1.0
  F  F258  1  0.93450000  0.69892000  0.15737000  1.0
  F  F259  1  0.65889000  0.67597000  0.18882000  1.0
  F  F260  1  0.17057000  0.33938000  0.73073000  1.0
  F  F261  1  0.21459000  0.40763000  0.71725000  1.0
  F  F262  1  0.16282000  0.36269000  0.66518000  1.0
  F  F263  1  0.77920000  0.31511000  0.74437000  1.0
  F  F264  1  0.56550000  0.34264000  0.69892000  1.0
  F  F265  1  0.84109000  0.31119000  0.67598000  1.0
  F  F266  1  0.17056000  0.16062000  0.76927000  1.0
  F  F267  1  0.21457000  0.09237000  0.78274000  1.0
  F  F268  1  0.16282000  0.13730000  0.83482000  1.0
  F  F269  1  0.77919000  0.18489000  0.75563000  1.0
  F  F270  1  0.56548000  0.15737000  0.80107000  1.0
  F  F271  1  0.84108000  0.18881000  0.82403000  1.0
  F  F272  1  0.82945000  0.66062000  0.26927000  1.0
  F  F273  1  0.78542000  0.59237000  0.28275000  1.0
  F  F274  1  0.83719000  0.63731000  0.33482000  1.0
  F  F275  1  0.22082000  0.68489000  0.25564000  1.0
  F  F276  1  0.43452000  0.65736000  0.30108000  1.0
  F  F277  1  0.15894000  0.68881000  0.32403000  1.0
  F  F278  1  0.82943000  0.83939000  0.23073000  1.0
  F  F279  1  0.78541000  0.90763000  0.21725000  1.0
  F  F280  1  0.83718000  0.86269000  0.16518000  1.0
  F  F281  1  0.22081000  0.81511000  0.24437000  1.0
  F  F282  1  0.43451000  0.84264000  0.19892000  1.0
  F  F283  1  0.15892000  0.81119000  0.17598000  1.0
  F  F284  1  0.67054000  0.23073000  0.66062000  1.0
  F  F285  1  0.71458000  0.21725000  0.59237000  1.0
  F  F286  1  0.66279000  0.16518000  0.63731000  1.0
  F  F287  1  0.27916000  0.24437000  0.68489000  1.0
  F  F288  1  0.06546000  0.19892000  0.65736000  1.0
  F  F289  1  0.34105000  0.17598000  0.68881000  1.0
  F  F290  1  0.67057000  0.26927000  0.83938000  1.0
  F  F291  1  0.71458000  0.28275000  0.90763000  1.0
  F  F292  1  0.66282000  0.33482000  0.86269000  1.0
  F  F293  1  0.27919000  0.25564000  0.81510000  1.0
  F  F294  1  0.06550000  0.30108000  0.84263000  1.0
  F  F295  1  0.34111000  0.32403000  0.81118000  1.0
