# generated using pymatgen
data_H10PbC12(BrN)2
_symmetry_space_group_name_H-M   'P 1'
_cell_length_a   4.16669000
_cell_length_b   8.97080000
_cell_length_c   9.61218000
_cell_angle_alpha   74.79990000
_cell_angle_beta   87.00460000
_cell_angle_gamma   80.61070000
_symmetry_Int_Tables_number   1
_chemical_formula_structural   H10PbC12(BrN)2
_chemical_formula_sum   'H10 Pb1 C12 Br2 N2'
_cell_volume   342.05782452
_cell_formula_units_Z   1
loop_
 _symmetry_equiv_pos_site_id
 _symmetry_equiv_pos_as_xyz
  1  'x, y, z'
loop_
 _atom_site_type_symbol
 _atom_site_label
 _atom_site_symmetry_multiplicity
 _atom_site_fract_x
 _atom_site_fract_y
 _atom_site_fract_z
 _atom_site_occupancy
  H  H0  1  0.21745000  0.52240000  0.83719000  1.0
  H  H1  1  0.78210000  0.47771000  0.16273000  1.0
  H  H2  1  0.20420000  0.66786000  0.02875000  1.0
  H  H3  1  0.79528000  0.33224000  0.97118000  1.0
  H  H4  1  0.68064000  0.01175000  0.72271000  1.0
  H  H5  1  0.31898000  0.98833000  0.27729000  1.0
  H  H6  1  0.67681000  0.85180000  0.54704000  1.0
  H  H7  1  0.32315000  0.14823000  0.45297000  1.0
  H  H8  1  0.31914000  0.87958000  0.10669000  1.0
  H  H9  1  0.68071000  0.12042000  0.89333000  1.0
  Pb  Pb10  1  0.50131000  0.49977000  0.50009000  1.0
  C  C11  1  0.31796000  0.63148000  0.81712000  1.0
  C  C12  1  0.68169000  0.36860000  0.18281000  1.0
  C  C13  1  0.31111000  0.71218000  0.92281000  1.0
  C  C14  1  0.68846000  0.28792000  0.07713000  1.0
  C  C15  1  0.44260000  0.85234000  0.89314000  1.0
  C  C16  1  0.55709000  0.14772000  0.10684000  1.0
  C  C17  1  0.57445000  0.90427000  0.75391000  1.0
  C  C18  1  0.42522000  0.09580000  0.24608000  1.0
  C  C19  1  0.57158000  0.81610000  0.65503000  1.0
  C  C20  1  0.42827000  0.18394000  0.34497000  1.0
  C  C21  1  0.43667000  0.93382000  0.00598000  1.0
  C  C22  1  0.56313000  0.06620000  0.99403000  1.0
  Br  Br23  1  0.94685000  0.70575000  0.31614000  1.0
  Br  Br24  1  0.05525000  0.29376000  0.68409000  1.0
  N  N25  1  0.44615000  0.68164000  0.68504000  1.0
  N  N26  1  0.55375000  0.31839000  0.31494000  1.0
