# generated using pymatgen
data_H12PbC14N2(ClO5)2
_symmetry_space_group_name_H-M   'P 1'
_cell_length_a   8.22059000
_cell_length_b   9.35880000
_cell_length_c   12.55770000
_cell_angle_alpha   73.77930000
_cell_angle_beta   78.16980000
_cell_angle_gamma   85.12720000
_symmetry_Int_Tables_number   1
_chemical_formula_structural   H12PbC14N2(ClO5)2
_chemical_formula_sum   'H24 Pb2 C28 N4 Cl4 O20'
_cell_volume   907.56823608
_cell_formula_units_Z   2
loop_
 _symmetry_equiv_pos_site_id
 _symmetry_equiv_pos_as_xyz
  1  'x, y, z'
loop_
 _atom_site_type_symbol
 _atom_site_label
 _atom_site_symmetry_multiplicity
 _atom_site_fract_x
 _atom_site_fract_y
 _atom_site_fract_z
 _atom_site_occupancy
  H  H0  1  0.31970000  0.52413000  0.01671000  1.0
  H  H1  1  0.68029000  0.47587000  0.98329000  1.0
  H  H2  1  0.87653000  0.99439000  0.10735000  1.0
  H  H3  1  0.12348000  0.00561000  0.89264000  1.0
  H  H4  1  0.21583000  0.58603000  0.18427000  1.0
  H  H5  1  0.78417000  0.41397000  0.81573000  1.0
  H  H6  1  0.43658000  0.58828000  0.16325000  1.0
  H  H7  1  0.56342000  0.41172000  0.83676000  1.0
  H  H8  1  0.41746000  0.53677000  0.36877000  1.0
  H  H9  1  0.58254000  0.46322000  0.63124000  1.0
  H  H10  1  0.41139000  0.33119000  0.54933000  1.0
  H  H11  1  0.58861000  0.66880000  0.45067000  1.0
  H  H12  1  0.26234000  0.81925000  0.66013000  1.0
  H  H13  1  0.73768000  0.18075000  0.33987000  1.0
  H  H14  1  0.36589000  0.06408000  0.65130000  1.0
  H  H15  1  0.63411000  0.93592000  0.34870000  1.0
  H  H16  1  0.02401000  0.64005000  0.40258000  1.0
  H  H17  1  0.97599000  0.35994000  0.59743000  1.0
  H  H18  1  0.14253000  0.65885000  0.56738000  1.0
  H  H19  1  0.85750000  0.34114000  0.43261000  1.0
  H  H20  1  0.88141000  0.80049000  0.24731000  1.0
  H  H21  1  0.11856000  0.19952000  0.75270000  1.0
  H  H22  1  0.08148000  0.78667000  0.16632000  1.0
  H  H23  1  0.91849000  0.21332000  0.83369000  1.0
  Pb  Pb24  1  0.20614000  0.19987000  0.11867000  1.0
  Pb  Pb25  1  0.79385000  0.80013000  0.88133000  1.0
  C  C26  1  0.33102000  0.51693000  0.17668000  1.0
  C  C27  1  0.66898000  0.48307000  0.82332000  1.0
  C  C28  1  0.32762000  0.39572000  0.28464000  1.0
  C  C29  1  0.67238000  0.60428000  0.71537000  1.0
  C  C30  1  0.37621000  0.42569000  0.37773000  1.0
  C  C31  1  0.62378000  0.57431000  0.62227000  1.0
  C  C32  1  0.37382000  0.31296000  0.47589000  1.0
  C  C33  1  0.62617000  0.68703000  0.52411000  1.0
  C  C34  1  0.32192000  0.16985000  0.48245000  1.0
  C  C35  1  0.67807000  0.83015000  0.51755000  1.0
  C  C36  1  0.26946000  0.15068000  0.38654000  1.0
  C  C37  1  0.73053000  0.84932000  0.61345000  1.0
  C  C38  1  0.20527000  0.00964000  0.39239000  1.0
  C  C39  1  0.79473000  0.99036000  0.60761000  1.0
  C  C40  1  0.20495000  0.89039000  0.49140000  1.0
  C  C41  1  0.79505000  0.10961000  0.50860000  1.0
  C  C42  1  0.26489000  0.91198000  0.58469000  1.0
  C  C43  1  0.73512000  0.08802000  0.41531000  1.0
  C  C44  1  0.32015000  0.04734000  0.58049000  1.0
  C  C45  1  0.67985000  0.95266000  0.41951000  1.0
  C  C46  1  0.07645000  0.86849000  0.30916000  1.0
  C  C47  1  0.92354000  0.13150000  0.69084000  1.0
  C  C48  1  0.07753000  0.74262000  0.40281000  1.0
  C  C49  1  0.92247000  0.25738000  0.59719000  1.0
  C  C50  1  0.14175000  0.75337000  0.49319000  1.0
  C  C51  1  0.85826000  0.24662000  0.50680000  1.0
  C  C52  1  0.99981000  0.85775000  0.21314000  1.0
  C  C53  1  0.00018000  0.14225000  0.78687000  1.0
  N  N54  1  0.27538000  0.26268000  0.29004000  1.0
  N  N55  1  0.72462000  0.73732000  0.70996000  1.0
  N  N56  1  0.14178000  0.99588000  0.30402000  1.0
  N  N57  1  0.85822000  0.00412000  0.69599000  1.0
  Cl  Cl58  1  0.47548000  0.09868000  0.84067000  1.0
  Cl  Cl59  1  0.52453000  0.90133000  0.15932000  1.0
  Cl  Cl60  1  0.86144000  0.49272000  0.17358000  1.0
  Cl  Cl61  1  0.13857000  0.50730000  0.82641000  1.0
  O  O62  1  0.34376000  0.45166000  0.08531000  1.0
  O  O63  1  0.65625000  0.54834000  0.91470000  1.0
  O  O64  1  0.97497000  0.00056000  0.13883000  1.0
  O  O65  1  0.02502000  0.99944000  0.86117000  1.0
  O  O66  1  0.59359000  0.12611000  0.90380000  1.0
  O  O67  1  0.40641000  0.87390000  0.09620000  1.0
  O  O68  1  0.30440000  0.11716000  0.90053000  1.0
  O  O69  1  0.69560000  0.88286000  0.09946000  1.0
  O  O70  1  0.49923000  0.20228000  0.72856000  1.0
  O  O71  1  0.50079000  0.79772000  0.27143000  1.0
  O  O72  1  0.49796000  0.94466000  0.83049000  1.0
  O  O73  1  0.50204000  0.05534000  0.16951000  1.0
  O  O74  1  0.93998000  0.34188000  0.19893000  1.0
  O  O75  1  0.06004000  0.65814000  0.80107000  1.0
  O  O76  1  0.97411000  0.59579000  0.08678000  1.0
  O  O77  1  0.02590000  0.40422000  0.91322000  1.0
  O  O78  1  0.70843000  0.48478000  0.13388000  1.0
  O  O79  1  0.29158000  0.51522000  0.86612000  1.0
  O  O80  1  0.82333000  0.53908000  0.27755000  1.0
  O  O81  1  0.17668000  0.46093000  0.72245000  1.0
