# generated using pymatgen
data_Al2H15C20N3O10
_symmetry_space_group_name_H-M   'P 1'
_cell_length_a   6.62707000
_cell_length_b   11.03736019
_cell_length_c   11.09656931
_cell_angle_alpha   76.35107709
_cell_angle_beta   72.97706731
_cell_angle_gamma   73.48750976
_symmetry_Int_Tables_number   1
_chemical_formula_structural   Al2H15C20N3O10
_chemical_formula_sum   'Al2 H15 C20 N3 O10'
_cell_volume   733.68999397
_cell_formula_units_Z   1
loop_
 _symmetry_equiv_pos_site_id
 _symmetry_equiv_pos_as_xyz
  1  'x, y, z'
loop_
 _atom_site_type_symbol
 _atom_site_label
 _atom_site_symmetry_multiplicity
 _atom_site_fract_x
 _atom_site_fract_y
 _atom_site_fract_z
 _atom_site_occupancy
  Al  Al0  1  0.49805000  0.50635000  0.48933000  1.0
  Al  Al1  1  0.99529000  0.50179000  0.49584000  1.0
  H  H2  1  0.19734000  0.66473000  0.42934000  1.0
  H  H3  1  0.79013000  0.34307000  0.55282000  1.0
  H  H4  1  0.78508000  0.42963000  0.88692000  1.0
  H  H5  1  0.35943000  0.54979000  0.86405000  1.0
  H  H6  1  0.66940000  0.43719000  0.12307000  1.0
  H  H7  1  0.81894000  0.75004000  0.69085000  1.0
  H  H8  1  0.56694000  0.22046000  0.67790000  1.0
  H  H9  1  0.21844000  0.12804000  0.39650000  1.0
  H  H10  1  0.34813000  0.89181000  0.40125000  1.0
  H  H11  1  0.23629000  0.56814000  0.20163000  1.0
  H  H12  1  0.41688000  0.58761000  0.05118000  1.0
  H  H13  1  0.99493000  0.74609000  0.85303000  1.0
  H  H14  1  0.93435000  0.87570000  0.92449000  1.0
  H  H15  1  0.79857000  0.20088000  0.81195000  1.0
  H  H16  1  0.98818000  0.06542000  0.83635000  1.0
  C  C17  1  0.63759000  0.72890000  0.51016000  1.0
  C  C18  1  0.85248000  0.51353000  0.26232000  1.0
  C  C19  1  0.34487000  0.27510000  0.49958000  1.0
  C  C20  1  0.15169000  0.48889000  0.72276000  1.0
  C  C21  1  0.93995000  0.50455000  0.12519000  1.0
  C  C22  1  0.07879000  0.49102000  0.86328000  1.0
  C  C23  1  0.14196000  0.53548000  0.05371000  1.0
  C  C24  1  0.88185000  0.45856000  0.93449000  1.0
  C  C25  1  0.20663000  0.52681000  0.92197000  1.0
  C  C26  1  0.81791000  0.46447000  0.06384000  1.0
  C  C27  1  0.55702000  0.86617000  0.52484000  1.0
  C  C28  1  0.63130000  0.92417000  0.60149000  1.0
  C  C29  1  0.40442000  0.93905000  0.45659000  1.0
  C  C30  1  0.76656000  0.85355000  0.68453000  1.0
  C  C31  1  0.83095000  0.91127000  0.76056000  1.0
  C  C32  1  0.40965000  0.13287000  0.52030000  1.0
  C  C33  1  0.33135000  0.07107000  0.45407000  1.0
  C  C34  1  0.55443000  0.06113000  0.59944000  1.0
  C  C35  1  0.62353000  0.11787000  0.67776000  1.0
  C  C36  1  0.76301000  0.04777000  0.75389000  1.0
  N  N37  1  0.26923000  0.57587000  0.10491000  1.0
  N  N38  1  0.96551000  0.84322000  0.84091000  1.0
  N  N39  1  0.83156000  0.10351000  0.83052000  1.0
  O  O40  1  0.51222000  0.67752000  0.48051000  1.0
  O  O41  1  0.97659000  0.53468000  0.32091000  1.0
  O  O42  1  0.15911000  0.33034000  0.47673000  1.0
  O  O43  1  0.33924000  0.50830000  0.66611000  1.0
  O  O44  1  0.48060000  0.33506000  0.50320000  1.0
  O  O45  1  0.01955000  0.46797000  0.67058000  1.0
  O  O46  1  0.82791000  0.66999000  0.52325000  1.0
  O  O47  1  0.65849000  0.50151000  0.31447000  1.0
  O  O48  1  0.24005000  0.57210000  0.43525000  1.0
  O  O49  1  0.74988000  0.43545000  0.54934000  1.0
