# generated using pymatgen
data_HgH8C10(IN2)2
_symmetry_space_group_name_H-M   'P 1'
_cell_length_a   13.24440000
_cell_length_b   13.25610000
_cell_length_c   17.19940000
_cell_angle_alpha   99.73230000
_cell_angle_beta   111.61700000
_cell_angle_gamma   107.60400000
_symmetry_Int_Tables_number   1
_chemical_formula_structural   HgH8C10(IN2)2
_chemical_formula_sum   'Hg6 H48 C60 I12 N24'
_cell_volume   2538.27287320
_cell_formula_units_Z   6
loop_
 _symmetry_equiv_pos_site_id
 _symmetry_equiv_pos_as_xyz
  1  'x, y, z'
loop_
 _atom_site_type_symbol
 _atom_site_label
 _atom_site_symmetry_multiplicity
 _atom_site_fract_x
 _atom_site_fract_y
 _atom_site_fract_z
 _atom_site_occupancy
  Hg  Hg0  1  0.31622000  0.06621000  0.25014000  1.0
  Hg  Hg1  1  0.68378000  0.93380000  0.74985000  1.0
  Hg  Hg2  1  0.06488000  0.81719000  0.48532000  1.0
  Hg  Hg3  1  0.83124000  0.57968000  0.01463000  1.0
  Hg  Hg4  1  0.93512000  0.18280000  0.51468000  1.0
  Hg  Hg5  1  0.16875000  0.42031000  0.98536000  1.0
  H  H6  1  0.32388000  0.49383000  0.36096000  1.0
  H  H7  1  0.63347000  0.96357000  0.13915000  1.0
  H  H8  1  0.67612000  0.50617000  0.63904000  1.0
  H  H9  1  0.36654000  0.03644000  0.86086000  1.0
  H  H10  1  0.51641000  0.84907000  0.48418000  1.0
  H  H11  1  0.86513000  0.03237000  0.01541000  1.0
  H  H12  1  0.48358000  0.15093000  0.51582000  1.0
  H  H13  1  0.13487000  0.96762000  0.98458000  1.0
  H  H14  1  0.70675000  0.63990000  0.47342000  1.0
  H  H15  1  0.66657000  0.23337000  0.02631000  1.0
  H  H16  1  0.29324000  0.36010000  0.52658000  1.0
  H  H17  1  0.33344000  0.76664000  0.97370000  1.0
  H  H18  1  0.32952000  0.33790000  0.33766000  1.0
  H  H19  1  0.50049000  0.99208000  0.16226000  1.0
  H  H20  1  0.67048000  0.66210000  0.66233000  1.0
  H  H21  1  0.49953000  0.00794000  0.83776000  1.0
  H  H22  1  0.61801000  0.25649000  0.35164000  1.0
  H  H23  1  0.40439000  0.26599000  0.14804000  1.0
  H  H24  1  0.38199000  0.74352000  0.64837000  1.0
  H  H25  1  0.59561000  0.73402000  0.85195000  1.0
  H  H26  1  0.69958000  0.48577000  0.41643000  1.0
  H  H27  1  0.56899000  0.28289000  0.08318000  1.0
  H  H28  1  0.30042000  0.51424000  0.58358000  1.0
  H  H29  1  0.43103000  0.71712000  0.91682000  1.0
  H  H30  1  0.34859000  0.81805000  0.51475000  1.0
  H  H31  1  0.80334000  0.83393000  0.98506000  1.0
  H  H32  1  0.65141000  0.18195000  0.48525000  1.0
  H  H33  1  0.19664000  0.16606000  0.01493000  1.0
  H  H34  1  0.01864000  0.62708000  0.29282000  1.0
  H  H35  1  0.83444000  0.72663000  0.20725000  1.0
  H  H36  1  0.98136000  0.37293000  0.70718000  1.0
  H  H37  1  0.16556000  0.27335000  0.79273000  1.0
  H  H38  1  0.18682000  0.55407000  0.27346000  1.0
  H  H39  1  0.78135000  0.91440000  0.22661000  1.0
  H  H40  1  0.81317000  0.44593000  0.72654000  1.0
  H  H41  1  0.21866000  0.08559000  0.77339000  1.0
  H  H42  1  0.68217000  0.94729000  0.43859000  1.0
  H  H43  1  0.00895000  0.24322000  0.06068000  1.0
  H  H44  1  0.31782000  0.05271000  0.56142000  1.0
  H  H45  1  0.99105000  0.75677000  0.93931000  1.0
  H  H46  1  0.00792000  0.00726000  0.64946000  1.0
  H  H47  1  0.85777000  0.35840000  0.85022000  1.0
  H  H48  1  0.99207000  0.99274000  0.35055000  1.0
  H  H49  1  0.14222000  0.64160000  0.14977000  1.0
  H  H50  1  0.84240000  0.80260000  0.62542000  1.0
  H  H51  1  0.67703000  0.21704000  0.87437000  1.0
  H  H52  1  0.15759000  0.19740000  0.37459000  1.0
  H  H53  1  0.32296000  0.78296000  0.12563000  1.0
  C  C54  1  0.51535000  0.55312000  0.41512000  1.0
  C  C55  1  0.63827000  0.10055000  0.08480000  1.0
  C  C56  1  0.48466000  0.44689000  0.58488000  1.0
  C  C57  1  0.36174000  0.89945000  0.91521000  1.0
  C  C58  1  0.40827000  0.56530000  0.39528000  1.0
  C  C59  1  0.67053000  0.01354000  0.10474000  1.0
  C  C60  1  0.59173000  0.43469000  0.60473000  1.0
  C  C61  1  0.32949000  0.98647000  0.89527000  1.0
  C  C62  1  0.40924000  0.67160000  0.41985000  1.0
  C  C63  1  0.75218000  0.98983000  0.08004000  1.0
  C  C64  1  0.59076000  0.32840000  0.58015000  1.0
  C  C65  1  0.24782000  0.01017000  0.91996000  1.0
  C  C66  1  0.51533000  0.76617000  0.46392000  1.0
  C  C67  1  0.80262000  0.05166000  0.03585000  1.0
  C  C68  1  0.48466000  0.23383000  0.53608000  1.0
  C  C69  1  0.19739000  0.94834000  0.96415000  1.0
  C  C70  1  0.62076000  0.75189000  0.48250000  1.0
  C  C71  1  0.76963000  0.13839000  0.01725000  1.0
  C  C72  1  0.37923000  0.24811000  0.51750000  1.0
  C  C73  1  0.23038000  0.86161000  0.98275000  1.0
  C  C74  1  0.62253000  0.64649000  0.45996000  1.0
  C  C75  1  0.68675000  0.16275000  0.03986000  1.0
  C  C76  1  0.37747000  0.35352000  0.54004000  1.0
  C  C77  1  0.31327000  0.83726000  0.96015000  1.0
  C  C78  1  0.41881000  0.34608000  0.35174000  1.0
  C  C79  1  0.49443000  0.06718000  0.14816000  1.0
  C  C80  1  0.58119000  0.65393000  0.64826000  1.0
  C  C81  1  0.50558000  0.93283000  0.85184000  1.0
  C  C82  1  0.57022000  0.30782000  0.36014000  1.0
  C  C83  1  0.44737000  0.20983000  0.13956000  1.0
  C  C84  1  0.42979000  0.69218000  0.63986000  1.0
  C  C85  1  0.55264000  0.79018000  0.86044000  1.0
  C  C86  1  0.61224000  0.42154000  0.39346000  1.0
  C  C87  1  0.52784000  0.21860000  0.10624000  1.0
  C  C88  1  0.38776000  0.57846000  0.60655000  1.0
  C  C89  1  0.47217000  0.78141000  0.89376000  1.0
  C  C90  1  0.28047000  0.75749000  0.45182000  1.0
  C  C91  1  0.80581000  0.82895000  0.04805000  1.0
  C  C92  1  0.71953000  0.24252000  0.54818000  1.0
  C  C93  1  0.19417000  0.17105000  0.95194000  1.0
  C  C94  1  0.11222000  0.65578000  0.33645000  1.0
  C  C95  1  0.81960000  0.77650000  0.16357000  1.0
  C  C96  1  0.88778000  0.34423000  0.66354000  1.0
  C  C97  1  0.18039000  0.22348000  0.83642000  1.0
  C  C98  1  0.19321000  0.61741000  0.32618000  1.0
  C  C99  1  0.79177000  0.86789000  0.17383000  1.0
  C  C100  1  0.80678000  0.38259000  0.67382000  1.0
  C  C101  1  0.20823000  0.13210000  0.82616000  1.0
  C  C102  1  0.74913000  0.93846000  0.49367000  1.0
  C  C103  1  0.94496000  0.25519000  0.00571000  1.0
  C  C104  1  0.25086000  0.06154000  0.50634000  1.0
  C  C105  1  0.05504000  0.74481000  0.99429000  1.0
  C  C106  1  0.91571000  0.96427000  0.60167000  1.0
  C  C107  1  0.86264000  0.31397000  0.89798000  1.0
  C  C108  1  0.08428000  0.03573000  0.39834000  1.0
  C  C109  1  0.13736000  0.68602000  0.10202000  1.0
  C  C110  1  0.83501000  0.86265000  0.59043000  1.0
  C  C111  1  0.77218000  0.24459000  0.90926000  1.0
  C  C112  1  0.16499000  0.13735000  0.40958000  1.0
  C  C113  1  0.22782000  0.75541000  0.09074000  1.0
  I  I114  1  0.42292000  0.95474000  0.34567000  1.0
  I  I115  1  0.10912000  0.07765000  0.15492000  1.0
  I  I116  1  0.57704000  0.04524000  0.65431000  1.0
  I  I117  1  0.89087000  0.92235000  0.84508000  1.0
  I  I118  1  0.83573000  0.69323000  0.37062000  1.0
  I  I119  1  0.82229000  0.46512000  0.12918000  1.0
  I  I120  1  0.16427000  0.30677000  0.62938000  1.0
  I  I121  1  0.17779000  0.53487000  0.87082000  1.0
  I  I122  1  0.21095000  0.86663000  0.65975000  1.0
  I  I123  1  0.70655000  0.55098000  0.84009000  1.0
  I  I124  1  0.78905000  0.13336000  0.34025000  1.0
  I  I125  1  0.29339000  0.44895000  0.15989000  1.0
  N  N126  1  0.51513000  0.44588000  0.38819000  1.0
  N  N127  1  0.55772000  0.12701000  0.11164000  1.0
  N  N128  1  0.48487000  0.55412000  0.61181000  1.0
  N  N129  1  0.44230000  0.87300000  0.88837000  1.0
  N  N130  1  0.44990000  0.26224000  0.33507000  1.0
  N  N131  1  0.42703000  0.11475000  0.16475000  1.0
  N  N132  1  0.55010000  0.73776000  0.66493000  1.0
  N  N133  1  0.57297000  0.88526000  0.83525000  1.0
  N  N134  1  0.30042000  0.68280000  0.40009000  1.0
  N  N135  1  0.78319000  0.90091000  0.09984000  1.0
  N  N136  1  0.69958000  0.31720000  0.59991000  1.0
  N  N137  1  0.21680000  0.09909000  0.90016000  1.0
  N  N138  1  0.16759000  0.74192000  0.41495000  1.0
  N  N139  1  0.82696000  0.75303000  0.08497000  1.0
  N  N140  1  0.83241000  0.25809000  0.58505000  1.0
  N  N141  1  0.17302000  0.24696000  0.91501000  1.0
  N  N142  1  0.72908000  0.84744000  0.52213000  1.0
  N  N143  1  0.82540000  0.20689000  0.97746000  1.0
  N  N144  1  0.27091000  0.15257000  0.47787000  1.0
  N  N145  1  0.17460000  0.79310000  0.02254000  1.0
  N  N146  1  0.86102000  0.00961000  0.54062000  1.0
  N  N147  1  0.96914000  0.32018000  0.95884000  1.0
  N  N148  1  0.13898000  0.99039000  0.45938000  1.0
  N  N149  1  0.03086000  0.67981000  0.04115000  1.0
