# generated using pymatgen
data_CdH12C20(NO2)2
_symmetry_space_group_name_H-M   'P 1'
_cell_length_a   9.65586000
_cell_length_b   11.43940000
_cell_length_c   18.09050000
_cell_angle_alpha   84.23510000
_cell_angle_beta   89.99960000
_cell_angle_gamma   89.99980000
_symmetry_Int_Tables_number   1
_chemical_formula_structural   CdH12C20(NO2)2
_chemical_formula_sum   'Cd4 H48 C80 N8 O16'
_cell_volume   1988.12061725
_cell_formula_units_Z   4
loop_
 _symmetry_equiv_pos_site_id
 _symmetry_equiv_pos_as_xyz
  1  'x, y, z'
loop_
 _atom_site_type_symbol
 _atom_site_label
 _atom_site_symmetry_multiplicity
 _atom_site_fract_x
 _atom_site_fract_y
 _atom_site_fract_z
 _atom_site_occupancy
  Cd  Cd0  1  0.77106000  0.83854000  0.78449000  1.0
  Cd  Cd1  1  0.77105000  0.16146000  0.71551000  1.0
  Cd  Cd2  1  0.22895000  0.16146000  0.21552000  1.0
  Cd  Cd3  1  0.22895000  0.83854000  0.28448000  1.0
  H  H4  1  0.12816000  0.59589000  0.89089000  1.0
  H  H5  1  0.12815000  0.40413000  0.60911000  1.0
  H  H6  1  0.87185000  0.40410000  0.10911000  1.0
  H  H7  1  0.87186000  0.59588000  0.39088000  1.0
  H  H8  1  0.76169000  0.56844000  0.02481000  1.0
  H  H9  1  0.76170000  0.43155000  0.47518000  1.0
  H  H10  1  0.23832000  0.43155000  0.97519000  1.0
  H  H11  1  0.23830000  0.56846000  0.52481000  1.0
  H  H12  1  0.79443000  0.89887000  0.95300000  1.0
  H  H13  1  0.79444000  0.10113000  0.54700000  1.0
  H  H14  1  0.20554000  0.10113000  0.04700000  1.0
  H  H15  1  0.20555000  0.89887000  0.45299000  1.0
  H  H16  1  0.10748000  0.16697000  0.92161000  1.0
  H  H17  1  0.10751000  0.83303000  0.57839000  1.0
  H  H18  1  0.89248000  0.83303000  0.07839000  1.0
  H  H19  1  0.89249000  0.16696000  0.42160000  1.0
  H  H20  1  0.82801000  0.63237000  0.67207000  1.0
  H  H21  1  0.82799000  0.36764000  0.82792000  1.0
  H  H22  1  0.17200000  0.36762000  0.32793000  1.0
  H  H23  1  0.17202000  0.63237000  0.17207000  1.0
  H  H24  1  0.69312000  0.48285000  0.60677000  1.0
  H  H25  1  0.69311000  0.51715000  0.89323000  1.0
  H  H26  1  0.30689000  0.51715000  0.39324000  1.0
  H  H27  1  0.30691000  0.48284000  0.10677000  1.0
  H  H28  1  0.43640000  0.48107000  0.61627000  1.0
  H  H29  1  0.43638000  0.51893000  0.88374000  1.0
  H  H30  1  0.56362000  0.51893000  0.38373000  1.0
  H  H31  1  0.56364000  0.48107000  0.11627000  1.0
  H  H32  1  0.21966000  0.56630000  0.66676000  1.0
  H  H33  1  0.21965000  0.43369000  0.83325000  1.0
  H  H34  1  0.78035000  0.43370000  0.33323000  1.0
  H  H35  1  0.78036000  0.56631000  0.16677000  1.0
  H  H36  1  0.10907000  0.70588000  0.74558000  1.0
  H  H37  1  0.10907000  0.29411000  0.75444000  1.0
  H  H38  1  0.89093000  0.29411000  0.25442000  1.0
  H  H39  1  0.89093000  0.70590000  0.24558000  1.0
  H  H40  1  0.54360000  0.99466000  0.86848000  1.0
  H  H41  1  0.54360000  0.00535000  0.63152000  1.0
  H  H42  1  0.45639000  0.00534000  0.13152000  1.0
  H  H43  1  0.45639000  0.99466000  0.36848000  1.0
  H  H44  1  0.28560000  0.00194000  0.89117000  1.0
  H  H45  1  0.28560000  0.99805000  0.60883000  1.0
  H  H46  1  0.71439000  0.99805000  0.10882000  1.0
  H  H47  1  0.71439000  0.00196000  0.39118000  1.0
  H  H48  1  0.13163000  0.86166000  0.83046000  1.0
  H  H49  1  0.13162000  0.13833000  0.66955000  1.0
  H  H50  1  0.86836000  0.13833000  0.16954000  1.0
  H  H51  1  0.86837000  0.86168000  0.33046000  1.0
  C  C52  1  0.86971000  0.68470000  0.90220000  1.0
  C  C53  1  0.86971000  0.31530000  0.59780000  1.0
  C  C54  1  0.13030000  0.31528000  0.09781000  1.0
  C  C55  1  0.13031000  0.68471000  0.40219000  1.0
  C  C56  1  0.93873000  0.59092000  0.95334000  1.0
  C  C57  1  0.93873000  0.40908000  0.54666000  1.0
  C  C58  1  0.06128000  0.40907000  0.04667000  1.0
  C  C59  1  0.06129000  0.59093000  0.45333000  1.0
  C  C60  1  0.07332000  0.55303000  0.93891000  1.0
  C  C61  1  0.07331000  0.44697000  0.56109000  1.0
  C  C62  1  0.92669000  0.44695000  0.06110000  1.0
  C  C63  1  0.92670000  0.55304000  0.43890000  1.0
  C  C64  1  0.86611000  0.53725000  0.01479000  1.0
  C  C65  1  0.86611000  0.46274000  0.48521000  1.0
  C  C66  1  0.13390000  0.46274000  0.98522000  1.0
  C  C67  1  0.13391000  0.53727000  0.51478000  1.0
  C  C68  1  0.88903000  0.07744000  0.85470000  1.0
  C  C69  1  0.88905000  0.92256000  0.64530000  1.0
  C  C70  1  0.11094000  0.92255000  0.14529000  1.0
  C  C71  1  0.11095000  0.07744000  0.35470000  1.0
  C  C72  1  0.94568000  0.03695000  0.92979000  1.0
  C  C73  1  0.94570000  0.96305000  0.57021000  1.0
  C  C74  1  0.05428000  0.96304000  0.07021000  1.0
  C  C75  1  0.05429000  0.03695000  0.42979000  1.0
  C  C76  1  0.88394000  0.94328000  0.97391000  1.0
  C  C77  1  0.88396000  0.05671000  0.52609000  1.0
  C  C78  1  0.11602000  0.05672000  0.02608000  1.0
  C  C79  1  0.11604000  0.94328000  0.47391000  1.0
  C  C80  1  0.06168000  0.09364000  0.95641000  1.0
  C  C81  1  0.06170000  0.90636000  0.54358000  1.0
  C  C82  1  0.93829000  0.90636000  0.04359000  1.0
  C  C83  1  0.93830000  0.09363000  0.45641000  1.0
  C  C84  1  0.71520000  0.62711000  0.67548000  1.0
  C  C85  1  0.71519000  0.37290000  0.82452000  1.0
  C  C86  1  0.28481000  0.37289000  0.32453000  1.0
  C  C87  1  0.28482000  0.62711000  0.17547000  1.0
  C  C88  1  0.64000000  0.54553000  0.63828000  1.0
  C  C89  1  0.63999000  0.45448000  0.86172000  1.0
  C  C90  1  0.36001000  0.45448000  0.36172000  1.0
  C  C91  1  0.36002000  0.54553000  0.13828000  1.0
  C  C92  1  0.49729000  0.54442000  0.64386000  1.0
  C  C93  1  0.49728000  0.45559000  0.85615000  1.0
  C  C94  1  0.50272000  0.45559000  0.35614000  1.0
  C  C95  1  0.50274000  0.54442000  0.14386000  1.0
  C  C96  1  0.42952000  0.62441000  0.68627000  1.0
  C  C97  1  0.42950000  0.37559000  0.81374000  1.0
  C  C98  1  0.57049000  0.37558000  0.31373000  1.0
  C  C99  1  0.57051000  0.62442000  0.18627000  1.0
  C  C100  1  0.51424000  0.70295000  0.72250000  1.0
  C  C101  1  0.51424000  0.29705000  0.77750000  1.0
  C  C102  1  0.48576000  0.29705000  0.27750000  1.0
  C  C103  1  0.48576000  0.70296000  0.22250000  1.0
  C  C104  1  0.28235000  0.62714000  0.69522000  1.0
  C  C105  1  0.28232000  0.37285000  0.80479000  1.0
  C  C106  1  0.71767000  0.37285000  0.30478000  1.0
  C  C107  1  0.71768000  0.62715000  0.19522000  1.0
  C  C108  1  0.22104000  0.70313000  0.73883000  1.0
  C  C109  1  0.22103000  0.29687000  0.76117000  1.0
  C  C110  1  0.77896000  0.29687000  0.26116000  1.0
  C  C111  1  0.77898000  0.70314000  0.23884000  1.0
  C  C112  1  0.30304000  0.78334000  0.77631000  1.0
  C  C113  1  0.30302000  0.21666000  0.72369000  1.0
  C  C114  1  0.69696000  0.21665000  0.22369000  1.0
  C  C115  1  0.69697000  0.78335000  0.27631000  1.0
  C  C116  1  0.44952000  0.78482000  0.76791000  1.0
  C  C117  1  0.44951000  0.21517000  0.73209000  1.0
  C  C118  1  0.55049000  0.21517000  0.23209000  1.0
  C  C119  1  0.55049000  0.78484000  0.26791000  1.0
  C  C120  1  0.47230000  0.93564000  0.84367000  1.0
  C  C121  1  0.47230000  0.06437000  0.65633000  1.0
  C  C122  1  0.52769000  0.06436000  0.15633000  1.0
  C  C123  1  0.52769000  0.93564000  0.34367000  1.0
  C  C124  1  0.32859000  0.93954000  0.85568000  1.0
  C  C125  1  0.32858000  0.06046000  0.64433000  1.0
  C  C126  1  0.67140000  0.06046000  0.14432000  1.0
  C  C127  1  0.67139000  0.93955000  0.35568000  1.0
  C  C128  1  0.24355000  0.86329000  0.82199000  1.0
  C  C129  1  0.24355000  0.13670000  0.67802000  1.0
  C  C130  1  0.75644000  0.13670000  0.17801000  1.0
  C  C131  1  0.75644000  0.86330000  0.32199000  1.0
  N  N132  1  0.53050000  0.86073000  0.80131000  1.0
  N  N133  1  0.53050000  0.13928000  0.69869000  1.0
  N  N134  1  0.46949000  0.13927000  0.19870000  1.0
  N  N135  1  0.46950000  0.86073000  0.30131000  1.0
  N  N136  1  0.65405000  0.70265000  0.71638000  1.0
  N  N137  1  0.65404000  0.29736000  0.78362000  1.0
  N  N138  1  0.34596000  0.29735000  0.28363000  1.0
  N  N139  1  0.34597000  0.70264000  0.21637000  1.0
  O  O140  1  0.74279000  0.70682000  0.91138000  1.0
  O  O141  1  0.74278000  0.29318000  0.58862000  1.0
  O  O142  1  0.25723000  0.29318000  0.08863000  1.0
  O  O143  1  0.25723000  0.70682000  0.41138000  1.0
  O  O144  1  0.94297000  0.73626000  0.84908000  1.0
  O  O145  1  0.94296000  0.26375000  0.65092000  1.0
  O  O146  1  0.05704000  0.26372000  0.15092000  1.0
  O  O147  1  0.05705000  0.73626000  0.34907000  1.0
  O  O148  1  0.78369000  0.02260000  0.83039000  1.0
  O  O149  1  0.78370000  0.97740000  0.66961000  1.0
  O  O150  1  0.21629000  0.97740000  0.16960000  1.0
  O  O151  1  0.21628000  0.02260000  0.33038000  1.0
  O  O152  1  0.94278000  0.16487000  0.81714000  1.0
  O  O153  1  0.94282000  0.83515000  0.68287000  1.0
  O  O154  1  0.05720000  0.83512000  0.18286000  1.0
  O  O155  1  0.05721000  0.16488000  0.31714000  1.0
