# generated using pymatgen
data_CdH16(C12N5)2
_symmetry_space_group_name_H-M   'P 1'
_cell_length_a   6.56770000
_cell_length_b   13.88160000
_cell_length_c   13.88150000
_cell_angle_alpha   80.54290000
_cell_angle_beta   79.84770000
_cell_angle_gamma   79.84950000
_symmetry_Int_Tables_number   1
_chemical_formula_structural   CdH16(C12N5)2
_chemical_formula_sum   'Cd2 H32 C48 N20'
_cell_volume   1214.61472940
_cell_formula_units_Z   2
loop_
 _symmetry_equiv_pos_site_id
 _symmetry_equiv_pos_as_xyz
  1  'x, y, z'
loop_
 _atom_site_type_symbol
 _atom_site_label
 _atom_site_symmetry_multiplicity
 _atom_site_fract_x
 _atom_site_fract_y
 _atom_site_fract_z
 _atom_site_occupancy
  Cd  Cd0  1  0.25000000  0.57748000  0.42252000  1.0
  Cd  Cd1  1  0.75000000  0.42251000  0.57748000  1.0
  H  H2  1  0.79965000  0.76305000  0.70548000  1.0
  H  H3  1  0.70036000  0.29452000  0.23695000  1.0
  H  H4  1  0.20037000  0.23694000  0.29452000  1.0
  H  H5  1  0.29963000  0.70547000  0.76305000  1.0
  H  H6  1  0.79887000  0.91323000  0.78230000  1.0
  H  H7  1  0.70110000  0.21772000  0.08677000  1.0
  H  H8  1  0.20113000  0.08676000  0.21770000  1.0
  H  H9  1  0.29889000  0.78229000  0.91323000  1.0
  H  H10  1  0.53382000  0.06158000  0.75122000  1.0
  H  H11  1  0.96614000  0.24882000  0.93840000  1.0
  H  H12  1  0.46619000  0.93840000  0.24879000  1.0
  H  H13  1  0.03384000  0.75120000  0.06159000  1.0
  H  H14  1  0.26641000  0.90753000  0.56975000  1.0
  H  H15  1  0.23360000  0.43026000  0.09246000  1.0
  H  H16  1  0.73360000  0.09246000  0.43025000  1.0
  H  H17  1  0.76637000  0.56975000  0.90754000  1.0
  H  H18  1  0.17821000  0.06162000  0.49678000  1.0
  H  H19  1  0.32179000  0.50323000  0.93837000  1.0
  H  H20  1  0.82178000  0.93838000  0.50322000  1.0
  H  H21  1  0.67821000  0.49677000  0.06163000  1.0
  H  H22  1  0.93525000  0.22032000  0.47116000  1.0
  H  H23  1  0.56477000  0.52885000  0.77966000  1.0
  H  H24  1  0.06475000  0.77968000  0.52885000  1.0
  H  H25  1  0.43524000  0.47115000  0.22034000  1.0
  H  H26  1  0.97443000  0.28876000  0.74552000  1.0
  H  H27  1  0.52562000  0.25448000  0.71124000  1.0
  H  H28  1  0.02560000  0.71124000  0.25448000  1.0
  H  H29  1  0.47438000  0.74552000  0.28876000  1.0
  H  H30  1  0.20644000  0.12921000  0.78593000  1.0
  H  H31  1  0.29358000  0.21409000  0.87079000  1.0
  H  H32  1  0.79359000  0.87079000  0.21407000  1.0
  H  H33  1  0.70640000  0.78592000  0.12921000  1.0
  C  C34  1  0.54028000  0.73952000  0.58503000  1.0
  C  C35  1  0.95973000  0.41497000  0.26049000  1.0
  C  C36  1  0.45973000  0.26048000  0.41497000  1.0
  C  C37  1  0.04028000  0.58502000  0.73952000  1.0
  C  C38  1  0.53369000  0.82677000  0.63236000  1.0
  C  C39  1  0.96632000  0.36765000  0.17322000  1.0
  C  C40  1  0.46632000  0.17322000  0.36764000  1.0
  C  C41  1  0.03367000  0.63236000  0.82677000  1.0
  C  C42  1  0.68139000  0.82769000  0.69410000  1.0
  C  C43  1  0.81861000  0.30591000  0.17231000  1.0
  C  C44  1  0.31863000  0.17230000  0.30590000  1.0
  C  C45  1  0.18138000  0.69410000  0.82769000  1.0
  C  C46  1  0.67985000  0.91192000  0.73689000  1.0
  C  C47  1  0.82012000  0.26313000  0.08807000  1.0
  C  C48  1  0.32015000  0.08807000  0.26311000  1.0
  C  C49  1  0.17986000  0.73688000  0.91192000  1.0
  C  C50  1  0.52975000  0.99492000  0.72006000  1.0
  C  C51  1  0.97023000  0.27997000  0.00507000  1.0
  C  C52  1  0.47026000  0.00507000  0.27994000  1.0
  C  C53  1  0.02975000  0.72005000  0.99492000  1.0
  C  C54  1  0.37736000  0.99445000  0.66041000  1.0
  C  C55  1  0.12263000  0.33961000  0.00554000  1.0
  C  C56  1  0.62264000  0.00554000  0.33959000  1.0
  C  C57  1  0.87735000  0.66041000  0.99445000  1.0
  C  C58  1  0.38233000  0.91001000  0.61628000  1.0
  C  C59  1  0.11767000  0.38374000  0.08998000  1.0
  C  C60  1  0.61768000  0.08999000  0.38372000  1.0
  C  C61  1  0.88231000  0.61628000  0.91001000  1.0
  C  C62  1  0.21866000  0.08242000  0.64361000  1.0
  C  C63  1  0.28134000  0.35640000  0.91757000  1.0
  C  C64  1  0.78136000  0.91758000  0.35639000  1.0
  C  C65  1  0.71864000  0.64361000  0.08242000  1.0
  C  C66  1  0.13286000  0.10796000  0.55556000  1.0
  C  C67  1  0.36713000  0.44445000  0.89203000  1.0
  C  C68  1  0.86714000  0.89204000  0.44444000  1.0
  C  C69  1  0.63286000  0.55556000  0.10797000  1.0
  C  C70  1  0.99886000  0.19675000  0.54016000  1.0
  C  C71  1  0.50115000  0.45985000  0.80324000  1.0
  C  C72  1  0.00114000  0.80325000  0.45984000  1.0
  C  C73  1  0.49884000  0.54016000  0.19676000  1.0
  C  C74  1  0.02027000  0.23507000  0.69327000  1.0
  C  C75  1  0.47976000  0.30674000  0.76493000  1.0
  C  C76  1  0.97975000  0.76493000  0.30673000  1.0
  C  C77  1  0.52023000  0.69327000  0.23507000  1.0
  C  C78  1  0.15265000  0.14732000  0.71445000  1.0
  C  C79  1  0.34737000  0.28556000  0.85268000  1.0
  C  C80  1  0.84738000  0.85267000  0.28555000  1.0
  C  C81  1  0.65262000  0.71445000  0.14732000  1.0
  N  N82  1  0.46459000  0.73933000  0.50075000  1.0
  N  N83  1  0.03542000  0.49925000  0.26068000  1.0
  N  N84  1  0.53542000  0.26067000  0.49925000  1.0
  N  N85  1  0.96458000  0.50074000  0.73933000  1.0
  N  N86  1  0.50258000  0.64484000  0.48600000  1.0
  N  N87  1  0.99742000  0.51400000  0.35517000  1.0
  N  N88  1  0.49743000  0.35516000  0.51400000  1.0
  N  N89  1  0.00258000  0.48600000  0.64484000  1.0
  N  N90  1  0.59713000  0.59046000  0.55876000  1.0
  N  N91  1  0.90288000  0.44123000  0.40955000  1.0
  N  N92  1  0.40288000  0.40954000  0.44124000  1.0
  N  N93  1  0.09712000  0.55876000  0.59046000  1.0
  N  N94  1  0.62395000  0.64784000  0.62175000  1.0
  N  N95  1  0.87607000  0.37824000  0.35217000  1.0
  N  N96  1  0.37605000  0.35216000  0.37825000  1.0
  N  N97  1  0.12394000  0.62175000  0.64784000  1.0
  N  N98  1  0.94507000  0.26030000  0.60710000  1.0
  N  N99  1  0.55496000  0.39291000  0.73970000  1.0
  N  N100  1  0.05494000  0.73970000  0.39290000  1.0
  N  N101  1  0.44504000  0.60709000  0.26030000  1.0
