# generated using pymatgen
data_CuH2C4(NO)2
_symmetry_space_group_name_H-M   'P 1'
_cell_length_a   15.07559895
_cell_length_b   15.07570000
_cell_length_c   15.07740000
_cell_angle_alpha   65.74800000
_cell_angle_beta   65.73205572
_cell_angle_gamma   100.26701446
_symmetry_Int_Tables_number   1
_chemical_formula_structural   CuH2C4(NO)2
_chemical_formula_sum   'Cu8 H16 C32 N16 O16'
_cell_volume   2588.05030214
_cell_formula_units_Z   8
loop_
 _symmetry_equiv_pos_site_id
 _symmetry_equiv_pos_as_xyz
  1  'x, y, z'
loop_
 _atom_site_type_symbol
 _atom_site_label
 _atom_site_symmetry_multiplicity
 _atom_site_fract_x
 _atom_site_fract_y
 _atom_site_fract_z
 _atom_site_occupancy
  Cu  Cu0  1  0.89892000  0.85608000  0.57048000  1.0
  Cu  Cu1  1  0.96938000  0.39891000  0.45715000  1.0
  Cu  Cu2  1  0.35606000  0.42653000  0.04286000  1.0
  Cu  Cu3  1  0.92654000  0.46940000  0.92953000  1.0
  Cu  Cu4  1  0.07347000  0.53063000  0.07047000  1.0
  Cu  Cu5  1  0.64395000  0.57350000  0.95715000  1.0
  Cu  Cu6  1  0.03065000  0.60109000  0.54286000  1.0
  Cu  Cu7  1  0.10109000  0.14394000  0.42953000  1.0
  H  H8  1  0.71834000  0.28316000  0.17221000  1.0
  H  H9  1  0.39058000  0.21835000  0.06480000  1.0
  H  H10  1  0.95536000  0.89057000  0.32776000  1.0
  H  H11  1  0.60942000  0.78166000  0.93521000  1.0
  H  H12  1  0.29396000  0.76396000  0.62407000  1.0
  H  H13  1  0.26396000  0.38800000  0.52996000  1.0
  H  H14  1  0.04467000  0.10945000  0.67220000  1.0
  H  H15  1  0.78314000  0.45538000  0.43522000  1.0
  H  H16  1  0.41796000  0.79391000  0.97005000  1.0
  H  H17  1  0.28165000  0.71686000  0.82779000  1.0
  H  H18  1  0.11197000  0.08198000  0.12407000  1.0
  H  H19  1  0.70604000  0.23604000  0.37593000  1.0
  H  H20  1  0.88804000  0.91801000  0.87593000  1.0
  H  H21  1  0.21688000  0.54462000  0.56479000  1.0
  H  H22  1  0.58202000  0.20610000  0.02996000  1.0
  H  H23  1  0.73605000  0.61198000  0.47004000  1.0
  C  C24  1  0.27068000  0.57622000  0.03303000  1.0
  C  C25  1  0.08329000  0.05932000  0.21228000  1.0
  C  C26  1  0.19630000  0.22931000  0.19443000  1.0
  C  C27  1  0.53750000  0.72317000  0.95799000  1.0
  C  C28  1  0.62153000  0.37135000  0.99542000  1.0
  C  C29  1  0.86677000  0.61696000  0.50458000  1.0
  C  C30  1  0.46249000  0.27683000  0.04201000  1.0
  C  C31  1  0.77161000  0.29556000  0.28770000  1.0
  C  C32  1  0.91675000  0.94071000  0.78769000  1.0
  C  C33  1  0.81885000  0.50451000  0.45799000  1.0
  C  C34  1  0.99550000  0.03753000  0.68563000  1.0
  C  C35  1  0.11696000  0.12152000  0.24979000  1.0
  C  C36  1  0.22839000  0.70446000  0.71232000  1.0
  C  C37  1  0.13322000  0.38304000  0.49542000  1.0
  C  C38  1  0.12869000  0.63324000  0.74982000  1.0
  C  C39  1  0.20445000  0.41672000  0.52392000  1.0
  C  C40  1  0.55935000  0.27165000  0.02390000  1.0
  C  C41  1  0.89076000  0.69628000  0.53302000  1.0
  C  C42  1  0.10923000  0.30370000  0.46698000  1.0
  C  C43  1  0.44065000  0.72837000  0.97610000  1.0
  C  C44  1  0.80370000  0.77069000  0.80555000  1.0
  C  C45  1  0.00453000  0.96249000  0.31432000  1.0
  C  C46  1  0.92374000  0.39074000  0.30556000  1.0
  C  C47  1  0.79556000  0.58327000  0.47609000  1.0
  C  C48  1  0.22317000  0.68115000  0.81436000  1.0
  C  C49  1  0.77682000  0.31884000  0.18567000  1.0
  C  C50  1  0.87132000  0.36678000  0.25019000  1.0
  C  C51  1  0.72929000  0.42377000  0.96699000  1.0
  C  C52  1  0.88306000  0.87851000  0.75016000  1.0
  C  C53  1  0.07625000  0.60925000  0.69445000  1.0
  C  C54  1  0.37848000  0.62865000  0.00458000  1.0
  C  C55  1  0.18114000  0.49546000  0.54203000  1.0
  N  N56  1  0.12618000  0.60076000  0.90665000  1.0
  N  N57  1  0.56417000  0.43112000  0.99720000  1.0
  N  N58  1  0.07167000  0.43863000  0.49720000  1.0
  N  N59  1  0.99260000  0.96715000  0.40663000  1.0
  N  N60  1  0.93111000  0.42831000  0.13308000  1.0
  N  N61  1  0.53282000  0.62617000  0.97458000  1.0
  N  N62  1  0.06137000  0.06418000  0.36690000  1.0
  N  N63  1  0.00740000  0.03283000  0.59334000  1.0
  N  N64  1  0.87381000  0.39924000  0.09337000  1.0
  N  N65  1  0.10074000  0.50739000  0.52543000  1.0
  N  N66  1  0.06889000  0.57168000  0.86694000  1.0
  N  N67  1  0.46716000  0.37381000  0.02543000  1.0
  N  N68  1  0.93863000  0.93581000  0.63305000  1.0
  N  N69  1  0.92830000  0.56136000  0.50283000  1.0
  N  N70  1  0.89924000  0.49259000  0.47459000  1.0
  N  N71  1  0.43582000  0.56886000  0.00282000  1.0
  O  O72  1  0.25503000  0.29082000  0.08480000  1.0
  O  O73  1  0.79521000  0.74327000  0.73801000  1.0
  O  O74  1  0.12438000  0.66013000  0.58481000  1.0
  O  O75  1  0.74496000  0.70918000  0.91518000  1.0
  O  O76  1  0.03319000  0.29520000  0.44805000  1.0
  O  O77  1  0.20479000  0.25672000  0.26197000  1.0
  O  O78  1  0.98130000  0.53323000  0.76197000  1.0
  O  O79  1  0.16014000  0.24495000  0.46418000  1.0
  O  O80  1  0.24325000  0.48125000  0.05195000  1.0
  O  O81  1  0.01871000  0.46679000  0.23802000  1.0
  O  O82  1  0.75676000  0.51876000  0.94803000  1.0
  O  O83  1  0.96679000  0.70478000  0.55197000  1.0
  O  O84  1  0.79085000  0.37567000  0.96420000  1.0
  O  O85  1  0.20914000  0.62434000  0.03580000  1.0
  O  O86  1  0.87561000  0.33986000  0.41521000  1.0
  O  O87  1  0.83987000  0.75504000  0.53580000  1.0
