# generated using pymatgen
data_Zn2H13C17(NO3)3
_symmetry_space_group_name_H-M   'P 1'
_cell_length_a   12.14070000
_cell_length_b   14.22210000
_cell_length_c   14.30820000
_cell_angle_alpha   105.18500000
_cell_angle_beta   90.00000000
_cell_angle_gamma   90.00000000
_symmetry_Int_Tables_number   1
_chemical_formula_structural   Zn2H13C17(NO3)3
_chemical_formula_sum   'Zn8 H52 C68 N12 O36'
_cell_volume   2384.28446667
_cell_formula_units_Z   4
loop_
 _symmetry_equiv_pos_site_id
 _symmetry_equiv_pos_as_xyz
  1  'x, y, z'
loop_
 _atom_site_type_symbol
 _atom_site_label
 _atom_site_symmetry_multiplicity
 _atom_site_fract_x
 _atom_site_fract_y
 _atom_site_fract_z
 _atom_site_occupancy
  Zn  Zn0  1  0.01249000  0.65071000  0.33775000  1.0
  Zn  Zn1  1  0.51249000  0.84929000  0.16225000  1.0
  Zn  Zn2  1  0.98751000  0.34930000  0.66225000  1.0
  Zn  Zn3  1  0.48751000  0.15071000  0.83775000  1.0
  Zn  Zn4  1  0.23812000  0.55410000  0.19709000  1.0
  Zn  Zn5  1  0.73812000  0.94590000  0.30291000  1.0
  Zn  Zn6  1  0.76188000  0.44590000  0.80291000  1.0
  Zn  Zn7  1  0.26188000  0.05410000  0.69709000  1.0
  H  H8  1  0.68548000  0.79206000  0.54117000  1.0
  H  H9  1  0.18549000  0.70794000  0.95883000  1.0
  H  H10  1  0.31452000  0.20794000  0.45883000  1.0
  H  H11  1  0.81452000  0.29206000  0.04117000  1.0
  H  H12  1  0.68959000  0.67821000  0.65078000  1.0
  H  H13  1  0.18960000  0.82179000  0.84922000  1.0
  H  H14  1  0.31040000  0.32179000  0.34922000  1.0
  H  H15  1  0.81041000  0.17821000  0.15078000  1.0
  H  H16  1  0.93962000  0.51438000  0.46440000  1.0
  H  H17  1  0.43961000  0.98563000  0.03560000  1.0
  H  H18  1  0.06039000  0.48563000  0.53560000  1.0
  H  H19  1  0.56038000  0.01438000  0.96440000  1.0
  H  H20  1  0.92574000  0.37023000  0.98757000  1.0
  H  H21  1  0.42574000  0.12977000  0.51243000  1.0
  H  H22  1  0.07426000  0.62977000  0.01243000  1.0
  H  H23  1  0.57426000  0.87023000  0.48757000  1.0
  H  H24  1  0.04511000  0.25264000  0.86682000  1.0
  H  H25  1  0.54511000  0.24736000  0.63318000  1.0
  H  H26  1  0.95489000  0.74736000  0.13318000  1.0
  H  H27  1  0.45489000  0.75264000  0.36682000  1.0
  H  H28  1  0.32805000  0.38565000  0.03016000  1.0
  H  H29  1  0.82805000  0.11435000  0.46984000  1.0
  H  H30  1  0.67195000  0.61435000  0.96984000  1.0
  H  H31  1  0.17195000  0.88565000  0.53016000  1.0
  H  H32  1  0.74969000  0.55438000  0.23138000  1.0
  H  H33  1  0.24969000  0.94562000  0.26862000  1.0
  H  H34  1  0.25031000  0.44562000  0.76862000  1.0
  H  H35  1  0.75031000  0.05438000  0.73138000  1.0
  H  H36  1  0.66043000  0.55720000  0.33082000  1.0
  H  H37  1  0.16043000  0.94280000  0.16918000  1.0
  H  H38  1  0.33957000  0.44280000  0.66918000  1.0
  H  H39  1  0.83957000  0.05720000  0.83082000  1.0
  H  H40  1  0.65975000  0.65573000  0.27420000  1.0
  H  H41  1  0.15975000  0.84427000  0.22580000  1.0
  H  H42  1  0.34025000  0.34427000  0.72580000  1.0
  H  H43  1  0.84025000  0.15574000  0.77420000  1.0
  H  H44  1  0.46128000  0.59791000  0.28375000  1.0
  H  H45  1  0.96128000  0.90209000  0.21625000  1.0
  H  H46  1  0.53872000  0.40209000  0.71625000  1.0
  H  H47  1  0.03872000  0.09791000  0.78375000  1.0
  H  H48  1  0.70435000  0.45170000  0.09770000  1.0
  H  H49  1  0.20435000  0.04830000  0.40230000  1.0
  H  H50  1  0.29565000  0.54830000  0.90230000  1.0
  H  H51  1  0.79565000  0.95170000  0.59770000  1.0
  H  H52  1  0.58605000  0.48547000  0.03964000  1.0
  H  H53  1  0.08605000  0.01453000  0.46036000  1.0
  H  H54  1  0.41395000  0.51453000  0.96036000  1.0
  H  H55  1  0.91395000  0.98547000  0.53964000  1.0
  H  H56  1  0.57691000  0.38712000  0.09448000  1.0
  H  H57  1  0.07691000  0.11288000  0.40553000  1.0
  H  H58  1  0.42309000  0.61288000  0.90552000  1.0
  H  H59  1  0.92309000  0.88712000  0.59448000  1.0
  C  C60  1  0.81452000  0.71449000  0.44988000  1.0
  C  C61  1  0.31453000  0.78551000  0.05012000  1.0
  C  C62  1  0.18548000  0.28551000  0.55012000  1.0
  C  C63  1  0.68547000  0.21449000  0.94988000  1.0
  C  C64  1  0.74069000  0.72969000  0.52713000  1.0
  C  C65  1  0.24069000  0.77031000  0.97287000  1.0
  C  C66  1  0.25931000  0.27031000  0.47287000  1.0
  C  C67  1  0.75931000  0.22969000  0.02713000  1.0
  C  C68  1  0.74259000  0.66666667  0.58725000  1.0
  C  C69  1  0.24259000  0.83331000  0.91275000  1.0
  C  C70  1  0.25741000  0.33333333  0.41275000  1.0
  C  C71  1  0.75741000  0.16668000  0.08725000  1.0
  C  C72  1  0.81506000  0.58748000  0.56619000  1.0
  C  C73  1  0.31506000  0.91252000  0.93380000  1.0
  C  C74  1  0.18494000  0.41252000  0.43380000  1.0
  C  C75  1  0.68494000  0.08748000  0.06619000  1.0
  C  C76  1  0.88312000  0.57533000  0.48521000  1.0
  C  C77  1  0.38312000  0.92467000  0.01480000  1.0
  C  C78  1  0.11688000  0.42467000  0.51480000  1.0
  C  C79  1  0.61688000  0.07533000  0.98521000  1.0
  C  C80  1  0.82833000  0.51962000  0.63122000  1.0
  C  C81  1  0.32833000  0.98038000  0.86878000  1.0
  C  C82  1  0.17167000  0.48038000  0.36878000  1.0
  C  C83  1  0.67167000  0.01962000  0.13122000  1.0
  C  C84  1  0.82290000  0.77970000  0.38146000  1.0
  C  C85  1  0.32290000  0.72030000  0.11854000  1.0
  C  C86  1  0.17710000  0.22030000  0.61854000  1.0
  C  C87  1  0.67710000  0.27970000  0.88146000  1.0
  C  C88  1  0.06556000  0.43610000  0.07289000  1.0
  C  C89  1  0.56556000  0.06390000  0.42711000  1.0
  C  C90  1  0.93445000  0.56390000  0.92711000  1.0
  C  C91  1  0.43445000  0.93610000  0.57289000  1.0
  C  C92  1  0.01477000  0.36913000  0.99616000  1.0
  C  C93  1  0.51478000  0.13087000  0.50384000  1.0
  C  C94  1  0.98523000  0.63087000  0.00384000  1.0
  C  C95  1  0.48523000  0.86913000  0.49616000  1.0
  C  C96  1  0.08047000  0.30437000  0.92950000  1.0
  C  C97  1  0.58047000  0.19563000  0.57050000  1.0
  C  C98  1  0.91953000  0.69563000  0.07050000  1.0
  C  C99  1  0.41953000  0.80437000  0.42950000  1.0
  C  C100  1  0.19469000  0.30718000  0.94206000  1.0
  C  C101  1  0.69469000  0.19282000  0.55794000  1.0
  C  C102  1  0.80531000  0.69282000  0.05794000  1.0
  C  C103  1  0.30531000  0.80718000  0.44206000  1.0
  C  C104  1  0.23939000  0.37896000  0.01874000  1.0
  C  C105  1  0.73939000  0.12104000  0.48126000  1.0
  C  C106  1  0.76061000  0.62104000  0.98126000  1.0
  C  C107  1  0.26061000  0.87896000  0.51874000  1.0
  C  C108  1  0.26824000  0.23468000  0.87562000  1.0
  C  C109  1  0.76824000  0.26532000  0.62438000  1.0
  C  C110  1  0.73176000  0.76532000  0.12438000  1.0
  C  C111  1  0.23176000  0.73468000  0.37562000  1.0
  C  C112  1  0.99884000  0.50429000  0.15111000  1.0
  C  C113  1  0.49884000  0.99572000  0.34888000  1.0
  C  C114  1  0.00116000  0.49572000  0.84888000  1.0
  C  C115  1  0.50116000  0.00429000  0.65112000  1.0
  C  C116  1  0.66794000  0.57650000  0.26154000  1.0
  C  C117  1  0.16794000  0.92350000  0.23846000  1.0
  C  C118  1  0.33206000  0.42350000  0.73846000  1.0
  C  C119  1  0.83206000  0.07650000  0.76154000  1.0
  C  C120  1  0.47805000  0.54533000  0.21371000  1.0
  C  C121  1  0.97805000  0.95467000  0.28629000  1.0
  C  C122  1  0.52195000  0.45467000  0.78629000  1.0
  C  C123  1  0.02195000  0.04533000  0.71371000  1.0
  C  C124  1  0.61466000  0.45881000  0.10088000  1.0
  C  C125  1  0.11466000  0.04119000  0.39912000  1.0
  C  C126  1  0.38534000  0.54119000  0.89912000  1.0
  C  C127  1  0.88534000  0.95881000  0.60088000  1.0
  N  N128  1  0.88544000  0.63884000  0.43084000  1.0
  N  N129  1  0.38544000  0.86116000  0.06917000  1.0
  N  N130  1  0.11456000  0.36116000  0.56917000  1.0
  N  N131  1  0.61456000  0.13884000  0.93084000  1.0
  N  N132  1  0.17602000  0.44220000  0.08187000  1.0
  N  N133  1  0.67602000  0.05780000  0.41812000  1.0
  N  N134  1  0.82398000  0.55780000  0.91812000  1.0
  N  N135  1  0.32398000  0.94220000  0.58188000  1.0
  N  N136  1  0.58380000  0.52633000  0.19299000  1.0
  N  N137  1  0.08380000  0.97367000  0.30701000  1.0
  N  N138  1  0.41620000  0.47367000  0.80701000  1.0
  N  N139  1  0.91620000  0.02633000  0.69299000  1.0
  O  O140  1  0.90255000  0.76293000  0.32208000  1.0
  O  O141  1  0.40255000  0.73707000  0.17792000  1.0
  O  O142  1  0.09745000  0.23707000  0.67792000  1.0
  O  O143  1  0.59745000  0.26293000  0.82208000  1.0
  O  O144  1  0.74844000  0.84402000  0.38920000  1.0
  O  O145  1  0.24844000  0.65598000  0.11080000  1.0
  O  O146  1  0.25156000  0.15598000  0.61080000  1.0
  O  O147  1  0.75156000  0.34402000  0.88920000  1.0
  O  O148  1  0.77148000  0.53911000  0.70809000  1.0
  O  O149  1  0.27148000  0.96089000  0.79191000  1.0
  O  O150  1  0.22852000  0.46089000  0.29191000  1.0
  O  O151  1  0.72852000  0.03911000  0.20809000  1.0
  O  O152  1  0.89811000  0.45142000  0.60267000  1.0
  O  O153  1  0.39811000  0.04858000  0.89733000  1.0
  O  O154  1  0.10189000  0.54858000  0.39733000  1.0
  O  O155  1  0.60189000  0.95142000  0.10267000  1.0
  O  O156  1  0.05579000  0.57607000  0.20527000  1.0
  O  O157  1  0.55579000  0.92393000  0.29473000  1.0
  O  O158  1  0.94421000  0.42393000  0.79473000  1.0
  O  O159  1  0.44421000  0.07607000  0.70527000  1.0
  O  O160  1  0.89951000  0.48839000  0.15999000  1.0
  O  O161  1  0.39951000  0.01161000  0.34001000  1.0
  O  O162  1  0.10049000  0.51161000  0.84001000  1.0
  O  O163  1  0.60049000  0.98839000  0.65999000  1.0
  O  O164  1  0.22115000  0.16222000  0.81990000  1.0
  O  O165  1  0.72115000  0.33778000  0.68010000  1.0
  O  O166  1  0.77885000  0.83778000  0.18010000  1.0
  O  O167  1  0.27885000  0.66222000  0.31990000  1.0
  O  O168  1  0.37152000  0.25285000  0.88234000  1.0
  O  O169  1  0.87152000  0.24715000  0.61765000  1.0
  O  O170  1  0.62848000  0.74715000  0.11765000  1.0
  O  O171  1  0.12848000  0.75285000  0.38235000  1.0
  O  O172  1  0.40056000  0.50662000  0.15845000  1.0
  O  O173  1  0.90056000  0.99339000  0.34155000  1.0
  O  O174  1  0.59944000  0.49338000  0.84155000  1.0
  O  O175  1  0.09944000  0.00661000  0.65845000  1.0
