# generated using pymatgen
data_ZnH15C27(NO2)3
_symmetry_space_group_name_H-M   'P 1'
_cell_length_a   10.08230000
_cell_length_b   13.65040000
_cell_length_c   20.26670000
_cell_angle_alpha   89.99990000
_cell_angle_beta   99.00390000
_cell_angle_gamma   89.99990000
_symmetry_Int_Tables_number   1
_chemical_formula_structural   ZnH15C27(NO2)3
_chemical_formula_sum   'Zn4 H60 C108 N12 O24'
_cell_volume   2754.88374393
_cell_formula_units_Z   4
loop_
 _symmetry_equiv_pos_site_id
 _symmetry_equiv_pos_as_xyz
  1  'x, y, z'
loop_
 _atom_site_type_symbol
 _atom_site_label
 _atom_site_symmetry_multiplicity
 _atom_site_fract_x
 _atom_site_fract_y
 _atom_site_fract_z
 _atom_site_occupancy
  Zn  Zn0  1  0.63827000  0.78832000  0.68368000  1.0
  Zn  Zn1  1  0.36173000  0.78832000  0.81632000  1.0
  Zn  Zn2  1  0.36174000  0.21168000  0.31632000  1.0
  Zn  Zn3  1  0.63827000  0.21168000  0.18368000  1.0
  H  H4  1  0.10166000  0.78887000  0.68971000  1.0
  H  H5  1  0.89833000  0.78886000  0.81029000  1.0
  H  H6  1  0.89834000  0.21113000  0.31029000  1.0
  H  H7  1  0.10167000  0.21114000  0.18971000  1.0
  H  H8  1  0.86778000  0.79154000  0.49347000  1.0
  H  H9  1  0.13222000  0.79154000  0.00653000  1.0
  H  H10  1  0.13223000  0.20846000  0.50653000  1.0
  H  H11  1  0.86778000  0.20846000  0.99347000  1.0
  H  H12  1  0.30079000  0.79204000  0.51622000  1.0
  H  H13  1  0.69921000  0.79204000  0.98378000  1.0
  H  H14  1  0.69921000  0.20796000  0.48378000  1.0
  H  H15  1  0.30079000  0.20796000  0.01622000  1.0
  H  H16  1  0.69808000  0.96424000  0.77597000  1.0
  H  H17  1  0.30192000  0.96424000  0.72404000  1.0
  H  H18  1  0.30192000  0.03576000  0.22403000  1.0
  H  H19  1  0.69808000  0.03576000  0.27597000  1.0
  H  H20  1  0.68742000  0.14582000  0.77084000  1.0
  H  H21  1  0.31258000  0.14581000  0.72916000  1.0
  H  H22  1  0.31258000  0.85419000  0.22915000  1.0
  H  H23  1  0.68741000  0.85418000  0.27084000  1.0
  H  H24  1  0.56005000  0.28011000  0.60523000  1.0
  H  H25  1  0.43995000  0.28011000  0.89477000  1.0
  H  H26  1  0.43995000  0.71989000  0.39477000  1.0
  H  H27  1  0.56004000  0.71989000  0.10523000  1.0
  H  H28  1  0.53072000  0.11821000  0.56003000  1.0
  H  H29  1  0.46929000  0.11821000  0.93997000  1.0
  H  H30  1  0.46928000  0.88179000  0.43997000  1.0
  H  H31  1  0.53071000  0.88179000  0.06003000  1.0
  H  H32  1  0.55099000  0.93573000  0.57533000  1.0
  H  H33  1  0.44901000  0.93573000  0.92468000  1.0
  H  H34  1  0.44901000  0.06427000  0.42467000  1.0
  H  H35  1  0.55099000  0.06427000  0.07532000  1.0
  H  H36  1  0.54959000  0.43812000  0.59280000  1.0
  H  H37  1  0.45041000  0.43812000  0.90720000  1.0
  H  H38  1  0.45041000  0.56188000  0.40720000  1.0
  H  H39  1  0.54959000  0.56188000  0.09280000  1.0
  H  H40  1  0.72878000  0.63142000  0.79139000  1.0
  H  H41  1  0.27122000  0.63143000  0.70861000  1.0
  H  H42  1  0.27122000  0.36857000  0.20861000  1.0
  H  H43  1  0.72878000  0.36857000  0.29138000  1.0
  H  H44  1  0.72783000  0.44911000  0.80145000  1.0
  H  H45  1  0.27217000  0.44911000  0.69855000  1.0
  H  H46  1  0.27217000  0.55089000  0.19854000  1.0
  H  H47  1  0.72783000  0.55089000  0.30145000  1.0
  H  H48  1  0.55451000  0.62090000  0.59303000  1.0
  H  H49  1  0.44548000  0.62090000  0.90697000  1.0
  H  H50  1  0.44548000  0.37910000  0.40697000  1.0
  H  H51  1  0.55451000  0.37910000  0.09302000  1.0
  H  H52  1  0.68051000  0.29433000  0.75444000  1.0
  H  H53  1  0.31949000  0.29433000  0.74556000  1.0
  H  H54  1  0.31949000  0.70567000  0.24556000  1.0
  H  H55  1  0.68051000  0.70567000  0.25444000  1.0
  H  H56  1  0.03090000  0.54830000  0.31304000  1.0
  H  H57  1  0.96910000  0.54830000  0.18697000  1.0
  H  H58  1  0.96910000  0.45170000  0.68696000  1.0
  H  H59  1  0.03090000  0.45170000  0.81303000  1.0
  H  H60  1  0.02996000  0.04289000  0.31193000  1.0
  H  H61  1  0.97004000  0.04289000  0.18807000  1.0
  H  H62  1  0.97005000  0.95711000  0.68807000  1.0
  H  H63  1  0.02996000  0.95711000  0.81194000  1.0
  C  C64  1  0.60766000  0.14895000  0.66420000  1.0
  C  C65  1  0.39234000  0.14895000  0.83580000  1.0
  C  C66  1  0.39233000  0.85105000  0.33580000  1.0
  C  C67  1  0.60766000  0.85105000  0.16420000  1.0
  C  C68  1  0.09682000  0.78962000  0.63555000  1.0
  C  C69  1  0.90318000  0.78962000  0.86445000  1.0
  C  C70  1  0.90318000  0.21038000  0.36445000  1.0
  C  C71  1  0.09682000  0.21038000  0.13555000  1.0
  C  C72  1  0.63775000  0.42689000  0.69798000  1.0
  C  C73  1  0.36225000  0.42689000  0.80202000  1.0
  C  C74  1  0.36225000  0.57311000  0.30202000  1.0
  C  C75  1  0.63774000  0.57311000  0.19798000  1.0
  C  C76  1  0.97186000  0.78917000  0.59431000  1.0
  C  C77  1  0.02814000  0.78917000  0.90570000  1.0
  C  C78  1  0.02814000  0.21083000  0.40569000  1.0
  C  C79  1  0.97186000  0.21083000  0.09430000  1.0
  C  C80  1  0.08367000  0.79309000  0.49752000  1.0
  C  C81  1  0.91633000  0.79309000  0.00248000  1.0
  C  C82  1  0.91633000  0.20690000  0.50248000  1.0
  C  C83  1  0.08367000  0.20691000  0.99752000  1.0
  C  C84  1  0.96575000  0.79124000  0.52501000  1.0
  C  C85  1  0.03425000  0.79123000  0.97500000  1.0
  C  C86  1  0.03426000  0.20876000  0.47499000  1.0
  C  C87  1  0.96575000  0.20877000  0.02501000  1.0
  C  C88  1  0.20837000  0.79197000  0.53774000  1.0
  C  C89  1  0.79163000  0.79196000  0.96226000  1.0
  C  C90  1  0.79163000  0.20803000  0.46226000  1.0
  C  C91  1  0.20837000  0.20804000  0.03774000  1.0
  C  C92  1  0.01592000  0.79526000  0.28549000  1.0
  C  C93  1  0.98408000  0.79526000  0.21452000  1.0
  C  C94  1  0.98408000  0.20474000  0.71451000  1.0
  C  C95  1  0.01592000  0.20474000  0.78548000  1.0
  C  C96  1  0.21502000  0.79056000  0.60727000  1.0
  C  C97  1  0.78498000  0.79056000  0.89274000  1.0
  C  C98  1  0.78498000  0.20943000  0.39273000  1.0
  C  C99  1  0.21502000  0.20944000  0.10727000  1.0
  C  C100  1  0.03263000  0.70453000  0.31982000  1.0
  C  C101  1  0.96737000  0.70453000  0.18018000  1.0
  C  C102  1  0.96738000  0.29547000  0.68017000  1.0
  C  C103  1  0.03263000  0.29547000  0.81982000  1.0
  C  C104  1  0.34935000  0.79038000  0.65104000  1.0
  C  C105  1  0.65065000  0.79038000  0.84896000  1.0
  C  C106  1  0.65065000  0.20962000  0.34896000  1.0
  C  C107  1  0.34935000  0.20962000  0.15104000  1.0
  C  C108  1  0.03154000  0.88582000  0.32012000  1.0
  C  C109  1  0.96846000  0.88582000  0.17989000  1.0
  C  C110  1  0.96847000  0.11417000  0.67988000  1.0
  C  C111  1  0.03154000  0.11418000  0.82012000  1.0
  C  C112  1  0.84352000  0.78752000  0.62289000  1.0
  C  C113  1  0.15648000  0.78752000  0.87711000  1.0
  C  C114  1  0.15648000  0.21248000  0.37711000  1.0
  C  C115  1  0.84352000  0.21248000  0.12289000  1.0
  C  C116  1  0.66180000  0.00226000  0.72938000  1.0
  C  C117  1  0.33820000  0.00226000  0.77062000  1.0
  C  C118  1  0.33820000  0.99774000  0.27061000  1.0
  C  C119  1  0.66180000  0.99774000  0.22938000  1.0
  C  C120  1  0.65510000  0.10340000  0.72568000  1.0
  C  C121  1  0.34490000  0.10340000  0.77432000  1.0
  C  C122  1  0.34490000  0.89660000  0.27432000  1.0
  C  C123  1  0.65510000  0.89660000  0.22568000  1.0
  C  C124  1  0.01668000  0.61662000  0.28493000  1.0
  C  C125  1  0.98332000  0.61662000  0.21507000  1.0
  C  C126  1  0.98332000  0.38338000  0.71507000  1.0
  C  C127  1  0.01668000  0.38338000  0.78493000  1.0
  C  C128  1  0.59969000  0.25487000  0.65567000  1.0
  C  C129  1  0.40032000  0.25487000  0.84432000  1.0
  C  C130  1  0.40032000  0.74513000  0.34432000  1.0
  C  C131  1  0.59968000  0.74513000  0.15568000  1.0
  C  C132  1  0.56861000  0.08719000  0.60898000  1.0
  C  C133  1  0.43140000  0.08720000  0.89103000  1.0
  C  C134  1  0.43139000  0.91281000  0.39102000  1.0
  C  C135  1  0.56860000  0.91281000  0.10898000  1.0
  C  C136  1  0.01586000  0.97357000  0.28503000  1.0
  C  C137  1  0.98414000  0.97357000  0.21497000  1.0
  C  C138  1  0.98415000  0.02643000  0.71497000  1.0
  C  C139  1  0.01586000  0.02643000  0.78503000  1.0
  C  C140  1  0.57880000  0.98614000  0.61690000  1.0
  C  C141  1  0.42121000  0.98614000  0.88310000  1.0
  C  C142  1  0.42120000  0.01386000  0.38310000  1.0
  C  C143  1  0.57879000  0.01386000  0.11690000  1.0
  C  C144  1  0.58926000  0.47727000  0.63849000  1.0
  C  C145  1  0.41073000  0.47726000  0.86151000  1.0
  C  C146  1  0.41073000  0.52273000  0.36151000  1.0
  C  C147  1  0.58927000  0.52274000  0.13849000  1.0
  C  C148  1  0.68867000  0.58541000  0.74903000  1.0
  C  C149  1  0.31132000  0.58541000  0.75097000  1.0
  C  C150  1  0.31132000  0.41459000  0.25097000  1.0
  C  C151  1  0.68868000  0.41459000  0.24902000  1.0
  C  C152  1  0.06613000  0.70264000  0.39360000  1.0
  C  C153  1  0.93387000  0.70264000  0.10640000  1.0
  C  C154  1  0.93388000  0.29735000  0.60640000  1.0
  C  C155  1  0.06613000  0.29736000  0.89359000  1.0
  C  C156  1  0.68831000  0.48401000  0.75405000  1.0
  C  C157  1  0.31169000  0.48402000  0.74595000  1.0
  C  C158  1  0.31168000  0.51598000  0.24595000  1.0
  C  C159  1  0.68831000  0.51598000  0.25405000  1.0
  C  C160  1  0.06482000  0.88693000  0.39400000  1.0
  C  C161  1  0.93519000  0.88693000  0.10601000  1.0
  C  C162  1  0.93521000  0.11307000  0.60601000  1.0
  C  C163  1  0.06480000  0.11307000  0.89399000  1.0
  C  C164  1  0.59189000  0.57886000  0.63780000  1.0
  C  C165  1  0.40811000  0.57886000  0.86220000  1.0
  C  C166  1  0.40810000  0.42114000  0.36220000  1.0
  C  C167  1  0.59189000  0.42114000  0.13780000  1.0
  C  C168  1  0.63985000  0.32085000  0.70446000  1.0
  C  C169  1  0.36015000  0.32085000  0.79554000  1.0
  C  C170  1  0.36015000  0.67915000  0.29553000  1.0
  C  C171  1  0.63984000  0.67915000  0.20446000  1.0
  N  N172  1  0.64024000  0.63244000  0.69215000  1.0
  N  N173  1  0.35976000  0.63244000  0.80785000  1.0
  N  N174  1  0.35975000  0.36756000  0.30785000  1.0
  N  N175  1  0.64024000  0.36756000  0.19215000  1.0
  N  N176  1  0.07253000  0.79431000  0.42565000  1.0
  N  N177  1  0.92746000  0.79430000  0.07435000  1.0
  N  N178  1  0.92747000  0.20569000  0.57435000  1.0
  N  N179  1  0.07253000  0.20570000  0.92565000  1.0
  N  N180  1  0.62397000  0.94417000  0.67612000  1.0
  N  N181  1  0.37602000  0.94417000  0.82389000  1.0
  N  N182  1  0.37602000  0.05584000  0.32388000  1.0
  N  N183  1  0.62398000  0.05583000  0.17612000  1.0
  O  O184  1  0.85072000  0.79552000  0.68652000  1.0
  O  O185  1  0.14929000  0.79551000  0.81348000  1.0
  O  O186  1  0.14929000  0.20449000  0.31348000  1.0
  O  O187  1  0.85071000  0.20449000  0.18652000  1.0
  O  O188  1  0.73229000  0.77888000  0.58418000  1.0
  O  O189  1  0.26770000  0.77888000  0.91582000  1.0
  O  O190  1  0.26771000  0.22112000  0.41582000  1.0
  O  O191  1  0.73229000  0.22112000  0.08418000  1.0
  O  O192  1  0.45255000  0.77844000  0.62253000  1.0
  O  O193  1  0.54744000  0.77844000  0.87748000  1.0
  O  O194  1  0.54745000  0.22156000  0.37747000  1.0
  O  O195  1  0.45256000  0.22156000  0.12252000  1.0
  O  O196  1  0.08383000  0.96241000  0.42697000  1.0
  O  O197  1  0.91619000  0.96241000  0.07303000  1.0
  O  O198  1  0.91621000  0.03758000  0.57303000  1.0
  O  O199  1  0.08381000  0.03759000  0.92697000  1.0
  O  O200  1  0.35324000  0.80315000  0.71319000  1.0
  O  O201  1  0.64676000  0.80314000  0.78681000  1.0
  O  O202  1  0.64676000  0.19686000  0.28681000  1.0
  O  O203  1  0.35324000  0.19686000  0.21319000  1.0
  O  O204  1  0.08570000  0.62624000  0.42579000  1.0
  O  O205  1  0.91431000  0.62624000  0.07421000  1.0
  O  O206  1  0.91431000  0.37377000  0.57420000  1.0
  O  O207  1  0.08570000  0.37377000  0.92579000  1.0
