# generated using pymatgen
data_CaZnH6(CO)10
_symmetry_space_group_name_H-M   'P 1'
_cell_length_a   6.10243000
_cell_length_b   9.89794000
_cell_length_c   10.31440000
_cell_angle_alpha   89.99990000
_cell_angle_beta   94.60270000
_cell_angle_gamma   90.00000000
_symmetry_Int_Tables_number   1
_chemical_formula_structural   CaZnH6(CO)10
_chemical_formula_sum   'Ca2 Zn2 H12 C20 O20'
_cell_volume   620.99595683
_cell_formula_units_Z   2
loop_
 _symmetry_equiv_pos_site_id
 _symmetry_equiv_pos_as_xyz
  1  'x, y, z'
loop_
 _atom_site_type_symbol
 _atom_site_label
 _atom_site_symmetry_multiplicity
 _atom_site_fract_x
 _atom_site_fract_y
 _atom_site_fract_z
 _atom_site_occupancy
  Ca  Ca0  1  0.75000000  0.49087000  0.25000000  1.0
  Ca  Ca1  1  0.25000000  0.50913000  0.75000000  1.0
  Zn  Zn2  1  0.25000000  0.22637000  0.25000000  1.0
  Zn  Zn3  1  0.75000000  0.77363000  0.75000000  1.0
  H  H4  1  0.15527000  0.63244000  0.13918000  1.0
  H  H5  1  0.34473000  0.63244000  0.36083000  1.0
  H  H6  1  0.84474000  0.36756000  0.86084000  1.0
  H  H7  1  0.65528000  0.36756000  0.63918000  1.0
  H  H8  1  0.15102000  0.48097000  0.10268000  1.0
  H  H9  1  0.34899000  0.48097000  0.39732000  1.0
  H  H10  1  0.84899000  0.51903000  0.89732000  1.0
  H  H11  1  0.65101000  0.51903000  0.60268000  1.0
  H  H12  1  0.15038000  0.09306000  0.89916000  1.0
  H  H13  1  0.34962000  0.09305000  0.60084000  1.0
  H  H14  1  0.84962000  0.90694000  0.10083000  1.0
  H  H15  1  0.65038000  0.90694000  0.39916000  1.0
  C  C16  1  0.41261000  0.28988000  0.99890000  1.0
  C  C17  1  0.08738000  0.28988000  0.50110000  1.0
  C  C18  1  0.58739000  0.71012000  0.00110000  1.0
  C  C19  1  0.91261000  0.71012000  0.49890000  1.0
  C  C20  1  0.84026000  0.17483000  0.11830000  1.0
  C  C21  1  0.65974000  0.17483000  0.38170000  1.0
  C  C22  1  0.15975000  0.82517000  0.88170000  1.0
  C  C23  1  0.34026000  0.82517000  0.61830000  1.0
  C  C24  1  0.46539000  0.14095000  0.99978000  1.0
  C  C25  1  0.03461000  0.14095000  0.50022000  1.0
  C  C26  1  0.53461000  0.85905000  0.00021000  1.0
  C  C27  1  0.96539000  0.85905000  0.49979000  1.0
  C  C28  1  0.66362000  0.08621000  0.05584000  1.0
  C  C29  1  0.83639000  0.08621000  0.44416000  1.0
  C  C30  1  0.33638000  0.91380000  0.94416000  1.0
  C  C31  1  0.16362000  0.91379000  0.55584000  1.0
  C  C32  1  0.30484000  0.05374000  0.94413000  1.0
  C  C33  1  0.19516000  0.05374000  0.55587000  1.0
  C  C34  1  0.69516000  0.94626000  0.05587000  1.0
  C  C35  1  0.80484000  0.94625000  0.44413000  1.0
  O  O36  1  0.33727000  0.34102000  0.10232000  1.0
  O  O37  1  0.16273000  0.34102000  0.39767000  1.0
  O  O38  1  0.66274000  0.65899000  0.89768000  1.0
  O  O39  1  0.83727000  0.65898000  0.60233000  1.0
  O  O40  1  0.42885000  0.35481000  0.89611000  1.0
  O  O41  1  0.07115000  0.35481000  0.60389000  1.0
  O  O42  1  0.57115000  0.64519000  0.10389000  1.0
  O  O43  1  0.92885000  0.64519000  0.39611000  1.0
  O  O44  1  0.81565000  0.30145000  0.11608000  1.0
  O  O45  1  0.68435000  0.30145000  0.38391000  1.0
  O  O46  1  0.18436000  0.69855000  0.88392000  1.0
  O  O47  1  0.31565000  0.69855000  0.61608000  1.0
  O  O48  1  0.00940000  0.11345000  0.17280000  1.0
  O  O49  1  0.49060000  0.11344000  0.32720000  1.0
  O  O50  1  0.99060000  0.88656000  0.82720000  1.0
  O  O51  1  0.50940000  0.88655000  0.67280000  1.0
  O  O52  1  0.06010000  0.55368000  0.13681000  1.0
  O  O53  1  0.43991000  0.55368000  0.36319000  1.0
  O  O54  1  0.93991000  0.44632000  0.86319000  1.0
  O  O55  1  0.56009000  0.44631000  0.63681000  1.0
