# generated using pymatgen
data_KH25C13(NO4)2
_symmetry_space_group_name_H-M   'P 1'
_cell_length_a   7.90392000
_cell_length_b   8.12448000
_cell_length_c   13.99690000
_cell_angle_alpha   90.00000000
_cell_angle_beta   89.99980000
_cell_angle_gamma   98.46900000
_symmetry_Int_Tables_number   1
_chemical_formula_structural   KH25C13(NO4)2
_chemical_formula_sum   'K2 H50 C26 N4 O16'
_cell_volume   889.01334360
_cell_formula_units_Z   2
loop_
 _symmetry_equiv_pos_site_id
 _symmetry_equiv_pos_as_xyz
  1  'x, y, z'
loop_
 _atom_site_type_symbol
 _atom_site_label
 _atom_site_symmetry_multiplicity
 _atom_site_fract_x
 _atom_site_fract_y
 _atom_site_fract_z
 _atom_site_occupancy
  K  K0  1  0.23830000  0.82083000  0.24787000  1.0
  K  K1  1  0.73828000  0.82082000  0.75214000  1.0
  H  H2  1  0.17005000  0.82327000  0.53032000  1.0
  H  H3  1  0.67005000  0.82327000  0.46968000  1.0
  H  H4  1  0.37871000  0.78851000  0.56795000  1.0
  H  H5  1  0.87871000  0.78851000  0.43204000  1.0
  H  H6  1  0.37737000  0.57192000  0.43936000  1.0
  H  H7  1  0.87737000  0.57192000  0.56064000  1.0
  H  H8  1  0.22109000  0.52257000  0.53172000  1.0
  H  H9  1  0.72109000  0.52257000  0.46828000  1.0
  H  H10  1  0.03770000  0.33684000  0.42261000  1.0
  H  H11  1  0.53770000  0.33684000  0.57739000  1.0
  H  H12  1  0.20979000  0.37895000  0.33951000  1.0
  H  H13  1  0.70979000  0.37895000  0.66049000  1.0
  H  H14  1  0.92812000  0.27940000  0.26485000  1.0
  H  H15  1  0.42812000  0.27941000  0.73516000  1.0
  H  H16  1  0.84643000  0.46132000  0.30717000  1.0
  H  H17  1  0.34643000  0.46132000  0.69283000  1.0
  H  H18  1  0.81398000  0.53343000  0.13525000  1.0
  H  H19  1  0.31398000  0.53343000  0.86475000  1.0
  H  H20  1  0.90947000  0.35641000  0.09991000  1.0
  H  H21  1  0.40946000  0.35641000  0.90009000  1.0
  H  H22  1  0.15808000  0.54312000  0.03044000  1.0
  H  H23  1  0.65808000  0.54311000  0.96956000  1.0
  H  H24  1  0.96036000  0.57121000  0.97541000  1.0
  H  H25  1  0.46036000  0.57121000  0.02459000  1.0
  H  H26  1  0.05639000  0.85887000  0.93202000  1.0
  H  H27  1  0.55640000  0.85886000  0.06798000  1.0
  H  H28  1  0.26220000  0.82138000  0.97180000  1.0
  H  H29  1  0.76220000  0.82138000  0.02820000  1.0
  H  H30  1  0.21613000  0.12207000  0.96768000  1.0
  H  H31  1  0.71613000  0.12206000  0.03232000  1.0
  H  H32  1  0.05828000  0.07800000  0.05988000  1.0
  H  H33  1  0.55828000  0.07800000  0.94012000  1.0
  H  H34  1  0.23358000  0.27209000  0.15803000  1.0
  H  H35  1  0.73357000  0.27208000  0.84197000  1.0
  H  H36  1  0.40902000  0.30445000  0.07608000  1.0
  H  H37  1  0.90902000  0.30444000  0.92392000  1.0
  H  H38  1  0.58217000  0.16052000  0.19719000  1.0
  H  H39  1  0.08217000  0.16052000  0.80281000  1.0
  H  H40  1  0.52680000  0.35983000  0.23120000  1.0
  H  H41  1  0.02680000  0.35983000  0.76880000  1.0
  H  H42  1  0.53291000  0.28819000  0.40355000  1.0
  H  H43  1  0.03291000  0.28819000  0.59644000  1.0
  H  H44  1  0.61227000  0.10505000  0.36193000  1.0
  H  H45  1  0.11227000  0.10505000  0.63807000  1.0
  H  H46  1  0.47289000  0.07420000  0.52572000  1.0
  H  H47  1  0.97289000  0.07420000  0.47428000  1.0
  H  H48  1  0.27495000  0.10524000  0.47176000  1.0
  H  H49  1  0.77495000  0.10524000  0.52824000  1.0
  H  H50  1  0.82916000  0.72021000  0.26890000  1.0
  H  H51  1  0.32915000  0.72021000  0.73110000  1.0
  C  C52  1  0.29074000  0.78282000  0.50642000  1.0
  C  C53  1  0.79074000  0.78282000  0.49358000  1.0
  C  C54  1  0.25869000  0.60612000  0.47043000  1.0
  C  C55  1  0.75869000  0.60612000  0.52957000  1.0
  C  C56  1  0.09130000  0.42172000  0.36483000  1.0
  C  C57  1  0.59130000  0.42172000  0.63517000  1.0
  C  C58  1  0.96319000  0.41141000  0.28462000  1.0
  C  C59  1  0.46318000  0.41141000  0.71538000  1.0
  C  C60  1  0.93740000  0.48874000  0.12171000  1.0
  C  C61  1  0.43739000  0.48874000  0.87830000  1.0
  C  C62  1  0.03433000  0.58843000  0.04272000  1.0
  C  C63  1  0.53433000  0.58843000  0.95729000  1.0
  C  C64  1  0.14178000  0.86376000  0.99453000  1.0
  C  C65  1  0.64178000  0.86376000  0.00547000  1.0
  C  C66  1  0.17626000  0.04080000  0.02961000  1.0
  C  C67  1  0.67626000  0.04079000  0.97039000  1.0
  C  C68  1  0.35000000  0.22344000  0.13431000  1.0
  C  C69  1  0.85000000  0.22343000  0.86569000  1.0
  C  C70  1  0.47549000  0.22860000  0.21572000  1.0
  C  C71  1  0.97549000  0.22860000  0.78428000  1.0
  C  C72  1  0.49507000  0.15783000  0.37954000  1.0
  C  C73  1  0.99507000  0.15783000  0.62046000  1.0
  C  C74  1  0.39790000  0.05903000  0.45873000  1.0
  C  C75  1  0.89790000  0.05903000  0.54127000  1.0
  C  C76  1  0.75192000  0.81886000  0.25275000  1.0
  C  C77  1  0.25189000  0.81888000  0.74725000  1.0
  N  N78  1  0.58268000  0.78648000  0.23738000  1.0
  N  N79  1  0.08267000  0.78648000  0.76262000  1.0
  N  N80  1  0.81993000  0.98093000  0.25023000  1.0
  N  N81  1  0.31991000  0.98093000  0.74977000  1.0
  O  O82  1  0.36770000  0.88810000  0.43163000  1.0
  O  O83  1  0.86770000  0.88810000  0.56837000  1.0
  O  O84  1  0.12630000  0.58875000  0.40009000  1.0
  O  O85  1  0.62630000  0.58875000  0.59991000  1.0
  O  O86  1  0.04109000  0.50531000  0.20523000  1.0
  O  O87  1  0.54108000  0.50532000  0.79477000  1.0
  O  O88  1  0.06252000  0.75933000  0.06952000  1.0
  O  O89  1  0.56251000  0.75933000  0.93049000  1.0
  O  O90  1  0.30781000  0.05637000  0.10021000  1.0
  O  O91  1  0.80781000  0.05636000  0.89979000  1.0
  O  O92  1  0.38714000  0.15291000  0.29788000  1.0
  O  O93  1  0.88714000  0.15291000  0.70212000  1.0
  O  O94  1  0.51571000  0.63296000  0.24256000  1.0
  O  O95  1  0.01570000  0.63295000  0.75744000  1.0
  O  O96  1  0.97950000  0.01196000  0.27016000  1.0
  O  O97  1  0.47950000  0.01196000  0.72985000  1.0
