# generated using pymatgen
data_CdH10C16S(NO2)2
_symmetry_space_group_name_H-M   'P 1'
_cell_length_a   9.66101000
_cell_length_b   9.67381000
_cell_length_c   19.38460000
_cell_angle_alpha   90.00000000
_cell_angle_beta   90.00000000
_cell_angle_gamma   105.13400000
_symmetry_Int_Tables_number   1
_chemical_formula_structural   CdH10C16S(NO2)2
_chemical_formula_sum   'Cd4 H40 C64 S4 N8 O16'
_cell_volume   1748.82871936
_cell_formula_units_Z   4
loop_
 _symmetry_equiv_pos_site_id
 _symmetry_equiv_pos_as_xyz
  1  'x, y, z'
loop_
 _atom_site_type_symbol
 _atom_site_label
 _atom_site_symmetry_multiplicity
 _atom_site_fract_x
 _atom_site_fract_y
 _atom_site_fract_z
 _atom_site_occupancy
  Cd  Cd0  1  0.89290000  0.10707000  0.55554000  1.0
  Cd  Cd1  1  0.60710000  0.39293000  0.05554000  1.0
  Cd  Cd2  1  0.10710000  0.89293000  0.44446000  1.0
  Cd  Cd3  1  0.39290000  0.60707000  0.94446000  1.0
  H  H4  1  0.75208000  0.84309000  0.65700000  1.0
  H  H5  1  0.74792000  0.65691000  0.15700000  1.0
  H  H6  1  0.84298000  0.75191000  0.34306000  1.0
  H  H7  1  0.65702000  0.74809000  0.84306000  1.0
  H  H8  1  0.24792000  0.15691000  0.34300000  1.0
  H  H9  1  0.25208000  0.34309000  0.84300000  1.0
  H  H10  1  0.15703000  0.24809000  0.65694000  1.0
  H  H11  1  0.34298000  0.25191000  0.15694000  1.0
  H  H12  1  0.54440000  0.63034000  0.66389000  1.0
  H  H13  1  0.95560000  0.86966000  0.16389000  1.0
  H  H14  1  0.63021000  0.54428000  0.33608000  1.0
  H  H15  1  0.86979000  0.95572000  0.83608000  1.0
  H  H16  1  0.45560000  0.36966000  0.33611000  1.0
  H  H17  1  0.04440000  0.13034000  0.83611000  1.0
  H  H18  1  0.36979000  0.45572000  0.66392000  1.0
  H  H19  1  0.13021000  0.04428000  0.16392000  1.0
  H  H20  1  0.42433000  0.73952000  0.45912000  1.0
  H  H21  1  0.07567000  0.76048000  0.95912000  1.0
  H  H22  1  0.73962000  0.42445000  0.54085000  1.0
  H  H23  1  0.76038000  0.07555000  0.04085000  1.0
  H  H24  1  0.57567000  0.26048000  0.54088000  1.0
  H  H25  1  0.92433000  0.23952000  0.04088000  1.0
  H  H26  1  0.26038000  0.57555000  0.45915000  1.0
  H  H27  1  0.23962000  0.92445000  0.95915000  1.0
  H  H28  1  0.63555000  0.94715000  0.46253000  1.0
  H  H29  1  0.86445000  0.55285000  0.96253000  1.0
  H  H30  1  0.94733000  0.63566000  0.53752000  1.0
  H  H31  1  0.55267000  0.86434000  0.03752000  1.0
  H  H32  1  0.36445000  0.05285000  0.53747000  1.0
  H  H33  1  0.13555000  0.44715000  0.03747000  1.0
  H  H34  1  0.05268000  0.36434000  0.46248000  1.0
  H  H35  1  0.44733000  0.13566000  0.96248000  1.0
  H  H36  1  0.51105000  0.48896000  0.78715000  1.0
  H  H37  1  0.98895000  0.01104000  0.28715000  1.0
  H  H38  1  0.48895000  0.51104000  0.21285000  1.0
  H  H39  1  0.01105000  0.98896000  0.71285000  1.0
  H  H40  1  0.59546000  0.40455000  0.66554000  1.0
  H  H41  1  0.90454000  0.09545000  0.16554000  1.0
  H  H42  1  0.40454000  0.59545000  0.33446000  1.0
  H  H43  1  0.09546000  0.90455000  0.83446000  1.0
  C  C44  1  0.67705000  0.81413000  0.61409000  1.0
  C  C45  1  0.82296000  0.68587000  0.11409000  1.0
  C  C46  1  0.81405000  0.67693000  0.38595000  1.0
  C  C47  1  0.68595000  0.82307000  0.88595000  1.0
  C  C48  1  0.32295000  0.18587000  0.38591000  1.0
  C  C49  1  0.17705000  0.31413000  0.88591000  1.0
  C  C50  1  0.18595000  0.32307000  0.61405000  1.0
  C  C51  1  0.31405000  0.17693000  0.11405000  1.0
  C  C52  1  0.56047000  0.69434000  0.61700000  1.0
  C  C53  1  0.93953000  0.80566000  0.11700000  1.0
  C  C54  1  0.69424000  0.56036000  0.38299000  1.0
  C  C55  1  0.80576000  0.93964000  0.88299000  1.0
  C  C56  1  0.43953000  0.30566000  0.38300000  1.0
  C  C57  1  0.06047000  0.19434000  0.88300000  1.0
  C  C58  1  0.30576000  0.43964000  0.61701000  1.0
  C  C59  1  0.19424000  0.06036000  0.11701000  1.0
  C  C60  1  0.46558000  0.66050000  0.56081000  1.0
  C  C61  1  0.03441000  0.83950000  0.06081000  1.0
  C  C62  1  0.66047000  0.46557000  0.43917000  1.0
  C  C63  1  0.83953000  0.03443000  0.93917000  1.0
  C  C64  1  0.53442000  0.33950000  0.43919000  1.0
  C  C65  1  0.96559000  0.16050000  0.93919000  1.0
  C  C66  1  0.33952000  0.53443000  0.56083000  1.0
  C  C67  1  0.16048000  0.96557000  0.06083000  1.0
  C  C68  1  0.49453000  0.75378000  0.50397000  1.0
  C  C69  1  0.00547000  0.74622000  0.00397000  1.0
  C  C70  1  0.75386000  0.49459000  0.49602000  1.0
  C  C71  1  0.74614000  0.00541000  0.99602000  1.0
  C  C72  1  0.50547000  0.24622000  0.49603000  1.0
  C  C73  1  0.99453000  0.25378000  0.99603000  1.0
  C  C74  1  0.24614000  0.50541000  0.50398000  1.0
  C  C75  1  0.25386000  0.99459000  0.00398000  1.0
  C  C76  1  0.61265000  0.87165000  0.50539000  1.0
  C  C77  1  0.88735000  0.62835000  0.00539000  1.0
  C  C78  1  0.87174000  0.61270000  0.49466000  1.0
  C  C79  1  0.62826000  0.88730000  0.99466000  1.0
  C  C80  1  0.38735000  0.12835000  0.49461000  1.0
  C  C81  1  0.11265000  0.37165000  0.99461000  1.0
  C  C82  1  0.12826000  0.38730000  0.50534000  1.0
  C  C83  1  0.37174000  0.11270000  0.00534000  1.0
  C  C84  1  0.62289000  0.37714000  0.90987000  1.0
  C  C85  1  0.87711000  0.12286000  0.40987000  1.0
  C  C86  1  0.37711000  0.62286000  0.09013000  1.0
  C  C87  1  0.12289000  0.87714000  0.59013000  1.0
  C  C88  1  0.63943000  0.36057000  0.83528000  1.0
  C  C89  1  0.86057000  0.13943000  0.33528000  1.0
  C  C90  1  0.36057000  0.63943000  0.16472000  1.0
  C  C91  1  0.13943000  0.86057000  0.66472000  1.0
  C  C92  1  0.58159000  0.41843000  0.78015000  1.0
  C  C93  1  0.91841000  0.08157000  0.28015000  1.0
  C  C94  1  0.41841000  0.58157000  0.21985000  1.0
  C  C95  1  0.08159000  0.91843000  0.71985000  1.0
  C  C96  1  0.62575000  0.37426000  0.71630000  1.0
  C  C97  1  0.87425000  0.12574000  0.21630000  1.0
  C  C98  1  0.37425000  0.62574000  0.28370000  1.0
  C  C99  1  0.12575000  0.87426000  0.78370000  1.0
  C  C100  1  0.71564000  0.28436000  0.72387000  1.0
  C  C101  1  0.78436000  0.21564000  0.22387000  1.0
  C  C102  1  0.28436000  0.71564000  0.27613000  1.0
  C  C103  1  0.21564000  0.78436000  0.77613000  1.0
  C  C104  1  0.78208000  0.21791000  0.66890000  1.0
  C  C105  1  0.71792000  0.28209000  0.16890000  1.0
  C  C106  1  0.21792000  0.78209000  0.33110000  1.0
  C  C107  1  0.28208000  0.71791000  0.83110000  1.0
  S  S108  1  0.74611000  0.25388000  0.80866000  1.0
  S  S109  1  0.75389000  0.24612000  0.30866000  1.0
  S  S110  1  0.25389000  0.74612000  0.19134000  1.0
  S  S111  1  0.24611000  0.75388000  0.69134000  1.0
  N  N112  1  0.70353000  0.90178000  0.55912000  1.0
  N  N113  1  0.79647000  0.59822000  0.05912000  1.0
  N  N114  1  0.90176000  0.70351000  0.44093000  1.0
  N  N115  1  0.59824000  0.79649000  0.94093000  1.0
  N  N116  1  0.29648000  0.09822000  0.44088000  1.0
  N  N117  1  0.20352000  0.40178000  0.94088000  1.0
  N  N118  1  0.09824000  0.29649000  0.55907000  1.0
  N  N119  1  0.40176000  0.20351000  0.05907000  1.0
  O  O120  1  0.68892000  0.31111000  0.94988000  1.0
  O  O121  1  0.81108000  0.18889000  0.44988000  1.0
  O  O122  1  0.31108000  0.68889000  0.05012000  1.0
  O  O123  1  0.18892000  0.81111000  0.55012000  1.0
  O  O124  1  0.54506000  0.45498000  0.93301000  1.0
  O  O125  1  0.95494000  0.04502000  0.43301000  1.0
  O  O126  1  0.45494000  0.54502000  0.06699000  1.0
  O  O127  1  0.04506000  0.95498000  0.56699000  1.0
  O  O128  1  0.86258000  0.13743000  0.68500000  1.0
  O  O129  1  0.63742000  0.36257000  0.18500000  1.0
  O  O130  1  0.13742000  0.86257000  0.31500000  1.0
  O  O131  1  0.36258000  0.63743000  0.81500000  1.0
  O  O132  1  0.75410000  0.24586000  0.60670000  1.0
  O  O133  1  0.74590000  0.25414000  0.10670000  1.0
  O  O134  1  0.24590000  0.75414000  0.39330000  1.0
  O  O135  1  0.25410000  0.74586000  0.89330000  1.0
