# generated using pymatgen
data_Al6H42C84Br13O28F13
_symmetry_space_group_name_H-M   'P 1'
_cell_length_a   13.70190000
_cell_length_b   13.74580000
_cell_length_c   28.06100000
_cell_angle_alpha   90.37680000
_cell_angle_beta   90.05030000
_cell_angle_gamma   119.27300000
_symmetry_Int_Tables_number   1
_chemical_formula_structural   Al6H42C84Br13O28F13
_chemical_formula_sum   'Al6 H42 C84 Br13 O28 F13'
_cell_volume   4610.04912094
_cell_formula_units_Z   1
loop_
 _symmetry_equiv_pos_site_id
 _symmetry_equiv_pos_as_xyz
  1  'x, y, z'
loop_
 _atom_site_type_symbol
 _atom_site_label
 _atom_site_symmetry_multiplicity
 _atom_site_fract_x
 _atom_site_fract_y
 _atom_site_fract_z
 _atom_site_occupancy
  Al  Al0  1  0.41752000  0.58784000  0.50256000  1.0
  Al  Al1  1  0.64275000  0.56953000  0.49946000  1.0
  Al  Al2  1  0.42380000  0.35740000  0.50140000  1.0
  Al  Al3  1  0.92105000  0.07954000  0.99697000  1.0
  Al  Al4  1  0.90854000  0.30707000  0.00263000  1.0
  Al  Al5  1  0.69232000  0.09144000  0.00112000  1.0
  H  H6  1  0.79230000  0.51034000  0.78294000  1.0
  H  H7  1  0.64913000  0.00396000  0.77976000  1.0
  H  H8  1  0.78645000  0.02563000  0.77037000  1.0
  H  H9  1  0.72378000  0.73395000  0.79216000  1.0
  H  H10  1  0.58005000  0.65567000  0.72769000  1.0
  H  H11  1  0.53187000  0.68922000  0.80167000  1.0
  H  H12  1  0.49444000  0.29723000  0.19127000  1.0
  H  H13  1  0.46540000  0.26834000  0.27357000  1.0
  H  H14  1  0.69793000  0.21727000  0.29917000  1.0
  H  H15  1  0.55040000  0.15577000  0.29762000  1.0
  H  H16  1  0.54635000  0.14532000  0.21401000  1.0
  H  H17  1  0.05820000  0.14453000  0.79252000  1.0
  H  H18  1  0.68729000  0.17806000  0.21725000  1.0
  H  H19  1  0.81956000  0.41591000  0.29949000  1.0
  H  H20  1  0.50886000  0.21564000  0.78354000  1.0
  H  H21  1  0.59963000  0.43789000  0.20063000  1.0
  H  H22  1  0.83867000  0.38690000  0.21976000  1.0
  H  H23  1  0.28845000  0.52218000  0.28284000  1.0
  H  H24  1  0.00940000  0.25449000  0.29840000  1.0
  H  H25  1  0.07409000  0.42427000  0.22095000  1.0
  H  H26  1  0.59224000  0.13965000  0.70778000  1.0
  H  H27  1  0.12527000  0.16326000  0.29783000  1.0
  H  H28  1  0.14501000  0.47410000  0.69645000  1.0
  H  H29  1  0.36660000  0.45118000  0.27790000  1.0
  H  H30  1  0.06006000  0.15369000  0.22142000  1.0
  H  H31  1  0.81134000  0.00754000  0.30616000  1.0
  H  H32  1  0.85626000  0.90667000  0.30296000  1.0
  H  H33  1  0.80127000  0.22877000  0.75523000  1.0
  H  H34  1  0.84294000  0.02905000  0.22434000  1.0
  H  H35  1  0.60365000  0.94647000  0.31103000  1.0
  H  H36  1  0.67505000  0.01221000  0.23696000  1.0
  H  H37  1  0.26461000  0.29318000  0.79740000  1.0
  H  H38  1  0.31902000  0.33420000  0.71778000  1.0
  H  H39  1  0.01471000  0.34890000  0.69798000  1.0
  H  H40  1  0.00588000  0.16258000  0.69751000  1.0
  H  H41  1  0.32024000  0.46359000  0.72068000  1.0
  H  H42  1  0.30268000  0.43562000  0.80346000  1.0
  H  H43  1  0.01557000  0.39593000  0.77878000  1.0
  H  H44  1  0.87459000  0.43429000  0.70746000  1.0
  H  H45  1  0.58181000  0.91436000  0.70523000  1.0
  H  H46  1  0.34003000  0.69443000  0.53317000  1.0
  H  H47  1  0.00926000  0.97976000  0.02279000  1.0
  C  C48  1  0.62198000  0.70761000  0.56664000  1.0
  C  C49  1  0.65781000  0.35045000  0.64915000  1.0
  C  C50  1  0.27185000  0.37494000  0.72972000  1.0
  C  C51  1  0.60386000  0.39484000  0.56446000  1.0
  C  C52  1  0.08315000  0.20427000  0.71863000  1.0
  C  C53  1  0.05287000  0.20818000  0.77111000  1.0
  C  C54  1  0.08141000  0.30803000  0.88602000  1.0
  C  C55  1  0.16055000  0.32403000  0.70111000  1.0
  C  C56  1  0.24901000  0.35886000  0.78346000  1.0
  C  C57  1  0.12518000  0.32534000  0.79327000  1.0
  C  C58  1  0.09666000  0.40701000  0.76690000  1.0
  C  C59  1  0.63638000  0.36706000  0.60881000  1.0
  C  C60  1  0.09988000  0.39156000  0.71295000  1.0
  C  C61  1  0.10331000  0.32087000  0.84388000  1.0
  C  C62  1  0.18936000  0.33201000  0.65104000  1.0
  C  C63  1  0.29147000  0.38740000  0.56771000  1.0
  C  C64  1  0.22789000  0.35185000  0.61106000  1.0
  C  C65  1  0.56738000  0.72860000  0.72661000  1.0
  C  C66  1  0.66763000  0.93321000  0.71334000  1.0
  C  C67  1  0.69741000  0.96608000  0.76565000  1.0
  C  C68  1  0.68246000  0.90796000  0.88723000  1.0
  C  C69  1  0.67308000  0.82512000  0.70195000  1.0
  C  C70  1  0.75255000  0.27141000  0.75064000  1.0
  C  C71  1  0.55569000  0.76109000  0.77844000  1.0
  C  C72  1  0.67041000  0.85978000  0.79476000  1.0
  C  C73  1  0.75789000  0.82136000  0.78196000  1.0
  C  C74  1  0.77790000  0.83173000  0.72780000  1.0
  C  C75  1  0.61481000  0.70843000  0.43628000  1.0
  C  C76  1  0.67220000  0.88267000  0.84528000  1.0
  C  C77  1  0.67184000  0.80179000  0.65166000  1.0
  C  C78  1  0.65909000  0.76941000  0.61067000  1.0
  C  C79  1  0.54523000  0.34275000  0.26524000  1.0
  C  C80  1  0.62798000  0.22179000  0.28206000  1.0
  C  C81  1  0.70639000  0.31363000  0.79360000  1.0
  C  C82  1  0.62892000  0.20768000  0.22743000  1.0
  C  C83  1  0.69543000  0.29247000  0.11028000  1.0
  C  C84  1  0.63874000  0.33699000  0.29446000  1.0
  C  C85  1  0.57047000  0.35156000  0.21169000  1.0
  C  C86  1  0.66241000  0.31970000  0.20194000  1.0
  C  C87  1  0.59272000  0.39141000  0.43382000  1.0
  C  C88  1  0.77326000  0.41039000  0.22432000  1.0
  C  C89  1  0.75709000  0.42562000  0.27837000  1.0
  C  C90  1  0.67815000  0.30723000  0.15149000  1.0
  C  C91  1  0.62427000  0.34881000  0.34500000  1.0
  C  C92  1  0.63653000  0.22157000  0.72494000  1.0
  C  C93  1  0.61330000  0.36233000  0.38711000  1.0
  C  C94  1  0.28569000  0.44559000  0.26981000  1.0
  C  C95  1  0.07536000  0.33401000  0.28463000  1.0
  C  C96  1  0.06407000  0.34298000  0.23076000  1.0
  C  C97  1  0.10063000  0.30318000  0.11130000  1.0
  C  C98  1  0.19103000  0.34455000  0.29604000  1.0
  C  C99  1  0.29639000  0.39578000  0.43462000  1.0
  C  C100  1  0.26752000  0.43194000  0.21578000  1.0
  C  C101  1  0.15382000  0.32610000  0.20314000  1.0
  C  C102  1  0.14825000  0.21846000  0.22384000  1.0
  C  C103  1  0.67759000  0.33526000  0.69730000  1.0
  C  C104  1  0.18441000  0.23505000  0.27664000  1.0
  C  C105  1  0.13024000  0.31603000  0.15261000  1.0
  C  C106  1  0.21571000  0.35552000  0.34663000  1.0
  C  C107  1  0.24463000  0.36827000  0.38810000  1.0
  C  C108  1  0.65090000  0.72991000  0.27316000  1.0
  C  C109  1  0.79469000  0.92853000  0.28917000  1.0
  C  C110  1  0.80779000  0.94146000  0.23479000  1.0
  C  C111  1  0.79354000  0.38511000  0.72469000  1.0
  C  C112  1  0.71403000  0.92769000  0.11731000  1.0
  C  C113  1  0.67535000  0.83679000  0.30256000  1.0
  C  C114  1  0.59023000  0.26315000  0.76645000  1.0
  C  C115  1  0.63944000  0.74786000  0.21860000  1.0
  C  C116  1  0.69183000  0.87511000  0.20913000  1.0
  C  C117  1  0.62124000  0.92128000  0.23536000  1.0
  C  C118  1  0.59340000  0.87833000  0.28706000  1.0
  C  C119  1  0.70268000  0.90056000  0.15882000  1.0
  C  C120  1  0.66377000  0.80760000  0.35251000  1.0
  C  C121  1  0.64841000  0.77135000  0.39269000  1.0
  C  C122  1  0.03442000  0.27585000  0.93280000  1.0
  C  C123  1  0.74823000  0.42778000  0.76632000  1.0
  C  C124  1  0.74144000  0.26559000  0.93370000  1.0
  C  C125  1  0.63230000  0.37661000  0.74109000  1.0
  C  C126  1  0.71479000  0.95843000  0.93390000  1.0
  C  C127  1  0.04420000  0.27578000  0.06588000  1.0
  C  C128  1  0.72668000  0.26579000  0.06525000  1.0
  C  C129  1  0.73609000  0.97120000  0.06955000  1.0
  C  C130  1  0.72464000  0.28862000  0.88555000  1.0
  C  C131  1  0.71839000  0.30099000  0.84288000  1.0
  Br  Br132  1  0.15178000  0.10836000  0.71080000  1.0
  Br  Br133  1  0.91113000  0.23741000  0.20901000  1.0
  Br  Br134  1  0.22266000  0.15495000  0.18587000  1.0
  Br  Br135  1  0.70229000  0.67587000  0.17892000  1.0
  Br  Br136  1  0.48999000  0.90359000  0.20101000  1.0
  Br  Br137  1  0.43746000  0.80003000  0.79004000  1.0
  Br  Br138  1  0.43329000  0.67659000  0.68715000  1.0
  Br  Br139  1  0.75653000  0.05730000  0.66977000  1.0
  Br  Br140  1  0.81173000  0.71528000  0.70549000  1.0
  Br  Br141  1  0.54194000  0.44673000  0.73494000  1.0
  Br  Br142  1  0.89789000  0.89880000  0.81749000  1.0
  Br  Br143  1  0.27094000  0.56544000  0.18764000  1.0
  Br  Br144  1  0.05135000  0.44645000  0.31801000  1.0
  O  O145  1  0.32375000  0.48604000  0.55436000  1.0
  O  O146  1  0.66923000  0.17204000  0.95103000  1.0
  O  O147  1  0.64338000  0.97708000  0.95646000  1.0
  O  O148  1  0.52502000  0.68325000  0.55263000  1.0
  O  O149  1  0.82746000  0.98984000  0.05108000  1.0
  O  O150  1  0.02373000  0.18460000  0.04669000  1.0
  O  O151  1  0.01473000  0.34589000  0.05052000  1.0
  O  O152  1  0.82389000  0.33374000  0.04940000  1.0
  O  O153  1  0.65722000  0.17303000  0.04543000  1.0
  O  O154  1  0.66166000  0.99088000  0.05091000  1.0
  O  O155  1  0.83984000  0.16002000  0.00074000  1.0
  O  O156  1  0.66506000  0.48649000  0.45066000  1.0
  O  O157  1  0.68875000  0.67847000  0.54701000  1.0
  O  O158  1  0.67392000  0.48670000  0.54495000  1.0
  O  O159  1  0.50555000  0.32800000  0.54871000  1.0
  O  O160  1  0.31373000  0.31615000  0.54717000  1.0
  O  O161  1  0.32109000  0.49021000  0.45156000  1.0
  O  O162  1  0.51922000  0.68277000  0.45196000  1.0
  O  O163  1  0.68444000  0.68042000  0.45389000  1.0
  O  O164  1  0.50151000  0.32277000  0.45437000  1.0
  O  O165  1  0.31646000  0.32224000  0.45356000  1.0
  O  O166  1  0.49558000  0.50446000  0.50123000  1.0
  O  O167  1  0.81210000  0.98455000  0.94768000  1.0
  O  O168  1  0.00748000  0.17794000  0.94541000  1.0
  O  O169  1  0.01967000  0.34780000  0.95686000  1.0
  O  O170  1  0.83031000  0.33839000  0.95502000  1.0
  O  O171  1  0.34467000  0.66258000  0.50304000  1.0
  O  O172  1  0.99305000  0.00436000  0.99311000  1.0
  F  F173  1  0.93883000  0.18302000  0.77297000  1.0
  F  F174  1  0.88382000  0.90810000  0.21872000  1.0
  F  F175  1  0.48341000  0.79317000  0.29196000  1.0
  F  F176  1  0.55555000  0.63944000  0.28839000  1.0
  F  F177  1  0.52686000  0.69800000  0.20777000  1.0
  F  F178  1  0.17699000  0.51723000  0.78001000  1.0
  F  F179  1  0.86936000  0.93246000  0.71608000  1.0
  F  F180  1  0.77477000  0.53272000  0.28723000  1.0
  F  F181  1  0.80976000  0.51116000  0.20044000  1.0
  F  F182  1  0.53361000  0.43453000  0.27997000  1.0
  F  F183  1  0.28950000  0.24370000  0.28322000  1.0
  F  F184  1  0.35278000  0.42123000  0.19438000  1.0
  F  F185  1  0.73759000  0.70927000  0.28122000  1.0
