# generated using pymatgen
data_Cd2H34C50N4O17
_symmetry_space_group_name_H-M   'P 1'
_cell_length_a   11.12170000
_cell_length_b   13.01500000
_cell_length_c   17.11070000
_cell_angle_alpha   93.43090000
_cell_angle_beta   90.60300000
_cell_angle_gamma   94.34850000
_symmetry_Int_Tables_number   1
_chemical_formula_structural   Cd2H34C50N4O17
_chemical_formula_sum   'Cd4 H68 C100 N8 O34'
_cell_volume   2464.91704306
_cell_formula_units_Z   2
loop_
 _symmetry_equiv_pos_site_id
 _symmetry_equiv_pos_as_xyz
  1  'x, y, z'
loop_
 _atom_site_type_symbol
 _atom_site_label
 _atom_site_symmetry_multiplicity
 _atom_site_fract_x
 _atom_site_fract_y
 _atom_site_fract_z
 _atom_site_occupancy
  Cd  Cd0  1  0.83424000  0.47323000  0.88372000  1.0
  Cd  Cd1  1  0.16576000  0.52677000  0.11627000  1.0
  Cd  Cd2  1  0.02586000  0.23845000  0.49148000  1.0
  Cd  Cd3  1  0.97413000  0.76155000  0.50853000  1.0
  H  H4  1  0.56640000  0.16259000  0.87695000  1.0
  H  H5  1  0.43360000  0.83741000  0.12305000  1.0
  H  H6  1  0.65367000  0.61046000  0.98292000  1.0
  H  H7  1  0.34632000  0.38954000  0.01708000  1.0
  H  H8  1  0.70894000  0.51552000  0.55660000  1.0
  H  H9  1  0.29107000  0.48448000  0.44340000  1.0
  H  H10  1  0.10051000  0.14102000  0.17013000  1.0
  H  H11  1  0.89948000  0.85898000  0.82988000  1.0
  H  H12  1  0.34441000  0.99613000  0.11262000  1.0
  H  H13  1  0.65559000  0.00387000  0.88739000  1.0
  H  H14  1  0.67274000  0.14780000  0.11900000  1.0
  H  H15  1  0.32727000  0.85220000  0.88100000  1.0
  H  H16  1  0.29708000  0.16743000  0.05772000  1.0
  H  H17  1  0.70292000  0.83258000  0.94228000  1.0
  H  H18  1  0.79877000  0.97716000  0.04367000  1.0
  H  H19  1  0.20122000  0.02284000  0.95633000  1.0
  H  H20  1  0.44438000  0.95654000  0.70338000  1.0
  H  H21  1  0.55562000  0.04346000  0.29662000  1.0
  H  H22  1  0.86788000  0.28312000  0.75417000  1.0
  H  H23  1  0.13212000  0.71688000  0.24584000  1.0
  H  H24  1  0.16695000  0.90211000  0.16839000  1.0
  H  H25  1  0.83305000  0.09788000  0.83161000  1.0
  H  H26  1  0.45687000  0.01652000  0.84386000  1.0
  H  H27  1  0.54314000  0.98348000  0.15614000  1.0
  H  H28  1  0.07854000  0.97560000  0.29122000  1.0
  H  H29  1  0.92147000  0.02439000  0.70877000  1.0
  H  H30  1  0.43509000  0.32350000  0.72162000  1.0
  H  H31  1  0.56492000  0.67650000  0.27838000  1.0
  H  H32  1  0.96875000  0.97740000  0.13931000  1.0
  H  H33  1  0.03125000  0.02260000  0.86070000  1.0
  H  H34  1  0.30397000  0.03621000  0.61345000  1.0
  H  H35  1  0.69603000  0.96379000  0.38655000  1.0
  H  H36  1  0.43776000  0.65711000  0.98211000  1.0
  H  H37  1  0.56224000  0.34288000  0.01788000  1.0
  H  H38  1  0.74558000  0.15752000  0.66348000  1.0
  H  H39  1  0.25443000  0.84248000  0.33652000  1.0
  H  H40  1  0.37424000  0.44856000  0.77904000  1.0
  H  H41  1  0.62576000  0.55144000  0.22096000  1.0
  H  H42  1  0.29838000  0.57704000  0.87612000  1.0
  H  H43  1  0.70161000  0.42296000  0.12388000  1.0
  H  H44  1  0.09068000  0.39537000  0.64797000  1.0
  H  H45  1  0.90932000  0.60463000  0.35203000  1.0
  H  H46  1  0.86642000  0.17091000  0.33562000  1.0
  H  H47  1  0.13358000  0.82908000  0.66438000  1.0
  H  H48  1  0.52504000  0.18334000  0.64310000  1.0
  H  H49  1  0.47496000  0.81666000  0.35690000  1.0
  H  H50  1  0.99830000  0.53652000  0.72656000  1.0
  H  H51  1  0.00170000  0.46348000  0.27343000  1.0
  H  H52  1  0.79878000  0.59523000  0.67914000  1.0
  H  H53  1  0.20122000  0.40477000  0.32085000  1.0
  H  H54  1  0.65691000  0.46319000  0.44709000  1.0
  H  H55  1  0.34309000  0.53681000  0.55291000  1.0
  H  H56  1  0.68778000  0.22715000  0.26297000  1.0
  H  H57  1  0.31222000  0.77284000  0.73704000  1.0
  H  H58  1  0.57767000  0.37388000  0.32251000  1.0
  H  H59  1  0.42233000  0.62612000  0.67748000  1.0
  H  H60  1  0.96848000  0.16414000  0.63776000  1.0
  H  H61  1  0.03152000  0.83586000  0.36224000  1.0
  H  H62  1  0.08851000  0.43439000  0.84017000  1.0
  H  H63  1  0.91149000  0.56561000  0.15983000  1.0
  H  H64  1  0.08793000  0.53207000  0.90073000  1.0
  H  H65  1  0.91207000  0.46794000  0.09927000  1.0
  H  H66  1  0.80942000  0.11823000  0.54762000  1.0
  H  H67  1  0.19058000  0.88178000  0.45238000  1.0
  H  H68  1  0.89989000  0.03093000  0.56980000  1.0
  H  H69  1  0.10011000  0.96907000  0.43020000  1.0
  H  H70  1  0.01038000  0.25340000  0.88761000  1.0
  H  H71  1  0.98963000  0.74659000  0.11239000  1.0
  C  C72  1  0.54096000  0.15914000  0.93793000  1.0
  C  C73  1  0.45903000  0.84086000  0.06207000  1.0
  C  C74  1  0.80153000  0.36277000  0.45919000  1.0
  C  C75  1  0.19846000  0.63722000  0.54082000  1.0
  C  C76  1  0.35991000  0.11508000  0.20569000  1.0
  C  C77  1  0.64008000  0.88492000  0.79431000  1.0
  C  C78  1  0.01220000  0.22585000  0.08612000  1.0
  C  C79  1  0.98781000  0.77415000  0.91388000  1.0
  C  C80  1  0.63001000  0.15125000  0.99524000  1.0
  C  C81  1  0.36999000  0.84875000  0.00476000  1.0
  C  C82  1  0.91696000  0.22573000  0.03172000  1.0
  C  C83  1  0.08304000  0.77427000  0.96828000  1.0
  C  C84  1  0.48296000  0.15897000  0.09661000  1.0
  C  C85  1  0.51704000  0.84104000  0.90339000  1.0
  C  C86  1  0.58800000  0.57577000  0.93930000  1.0
  C  C87  1  0.41200000  0.42423000  0.06070000  1.0
  C  C88  1  0.21540000  0.10123000  0.30774000  1.0
  C  C89  1  0.78460000  0.89877000  0.69226000  1.0
  C  C90  1  0.79428000  0.49003000  0.57679000  1.0
  C  C91  1  0.20572000  0.50996000  0.42322000  1.0
  C  C92  1  0.32414000  0.12742000  0.83402000  1.0
  C  C93  1  0.67586000  0.87258000  0.16598000  1.0
  C  C94  1  0.02793000  0.13775000  0.12668000  1.0
  C  C95  1  0.97206000  0.86225000  0.87332000  1.0
  C  C96  1  0.42173000  0.16086000  0.96193000  1.0
  C  C97  1  0.57827000  0.83913000  0.03807000  1.0
  C  C98  1  0.89080000  0.31659000  0.98593000  1.0
  C  C99  1  0.10920000  0.68341000  0.01407000  1.0
  C  C100  1  0.30818000  0.02447000  0.16776000  1.0
  C  C101  1  0.69182000  0.97553000  0.83224000  1.0
  C  C102  1  0.83923000  0.13678000  0.02006000  1.0
  C  C103  1  0.16077000  0.86321000  0.97994000  1.0
  C  C104  1  0.60295000  0.15222000  0.07463000  1.0
  C  C105  1  0.39705000  0.84778000  0.92537000  1.0
  C  C106  1  0.39058000  0.16217000  0.04087000  1.0
  C  C107  1  0.60942000  0.83783000  0.95913000  1.0
  C  C108  1  0.31835000  0.15485000  0.27757000  1.0
  C  C109  1  0.68164000  0.84515000  0.72243000  1.0
  C  C110  1  0.85788000  0.04673000  0.05688000  1.0
  C  C111  1  0.14212000  0.95326000  0.94312000  1.0
  C  C112  1  0.23282000  0.13282000  0.70595000  1.0
  C  C113  1  0.76718000  0.86718000  0.29405000  1.0
  C  C114  1  0.38821000  0.01671000  0.72584000  1.0
  C  C115  1  0.61178000  0.98330000  0.27416000  1.0
  C  C116  1  0.77178000  0.29019000  0.74462000  1.0
  C  C117  1  0.22823000  0.70981000  0.25539000  1.0
  C  C118  1  0.23787000  0.16599000  0.78551000  1.0
  C  C119  1  0.76213000  0.83401000  0.21449000  1.0
  C  C120  1  0.55411000  0.45947000  0.83153000  1.0
  C  C121  1  0.44589000  0.54053000  0.16847000  1.0
  C  C122  1  0.15415000  0.14143000  0.37843000  1.0
  C  C123  1  0.84585000  0.85857000  0.62157000  1.0
  C  C124  1  0.39264000  0.24339000  0.32290000  1.0
  C  C125  1  0.60736000  0.75661000  0.67710000  1.0
  C  C126  1  0.20841000  0.97166000  0.19931000  1.0
  C  C127  1  0.79159000  0.02834000  0.80069000  1.0
  C  C128  1  0.39561000  0.05037000  0.80484000  1.0
  C  C129  1  0.60439000  0.94963000  0.19516000  1.0
  C  C130  1  0.16119000  0.01137000  0.26854000  1.0
  C  C131  1  0.83881000  0.98863000  0.73146000  1.0
  C  C132  1  0.53117000  0.31415000  0.72677000  1.0
  C  C133  1  0.46884000  0.68586000  0.27323000  1.0
  C  C134  1  0.60446000  0.37888000  0.77921000  1.0
  C  C135  1  0.39554000  0.62112000  0.22080000  1.0
  C  C136  1  0.95337000  0.04775000  0.11067000  1.0
  C  C137  1  0.04663000  0.95225000  0.88933000  1.0
  C  C138  1  0.85158000  0.41228000  0.53468000  1.0
  C  C139  1  0.14842000  0.58772000  0.46532000  1.0
  C  C140  1  0.30956000  0.06011000  0.67558000  1.0
  C  C141  1  0.69044000  0.93989000  0.32442000  1.0
  C  C142  1  0.46907000  0.60243000  0.93777000  1.0
  C  C143  1  0.53093000  0.39757000  0.06223000  1.0
  C  C144  1  0.15476000  0.24287000  0.81834000  1.0
  C  C145  1  0.84524000  0.75713000  0.18166000  1.0
  C  C146  1  0.70380000  0.22171000  0.69294000  1.0
  C  C147  1  0.29620000  0.77830000  0.30706000  1.0
  C  C148  1  0.43450000  0.48494000  0.82483000  1.0
  C  C149  1  0.56550000  0.51506000  0.17517000  1.0
  C  C150  1  0.09260000  0.32252000  0.10072000  1.0
  C  C151  1  0.90741000  0.67748000  0.89928000  1.0
  C  C152  1  0.39159000  0.55697000  0.87894000  1.0
  C  C153  1  0.60841000  0.44302000  0.12106000  1.0
  C  C154  1  0.00652000  0.42465000  0.62872000  1.0
  C  C155  1  0.99348000  0.57534000  0.37128000  1.0
  C  C156  1  0.81726000  0.23565000  0.35814000  1.0
  C  C157  1  0.18273000  0.76434000  0.64186000  1.0
  C  C158  1  0.14088000  0.16732000  0.65203000  1.0
  C  C159  1  0.85912000  0.83268000  0.34797000  1.0
  C  C160  1  0.58149000  0.23514000  0.68305000  1.0
  C  C161  1  0.41852000  0.76486000  0.31695000  1.0
  C  C162  1  0.95507000  0.50338000  0.67232000  1.0
  C  C163  1  0.04493000  0.49662000  0.32768000  1.0
  C  C164  1  0.84538000  0.53579000  0.64638000  1.0
  C  C165  1  0.15461000  0.46421000  0.35362000  1.0
  C  C166  1  0.70207000  0.39841000  0.42126000  1.0
  C  C167  1  0.29794000  0.60159000  0.57874000  1.0
  C  C168  1  0.71918000  0.26760000  0.31780000  1.0
  C  C169  1  0.28082000  0.73240000  0.68220000  1.0
  C  C170  1  0.65870000  0.34961000  0.35064000  1.0
  C  C171  1  0.34130000  0.65038000  0.64936000  1.0
  N  N172  1  0.62859000  0.50542000  0.88801000  1.0
  N  N173  1  0.37141000  0.49458000  0.11199000  1.0
  N  N174  1  0.72368000  0.36690000  0.78622000  1.0
  N  N175  1  0.27633000  0.63310000  0.21378000  1.0
  N  N176  1  0.85655000  0.28121000  0.42744000  1.0
  N  N177  1  0.14345000  0.71879000  0.57257000  1.0
  N  N178  1  0.95633000  0.37969000  0.56199000  1.0
  N  N179  1  0.04367000  0.62031000  0.43801000  1.0
  O  O180  1  0.74377000  0.14075000  0.96685000  1.0
  O  O181  1  0.25623000  0.85925000  0.03315000  1.0
  O  O182  1  0.83707000  0.39028000  0.01673000  1.0
  O  O183  1  0.16292000  0.60972000  0.98327000  1.0
  O  O184  1  0.46350000  0.16539000  0.17606000  1.0
  O  O185  1  0.53650000  0.83461000  0.82394000  1.0
  O  O186  1  0.32611000  0.16784000  0.91034000  1.0
  O  O187  1  0.67389000  0.83216000  0.08966000  1.0
  O  O188  1  0.08217000  0.07986000  0.41674000  1.0
  O  O189  1  0.91782000  0.92014000  0.58327000  1.0
  O  O190  1  0.91407000  0.31104000  0.91214000  1.0
  O  O191  1  0.08593000  0.68895000  0.08786000  1.0
  O  O192  1  0.07681000  0.20308000  0.86678000  1.0
  O  O193  1  0.92320000  0.79692000  0.13323000  1.0
  O  O194  1  0.16318000  0.33298000  0.79778000  1.0
  O  O195  1  0.83682000  0.66702000  0.20222000  1.0
  O  O196  1  0.10808000  0.37853000  0.04140000  1.0
  O  O197  1  0.89191000  0.62147000  0.95860000  1.0
  O  O198  1  0.46137000  0.21035000  0.37376000  1.0
  O  O199  1  0.53863000  0.78965000  0.62623000  1.0
  O  O200  1  0.16583000  0.23738000  0.39850000  1.0
  O  O201  1  0.83417000  0.76262000  0.60149000  1.0
  O  O202  1  0.38345000  0.33448000  0.30396000  1.0
  O  O203  1  0.61655000  0.66552000  0.69604000  1.0
  O  O204  1  0.13440000  0.34734000  0.16851000  1.0
  O  O205  1  0.86561000  0.65266000  0.83148000  1.0
  O  O206  1  0.03098000  0.17051000  0.68200000  1.0
  O  O207  1  0.96902000  0.82949000  0.31800000  1.0
  O  O208  1  0.16469000  0.18680000  0.58349000  1.0
  O  O209  1  0.83531000  0.81321000  0.41651000  1.0
  O  O210  1  0.04722000  0.49798000  0.85337000  1.0
  O  O211  1  0.95278000  0.50202000  0.14663000  1.0
  O  O212  1  0.89262000  0.10964000  0.56216000  1.0
  O  O213  1  0.10738000  0.89036000  0.43784000  1.0
