# generated using pymatgen
data_ZnH20C22(NO4)2
_symmetry_space_group_name_H-M   'P 1'
_cell_length_a   9.24959000
_cell_length_b   9.76853000
_cell_length_c   11.29360000
_cell_angle_alpha   90.00000000
_cell_angle_beta   90.00000000
_cell_angle_gamma   98.99870000
_symmetry_Int_Tables_number   1
_chemical_formula_structural   ZnH20C22(NO4)2
_chemical_formula_sum   'Zn2 H40 C44 N4 O16'
_cell_volume   1007.87247887
_cell_formula_units_Z   2
loop_
 _symmetry_equiv_pos_site_id
 _symmetry_equiv_pos_as_xyz
  1  'x, y, z'
loop_
 _atom_site_type_symbol
 _atom_site_label
 _atom_site_symmetry_multiplicity
 _atom_site_fract_x
 _atom_site_fract_y
 _atom_site_fract_z
 _atom_site_occupancy
  Zn  Zn0  1  0.00000000  0.00000000  0.00000000  1.0
  Zn  Zn1  1  0.50000000  0.00000000  0.50000000  1.0
  H  H2  1  0.32235000  0.11896000  0.91944000  1.0
  H  H3  1  0.82235000  0.11896000  0.58056000  1.0
  H  H4  1  0.67765000  0.88104000  0.08056000  1.0
  H  H5  1  0.17765000  0.88104000  0.41944000  1.0
  H  H6  1  0.45989000  0.18930000  0.74972000  1.0
  H  H7  1  0.95989000  0.18930000  0.75028000  1.0
  H  H8  1  0.54010000  0.81070000  0.25028000  1.0
  H  H9  1  0.04010000  0.81070000  0.24972000  1.0
  H  H10  1  0.64070000  0.36703000  0.65288000  1.0
  H  H11  1  0.14070000  0.36704000  0.84712000  1.0
  H  H12  1  0.35930000  0.63296000  0.34712000  1.0
  H  H13  1  0.85930000  0.63296000  0.15288000  1.0
  H  H14  1  0.78634000  0.55540000  0.77320000  1.0
  H  H15  1  0.28634000  0.55540000  0.72680000  1.0
  H  H16  1  0.21366000  0.44460000  0.22680000  1.0
  H  H17  1  0.71366000  0.44460000  0.27320000  1.0
  H  H18  1  0.75112000  0.55834000  0.99120000  1.0
  H  H19  1  0.25112000  0.55834000  0.50880000  1.0
  H  H20  1  0.24888000  0.44166000  0.00880000  1.0
  H  H21  1  0.74888000  0.44166000  0.49120000  1.0
  H  H22  1  0.57813000  0.37431000  0.09004000  1.0
  H  H23  1  0.07813000  0.37431000  0.40996000  1.0
  H  H24  1  0.42187000  0.62569000  0.90996000  1.0
  H  H25  1  0.92187000  0.62569000  0.59004000  1.0
  H  H26  1  0.08721000  0.21523000  0.12743000  1.0
  H  H27  1  0.58721000  0.21523000  0.37257000  1.0
  H  H28  1  0.91279000  0.78477000  0.87257000  1.0
  H  H29  1  0.41280000  0.78477000  0.62743000  1.0
  H  H30  1  0.98445000  0.40534000  0.05961000  1.0
  H  H31  1  0.48444000  0.40534000  0.44039000  1.0
  H  H32  1  0.01556000  0.59466000  0.94039000  1.0
  H  H33  1  0.51556000  0.59466000  0.55961000  1.0
  H  H34  1  0.84873000  0.25820000  0.09196000  1.0
  H  H35  1  0.34873000  0.25820000  0.40804000  1.0
  H  H36  1  0.15127000  0.74180000  0.90804000  1.0
  H  H37  1  0.65127000  0.74180000  0.59196000  1.0
  H  H38  1  0.90231000  0.29579000  0.94260000  1.0
  H  H39  1  0.40231000  0.29579000  0.55740000  1.0
  H  H40  1  0.09769000  0.70421000  0.05740000  1.0
  H  H41  1  0.59769000  0.70421000  0.44260000  1.0
  C  C42  1  0.28173000  0.01964000  0.14458000  1.0
  C  C43  1  0.78173000  0.01964000  0.35542000  1.0
  C  C44  1  0.71827000  0.98036000  0.85542000  1.0
  C  C45  1  0.21827000  0.98036000  0.64458000  1.0
  C  C46  1  0.36596000  0.03226000  0.25525000  1.0
  C  C47  1  0.86595000  0.03226000  0.24475000  1.0
  C  C48  1  0.63404000  0.96774000  0.74475000  1.0
  C  C49  1  0.13404000  0.96774000  0.75525000  1.0
  C  C50  1  0.47986000  0.13590000  0.19746000  1.0
  C  C51  1  0.97986000  0.13591000  0.30254000  1.0
  C  C52  1  0.52014000  0.86409000  0.80254000  1.0
  C  C53  1  0.02014000  0.86410000  0.69746000  1.0
  C  C54  1  0.39470000  0.11850000  0.08683000  1.0
  C  C55  1  0.89470000  0.11850000  0.41317000  1.0
  C  C56  1  0.60530000  0.88150000  0.91317000  1.0
  C  C57  1  0.10530000  0.88150000  0.58683000  1.0
  C  C58  1  0.52594000  0.26904000  0.80276000  1.0
  C  C59  1  0.02594000  0.26904000  0.69724000  1.0
  C  C60  1  0.47406000  0.73096000  0.19724000  1.0
  C  C61  1  0.97406000  0.73096000  0.30276000  1.0
  C  C62  1  0.62678000  0.37055000  0.74854000  1.0
  C  C63  1  0.12678000  0.37055000  0.75146000  1.0
  C  C64  1  0.37322000  0.62945000  0.25146000  1.0
  C  C65  1  0.87322000  0.62945000  0.24854000  1.0
  C  C66  1  0.70927000  0.47462000  0.81581000  1.0
  C  C67  1  0.20928000  0.47462000  0.68418000  1.0
  C  C68  1  0.29072000  0.52538000  0.18418000  1.0
  C  C69  1  0.79073000  0.52538000  0.31581000  1.0
  C  C70  1  0.69050000  0.47512000  0.93851000  1.0
  C  C71  1  0.19051000  0.47512000  0.56148000  1.0
  C  C72  1  0.30950000  0.52488000  0.06148000  1.0
  C  C73  1  0.80949000  0.52488000  0.43851000  1.0
  C  C74  1  0.59232000  0.37269000  0.99453000  1.0
  C  C75  1  0.09232000  0.37269000  0.50547000  1.0
  C  C76  1  0.40768000  0.62731000  0.00547000  1.0
  C  C77  1  0.90768000  0.62731000  0.49453000  1.0
  C  C78  1  0.50995000  0.26909000  0.92616000  1.0
  C  C79  1  0.00995000  0.26910000  0.57384000  1.0
  C  C80  1  0.49005000  0.73090000  0.07384000  1.0
  C  C81  1  0.99004000  0.73091000  0.42616000  1.0
  C  C82  1  0.94125000  0.29822000  0.03400000  1.0
  C  C83  1  0.44124000  0.29822000  0.46600000  1.0
  C  C84  1  0.05876000  0.70178000  0.96601000  1.0
  C  C85  1  0.55875000  0.70178000  0.53400000  1.0
  N  N86  1  0.40444000  0.16463000  0.97608000  1.0
  N  N87  1  0.90444000  0.16463000  0.52392000  1.0
  N  N88  1  0.59556000  0.83537000  0.02392000  1.0
  N  N89  1  0.09555000  0.83537000  0.47608000  1.0
  O  O90  1  0.15935000  0.95271000  0.11589000  1.0
  O  O91  1  0.65935000  0.95271000  0.38411000  1.0
  O  O92  1  0.84065000  0.04729000  0.88411000  1.0
  O  O93  1  0.34065000  0.04729000  0.61589000  1.0
  O  O94  1  0.34518000  0.97768000  0.35628000  1.0
  O  O95  1  0.84518000  0.97768000  0.14372000  1.0
  O  O96  1  0.65482000  0.02232000  0.64372000  1.0
  O  O97  1  0.15482000  0.02233000  0.85628000  1.0
  O  O98  1  0.59591000  0.20945000  0.23098000  1.0
  O  O99  1  0.09591000  0.20945000  0.26902000  1.0
  O  O100  1  0.40409000  0.79055000  0.76902000  1.0
  O  O101  1  0.90409000  0.79055000  0.73098000  1.0
  O  O102  1  0.05695000  0.21450000  0.04107000  1.0
  O  O103  1  0.55695000  0.21450000  0.45894000  1.0
  O  O104  1  0.94305000  0.78550000  0.95894000  1.0
  O  O105  1  0.44305000  0.78550000  0.54107000  1.0
