# generated using pymatgen
data_CuH9C5NO5
_symmetry_space_group_name_H-M   'P 1'
_cell_length_a   7.14750000
_cell_length_b   10.09130000
_cell_length_c   10.85710000
_cell_angle_alpha   89.97220000
_cell_angle_beta   89.99330000
_cell_angle_gamma   89.98940000
_symmetry_Int_Tables_number   1
_chemical_formula_structural   CuH9C5NO5
_chemical_formula_sum   'Cu4 H36 C20 N4 O20'
_cell_volume   783.09609404
_cell_formula_units_Z   4
loop_
 _symmetry_equiv_pos_site_id
 _symmetry_equiv_pos_as_xyz
  1  'x, y, z'
loop_
 _atom_site_type_symbol
 _atom_site_label
 _atom_site_symmetry_multiplicity
 _atom_site_fract_x
 _atom_site_fract_y
 _atom_site_fract_z
 _atom_site_occupancy
  Cu  Cu0  1  0.07088000  0.05154000  0.50200000  1.0
  Cu  Cu1  1  0.42968000  0.94847000  0.00221000  1.0
  Cu  Cu2  1  0.57092000  0.44842000  0.49796000  1.0
  Cu  Cu3  1  0.92931000  0.55151000  0.99784000  1.0
  H  H4  1  0.20719000  0.31185000  0.27219000  1.0
  H  H5  1  0.29239000  0.68870000  0.77243000  1.0
  H  H6  1  0.70707000  0.18808000  0.72776000  1.0
  H  H7  1  0.79261000  0.81155000  0.22756000  1.0
  H  H8  1  0.36429000  0.93765000  0.51302000  1.0
  H  H9  1  0.13605000  0.06237000  0.01333000  1.0
  H  H10  1  0.86425000  0.56225000  0.48694000  1.0
  H  H11  1  0.63567000  0.43779000  0.98680000  1.0
  H  H12  1  0.25184000  0.79552000  0.48610000  1.0
  H  H13  1  0.24833000  0.20457000  0.98623000  1.0
  H  H14  1  0.75174000  0.70439000  0.51382000  1.0
  H  H15  1  0.74802000  0.29559000  0.01390000  1.0
  H  H16  1  0.18609000  0.05063000  0.27509000  1.0
  H  H17  1  0.31465000  0.94989000  0.77520000  1.0
  H  H18  1  0.68576000  0.44937000  0.72490000  1.0
  H  H19  1  0.81441000  0.55029000  0.22484000  1.0
  H  H20  1  0.32259000  0.13517000  0.37147000  1.0
  H  H21  1  0.17773000  0.86555000  0.87159000  1.0
  H  H22  1  0.82251000  0.36482000  0.62862000  1.0
  H  H23  1  0.67763000  0.63480000  0.12848000  1.0
  H  H24  1  0.89773000  0.32578000  0.18697000  1.0
  H  H25  1  0.60177000  0.67423000  0.68701000  1.0
  H  H26  1  0.39750000  0.17421000  0.81298000  1.0
  H  H27  1  0.10198000  0.82572000  0.31293000  1.0
  H  H28  1  0.01556000  0.18847000  0.12786000  1.0
  H  H29  1  0.48425000  0.81174000  0.62789000  1.0
  H  H30  1  0.51535000  0.31145000  0.87217000  1.0
  H  H31  1  0.98432000  0.68832000  0.37211000  1.0
  H  H32  1  0.68673000  0.18802000  0.30964000  1.0
  H  H33  1  0.81337000  0.81172000  0.80939000  1.0
  H  H34  1  0.18679000  0.31219000  0.69022000  1.0
  H  H35  1  0.31328000  0.68801000  0.19043000  1.0
  H  H36  1  0.82888000  0.04727000  0.29416000  1.0
  H  H37  1  0.67152000  0.95264000  0.79393000  1.0
  H  H38  1  0.32890000  0.45287000  0.70598000  1.0
  H  H39  1  0.17136000  0.54720000  0.20612000  1.0
  C  C40  1  0.01473000  0.31069000  0.42182000  1.0
  C  C41  1  0.48500000  0.68935000  0.92194000  1.0
  C  C42  1  0.51466000  0.18928000  0.57816000  1.0
  C  C43  1  0.98515000  0.81063000  0.07799000  1.0
  C  C44  1  0.09966000  0.24459000  0.30898000  1.0
  C  C45  1  0.40024000  0.75574000  0.80911000  1.0
  C  C46  1  0.59954000  0.25539000  0.69100000  1.0
  C  C47  1  0.90034000  0.74438000  0.19088000  1.0
  C  C48  1  0.94830000  0.22673000  0.21098000  1.0
  C  C49  1  0.55152000  0.77336000  0.71098000  1.0
  C  C50  1  0.44815000  0.27325000  0.78903000  1.0
  C  C51  1  0.05161000  0.72663000  0.28899000  1.0
  C  C52  1  0.78373000  0.13781000  0.24594000  1.0
  C  C53  1  0.71639000  0.86205000  0.74572000  1.0
  C  C54  1  0.28365000  0.36226000  0.75406000  1.0
  C  C55  1  0.21637000  0.63780000  0.25422000  1.0
  C  C56  1  0.67205000  0.09290000  0.13440000  1.0
  C  C57  1  0.82807000  0.90691000  0.63407000  1.0
  C  C58  1  0.17172000  0.40706000  0.86557000  1.0
  C  C59  1  0.32817000  0.59298000  0.36580000  1.0
  N  N60  1  0.18606000  0.11771000  0.34592000  1.0
  N  N61  1  0.31433000  0.88276000  0.84608000  1.0
  N  N62  1  0.68593000  0.38225000  0.65410000  1.0
  N  N63  1  0.81420000  0.61744000  0.15399000  1.0
  O  O64  1  0.24396000  0.89597000  0.49079000  1.0
  O  O65  1  0.25672000  0.10419000  0.99213000  1.0
  O  O66  1  0.74395000  0.60392000  0.50931000  1.0
  O  O67  1  0.75615000  0.39601000  0.00859000  1.0
  O  O68  1  0.98514000  0.23788000  0.51850000  1.0
  O  O69  1  0.51489000  0.76200000  0.01861000  1.0
  O  O70  1  0.48519000  0.26209000  0.48146000  1.0
  O  O71  1  0.01488000  0.73788000  0.98133000  1.0
  O  O72  1  0.96991000  0.43011000  0.41424000  1.0
  O  O73  1  0.52935000  0.56985000  0.91435000  1.0
  O  O74  1  0.46976000  0.06990000  0.58576000  1.0
  O  O75  1  0.02968000  0.93006000  0.08549000  1.0
  O  O76  1  0.55524000  0.99740000  0.15399000  1.0
  O  O77  1  0.94538000  0.00209000  0.65370000  1.0
  O  O78  1  0.05458000  0.50236000  0.84595000  1.0
  O  O79  1  0.44553000  0.49781000  0.34616000  1.0
  O  O80  1  0.69313000  0.14462000  0.02931000  1.0
  O  O81  1  0.80646000  0.85550000  0.52896000  1.0
  O  O82  1  0.19302000  0.35540000  0.97067000  1.0
  O  O83  1  0.30659000  0.64443000  0.47091000  1.0
