# generated using pymatgen
data_CuH8C6SNO3
_symmetry_space_group_name_H-M   'P 1'
_cell_length_a   11.48760000
_cell_length_b   12.90970000
_cell_length_c   12.91090000
_cell_angle_alpha   90.00540000
_cell_angle_beta   90.01520000
_cell_angle_gamma   89.99810000
_symmetry_Int_Tables_number   1
_chemical_formula_structural   CuH8C6SNO3
_chemical_formula_sum   'Cu8 H64 C48 S8 N8 O24'
_cell_volume   1914.70536848
_cell_formula_units_Z   8
loop_
 _symmetry_equiv_pos_site_id
 _symmetry_equiv_pos_as_xyz
  1  'x, y, z'
loop_
 _atom_site_type_symbol
 _atom_site_label
 _atom_site_symmetry_multiplicity
 _atom_site_fract_x
 _atom_site_fract_y
 _atom_site_fract_z
 _atom_site_occupancy
  Cu  Cu0  1  0.13457000  0.20057000  0.32664000  1.0
  Cu  Cu1  1  0.13452000  0.79968000  0.67331000  1.0
  Cu  Cu2  1  0.63452000  0.67342000  0.20060000  1.0
  Cu  Cu3  1  0.63460000  0.32678000  0.79958000  1.0
  Cu  Cu4  1  0.54673000  0.29913000  0.16785000  1.0
  Cu  Cu5  1  0.54685000  0.70045000  0.83225000  1.0
  Cu  Cu6  1  0.04678000  0.83217000  0.29903000  1.0
  Cu  Cu7  1  0.04683000  0.16775000  0.70052000  1.0
  H  H8  1  0.36058000  0.32572000  0.68320000  1.0
  H  H9  1  0.36029000  0.67453000  0.31678000  1.0
  H  H10  1  0.86040000  0.31684000  0.32564000  1.0
  H  H11  1  0.86052000  0.68328000  0.67441000  1.0
  H  H12  1  0.44283000  0.43463000  0.64199000  1.0
  H  H13  1  0.44247000  0.56553000  0.35791000  1.0
  H  H14  1  0.94260000  0.35803000  0.43460000  1.0
  H  H15  1  0.94274000  0.64208000  0.56550000  1.0
  H  H16  1  0.40145000  0.38902000  0.45639000  1.0
  H  H17  1  0.40113000  0.61090000  0.54350000  1.0
  H  H18  1  0.90135000  0.54366000  0.38900000  1.0
  H  H19  1  0.90124000  0.45650000  0.61084000  1.0
  H  H20  1  0.27176000  0.40886000  0.52736000  1.0
  H  H21  1  0.27146000  0.59121000  0.47249000  1.0
  H  H22  1  0.77165000  0.47272000  0.40885000  1.0
  H  H23  1  0.77159000  0.52757000  0.59121000  1.0
  H  H24  1  0.63935000  0.41662000  0.54196000  1.0
  H  H25  1  0.63896000  0.58325000  0.45786000  1.0
  H  H26  1  0.13908000  0.45807000  0.41683000  1.0
  H  H27  1  0.13927000  0.54212000  0.58345000  1.0
  H  H28  1  0.59537000  0.32278000  0.44592000  1.0
  H  H29  1  0.59538000  0.67693000  0.55414000  1.0
  H  H30  1  0.09531000  0.55420000  0.32300000  1.0
  H  H31  1  0.09549000  0.44593000  0.67712000  1.0
  H  H32  1  0.71730000  0.29781000  0.52898000  1.0
  H  H33  1  0.71714000  0.70194000  0.47103000  1.0
  H  H34  1  0.21719000  0.47107000  0.29814000  1.0
  H  H35  1  0.21729000  0.52900000  0.70223000  1.0
  H  H36  1  0.06377000  0.19964000  0.05147000  1.0
  H  H37  1  0.06380000  0.80040000  0.94828000  1.0
  H  H38  1  0.56385000  0.94829000  0.19965000  1.0
  H  H39  1  0.56367000  0.05151000  0.80046000  1.0
  H  H40  1  0.97584000  0.12079000  0.96878000  1.0
  H  H41  1  0.97609000  0.87933000  0.03101000  1.0
  H  H42  1  0.47594000  0.03099000  0.12077000  1.0
  H  H43  1  0.47597000  0.96874000  0.87933000  1.0
  H  H44  1  0.97785000  0.25759000  0.94954000  1.0
  H  H45  1  0.97801000  0.74250000  0.05026000  1.0
  H  H46  1  0.47788000  0.05022000  0.25757000  1.0
  H  H47  1  0.47793000  0.94948000  0.74252000  1.0
  H  H48  1  0.20757000  0.33296000  0.04253000  1.0
  H  H49  1  0.20766000  0.66679000  0.95728000  1.0
  H  H50  1  0.70768000  0.95731000  0.33312000  1.0
  H  H51  1  0.70749000  0.04256000  0.66696000  1.0
  H  H52  1  0.30670000  0.41015000  0.97129000  1.0
  H  H53  1  0.30684000  0.58972000  0.02860000  1.0
  H  H54  1  0.80687000  0.02864000  0.41021000  1.0
  H  H55  1  0.80662000  0.97132000  0.58983000  1.0
  H  H56  1  0.27689000  0.29451000  0.81571000  1.0
  H  H57  1  0.27694000  0.70525000  0.18413000  1.0
  H  H58  1  0.77681000  0.18421000  0.29475000  1.0
  H  H59  1  0.77699000  0.81576000  0.70547000  1.0
  H  H60  1  0.14548000  0.35481000  0.85632000  1.0
  H  H61  1  0.14548000  0.64511000  0.14341000  1.0
  H  H62  1  0.64541000  0.14344000  0.35493000  1.0
  H  H63  1  0.64553000  0.85632000  0.64524000  1.0
  H  H64  1  0.34583000  0.17788000  0.98881000  1.0
  H  H65  1  0.34591000  0.82210000  0.01132000  1.0
  H  H66  1  0.84582000  0.01126000  0.17793000  1.0
  H  H67  1  0.84586000  0.98877000  0.82216000  1.0
  H  H68  1  0.37280000  0.19239000  0.50932000  1.0
  H  H69  1  0.37262000  0.80770000  0.49063000  1.0
  H  H70  1  0.87263000  0.49064000  0.19236000  1.0
  H  H71  1  0.87284000  0.50941000  0.80763000  1.0
  C  C72  1  0.19094000  0.21850000  0.53675000  1.0
  C  C73  1  0.19087000  0.78172000  0.46311000  1.0
  C  C74  1  0.69085000  0.46337000  0.21833000  1.0
  C  C75  1  0.69100000  0.53699000  0.78157000  1.0
  C  C76  1  0.48530000  0.28580000  0.95902000  1.0
  C  C77  1  0.48518000  0.71400000  0.04120000  1.0
  C  C78  1  0.98521000  0.04094000  0.28595000  1.0
  C  C79  1  0.98523000  0.95880000  0.71420000  1.0
  C  C80  1  0.41472000  0.35611000  0.62019000  1.0
  C  C81  1  0.41439000  0.64404000  0.37981000  1.0
  C  C82  1  0.91454000  0.37987000  0.35607000  1.0
  C  C83  1  0.91462000  0.62023000  0.64398000  1.0
  C  C84  1  0.34708000  0.35708000  0.51857000  1.0
  C  C85  1  0.34679000  0.64296000  0.48139000  1.0
  C  C86  1  0.84694000  0.48147000  0.35707000  1.0
  C  C87  1  0.84696000  0.51865000  0.64293000  1.0
  C  C88  1  0.63094000  0.33383000  0.52395000  1.0
  C  C89  1  0.63075000  0.66601000  0.47605000  1.0
  C  C90  1  0.13078000  0.47614000  0.33404000  1.0
  C  C91  1  0.13093000  0.52399000  0.66621000  1.0
  C  C92  1  0.03054000  0.19036000  0.97244000  1.0
  C  C93  1  0.03070000  0.80969000  0.02732000  1.0
  C  C94  1  0.53059000  0.02732000  0.19038000  1.0
  C  C95  1  0.53061000  0.97243000  0.80974000  1.0
  C  C96  1  0.27192000  0.33106000  0.97968000  1.0
  C  C97  1  0.27202000  0.66877000  0.02011000  1.0
  C  C98  1  0.77198000  0.02020000  0.33118000  1.0
  C  C99  1  0.77189000  0.97976000  0.66891000  1.0
  C  C100  1  0.21315000  0.29890000  0.87882000  1.0
  C  C101  1  0.21326000  0.70090000  0.12096000  1.0
  C  C102  1  0.71313000  0.12103000  0.29908000  1.0
  C  C103  1  0.71323000  0.87888000  0.70107000  1.0
  C  C104  1  0.31832000  0.23674000  0.19457000  1.0
  C  C105  1  0.31870000  0.76332000  0.80537000  1.0
  C  C106  1  0.81833000  0.80541000  0.23666000  1.0
  C  C107  1  0.81865000  0.19465000  0.76325000  1.0
  C  C108  1  0.37123000  0.25707000  0.01269000  1.0
  C  C109  1  0.37128000  0.74295000  0.98733000  1.0
  C  C110  1  0.87117000  0.98728000  0.25710000  1.0
  C  C111  1  0.87122000  0.01267000  0.74300000  1.0
  C  C112  1  0.30552000  0.24851000  0.48425000  1.0
  C  C113  1  0.30540000  0.75160000  0.51572000  1.0
  C  C114  1  0.80544000  0.51579000  0.24850000  1.0
  C  C115  1  0.80556000  0.48434000  0.75154000  1.0
  C  C116  1  0.36539000  0.25497000  0.30234000  1.0
  C  C117  1  0.36526000  0.74517000  0.69767000  1.0
  C  C118  1  0.86543000  0.69771000  0.25488000  1.0
  C  C119  1  0.86526000  0.30236000  0.74507000  1.0
  S  S120  1  0.54101000  0.27200000  0.62038000  1.0
  S  S121  1  0.54069000  0.72817000  0.37987000  1.0
  S  S122  1  0.04083000  0.37982000  0.27201000  1.0
  S  S123  1  0.04091000  0.62032000  0.72815000  1.0
  S  S124  1  0.14861000  0.17068000  0.88204000  1.0
  S  S125  1  0.14892000  0.82924000  0.11767000  1.0
  S  S126  1  0.64868000  0.11775000  0.17082000  1.0
  S  S127  1  0.64883000  0.88212000  0.82937000  1.0
  N  N128  1  0.28665000  0.23936000  0.37401000  1.0
  N  N129  1  0.28663000  0.76106000  0.62600000  1.0
  N  N130  1  0.78668000  0.62602000  0.23935000  1.0
  N  N131  1  0.78669000  0.37407000  0.76100000  1.0
  N  N132  1  0.39385000  0.26120000  0.12259000  1.0
  N  N133  1  0.39425000  0.73939000  0.87740000  1.0
  N  N134  1  0.89383000  0.87741000  0.26105000  1.0
  N  N135  1  0.89416000  0.12259000  0.73927000  1.0
  O  O136  1  0.57181000  0.31594000  0.01297000  1.0
  O  O137  1  0.57170000  0.68379000  0.98742000  1.0
  O  O138  1  0.07183000  0.98697000  0.31584000  1.0
  O  O139  1  0.07163000  0.01257000  0.68370000  1.0
  O  O140  1  0.10209000  0.19733000  0.48121000  1.0
  O  O141  1  0.10190000  0.80241000  0.51852000  1.0
  O  O142  1  0.60192000  0.51895000  0.19755000  1.0
  O  O143  1  0.60214000  0.48159000  0.80273000  1.0
  O  O144  1  0.19009000  0.21762000  0.63526000  1.0
  O  O145  1  0.19028000  0.78316000  0.36455000  1.0
  O  O146  1  0.69003000  0.36486000  0.21687000  1.0
  O  O147  1  0.69023000  0.63555000  0.78241000  1.0
  O  O148  1  0.48787000  0.27971000  0.86054000  1.0
  O  O149  1  0.48749000  0.71975000  0.13973000  1.0
  O  O150  1  0.98773000  0.13944000  0.28043000  1.0
  O  O151  1  0.98777000  0.86031000  0.72049000  1.0
  O  O152  1  0.21454000  0.20264000  0.18301000  1.0
  O  O153  1  0.21480000  0.79662000  0.81706000  1.0
  O  O154  1  0.71447000  0.81688000  0.20267000  1.0
  O  O155  1  0.71480000  0.18295000  0.79662000  1.0
  O  O156  1  0.47159000  0.28349000  0.31376000  1.0
  O  O157  1  0.47117000  0.71655000  0.68620000  1.0
  O  O158  1  0.97167000  0.68637000  0.28331000  1.0
  O  O159  1  0.97116000  0.31383000  0.71644000  1.0
