# generated using pymatgen
data_AgH9C14N3O2F3
_symmetry_space_group_name_H-M   'P 1'
_cell_length_a   10.74950000
_cell_length_b   11.41680512
_cell_length_c   14.17100000
_cell_angle_alpha   68.82065314
_cell_angle_beta   67.75200000
_cell_angle_gamma   61.92500009
_symmetry_Int_Tables_number   1
_chemical_formula_structural   AgH9C14N3O2F3
_chemical_formula_sum   'Ag4 H36 C56 N12 O8 F12'
_cell_volume   1384.09867072
_cell_formula_units_Z   4
loop_
 _symmetry_equiv_pos_site_id
 _symmetry_equiv_pos_as_xyz
  1  'x, y, z'
loop_
 _atom_site_type_symbol
 _atom_site_label
 _atom_site_symmetry_multiplicity
 _atom_site_fract_x
 _atom_site_fract_y
 _atom_site_fract_z
 _atom_site_occupancy
  Ag  Ag0  1  0.10418000  0.63625000  0.94449000  1.0
  Ag  Ag1  1  0.68490000  0.86358000  0.55555000  1.0
  Ag  Ag2  1  0.89582000  0.36375000  0.05551000  1.0
  Ag  Ag3  1  0.31510000  0.13642000  0.44445000  1.0
  H  H4  1  0.22131000  0.84813000  0.38947000  1.0
  H  H5  1  0.45906000  0.65192000  0.11066000  1.0
  H  H6  1  0.77869000  0.15187000  0.61053000  1.0
  H  H7  1  0.54094000  0.34808000  0.88934000  1.0
  H  H8  1  0.28918000  0.58126000  0.72310000  1.0
  H  H9  1  0.59354000  0.91857000  0.77699000  1.0
  H  H10  1  0.71082000  0.41874000  0.27690000  1.0
  H  H11  1  0.40646000  0.08143000  0.22301000  1.0
  H  H12  1  0.26656000  0.65959000  0.54036000  1.0
  H  H13  1  0.46621000  0.84069000  0.95963000  1.0
  H  H14  1  0.73343000  0.34042000  0.45964000  1.0
  H  H15  1  0.53378000  0.15931000  0.04037000  1.0
  H  H16  1  0.80932000  0.89301000  0.65710000  1.0
  H  H17  1  0.35938000  0.60688000  0.84289000  1.0
  H  H18  1  0.19068000  0.10699000  0.34291000  1.0
  H  H19  1  0.64063000  0.39311000  0.15711000  1.0
  H  H20  1  0.85019000  0.79894000  0.83673000  1.0
  H  H21  1  0.48582000  0.70077000  0.66328000  1.0
  H  H22  1  0.14981000  0.20106000  0.16327000  1.0
  H  H23  1  0.51418000  0.29923000  0.33672000  1.0
  H  H24  1  0.24126000  0.92950000  0.16859000  1.0
  H  H25  1  0.33957000  0.57041000  0.33160000  1.0
  H  H26  1  0.75874000  0.07050000  0.83141000  1.0
  H  H27  1  0.66043000  0.42959000  0.66840000  1.0
  H  H28  1  0.08319000  0.01281000  0.04730000  1.0
  H  H29  1  0.14361000  0.48715000  0.45267000  1.0
  H  H30  1  0.91681000  0.98719000  0.95271000  1.0
  H  H31  1  0.85639000  0.51285000  0.54733000  1.0
  H  H32  1  0.83222000  0.01988000  0.11427000  1.0
  H  H33  1  0.96665000  0.48031000  0.38544000  1.0
  H  H34  1  0.16778000  0.98012000  0.88573000  1.0
  H  H35  1  0.03335000  0.51969000  0.61456000  1.0
  H  H36  1  0.72574000  0.94829000  0.30542000  1.0
  H  H37  1  0.97979000  0.55196000  0.19421000  1.0
  H  H38  1  0.27426000  0.05171000  0.69458000  1.0
  H  H39  1  0.02021000  0.44804000  0.80579000  1.0
  C  C40  1  0.18487000  0.65194000  0.70519000  1.0
  C  C41  1  0.54192000  0.84798000  0.79485000  1.0
  C  C42  1  0.81513000  0.34806000  0.29481000  1.0
  C  C43  1  0.45808000  0.15202000  0.20515000  1.0
  C  C44  1  0.17160000  0.69625000  0.60305000  1.0
  C  C45  1  0.47067000  0.80391000  0.89694000  1.0
  C  C46  1  0.82841000  0.30375000  0.39695000  1.0
  C  C47  1  0.52934000  0.19609000  0.10306000  1.0
  C  C48  1  0.03449000  0.78377000  0.58319000  1.0
  C  C49  1  0.40137000  0.71631000  0.91678000  1.0
  C  C50  1  0.96551000  0.21623000  0.41681000  1.0
  C  C51  1  0.59864000  0.28368000  0.08322000  1.0
  C  C52  1  0.91675000  0.82150000  0.66894000  1.0
  C  C53  1  0.40714000  0.67839000  0.83105000  1.0
  C  C54  1  0.08326000  0.17849000  0.33106000  1.0
  C  C55  1  0.59286000  0.32161000  0.16894000  1.0
  C  C56  1  0.93956000  0.77199000  0.76853000  1.0
  C  C57  1  0.48005000  0.72780000  0.73148000  1.0
  C  C58  1  0.06044000  0.22801000  0.23147000  1.0
  C  C59  1  0.51996000  0.27219000  0.26853000  1.0
  C  C60  1  0.01469000  0.83168000  0.47750000  1.0
  C  C61  1  0.32399000  0.66844000  0.02250000  1.0
  C  C62  1  0.98531000  0.16832000  0.52251000  1.0
  C  C63  1  0.67601000  0.33156000  0.97750000  1.0
  C  C64  1  0.06855000  0.89627000  0.30430000  1.0
  C  C65  1  0.26940000  0.60377000  0.19570000  1.0
  C  C66  1  0.93144000  0.10374000  0.69570000  1.0
  C  C67  1  0.73060000  0.39623000  0.80430000  1.0
  C  C68  1  0.12986000  0.93481000  0.19762000  1.0
  C  C69  1  0.26255000  0.56519000  0.30240000  1.0
  C  C70  1  0.87014000  0.06519000  0.80238000  1.0
  C  C71  1  0.73745000  0.43481000  0.69760000  1.0
  C  C72  1  0.04108000  0.97983000  0.13105000  1.0
  C  C73  1  0.15230000  0.52010000  0.36888000  1.0
  C  C74  1  0.95892000  0.02017000  0.86895000  1.0
  C  C75  1  0.84770000  0.47990000  0.63112000  1.0
  C  C76  1  0.89733000  0.98446000  0.16942000  1.0
  C  C77  1  0.05155000  0.51559000  0.33038000  1.0
  C  C78  1  0.10266000  0.01554000  0.83058000  1.0
  C  C79  1  0.94845000  0.48441000  0.66962000  1.0
  C  C80  1  0.83640000  0.94547000  0.27552000  1.0
  C  C81  1  0.05771000  0.55465000  0.22426000  1.0
  C  C82  1  0.16359000  0.05454000  0.72448000  1.0
  C  C83  1  0.94229000  0.44535000  0.77574000  1.0
  C  C84  1  0.92353000  0.90227000  0.34372000  1.0
  C  C85  1  0.16981000  0.59778000  0.15621000  1.0
  C  C86  1  0.07647000  0.09773000  0.65628000  1.0
  C  C87  1  0.83019000  0.40222000  0.84379000  1.0
  C  C88  1  0.71802000  0.66640000  0.08082000  1.0
  C  C89  1  0.46496000  0.83356000  0.41949000  1.0
  C  C90  1  0.28198000  0.33360000  0.91918000  1.0
  C  C91  1  0.53504000  0.16644000  0.58051000  1.0
  C  C92  1  0.66042000  0.81809000  0.08618000  1.0
  C  C93  1  0.56454000  0.68198000  0.41387000  1.0
  C  C94  1  0.33958000  0.18191000  0.91382000  1.0
  C  C95  1  0.43546000  0.31802000  0.58613000  1.0
  N  N96  1  0.07134000  0.68956000  0.78733000  1.0
  N  N97  1  0.54822000  0.81020000  0.71271000  1.0
  N  N98  1  0.92866000  0.31044000  0.21267000  1.0
  N  N99  1  0.45178000  0.18980000  0.28729000  1.0
  N  N100  1  0.89319000  0.86141000  0.45191000  1.0
  N  N101  1  0.20676000  0.63861000  0.04803000  1.0
  N  N102  1  0.10681000  0.13859000  0.54809000  1.0
  N  N103  1  0.79324000  0.36139000  0.95197000  1.0
  N  N104  1  0.12284000  0.84983000  0.39057000  1.0
  N  N105  1  0.36348000  0.65019000  0.10945000  1.0
  N  N106  1  0.87716000  0.15017000  0.60942000  1.0
  N  N107  1  0.63652000  0.34981000  0.89055000  1.0
  O  O108  1  0.85079000  0.61657000  0.03610000  1.0
  O  O109  1  0.50315000  0.88332000  0.46434000  1.0
  O  O110  1  0.14921000  0.38343000  0.96390000  1.0
  O  O111  1  0.49685000  0.11668000  0.53567000  1.0
  O  O112  1  0.62700000  0.61068000  0.12180000  1.0
  O  O113  1  0.35918000  0.88931000  0.37847000  1.0
  O  O114  1  0.37300000  0.38932000  0.87820000  1.0
  O  O115  1  0.64082000  0.11069000  0.62153000  1.0
  F  F116  1  0.67804000  0.90015000  0.98726000  1.0
  F  F117  1  0.56583000  0.59966000  0.51266000  1.0
  F  F118  1  0.32196000  0.09985000  0.01274000  1.0
  F  F119  1  0.43417000  0.40034000  0.48734000  1.0
  F  F120  1  0.73410000  0.83408000  0.13735000  1.0
  F  F121  1  0.70518000  0.66630000  0.36258000  1.0
  F  F122  1  0.26590000  0.16592000  0.86265000  1.0
  F  F123  1  0.29481000  0.33371000  0.63742000  1.0
  F  F124  1  0.51594000  0.87003000  0.13500000  1.0
  F  F125  1  0.52079000  0.63007000  0.36500000  1.0
  F  F126  1  0.48406000  0.12997000  0.86500000  1.0
  F  F127  1  0.47921000  0.36993000  0.63501000  1.0
