# generated using pymatgen
data_AgH6(C3O)4
_symmetry_space_group_name_H-M   'P 1'
_cell_length_a   6.65892000
_cell_length_b   12.13440000
_cell_length_c   12.82060000
_cell_angle_alpha   89.99970000
_cell_angle_beta   89.99710000
_cell_angle_gamma   89.99570000
_symmetry_Int_Tables_number   1
_chemical_formula_structural   AgH6(C3O)4
_chemical_formula_sum   'Ag4 H24 C48 O16'
_cell_volume   1035.93010217
_cell_formula_units_Z   4
loop_
 _symmetry_equiv_pos_site_id
 _symmetry_equiv_pos_as_xyz
  1  'x, y, z'
loop_
 _atom_site_type_symbol
 _atom_site_label
 _atom_site_symmetry_multiplicity
 _atom_site_fract_x
 _atom_site_fract_y
 _atom_site_fract_z
 _atom_site_occupancy
  Ag  Ag0  1  0.53227000  0.72423000  0.94480000  1.0
  Ag  Ag1  1  0.03228000  0.27569000  0.05510000  1.0
  Ag  Ag2  1  0.53230000  0.22423000  0.05520000  1.0
  Ag  Ag3  1  0.03222000  0.77570000  0.94491000  1.0
  H  H4  1  0.29377000  0.60274000  0.61308000  1.0
  H  H5  1  0.79410000  0.39740000  0.38705000  1.0
  H  H6  1  0.29380000  0.10273000  0.38693000  1.0
  H  H7  1  0.79405000  0.89741000  0.61294000  1.0
  H  H8  1  0.30150000  0.55683000  0.42612000  1.0
  H  H9  1  0.80161000  0.44319000  0.57378000  1.0
  H  H10  1  0.30151000  0.05683000  0.57388000  1.0
  H  H11  1  0.80159000  0.94321000  0.42620000  1.0
  H  H12  1  0.23296000  0.42384000  0.28325000  1.0
  H  H13  1  0.73299000  0.57633000  0.71659000  1.0
  H  H14  1  0.23297000  0.92383000  0.71677000  1.0
  H  H15  1  0.73297000  0.07634000  0.28341000  1.0
  H  H16  1  0.09578000  0.23903000  0.32422000  1.0
  H  H17  1  0.59590000  0.76105000  0.67542000  1.0
  H  H18  1  0.09574000  0.73903000  0.67579000  1.0
  H  H19  1  0.59590000  0.26108000  0.32458000  1.0
  H  H20  1  0.04545000  0.18044000  0.50756000  1.0
  H  H21  1  0.54540000  0.81958000  0.49213000  1.0
  H  H22  1  0.04540000  0.68045000  0.49245000  1.0
  H  H23  1  0.54542000  0.31960000  0.50787000  1.0
  H  H24  1  0.07027000  0.22333000  0.69976000  1.0
  H  H25  1  0.56995000  0.77657000  0.29995000  1.0
  H  H26  1  0.07026000  0.72333000  0.30024000  1.0
  H  H27  1  0.56996000  0.27658000  0.70005000  1.0
  C  C28  1  0.21654000  0.58710000  0.81199000  1.0
  C  C29  1  0.71670000  0.41267000  0.18809000  1.0
  C  C30  1  0.21657000  0.08710000  0.18802000  1.0
  C  C31  1  0.71664000  0.91267000  0.81190000  1.0
  C  C32  1  0.10886000  0.34506000  0.86739000  1.0
  C  C33  1  0.60898000  0.65508000  0.13243000  1.0
  C  C34  1  0.10887000  0.84507000  0.13261000  1.0
  C  C35  1  0.60897000  0.15508000  0.86756000  1.0
  C  C36  1  0.19550000  0.49407000  0.73407000  1.0
  C  C37  1  0.69550000  0.50587000  0.26580000  1.0
  C  C38  1  0.19552000  0.99406000  0.26595000  1.0
  C  C39  1  0.69546000  0.00587000  0.73418000  1.0
  C  C40  1  0.24017000  0.52047000  0.63176000  1.0
  C  C41  1  0.74010000  0.47953000  0.36816000  1.0
  C  C42  1  0.24019000  0.02047000  0.36825000  1.0
  C  C43  1  0.74006000  0.97954000  0.63184000  1.0
  C  C44  1  0.21345000  0.44459000  0.54926000  1.0
  C  C45  1  0.71339000  0.55544000  0.45057000  1.0
  C  C46  1  0.21346000  0.94459000  0.45074000  1.0
  C  C47  1  0.71337000  0.05545000  0.54942000  1.0
  C  C48  1  0.24757000  0.47418000  0.44370000  1.0
  C  C49  1  0.74752000  0.52581000  0.55613000  1.0
  C  C50  1  0.24758000  0.97417000  0.55630000  1.0
  C  C51  1  0.74750000  0.02582000  0.44386000  1.0
  C  C52  1  0.20934000  0.40040000  0.36429000  1.0
  C  C53  1  0.70925000  0.59963000  0.63548000  1.0
  C  C54  1  0.20933000  0.90038000  0.63571000  1.0
  C  C55  1  0.70924000  0.09965000  0.36450000  1.0
  C  C56  1  0.13401000  0.29455000  0.38788000  1.0
  C  C57  1  0.63393000  0.70548000  0.61181000  1.0
  C  C58  1  0.13399000  0.79454000  0.61212000  1.0
  C  C59  1  0.63393000  0.20549000  0.38819000  1.0
  C  C60  1  0.10349000  0.26230000  0.48997000  1.0
  C  C61  1  0.60341000  0.73773000  0.50975000  1.0
  C  C62  1  0.10347000  0.76229000  0.51004000  1.0
  C  C63  1  0.60342000  0.23775000  0.49026000  1.0
  C  C64  1  0.14332000  0.33582000  0.57329000  1.0
  C  C65  1  0.64331000  0.66418000  0.42646000  1.0
  C  C66  1  0.14333000  0.83581000  0.42673000  1.0
  C  C67  1  0.64330000  0.16420000  0.57353000  1.0
  C  C68  1  0.11435000  0.30717000  0.67927000  1.0
  C  C69  1  0.61449000  0.69280000  0.32047000  1.0
  C  C70  1  0.11436000  0.80718000  0.32073000  1.0
  C  C71  1  0.61449000  0.19281000  0.67954000  1.0
  C  C72  1  0.13830000  0.38378000  0.75888000  1.0
  C  C73  1  0.63856000  0.61621000  0.24085000  1.0
  C  C74  1  0.13830000  0.88378000  0.24111000  1.0
  C  C75  1  0.63855000  0.11622000  0.75913000  1.0
  O  O76  1  0.39690000  0.61634000  0.82803000  1.0
  O  O77  1  0.89710000  0.38347000  0.17205000  1.0
  O  O78  1  0.39694000  0.11634000  0.17197000  1.0
  O  O79  1  0.89704000  0.88348000  0.82795000  1.0
  O  O80  1  0.05540000  0.63114000  0.84522000  1.0
  O  O81  1  0.55562000  0.36841000  0.15502000  1.0
  O  O82  1  0.05542000  0.13114000  0.15479000  1.0
  O  O83  1  0.55556000  0.86840000  0.84496000  1.0
  O  O84  1  0.04103000  0.40952000  0.93814000  1.0
  O  O85  1  0.54082000  0.59070000  0.06172000  1.0
  O  O86  1  0.04103000  0.90953000  0.06188000  1.0
  O  O87  1  0.54083000  0.09070000  0.93828000  1.0
  O  O88  1  0.15042000  0.24478000  0.89110000  1.0
  O  O89  1  0.65053000  0.75535000  0.10875000  1.0
  O  O90  1  0.15043000  0.74481000  0.10889000  1.0
  O  O91  1  0.65049000  0.25537000  0.89124000  1.0
