# generated using pymatgen
data_CuH12(C2N)8
_symmetry_space_group_name_H-M   'P 1'
_cell_length_a   9.07499000
_cell_length_b   9.97990000
_cell_length_c   11.24725329
_cell_angle_alpha   83.88410276
_cell_angle_beta   66.21711550
_cell_angle_gamma   62.96160000
_symmetry_Int_Tables_number   1
_chemical_formula_structural   CuH12(C2N)8
_chemical_formula_sum   'Cu2 H24 C32 N16'
_cell_volume   826.56071598
_cell_formula_units_Z   2
loop_
 _symmetry_equiv_pos_site_id
 _symmetry_equiv_pos_as_xyz
  1  'x, y, z'
loop_
 _atom_site_type_symbol
 _atom_site_label
 _atom_site_symmetry_multiplicity
 _atom_site_fract_x
 _atom_site_fract_y
 _atom_site_fract_z
 _atom_site_occupancy
  Cu  Cu0  1  0.50000000  0.00000000  0.50000000  1.0
  Cu  Cu1  1  0.50000000  0.50000000  0.00000000  1.0
  H  H2  1  0.11392000  0.16052000  0.68075000  1.0
  H  H3  1  0.54481000  0.66057000  0.18091000  1.0
  H  H4  1  0.88607000  0.83948000  0.31925000  1.0
  H  H5  1  0.45519000  0.33943000  0.81909000  1.0
  H  H6  1  0.85380000  0.10157000  0.78292000  1.0
  H  H7  1  0.76174000  0.60154000  0.28308000  1.0
  H  H8  1  0.14620000  0.89843000  0.21708000  1.0
  H  H9  1  0.23826000  0.39846000  0.71692000  1.0
  H  H10  1  0.18485000  0.68004000  0.53586000  1.0
  H  H11  1  0.09930000  0.18026000  0.03563000  1.0
  H  H12  1  0.81515000  0.31996000  0.46414000  1.0
  H  H13  1  0.90070000  0.81974000  0.96437000  1.0
  H  H14  1  0.42904000  0.75985000  0.44135000  1.0
  H  H15  1  0.86967000  0.26011000  0.94122000  1.0
  H  H16  1  0.57096000  0.24015000  0.55865000  1.0
  H  H17  1  0.13032000  0.73989000  0.05879000  1.0
  H  H18  1  0.77445000  0.85600000  0.67694000  1.0
  H  H19  1  0.19276000  0.35593000  0.17681000  1.0
  H  H20  1  0.22554000  0.14400000  0.32307000  1.0
  H  H21  1  0.80724000  0.64407000  0.82319000  1.0
  H  H22  1  0.75502000  0.90575000  0.82995000  1.0
  H  H23  1  0.00952000  0.40573000  0.32984000  1.0
  H  H24  1  0.24499000  0.09425000  0.17005000  1.0
  H  H25  1  0.99049000  0.59427000  0.67015000  1.0
  C  C26  1  0.30439000  0.33130000  0.43775000  1.0
  C  C27  1  0.42665000  0.83124000  0.93770000  1.0
  C  C28  1  0.69561000  0.66870000  0.56225000  1.0
  C  C29  1  0.57335000  0.16876000  0.06230000  1.0
  C  C30  1  0.25212000  0.53727000  0.31625000  1.0
  C  C31  1  0.39480000  0.03724000  0.81618000  1.0
  C  C32  1  0.74787000  0.46274000  0.68375000  1.0
  C  C33  1  0.60519000  0.96277000  0.18382000  1.0
  C  C34  1  0.12338000  0.05512000  0.65201000  1.0
  C  C35  1  0.66952000  0.55521000  0.15208000  1.0
  C  C36  1  0.87662000  0.94488000  0.34799000  1.0
  C  C37  1  0.33049000  0.44479000  0.84792000  1.0
  C  C38  1  0.97922000  0.02016000  0.70885000  1.0
  C  C39  1  0.79181000  0.52020000  0.20894000  1.0
  C  C40  1  0.02078000  0.97984000  0.29115000  1.0
  C  C41  1  0.20820000  0.47980000  0.79106000  1.0
  C  C42  1  0.99798000  0.88206000  0.67139000  1.0
  C  C43  1  0.94863000  0.38213000  0.17134000  1.0
  C  C44  1  0.00202000  0.11794000  0.32861000  1.0
  C  C45  1  0.05138000  0.61786000  0.82866000  1.0
  C  C46  1  0.16174000  0.78817000  0.57126000  1.0
  C  C47  1  0.97885000  0.28837000  0.07111000  1.0
  C  C48  1  0.83825000  0.21183000  0.42874000  1.0
  C  C49  1  0.02116000  0.71163000  0.92889000  1.0
  C  C50  1  0.29973000  0.83022000  0.51862000  1.0
  C  C51  1  0.85139000  0.33043000  0.01854000  1.0
  C  C52  1  0.70026000  0.16979000  0.48138000  1.0
  C  C53  1  0.14860000  0.66958000  0.98147000  1.0
  C  C54  1  0.85100000  0.83426000  0.73776000  1.0
  C  C55  1  0.07712000  0.33423000  0.23767000  1.0
  C  C56  1  0.14900000  0.16574000  0.26224000  1.0
  C  C57  1  0.92288000  0.66577000  0.76233000  1.0
  N  N58  1  0.35569000  0.20475000  0.46341000  1.0
  N  N59  1  0.47596000  0.70473000  0.96343000  1.0
  N  N60  1  0.64431000  0.79525000  0.53659000  1.0
  N  N61  1  0.52404000  0.29527000  0.03658000  1.0
  N  N62  1  0.23625000  0.47375000  0.42487000  1.0
  N  N63  1  0.36551000  0.97368000  0.92477000  1.0
  N  N64  1  0.76376000  0.52625000  0.57513000  1.0
  N  N65  1  0.63447000  0.02632000  0.07523000  1.0
  N  N66  1  0.25793000  0.60718000  0.22435000  1.0
  N  N67  1  0.41087000  0.10725000  0.72433000  1.0
  N  N68  1  0.74205000  0.39283000  0.77566000  1.0
  N  N69  1  0.58913000  0.89276000  0.27567000  1.0
  N  N70  1  0.28246000  0.95983000  0.56074000  1.0
  N  N71  1  0.69695000  0.45999000  0.06075000  1.0
  N  N72  1  0.71754000  0.04017000  0.43925000  1.0
  N  N73  1  0.30305000  0.54001000  0.93925000  1.0
