# generated using pymatgen
data_Zn4H17C28S6O31
_symmetry_space_group_name_H-M   'P 1'
_cell_length_a   18.31500000
_cell_length_b   18.33150000
_cell_length_c   18.37150000
_cell_angle_alpha   60.33090000
_cell_angle_beta   60.62730000
_cell_angle_gamma   60.81160000
_symmetry_Int_Tables_number   1
_chemical_formula_structural   Zn4H17C28S6O31
_chemical_formula_sum   'Zn8 H34 C56 S12 O62'
_cell_volume   4419.44616857
_cell_formula_units_Z   2
loop_
 _symmetry_equiv_pos_site_id
 _symmetry_equiv_pos_as_xyz
  1  'x, y, z'
loop_
 _atom_site_type_symbol
 _atom_site_label
 _atom_site_symmetry_multiplicity
 _atom_site_fract_x
 _atom_site_fract_y
 _atom_site_fract_z
 _atom_site_occupancy
  Zn  Zn0  1  0.44948000  0.46387000  0.13069000  1.0
  Zn  Zn1  1  0.45250000  0.45696000  0.95535000  1.0
  Zn  Zn2  1  0.62745000  0.45364000  0.96257000  1.0
  Zn  Zn3  1  0.46488000  0.62827000  0.94590000  1.0
  Zn  Zn4  1  0.03871000  0.04892000  0.36301000  1.0
  Zn  Zn5  1  0.87084000  0.03584000  0.54225000  1.0
  Zn  Zn6  1  0.03441000  0.04365000  0.54911000  1.0
  Zn  Zn7  1  0.05012000  0.87226000  0.53109000  1.0
  H  H8  1  0.24170000  0.69803000  0.38584000  1.0
  H  H9  1  0.15613000  0.97064000  0.74775000  1.0
  H  H10  1  0.34949000  0.87421000  0.74449000  1.0
  H  H11  1  0.81575000  0.32800000  0.75991000  1.0
  H  H12  1  0.90133000  0.22821000  0.67033000  1.0
  H  H13  1  0.51362000  0.30807000  0.80197000  1.0
  H  H14  1  0.53903000  0.22116000  0.89846000  1.0
  H  H15  1  0.30858000  0.61425000  0.28324000  1.0
  H  H16  1  0.21094000  0.38396000  0.05183000  1.0
  H  H17  1  0.80335000  0.29299000  0.09924000  1.0
  H  H18  1  0.89808000  0.19838000  0.19587000  1.0
  H  H19  1  0.80707000  0.58904000  0.87407000  1.0
  H  H20  1  0.60617000  0.15572000  0.47198000  1.0
  H  H21  1  0.61628000  0.23802000  0.48772000  1.0
  H  H22  1  0.50701000  0.27536000  0.38094000  1.0
  H  H23  1  0.56468000  0.38387000  0.47737000  1.0
  H  H24  1  0.00413000  0.70363000  0.65931000  1.0
  H  H25  1  0.40475000  0.83911000  0.89607000  1.0
  H  H26  1  0.10935000  0.87898000  0.94826000  1.0
  H  H27  1  0.70665000  0.13479000  0.63071000  1.0
  H  H28  1  0.72902000  0.03947000  0.89982000  1.0
  H  H29  1  0.49682000  0.16800000  0.19018000  1.0
  H  H30  1  0.64471000  0.96548000  0.67774000  1.0
  H  H31  1  0.13849000  0.26336000  0.51059000  1.0
  H  H32  1  0.09560000  0.28585000  0.03754000  1.0
  H  H33  1  0.04878000  0.43160000  0.22186000  1.0
  H  H34  1  0.30599000  0.25959000  0.91680000  1.0
  H  H35  1  0.47705000  0.80172000  0.98959000  1.0
  H  H36  1  0.68803000  0.91254000  0.59814000  1.0
  H  H37  1  0.57866000  0.82747000  0.69868000  1.0
  H  H38  1  0.28708000  0.58846000  0.80090000  1.0
  H  H39  1  0.19105000  0.68497000  0.70586000  1.0
  H  H40  1  0.25085000  0.96951000  0.65034000  1.0
  H  H41  1  0.20610000  0.85742000  0.21945000  1.0
  C  C42  1  0.35987000  0.63704000  0.86005000  1.0
  C  C43  1  0.55956000  0.29142000  0.37707000  1.0
  C  C44  1  0.67205000  0.77574000  0.77063000  1.0
  C  C45  1  0.62609000  0.35938000  0.14692000  1.0
  C  C46  1  0.69895000  0.68804000  0.82462000  1.0
  C  C47  1  0.78429000  0.65582000  0.82961000  1.0
  C  C48  1  0.84105000  0.70643000  0.77817000  1.0
  C  C49  1  0.81664000  0.79267000  0.71647000  1.0
  C  C50  1  0.72996000  0.82526000  0.71722000  1.0
  C  C51  1  0.66675000  0.90219000  0.66880000  1.0
  C  C52  1  0.60006000  0.84691000  0.73085000  1.0
  C  C53  1  0.36138000  0.70651000  0.17038000  1.0
  C  C54  1  0.27517000  0.78838000  0.77583000  1.0
  C  C55  1  0.30113000  0.69599000  0.80488000  1.0
  C  C56  1  0.26860000  0.66038000  0.77865000  1.0
  C  C57  1  0.35917000  0.36304000  0.13918000  1.0
  C  C58  1  0.21494000  0.71445000  0.72528000  1.0
  C  C59  1  0.19015000  0.80766000  0.69541000  1.0
  C  C60  1  0.22083000  0.84257000  0.72316000  1.0
  C  C61  1  0.22047000  0.92820000  0.71679000  1.0
  C  C62  1  0.28328000  0.86752000  0.77516000  1.0
  C  C63  1  0.65235000  0.26770000  0.79308000  1.0
  C  C64  1  0.64440000  0.28357000  0.29885000  1.0
  C  C65  1  0.69101000  0.31133000  0.80105000  1.0
  C  C66  1  0.78248000  0.29554000  0.75529000  1.0
  C  C67  1  0.83065000  0.23919000  0.70520000  1.0
  C  C68  1  0.79115000  0.19449000  0.69775000  1.0
  C  C69  1  0.64528000  0.62823000  0.86930000  1.0
  C  C70  1  0.70061000  0.21063000  0.74384000  1.0
  C  C71  1  0.62098000  0.18371000  0.77406000  1.0
  C  C72  1  0.56642000  0.25148000  0.82654000  1.0
  C  C73  1  0.25776000  0.28826000  0.16963000  1.0
  C  C74  1  0.31039000  0.29659000  0.19773000  1.0
  C  C75  1  0.68024000  0.30719000  0.20668000  1.0
  C  C76  1  0.31006000  0.24218000  0.28556000  1.0
  C  C77  1  0.24482000  0.20014000  0.34610000  1.0
  C  C78  1  0.18899000  0.19522000  0.31691000  1.0
  C  C79  1  0.20184000  0.23723000  0.22614000  1.0
  C  C80  1  0.16582000  0.26359000  0.15451000  1.0
  C  C81  1  0.63717000  0.36867000  0.85754000  1.0
  C  C82  1  0.23813000  0.31356000  0.08758000  1.0
  C  C83  1  0.87431000  0.84868000  0.64896000  1.0
  C  C84  1  0.12566000  0.14251000  0.37266000  1.0
  C  C85  1  0.84659000  0.13360000  0.37400000  1.0
  C  C86  1  0.77332000  0.27482000  0.17104000  1.0
  C  C87  1  0.13484000  0.86472000  0.63682000  1.0
  C  C88  1  0.84730000  0.13523000  0.64332000  1.0
  C  C89  1  0.13872000  0.86858000  0.35110000  1.0
  C  C90  1  0.39473000  0.64767000  0.11908000  1.0
  C  C91  1  0.25127000  0.73360000  0.31505000  1.0
  C  C92  1  0.20151000  0.81940000  0.28878000  1.0
  C  C93  1  0.30913000  0.68240000  0.25613000  1.0
  C  C94  1  0.82621000  0.22096000  0.22497000  1.0
  C  C95  1  0.78885000  0.19265000  0.31821000  1.0
  C  C96  1  0.69688000  0.22462000  0.35325000  1.0
  C  C97  1  0.61846000  0.21952000  0.43826000  1.0
  S  S98  1  0.50218000  0.39656000  0.39667000  1.0
  S  S99  1  0.05153000  0.34493000  0.17438000  1.0
  S  S100  1  0.34374000  0.27542000  0.00011000  1.0
  S  S101  1  0.38364000  0.81007000  0.11602000  1.0
  S  S102  1  0.94502000  0.65856000  0.79683000  1.0
  S  S103  1  0.49912000  0.90955000  0.79659000  1.0
  S  S104  1  0.24028000  0.88544000  0.87895000  1.0
  S  S105  1  0.57800000  0.21421000  0.68788000  1.0
  S  S106  1  0.63186000  0.06816000  0.84884000  1.0
  S  S107  1  0.41354000  0.20352000  0.30727000  1.0
  S  S108  1  0.23069000  0.15709000  0.46375000  1.0
  S  S109  1  0.15972000  0.18042000  0.12973000  1.0
  O  O110  1  0.49730000  0.49843000  0.00036000  1.0
  O  O111  1  0.10673000  0.94828000  0.62213000  1.0
  O  O112  1  0.80963000  0.11703000  0.61361000  1.0
  O  O113  1  0.38975000  0.67606000  0.87546000  1.0
  O  O114  1  0.12300000  0.82536000  0.43449000  1.0
  O  O115  1  0.92986000  0.10722000  0.62869000  1.0
  O  O116  1  0.10455000  0.95197000  0.31551000  1.0
  O  O117  1  0.92929000  0.12031000  0.33472000  1.0
  O  O118  1  0.12073000  0.82592000  0.60593000  1.0
  O  O119  1  0.83399000  0.93136000  0.62787000  1.0
  O  O120  1  0.08051000  0.14080000  0.45175000  1.0
  O  O121  1  0.36539000  0.39953000  0.17826000  1.0
  O  O122  1  0.54244000  0.38440000  0.18373000  1.0
  O  O123  1  0.38307000  0.37982000  0.05662000  1.0
  O  O124  1  0.67796000  0.54830000  0.91478000  1.0
  O  O125  1  0.55385000  0.38412000  0.88505000  1.0
  O  O126  1  0.42531000  0.68046000  0.03474000  1.0
  O  O127  1  0.67780000  0.39578000  0.87410000  1.0
  O  O128  1  0.38634000  0.57081000  0.16303000  1.0
  O  O129  1  0.48900000  0.46770000  0.31676000  1.0
  O  O130  1  0.42947000  0.38457000  0.47862000  1.0
  O  O131  1  0.57458000  0.40804000  0.41329000  1.0
  O  O132  1  0.57167000  0.66131000  0.85589000  1.0
  O  O133  1  0.95657000  0.72537000  0.80643000  1.0
  O  O134  1  0.95044000  0.57228000  0.86336000  1.0
  O  O135  1  0.01360000  0.64259000  0.70556000  1.0
  O  O136  1  0.52226000  0.95760000  0.81984000  1.0
  O  O137  1  0.43554000  0.95365000  0.75082000  1.0
  O  O138  1  0.46663000  0.83336000  0.88581000  1.0
  O  O139  1  0.30777000  0.83571000  0.92073000  1.0
  O  O140  1  0.19436000  0.97828000  0.86714000  1.0
  O  O141  1  0.16790000  0.83382000  0.93966000  1.0
  O  O142  1  0.49190000  0.20552000  0.72811000  1.0
  O  O143  1  0.37539000  0.55367000  0.88679000  1.0
  O  O144  1  0.59121000  0.29818000  0.62438000  1.0
  O  O145  1  0.64397000  0.13875000  0.64561000  1.0
  O  O146  1  0.54563000  0.05998000  0.89774000  1.0
  O  O147  1  0.70485000  0.00965000  0.80163000  1.0
  O  O148  1  0.66451000  0.06637000  0.91792000  1.0
  O  O149  1  0.41763000  0.25953000  0.33703000  1.0
  O  O150  1  0.43271000  0.10907000  0.35018000  1.0
  O  O151  1  0.48166000  0.21851000  0.20635000  1.0
  O  O152  1  0.23038000  0.06778000  0.50137000  1.0
  O  O153  1  0.28628000  0.18211000  0.47553000  1.0
  O  O154  1  0.66836000  0.37240000  0.06419000  1.0
  O  O155  1  0.13105000  0.22031000  0.49995000  1.0
  O  O156  1  0.24210000  0.11057000  0.12417000  1.0
  O  O157  1  0.07598000  0.16553000  0.18609000  1.0
  O  O158  1  0.15417000  0.23869000  0.03155000  1.0
  O  O159  1  0.02493000  0.37247000  0.10037000  1.0
  O  O160  1  0.99903000  0.31201000  0.26498000  1.0
  O  O161  1  0.06854000  0.42930000  0.16266000  1.0
  O  O162  1  0.35465000  0.35662000  0.92862000  1.0
  O  O163  1  0.40844000  0.21257000  0.04356000  1.0
  O  O164  1  0.32984000  0.22034000  0.96599000  1.0
  O  O165  1  0.99883000  0.00129000  0.49603000  1.0
  O  O166  1  0.32167000  0.87338000  0.06840000  1.0
  O  O167  1  0.39037000  0.82705000  0.18031000  1.0
  O  O168  1  0.48062000  0.78801000  0.04778000  1.0
  O  O169  1  0.95730000  0.81186000  0.61311000  1.0
  O  O170  1  0.12525000  0.10423000  0.33132000  1.0
  O  O171  1  0.80802000  0.10142000  0.45749000  1.0
