# generated using pymatgen
data_V4NiH4C4(NO5)2
_symmetry_space_group_name_H-M   'P 1'
_cell_length_a   6.81382000
_cell_length_b   7.89178000
_cell_length_c   11.60190000
_cell_angle_alpha   90.00050000
_cell_angle_beta   90.00090000
_cell_angle_gamma   64.43300000
_symmetry_Int_Tables_number   1
_chemical_formula_structural   V4NiH4C4(NO5)2
_chemical_formula_sum   'V8 Ni2 H8 C8 N4 O20'
_cell_volume   562.78225547
_cell_formula_units_Z   2
loop_
 _symmetry_equiv_pos_site_id
 _symmetry_equiv_pos_as_xyz
  1  'x, y, z'
loop_
 _atom_site_type_symbol
 _atom_site_label
 _atom_site_symmetry_multiplicity
 _atom_site_fract_x
 _atom_site_fract_y
 _atom_site_fract_z
 _atom_site_occupancy
  V  V0  1  0.65257000  0.42023000  0.60472000  1.0
  V  V1  1  0.34744000  0.57976000  0.10472000  1.0
  V  V2  1  0.07265000  0.58014000  0.89532000  1.0
  V  V3  1  0.92735000  0.41986000  0.39531000  1.0
  V  V4  1  0.34744000  0.57976000  0.39528000  1.0
  V  V5  1  0.65257000  0.42022000  0.89528000  1.0
  V  V6  1  0.92735000  0.41985000  0.10469000  1.0
  V  V7  1  0.07265000  0.58015000  0.60469000  1.0
  Ni  Ni8  1  0.81322000  0.00015000  0.75000000  1.0
  Ni  Ni9  1  0.18678000  0.99984000  0.25000000  1.0
  H  H10  1  0.13065000  0.00010000  0.92976000  1.0
  H  H11  1  0.86935000  0.99992000  0.42976000  1.0
  H  H12  1  0.13065000  0.00010000  0.57024000  1.0
  H  H13  1  0.86935000  0.99991000  0.07023000  1.0
  H  H14  1  0.50281000  0.00002000  0.92675000  1.0
  H  H15  1  0.49718000  0.00000000  0.42676000  1.0
  H  H16  1  0.50281000  0.00002000  0.57324000  1.0
  H  H17  1  0.49719000  0.99999000  0.07325000  1.0
  C  C18  1  0.21223000  0.00010000  0.84923000  1.0
  C  C19  1  0.78776000  0.99991000  0.34925000  1.0
  C  C20  1  0.21224000  0.00010000  0.65076000  1.0
  C  C21  1  0.78777000  0.99990000  0.15077000  1.0
  C  C22  1  0.41604000  0.00005000  0.84857000  1.0
  C  C23  1  0.58395000  0.99997000  0.34856000  1.0
  C  C24  1  0.41604000  0.00004000  0.65144000  1.0
  C  C25  1  0.58396000  0.99997000  0.15143000  1.0
  N  N26  1  0.11045000  0.00016000  0.75001000  1.0
  N  N27  1  0.88954000  0.99985000  0.24999000  1.0
  N  N28  1  0.51783000  0.00004000  0.74999000  1.0
  N  N29  1  0.48218000  0.99997000  0.25001000  1.0
  O  O30  1  0.71233000  0.19643000  0.62226000  1.0
  O  O31  1  0.28767000  0.80358000  0.12228000  1.0
  O  O32  1  0.90876000  0.80397000  0.87786000  1.0
  O  O33  1  0.09124000  0.19601000  0.37785000  1.0
  O  O34  1  0.28767000  0.80357000  0.37773000  1.0
  O  O35  1  0.71233000  0.19643000  0.87774000  1.0
  O  O36  1  0.09124000  0.19601000  0.12215000  1.0
  O  O37  1  0.90876000  0.80397000  0.62214000  1.0
  O  O38  1  0.35402000  0.55754000  0.57115000  1.0
  O  O39  1  0.64598000  0.44246000  0.07116000  1.0
  O  O40  1  0.91107000  0.44288000  0.92893000  1.0
  O  O41  1  0.08894000  0.55710000  0.42893000  1.0
  O  O42  1  0.64598000  0.44246000  0.42884000  1.0
  O  O43  1  0.35402000  0.55754000  0.92885000  1.0
  O  O44  1  0.08894000  0.55709000  0.07107000  1.0
  O  O45  1  0.91107000  0.44289000  0.57107000  1.0
  O  O46  1  0.63134000  0.50371000  0.75000000  1.0
  O  O47  1  0.36868000  0.49626000  0.25000000  1.0
  O  O48  1  0.13451000  0.49680000  0.75000000  1.0
  O  O49  1  0.86549000  0.50321000  0.25000000  1.0
