# generated using pymatgen
data_Zn3P2H14C4(NO)10
_symmetry_space_group_name_H-M   'P 1'
_cell_length_a   5.11248000
_cell_length_b   10.45050000
_cell_length_c   14.94800000
_cell_angle_alpha   90.00000000
_cell_angle_beta   91.86310000
_cell_angle_gamma   89.99980000
_symmetry_Int_Tables_number   1
_chemical_formula_structural   Zn3P2H14C4(NO)10
_chemical_formula_sum   'Zn6 P4 H28 C8 N20 O20'
_cell_volume   798.21913647
_cell_formula_units_Z   2
loop_
 _symmetry_equiv_pos_site_id
 _symmetry_equiv_pos_as_xyz
  1  'x, y, z'
loop_
 _atom_site_type_symbol
 _atom_site_label
 _atom_site_symmetry_multiplicity
 _atom_site_fract_x
 _atom_site_fract_y
 _atom_site_fract_z
 _atom_site_occupancy
  Zn  Zn0  1  0.66927000  0.55723000  0.39746000  1.0
  Zn  Zn1  1  0.33073000  0.05724000  0.10254000  1.0
  Zn  Zn2  1  0.33073000  0.44276000  0.60253000  1.0
  Zn  Zn3  1  0.66927000  0.94276000  0.89746000  1.0
  Zn  Zn4  1  0.00000000  0.50000000  0.00000000  1.0
  Zn  Zn5  1  0.00000000  0.00000000  0.50000000  1.0
  P  P6  1  0.17357000  0.68351000  0.48886000  1.0
  P  P7  1  0.82643000  0.18351000  0.01113000  1.0
  P  P8  1  0.82643000  0.31648000  0.51113000  1.0
  P  P9  1  0.17357000  0.81649000  0.98887000  1.0
  H  H10  1  0.51273000  0.66319000  0.07281000  1.0
  H  H11  1  0.48726000  0.16320000  0.42718000  1.0
  H  H12  1  0.48726000  0.33680000  0.92718000  1.0
  H  H13  1  0.51274000  0.83680000  0.57282000  1.0
  H  H14  1  0.13989000  0.45797000  0.30534000  1.0
  H  H15  1  0.86011000  0.95797000  0.19466000  1.0
  H  H16  1  0.86010000  0.54203000  0.69466000  1.0
  H  H17  1  0.13989000  0.04203000  0.80535000  1.0
  H  H18  1  0.21097000  0.41834000  0.19524000  1.0
  H  H19  1  0.78903000  0.91834000  0.30477000  1.0
  H  H20  1  0.78903000  0.58166000  0.80477000  1.0
  H  H21  1  0.21097000  0.08166000  0.69523000  1.0
  H  H22  1  0.30179000  0.71982000  0.30179000  1.0
  H  H23  1  0.69821000  0.21982000  0.19821000  1.0
  H  H24  1  0.69821000  0.28018000  0.69821000  1.0
  H  H25  1  0.30179000  0.78018000  0.80179000  1.0
  H  H26  1  0.26745000  0.78725000  0.19286000  1.0
  H  H27  1  0.73255000  0.28725000  0.30714000  1.0
  H  H28  1  0.73254000  0.21275000  0.80713000  1.0
  H  H29  1  0.26746000  0.71275000  0.69286000  1.0
  H  H30  1  0.23074000  0.30825000  0.06123000  1.0
  H  H31  1  0.76925000  0.80825000  0.43877000  1.0
  H  H32  1  0.76926000  0.69176000  0.93877000  1.0
  H  H33  1  0.23075000  0.19175000  0.56123000  1.0
  H  H34  1  0.48557000  0.39018000  0.05891000  1.0
  H  H35  1  0.51442000  0.89018000  0.44109000  1.0
  H  H36  1  0.51442000  0.60982000  0.94109000  1.0
  H  H37  1  0.48558000  0.10982000  0.55891000  1.0
  C  C38  1  0.89012000  0.52753000  0.21039000  1.0
  C  C39  1  0.10988000  0.02754000  0.28961000  1.0
  C  C40  1  0.10988000  0.47246000  0.78961000  1.0
  C  C41  1  0.89012000  0.97246000  0.71039000  1.0
  C  C42  1  0.56512000  0.66110000  0.21305000  1.0
  C  C43  1  0.43489000  0.16112000  0.28695000  1.0
  C  C44  1  0.43488000  0.33889000  0.78694000  1.0
  C  C45  1  0.56512000  0.83889000  0.71305000  1.0
  N  N46  1  0.72409000  0.58856000  0.26710000  1.0
  N  N47  1  0.27590000  0.08857000  0.23290000  1.0
  N  N48  1  0.27591000  0.41144000  0.73290000  1.0
  N  N49  1  0.72409000  0.91144000  0.76710000  1.0
  N  N50  1  0.84100000  0.55837000  0.12459000  1.0
  N  N51  1  0.15901000  0.05838000  0.37541000  1.0
  N  N52  1  0.15901000  0.44162000  0.87541000  1.0
  N  N53  1  0.84100000  0.94162000  0.62459000  1.0
  N  N54  1  0.63464000  0.64517000  0.12815000  1.0
  N  N55  1  0.36536000  0.14518000  0.37186000  1.0
  N  N56  1  0.36536000  0.35483000  0.87185000  1.0
  N  N57  1  0.63465000  0.85483000  0.62815000  1.0
  N  N58  1  0.07523000  0.44409000  0.24097000  1.0
  N  N59  1  0.92478000  0.94409000  0.25903000  1.0
  N  N60  1  0.92477000  0.55591000  0.75903000  1.0
  N  N61  1  0.07522000  0.05591000  0.74097000  1.0
  N  N62  1  0.37677000  0.73952000  0.24069000  1.0
  N  N63  1  0.62321000  0.23953000  0.25931000  1.0
  N  N64  1  0.62321000  0.26047000  0.75931000  1.0
  N  N65  1  0.37678000  0.76048000  0.74069000  1.0
  O  O66  1  0.87111000  0.67678000  0.47324000  1.0
  O  O67  1  0.12889000  0.17678000  0.02676000  1.0
  O  O68  1  0.12889000  0.32322000  0.52676000  1.0
  O  O69  1  0.87111000  0.82323000  0.97324000  1.0
  O  O70  1  0.25049000  0.82749000  0.49262000  1.0
  O  O71  1  0.74950000  0.32749000  0.00738000  1.0
  O  O72  1  0.74950000  0.17251000  0.50738000  1.0
  O  O73  1  0.25050000  0.67251000  0.99262000  1.0
  O  O74  1  0.25490000  0.62149000  0.57971000  1.0
  O  O75  1  0.74511000  0.12149000  0.92029000  1.0
  O  O76  1  0.74511000  0.37851000  0.42029000  1.0
  O  O77  1  0.25490000  0.87851000  0.07971000  1.0
  O  O78  1  0.30308000  0.61339000  0.40992000  1.0
  O  O79  1  0.69692000  0.11339000  0.09008000  1.0
  O  O80  1  0.69692000  0.38661000  0.59008000  1.0
  O  O81  1  0.30308000  0.88661000  0.90992000  1.0
  O  O82  1  0.29858000  0.39781000  0.07582000  1.0
  O  O83  1  0.70141000  0.89781000  0.42418000  1.0
  O  O84  1  0.70141000  0.60219000  0.92418000  1.0
  O  O85  1  0.29859000  0.10219000  0.57583000  1.0
