# generated using pymatgen
data_Ho2MnH28(C8O9)2
_symmetry_space_group_name_H-M   'P 1'
_cell_length_a   8.89212000
_cell_length_b   9.10442000
_cell_length_c   10.64590000
_cell_angle_alpha   81.56960000
_cell_angle_beta   72.51370000
_cell_angle_gamma   77.76130000
_symmetry_Int_Tables_number   1
_chemical_formula_structural   Ho2MnH28(C8O9)2
_chemical_formula_sum   'Ho2 Mn1 H28 C16 O18'
_cell_volume   800.17166283
_cell_formula_units_Z   1
loop_
 _symmetry_equiv_pos_site_id
 _symmetry_equiv_pos_as_xyz
  1  'x, y, z'
loop_
 _atom_site_type_symbol
 _atom_site_label
 _atom_site_symmetry_multiplicity
 _atom_site_fract_x
 _atom_site_fract_y
 _atom_site_fract_z
 _atom_site_occupancy
  Ho  Ho0  1  0.90839000  0.07093000  0.68605000  1.0
  Ho  Ho1  1  0.09162000  0.92907000  0.31395000  1.0
  Mn  Mn2  1  0.00000000  0.00000000  0.00000000  1.0
  H  H3  1  0.82800000  0.36695000  0.04375000  1.0
  H  H4  1  0.17200000  0.63305000  0.95626000  1.0
  H  H5  1  0.62751000  0.40047000  0.02799000  1.0
  H  H6  1  0.37248000  0.59953000  0.97202000  1.0
  H  H7  1  0.76764000  0.50969000  0.92527000  1.0
  H  H8  1  0.23235000  0.49030000  0.07473000  1.0
  H  H9  1  0.73445000  0.73400000  0.08020000  1.0
  H  H10  1  0.26555000  0.26599000  0.91979000  1.0
  H  H11  1  0.58916000  0.73532000  0.99277000  1.0
  H  H12  1  0.41084000  0.26468000  0.00721000  1.0
  H  H13  1  0.56585000  0.88483000  0.08763000  1.0
  H  H14  1  0.43415000  0.11517000  0.91236000  1.0
  H  H15  1  0.48046000  0.87127000  0.57488000  1.0
  H  H16  1  0.51953000  0.12873000  0.42512000  1.0
  H  H17  1  0.46818000  0.74550000  0.72220000  1.0
  H  H18  1  0.53182000  0.25449000  0.27781000  1.0
  H  H19  1  0.52139000  0.92240000  0.71673000  1.0
  H  H20  1  0.47861000  0.07760000  0.28327000  1.0
  H  H21  1  0.20233000  0.31813000  0.26308000  1.0
  H  H22  1  0.79768000  0.68186000  0.73693000  1.0
  H  H23  1  0.26950000  0.38020000  0.38539000  1.0
  H  H24  1  0.73050000  0.61979000  0.61461000  1.0
  H  H25  1  0.08451000  0.47116000  0.36045000  1.0
  H  H26  1  0.91549000  0.52884000  0.63954000  1.0
  H  H27  1  0.75146000  0.11955000  0.47330000  1.0
  H  H28  1  0.24853000  0.88045000  0.52671000  1.0
  H  H29  1  0.67417000  0.26250000  0.56174000  1.0
  H  H30  1  0.32583000  0.73750000  0.43826000  1.0
  C  C31  1  0.27192000  0.92881000  0.74118000  1.0
  C  C32  1  0.72808000  0.07119000  0.25883000  1.0
  C  C33  1  0.75456000  0.39658000  0.97456000  1.0
  C  C34  1  0.24543000  0.60341000  0.02544000  1.0
  C  C35  1  0.65632000  0.80444000  0.02419000  1.0
  C  C36  1  0.34368000  0.19556000  0.97579000  1.0
  C  C37  1  0.80473000  0.28642000  0.87114000  1.0
  C  C38  1  0.19526000  0.71358000  0.12888000  1.0
  C  C39  1  0.74971000  0.89037000  0.90624000  1.0
  C  C40  1  0.25030000  0.10962000  0.09375000  1.0
  C  C41  1  0.44622000  0.86434000  0.68304000  1.0
  C  C42  1  0.55378000  0.13565000  0.31696000  1.0
  C  C43  1  0.16451000  0.36113000  0.36040000  1.0
  C  C44  1  0.83549000  0.63887000  0.63960000  1.0
  C  C45  1  0.08229000  0.25265000  0.46498000  1.0
  C  C46  1  0.91771000  0.74736000  0.53502000  1.0
  O  O47  1  0.17884000  0.95936000  0.66460000  1.0
  O  O48  1  0.82116000  0.04065000  0.33540000  1.0
  O  O49  1  0.02691000  0.28584000  0.58367000  1.0
  O  O50  1  0.97308000  0.71417000  0.41633000  1.0
  O  O51  1  0.90263000  0.88294000  0.88476000  1.0
  O  O52  1  0.09738000  0.11706000  0.11525000  1.0
  O  O53  1  0.93345000  0.18498000  0.86515000  1.0
  O  O54  1  0.06655000  0.81502000  0.13486000  1.0
  O  O55  1  0.68089000  0.97278000  0.82509000  1.0
  O  O56  1  0.31913000  0.02721000  0.17489000  1.0
  O  O57  1  0.72660000  0.29136000  0.78873000  1.0
  O  O58  1  0.27340000  0.70864000  0.21128000  1.0
  O  O59  1  0.06511000  0.12569000  0.43577000  1.0
  O  O60  1  0.93489000  0.87432000  0.56423000  1.0
  O  O61  1  0.71981000  0.15581000  0.56478000  1.0
  O  O62  1  0.28018000  0.84420000  0.43522000  1.0
  O  O63  1  0.22606000  0.94760000  0.86297000  1.0
  O  O64  1  0.77394000  0.05240000  0.13703000  1.0
