# generated using pymatgen
data_CdH6C8(N2Cl)2
_symmetry_space_group_name_H-M   'P 1'
_cell_length_a   7.48524000
_cell_length_b   8.24119000
_cell_length_c   8.24119000
_cell_angle_alpha   91.22340000
_cell_angle_beta   90.00000000
_cell_angle_gamma   90.00000000
_symmetry_Int_Tables_number   1
_chemical_formula_structural   CdH6C8(N2Cl)2
_chemical_formula_sum   'Cd2 H12 C16 N8 Cl4'
_cell_volume   508.26075062
_cell_formula_units_Z   2
loop_
 _symmetry_equiv_pos_site_id
 _symmetry_equiv_pos_as_xyz
  1  'x, y, z'
loop_
 _atom_site_type_symbol
 _atom_site_label
 _atom_site_symmetry_multiplicity
 _atom_site_fract_x
 _atom_site_fract_y
 _atom_site_fract_z
 _atom_site_occupancy
  Cd  Cd0  1  0.25000000  0.98840000  0.98840000  1.0
  Cd  Cd1  1  0.75000000  0.01160000  0.01160000  1.0
  H  H2  1  0.25000000  0.37858000  0.97508000  1.0
  H  H3  1  0.75000000  0.62142000  0.02492000  1.0
  H  H4  1  0.25000000  0.97508000  0.37858000  1.0
  H  H5  1  0.75000000  0.02492000  0.62142000  1.0
  H  H6  1  0.25000000  0.60788000  0.78590000  1.0
  H  H7  1  0.75000000  0.39212000  0.21410000  1.0
  H  H8  1  0.25000000  0.78590000  0.60789000  1.0
  H  H9  1  0.75000000  0.21410000  0.39212000  1.0
  H  H10  1  0.25000000  0.23570000  0.40422000  1.0
  H  H11  1  0.75000000  0.76430000  0.59578000  1.0
  H  H12  1  0.25000000  0.40422000  0.23570000  1.0
  H  H13  1  0.75000000  0.59578000  0.76430000  1.0
  C  C14  1  0.25000000  0.35626000  0.84470000  1.0
  C  C15  1  0.75000000  0.64374000  0.15529000  1.0
  C  C16  1  0.25000000  0.84470000  0.35627000  1.0
  C  C17  1  0.75000000  0.15530000  0.64373000  1.0
  C  C18  1  0.25000000  0.48418000  0.73690000  1.0
  C  C19  1  0.75000000  0.51582000  0.26310000  1.0
  C  C20  1  0.25000000  0.73690000  0.48418000  1.0
  C  C21  1  0.75000000  0.26310000  0.51582000  1.0
  C  C22  1  0.25000000  0.44601000  0.57126000  1.0
  C  C23  1  0.75000000  0.55399000  0.42874000  1.0
  C  C24  1  0.25000000  0.57126000  0.44601000  1.0
  C  C25  1  0.75000000  0.42875000  0.55399000  1.0
  C  C26  1  0.25000000  0.27873000  0.53024000  1.0
  C  C27  1  0.75000000  0.72127000  0.46976000  1.0
  C  C28  1  0.25000000  0.53024000  0.27874000  1.0
  C  C29  1  0.75000000  0.46976000  0.72126000  1.0
  N  N30  1  0.25000000  0.20063000  0.79581000  1.0
  N  N31  1  0.75000000  0.79937000  0.20419000  1.0
  N  N32  1  0.25000000  0.79582000  0.20064000  1.0
  N  N33  1  0.75000000  0.20419000  0.79937000  1.0
  N  N34  1  0.25000000  0.16046000  0.63808000  1.0
  N  N35  1  0.75000000  0.83954000  0.36192000  1.0
  N  N36  1  0.25000000  0.63808000  0.16047000  1.0
  N  N37  1  0.75000000  0.36192000  0.83953000  1.0
  Cl  Cl38  1  0.98988000  0.83742000  0.83742000  1.0
  Cl  Cl39  1  0.48988000  0.16258000  0.16258000  1.0
  Cl  Cl40  1  0.51012000  0.83742000  0.83742000  1.0
  Cl  Cl41  1  0.01012000  0.16258000  0.16258000  1.0
