# generated using pymatgen
data_HgH12C15(BrN2)2
_symmetry_space_group_name_H-M   'P 1'
_cell_length_a   9.51893000
_cell_length_b   12.96160000
_cell_length_c   13.38520000
_cell_angle_alpha   90.00010000
_cell_angle_beta   90.00010000
_cell_angle_gamma   80.18570000
_symmetry_Int_Tables_number   1
_chemical_formula_structural   HgH12C15(BrN2)2
_chemical_formula_sum   'Hg4 H48 C60 Br8 N16'
_cell_volume   1627.30483656
_cell_formula_units_Z   4
loop_
 _symmetry_equiv_pos_site_id
 _symmetry_equiv_pos_as_xyz
  1  'x, y, z'
loop_
 _atom_site_type_symbol
 _atom_site_label
 _atom_site_symmetry_multiplicity
 _atom_site_fract_x
 _atom_site_fract_y
 _atom_site_fract_z
 _atom_site_occupancy
  Hg  Hg0  1  0.34130000  0.45867000  0.18882000  1.0
  Hg  Hg1  1  0.15871000  0.04133000  0.68882000  1.0
  Hg  Hg2  1  0.65871000  0.54133000  0.81118000  1.0
  Hg  Hg3  1  0.84129000  0.95867000  0.31117000  1.0
  H  H4  1  0.48541000  0.87008000  0.69871000  1.0
  H  H5  1  0.01459000  0.62992000  0.19871000  1.0
  H  H6  1  0.51459000  0.12992000  0.30129000  1.0
  H  H7  1  0.98541000  0.37008000  0.80129000  1.0
  H  H8  1  0.73445000  0.78765000  0.65289000  1.0
  H  H9  1  0.76555000  0.71235000  0.15289000  1.0
  H  H10  1  0.26555000  0.21235000  0.34711000  1.0
  H  H11  1  0.23445000  0.28765000  0.84711000  1.0
  H  H12  1  0.89905000  0.89146000  0.57415000  1.0
  H  H13  1  0.60096000  0.60854000  0.07415000  1.0
  H  H14  1  0.10096000  0.10854000  0.42585000  1.0
  H  H15  1  0.39904000  0.39146000  0.92585000  1.0
  H  H16  1  0.82557000  0.08217000  0.54120000  1.0
  H  H17  1  0.67443000  0.41783000  0.04120000  1.0
  H  H18  1  0.17443000  0.91783000  0.45880000  1.0
  H  H19  1  0.32557000  0.58217000  0.95881000  1.0
  H  H20  1  0.31720000  0.24930000  0.62632000  1.0
  H  H21  1  0.18280000  0.25070000  0.12632000  1.0
  H  H22  1  0.68280000  0.75070000  0.37368000  1.0
  H  H23  1  0.81720000  0.74930000  0.87368000  1.0
  H  H24  1  0.62605000  0.31573000  0.61949000  1.0
  H  H25  1  0.87395000  0.18427000  0.11949000  1.0
  H  H26  1  0.37395000  0.68427000  0.38051000  1.0
  H  H27  1  0.12605000  0.81573000  0.88051000  1.0
  H  H28  1  0.68663000  0.24560000  0.50843000  1.0
  H  H29  1  0.81337000  0.25440000  0.00843000  1.0
  H  H30  1  0.31338000  0.75440000  0.49157000  1.0
  H  H31  1  0.18663000  0.74560000  0.99157000  1.0
  H  H32  1  0.40400000  0.42525000  0.69489000  1.0
  H  H33  1  0.09600000  0.07475000  0.19490000  1.0
  H  H34  1  0.59600000  0.57475000  0.30511000  1.0
  H  H35  1  0.90400000  0.92526000  0.80511000  1.0
  H  H36  1  0.19694000  0.56957000  0.70996000  1.0
  H  H37  1  0.30306000  0.93043000  0.20996000  1.0
  H  H38  1  0.80306000  0.43043000  0.29004000  1.0
  H  H39  1  0.69694000  0.06957000  0.79004000  1.0
  H  H40  1  0.05937000  0.64217000  0.56123000  1.0
  H  H41  1  0.44063000  0.85783000  0.06123000  1.0
  H  H42  1  0.94063000  0.35783000  0.43877000  1.0
  H  H43  1  0.55936000  0.14217000  0.93877000  1.0
  H  H44  1  0.12627000  0.57417000  0.39072000  1.0
  H  H45  1  0.37372000  0.92583000  0.89072000  1.0
  H  H46  1  0.87372000  0.42583000  0.60928000  1.0
  H  H47  1  0.62627000  0.07417000  0.10928000  1.0
  H  H48  1  0.55308000  0.29186000  0.34734000  1.0
  H  H49  1  0.94692000  0.20814000  0.84734000  1.0
  H  H50  1  0.44692000  0.70814000  0.65266000  1.0
  H  H51  1  0.05308000  0.79186000  0.15265000  1.0
  C  C52  1  0.51501000  0.02117000  0.64099000  1.0
  C  C53  1  0.98498000  0.47883000  0.14099000  1.0
  C  C54  1  0.48499000  0.97883000  0.35902000  1.0
  C  C55  1  0.01501000  0.52117000  0.85902000  1.0
  C  C56  1  0.55794000  0.91486000  0.66222000  1.0
  C  C57  1  0.94206000  0.58514000  0.16222000  1.0
  C  C58  1  0.44206000  0.08514000  0.33778000  1.0
  C  C59  1  0.05794000  0.41486000  0.83778000  1.0
  C  C60  1  0.69696000  0.87030000  0.63718000  1.0
  C  C61  1  0.80304000  0.62970000  0.13718000  1.0
  C  C62  1  0.30304000  0.12970000  0.36282000  1.0
  C  C63  1  0.19696000  0.37030000  0.86282000  1.0
  C  C64  1  0.79139000  0.92970000  0.59287000  1.0
  C  C65  1  0.70861000  0.57030000  0.09287000  1.0
  C  C66  1  0.20861000  0.07030000  0.40713000  1.0
  C  C67  1  0.29139000  0.42970000  0.90713000  1.0
  C  C68  1  0.75094000  0.03616000  0.57292000  1.0
  C  C69  1  0.74906000  0.46384000  0.07292000  1.0
  C  C70  1  0.24906000  0.96384000  0.42708000  1.0
  C  C71  1  0.25094000  0.53616000  0.92708000  1.0
  C  C72  1  0.61118000  0.08055000  0.59765000  1.0
  C  C73  1  0.88882000  0.41945000  0.09764000  1.0
  C  C74  1  0.38882000  0.91945000  0.40236000  1.0
  C  C75  1  0.11118000  0.58055000  0.90236000  1.0
  C  C76  1  0.40120000  0.18106000  0.62585000  1.0
  C  C77  1  0.09881000  0.31894000  0.12585000  1.0
  C  C78  1  0.59881000  0.81894000  0.37415000  1.0
  C  C79  1  0.90119000  0.68106000  0.87415000  1.0
  C  C80  1  0.59290000  0.27340000  0.55481000  1.0
  C  C81  1  0.90710000  0.22660000  0.05481000  1.0
  C  C82  1  0.40710000  0.72660000  0.44519000  1.0
  C  C83  1  0.09290000  0.77340000  0.94519000  1.0
  C  C84  1  0.38101000  0.41996000  0.53277000  1.0
  C  C85  1  0.11899000  0.08003000  0.03277000  1.0
  C  C86  1  0.61899000  0.58004000  0.46723000  1.0
  C  C87  1  0.88101000  0.91996000  0.96723000  1.0
  C  C88  1  0.34441000  0.45662000  0.62890000  1.0
  C  C89  1  0.15559000  0.04338000  0.12890000  1.0
  C  C90  1  0.65559000  0.54338000  0.37110000  1.0
  C  C91  1  0.84441000  0.95662000  0.87110000  1.0
  C  C92  1  0.22776000  0.53756000  0.63646000  1.0
  C  C93  1  0.27224000  0.96244000  0.13647000  1.0
  C  C94  1  0.77224000  0.46244000  0.36353000  1.0
  C  C95  1  0.72776000  0.03756000  0.86353000  1.0
  C  C96  1  0.14976000  0.57889000  0.55189000  1.0
  C  C97  1  0.35024000  0.92111000  0.05190000  1.0
  C  C98  1  0.85024000  0.42111000  0.44810000  1.0
  C  C99  1  0.64975000  0.07889000  0.94811000  1.0
  C  C100  1  0.18631000  0.54161000  0.45610000  1.0
  C  C101  1  0.31369000  0.95839000  0.95610000  1.0
  C  C102  1  0.81369000  0.45839000  0.54390000  1.0
  C  C103  1  0.68631000  0.04161000  0.04390000  1.0
  C  C104  1  0.30451000  0.46184000  0.44706000  1.0
  C  C105  1  0.19549000  0.03816000  0.94706000  1.0
  C  C106  1  0.69549000  0.53816000  0.55294000  1.0
  C  C107  1  0.80451000  0.96184000  0.05294000  1.0
  C  C108  1  0.47817000  0.34263000  0.39467000  1.0
  C  C109  1  0.02184000  0.15737000  0.89467000  1.0
  C  C110  1  0.52184000  0.65737000  0.60533000  1.0
  C  C111  1  0.97817000  0.84263000  0.10533000  1.0
  Br  Br112  1  0.32739000  0.65765000  0.18228000  1.0
  Br  Br113  1  0.17261000  0.84235000  0.68228000  1.0
  Br  Br114  1  0.67261000  0.34235000  0.81772000  1.0
  Br  Br115  1  0.82739000  0.15765000  0.31772000  1.0
  Br  Br116  1  0.49450000  0.28849000  0.12420000  1.0
  Br  Br117  1  0.00549000  0.21150000  0.62421000  1.0
  Br  Br118  1  0.50549000  0.71150000  0.87579000  1.0
  Br  Br119  1  0.99451000  0.78850000  0.37579000  1.0
  N  N120  1  0.36904000  0.41162000  0.36267000  1.0
  N  N121  1  0.13096000  0.08837000  0.86267000  1.0
  N  N122  1  0.63096000  0.58838000  0.63733000  1.0
  N  N123  1  0.86904000  0.91162000  0.13733000  1.0
  N  N124  1  0.49028000  0.34335000  0.49647000  1.0
  N  N125  1  0.00972000  0.15665000  0.99647000  1.0
  N  N126  1  0.50972000  0.65665000  0.50353000  1.0
  N  N127  1  0.99028000  0.84335000  0.00353000  1.0
  N  N128  1  0.53499000  0.18198000  0.58931000  1.0
  N  N129  1  0.96501000  0.31802000  0.08931000  1.0
  N  N130  1  0.46502000  0.81802000  0.41069000  1.0
  N  N131  1  0.03498000  0.68198000  0.91069000  1.0
  N  N132  1  0.38544000  0.08666000  0.65694000  1.0
  N  N133  1  0.11456000  0.41334000  0.15694000  1.0
  N  N134  1  0.61456000  0.91334000  0.34306000  1.0
  N  N135  1  0.88544000  0.58666000  0.84306000  1.0
