# generated using pymatgen
data_SmH3CSO7
_symmetry_space_group_name_H-M   'P 1'
_cell_length_a   6.93086000
_cell_length_b   6.93089000
_cell_length_c   11.61580000
_cell_angle_alpha   90.00000000
_cell_angle_beta   90.00000000
_cell_angle_gamma   89.99870000
_symmetry_Int_Tables_number   1
_chemical_formula_structural   SmH3CSO7
_chemical_formula_sum   'Sm4 H12 C4 S4 O28'
_cell_volume   557.98851278
_cell_formula_units_Z   4
loop_
 _symmetry_equiv_pos_site_id
 _symmetry_equiv_pos_as_xyz
  1  'x, y, z'
loop_
 _atom_site_type_symbol
 _atom_site_label
 _atom_site_symmetry_multiplicity
 _atom_site_fract_x
 _atom_site_fract_y
 _atom_site_fract_z
 _atom_site_occupancy
  Sm  Sm0  1  0.11885000  0.62356000  0.15447000  1.0
  Sm  Sm1  1  0.88115000  0.37644000  0.65447000  1.0
  Sm  Sm2  1  0.37632000  0.11875000  0.40450000  1.0
  Sm  Sm3  1  0.62368000  0.88125000  0.90450000  1.0
  H  H4  1  0.17958000  0.39631000  0.93229000  1.0
  H  H5  1  0.82042000  0.60369000  0.43229000  1.0
  H  H6  1  0.60356000  0.17949000  0.18232000  1.0
  H  H7  1  0.39644000  0.82052000  0.68232000  1.0
  H  H8  1  0.39049000  0.45240000  0.97421000  1.0
  H  H9  1  0.60951000  0.54760000  0.47421000  1.0
  H  H10  1  0.54740000  0.39043000  0.22421000  1.0
  H  H11  1  0.45261000  0.60957000  0.72421000  1.0
  H  H12  1  0.02733000  0.12968000  0.11349000  1.0
  H  H13  1  0.97267000  0.87032000  0.61349000  1.0
  H  H14  1  0.87011000  0.02737000  0.36350000  1.0
  H  H15  1  0.12988000  0.97263000  0.86350000  1.0
  C  C16  1  0.11811000  0.12645000  0.19124000  1.0
  C  C17  1  0.88189000  0.87355000  0.69124000  1.0
  C  C18  1  0.87332000  0.11815000  0.44124000  1.0
  C  C19  1  0.12668000  0.88185000  0.94124000  1.0
  S  S20  1  0.61412000  0.77242000  0.21263000  1.0
  S  S21  1  0.38588000  0.22758000  0.71263000  1.0
  S  S22  1  0.22751000  0.61405000  0.46257000  1.0
  S  S23  1  0.77249000  0.38595000  0.96257000  1.0
  O  O24  1  0.61845000  0.90092000  0.11088000  1.0
  O  O25  1  0.38155000  0.09908000  0.61088000  1.0
  O  O26  1  0.09893000  0.61829000  0.36086000  1.0
  O  O27  1  0.90107000  0.38171000  0.86086000  1.0
  O  O28  1  0.46168000  0.62035000  0.19673000  1.0
  O  O29  1  0.53832000  0.37965000  0.69673000  1.0
  O  O30  1  0.37959000  0.46167000  0.44661000  1.0
  O  O31  1  0.62041000  0.53833000  0.94661000  1.0
  O  O32  1  0.80240000  0.67938000  0.23078000  1.0
  O  O33  1  0.19760000  0.32062000  0.73078000  1.0
  O  O34  1  0.32046000  0.80239000  0.48063000  1.0
  O  O35  1  0.67954000  0.19761000  0.98063000  1.0
  O  O36  1  0.57109000  0.88747000  0.31597000  1.0
  O  O37  1  0.42891000  0.11253000  0.81597000  1.0
  O  O38  1  0.11254000  0.57101000  0.56594000  1.0
  O  O39  1  0.88746000  0.42899000  0.06594000  1.0
  O  O40  1  0.17053000  0.96412000  0.23329000  1.0
  O  O41  1  0.82947000  0.03588000  0.73329000  1.0
  O  O42  1  0.03561000  0.17030000  0.48345000  1.0
  O  O43  1  0.96439000  0.82970000  0.98345000  1.0
  O  O44  1  0.16474000  0.28424000  0.23911000  1.0
  O  O45  1  0.83526000  0.71576000  0.73911000  1.0
  O  O46  1  0.71546000  0.16501000  0.48897000  1.0
  O  O47  1  0.28454000  0.83499000  0.98897000  1.0
  O  O48  1  0.25788000  0.42329000  0.00078000  1.0
  O  O49  1  0.74212000  0.57671000  0.50078000  1.0
  O  O50  1  0.57639000  0.25779000  0.25077000  1.0
  O  O51  1  0.42361000  0.74221000  0.75077000  1.0
