# generated using pymatgen
data_ZnH6C10Br4(NCl)2
_symmetry_space_group_name_H-M   'P 1'
_cell_length_a   3.73642000
_cell_length_b   13.78500000
_cell_length_c   13.78510000
_cell_angle_alpha   90.00000000
_cell_angle_beta   90.00000000
_cell_angle_gamma   90.00000000
_symmetry_Int_Tables_number   1
_chemical_formula_structural   ZnH6C10Br4(NCl)2
_chemical_formula_sum   'Zn2 H12 C20 Br8 N4 Cl4'
_cell_volume   710.02293827
_cell_formula_units_Z   2
loop_
 _symmetry_equiv_pos_site_id
 _symmetry_equiv_pos_as_xyz
  1  'x, y, z'
loop_
 _atom_site_type_symbol
 _atom_site_label
 _atom_site_symmetry_multiplicity
 _atom_site_fract_x
 _atom_site_fract_y
 _atom_site_fract_z
 _atom_site_occupancy
  Zn  Zn0  1  0.50000000  0.00000000  0.50000000  1.0
  Zn  Zn1  1  0.50000000  0.50000000  0.00000000  1.0
  H  H2  1  0.70533000  0.78474000  0.51746000  1.0
  H  H3  1  0.29467000  0.51746000  0.21526000  1.0
  H  H4  1  0.70534000  0.21526000  0.48254000  1.0
  H  H5  1  0.29467000  0.48254000  0.78474000  1.0
  H  H6  1  0.70533000  0.71526000  0.01746000  1.0
  H  H7  1  0.29467000  0.01746000  0.28474000  1.0
  H  H8  1  0.70533000  0.28474000  0.98254000  1.0
  H  H9  1  0.29467000  0.98254000  0.71526000  1.0
  H  H10  1  0.50000000  0.68835000  0.81165000  1.0
  H  H11  1  0.50000000  0.81165000  0.31165000  1.0
  H  H12  1  0.50000000  0.31165000  0.18835000  1.0
  H  H13  1  0.50000000  0.18835000  0.68835000  1.0
  C  C14  1  0.61446000  0.79754000  0.59138000  1.0
  C  C15  1  0.38555000  0.59138000  0.20246000  1.0
  C  C16  1  0.61445000  0.20246000  0.40862000  1.0
  C  C17  1  0.38554000  0.40862000  0.79754000  1.0
  C  C18  1  0.61445000  0.70246000  0.09138000  1.0
  C  C19  1  0.38555000  0.09138000  0.29754000  1.0
  C  C20  1  0.61445000  0.29754000  0.90862000  1.0
  C  C21  1  0.38555000  0.90862000  0.70246000  1.0
  C  C22  1  0.62118000  0.72521000  0.66207000  1.0
  C  C23  1  0.37882000  0.66208000  0.27479000  1.0
  C  C24  1  0.62118000  0.27479000  0.33793000  1.0
  C  C25  1  0.37882000  0.33792000  0.72521000  1.0
  C  C26  1  0.62118000  0.77479000  0.16207000  1.0
  C  C27  1  0.37882000  0.16207000  0.22521000  1.0
  C  C28  1  0.62117000  0.22521000  0.83793000  1.0
  C  C29  1  0.37882000  0.83793000  0.77479000  1.0
  C  C30  1  0.50000000  0.74421000  0.75579000  1.0
  C  C31  1  0.50000000  0.75579000  0.25579000  1.0
  C  C32  1  0.49999000  0.25579000  0.24421000  1.0
  C  C33  1  0.50000000  0.24421000  0.74421000  1.0
  Br  Br34  1  0.79731000  0.59989000  0.63068000  1.0
  Br  Br35  1  0.20269000  0.63068000  0.40011000  1.0
  Br  Br36  1  0.79731000  0.40011000  0.36932000  1.0
  Br  Br37  1  0.20269000  0.36932000  0.59989000  1.0
  Br  Br38  1  0.79731000  0.90011000  0.13068000  1.0
  Br  Br39  1  0.20269000  0.13068000  0.09989000  1.0
  Br  Br40  1  0.79731000  0.09989000  0.86932000  1.0
  Br  Br41  1  0.20269000  0.86932000  0.90011000  1.0
  N  N42  1  0.50000000  0.88757000  0.61243000  1.0
  N  N43  1  0.50000000  0.61242000  0.11243000  1.0
  N  N44  1  0.50000000  0.11242000  0.38757000  1.0
  N  N45  1  0.50000000  0.38758000  0.88757000  1.0
  Cl  Cl46  1  0.00000000  0.91330000  0.41330000  1.0
  Cl  Cl47  1  0.00000000  0.41330000  0.08670000  1.0
  Cl  Cl48  1  0.00000000  0.08670000  0.58670000  1.0
  Cl  Cl49  1  0.00000000  0.58670000  0.91330000  1.0
