# generated using pymatgen
data_KH6C3NO5
_symmetry_space_group_name_H-M   'P 1'
_cell_length_a   6.83466000
_cell_length_b   7.48072000
_cell_length_c   13.07070000
_cell_angle_alpha   89.99990000
_cell_angle_beta   89.99980000
_cell_angle_gamma   105.18400000
_symmetry_Int_Tables_number   1
_chemical_formula_structural   KH6C3NO5
_chemical_formula_sum   'K4 H24 C12 N4 O20'
_cell_volume   644.95116278
_cell_formula_units_Z   4
loop_
 _symmetry_equiv_pos_site_id
 _symmetry_equiv_pos_as_xyz
  1  'x, y, z'
loop_
 _atom_site_type_symbol
 _atom_site_label
 _atom_site_symmetry_multiplicity
 _atom_site_fract_x
 _atom_site_fract_y
 _atom_site_fract_z
 _atom_site_occupancy
  K  K0  1  0.09986000  0.49864000  0.63803000  1.0
  K  K1  1  0.40014000  0.50136000  0.13803000  1.0
  K  K2  1  0.90014000  0.50136000  0.36197000  1.0
  K  K3  1  0.59986000  0.49864000  0.86197000  1.0
  H  H4  1  0.95545000  0.97439000  0.73492000  1.0
  H  H5  1  0.54455000  0.02561000  0.23492000  1.0
  H  H6  1  0.04455000  0.02561000  0.26507000  1.0
  H  H7  1  0.45545000  0.97439000  0.76507000  1.0
  H  H8  1  0.83541000  0.97987000  0.85448000  1.0
  H  H9  1  0.66459000  0.02014000  0.35448000  1.0
  H  H10  1  0.16459000  0.02013000  0.14552000  1.0
  H  H11  1  0.33541000  0.97986000  0.64552000  1.0
  H  H12  1  0.11871000  0.55667000  0.89240000  1.0
  H  H13  1  0.38129000  0.44333000  0.39240000  1.0
  H  H14  1  0.88129000  0.44333000  0.10760000  1.0
  H  H15  1  0.61872000  0.55667000  0.60760000  1.0
  H  H16  1  0.94975000  0.23102000  0.96070000  1.0
  H  H17  1  0.55026000  0.76898000  0.46070000  1.0
  H  H18  1  0.05025000  0.76898000  0.03930000  1.0
  H  H19  1  0.44975000  0.23102000  0.53930000  1.0
  H  H20  1  0.13843000  0.88415000  0.48352000  1.0
  H  H21  1  0.36157000  0.11585000  0.98352000  1.0
  H  H22  1  0.86157000  0.11585000  0.51648000  1.0
  H  H23  1  0.63843000  0.88415000  0.01648000  1.0
  H  H24  1  0.92286000  0.81831000  0.53564000  1.0
  H  H25  1  0.57714000  0.18169000  0.03564000  1.0
  H  H26  1  0.07714000  0.18169000  0.46436000  1.0
  H  H27  1  0.42286000  0.81831000  0.96436000  1.0
  C  C28  1  0.08269000  0.85767000  0.86126000  1.0
  C  C29  1  0.41731000  0.14234000  0.36126000  1.0
  C  C30  1  0.91731000  0.14233000  0.13875000  1.0
  C  C31  1  0.58269000  0.85767000  0.63874000  1.0
  C  C32  1  0.98393000  0.00143000  0.81673000  1.0
  C  C33  1  0.51607000  0.99857000  0.31673000  1.0
  C  C34  1  0.01607000  0.99857000  0.18327000  1.0
  C  C35  1  0.48393000  0.00143000  0.68327000  1.0
  C  C36  1  0.11038000  0.19913000  0.82895000  1.0
  C  C37  1  0.38962000  0.80087000  0.32895000  1.0
  C  C38  1  0.88961000  0.80086000  0.17105000  1.0
  C  C39  1  0.61039000  0.19913000  0.67104000  1.0
  N  N40  1  0.06177000  0.29022000  0.90928000  1.0
  N  N41  1  0.43824000  0.70978000  0.40929000  1.0
  N  N42  1  0.93823000  0.70978000  0.09072000  1.0
  N  N43  1  0.56177000  0.29022000  0.59071000  1.0
  O  O44  1  0.02394000  0.69357000  0.82668000  1.0
  O  O45  1  0.47606000  0.30643000  0.32668000  1.0
  O  O46  1  0.97606000  0.30643000  0.17332000  1.0
  O  O47  1  0.52394000  0.69357000  0.67332000  1.0
  O  O48  1  0.21016000  0.90545000  0.93432000  1.0
  O  O49  1  0.28984000  0.09455000  0.43432000  1.0
  O  O50  1  0.78984000  0.09455000  0.06569000  1.0
  O  O51  1  0.71017000  0.90545000  0.56568000  1.0
  O  O52  1  0.25003000  0.27061000  0.76794000  1.0
  O  O53  1  0.24997000  0.72939000  0.26795000  1.0
  O  O54  1  0.74997000  0.72939000  0.23206000  1.0
  O  O55  1  0.75003000  0.27061000  0.73205000  1.0
  O  O56  1  0.17868000  0.46676000  0.93355000  1.0
  O  O57  1  0.32132000  0.53324000  0.43355000  1.0
  O  O58  1  0.82132000  0.53324000  0.06645000  1.0
  O  O59  1  0.67868000  0.46676000  0.56645000  1.0
  O  O60  1  0.04355000  0.77665000  0.51633000  1.0
  O  O61  1  0.45645000  0.22335000  0.01633000  1.0
  O  O62  1  0.95645000  0.22335000  0.48367000  1.0
  O  O63  1  0.54355000  0.77665000  0.98367000  1.0
