# generated using pymatgen
data_Na2CuH12(C8O5)2
_symmetry_space_group_name_H-M   'P 1'
_cell_length_a   6.55177000
_cell_length_b   11.05600000
_cell_length_c   12.30380000
_cell_angle_alpha   77.75300000
_cell_angle_beta   89.99970000
_cell_angle_gamma   89.99940000
_symmetry_Int_Tables_number   1
_chemical_formula_structural   Na2CuH12(C8O5)2
_chemical_formula_sum   'Na4 Cu2 H24 C32 O20'
_cell_volume   870.95989064
_cell_formula_units_Z   2
loop_
 _symmetry_equiv_pos_site_id
 _symmetry_equiv_pos_as_xyz
  1  'x, y, z'
loop_
 _atom_site_type_symbol
 _atom_site_label
 _atom_site_symmetry_multiplicity
 _atom_site_fract_x
 _atom_site_fract_y
 _atom_site_fract_z
 _atom_site_occupancy
  Na  Na0  1  0.14781000  0.59364000  0.30238000  1.0
  Na  Na1  1  0.35220000  0.59363000  0.80237000  1.0
  Na  Na2  1  0.85219000  0.40636000  0.69763000  1.0
  Na  Na3  1  0.64780000  0.40637000  0.19763000  1.0
  Cu  Cu4  1  0.00000000  0.50000000  0.00000000  1.0
  Cu  Cu5  1  0.50000000  0.50000000  0.50000000  1.0
  H  H6  1  0.87871000  0.93224000  0.98649000  1.0
  H  H7  1  0.62128000  0.93224000  0.48649000  1.0
  H  H8  1  0.12129000  0.06776000  0.01351000  1.0
  H  H9  1  0.37871000  0.06776000  0.51351000  1.0
  H  H10  1  0.67892000  0.10350000  0.03768000  1.0
  H  H11  1  0.82108000  0.10350000  0.53768000  1.0
  H  H12  1  0.32108000  0.89650000  0.96232000  1.0
  H  H13  1  0.17891000  0.89650000  0.46232000  1.0
  H  H14  1  0.45766000  0.06160000  0.20545000  1.0
  H  H15  1  0.04235000  0.06161000  0.70545000  1.0
  H  H16  1  0.54234000  0.93840000  0.79455000  1.0
  H  H17  1  0.95765000  0.93840000  0.29455000  1.0
  H  H18  1  0.43431000  0.84694000  0.32083000  1.0
  H  H19  1  0.06570000  0.84694000  0.82082000  1.0
  H  H20  1  0.56570000  0.15307000  0.67917000  1.0
  H  H21  1  0.93430000  0.15307000  0.17917000  1.0
  H  H22  1  0.95502000  0.64951000  0.49883000  1.0
  H  H23  1  0.54499000  0.64952000  0.99883000  1.0
  H  H24  1  0.04498000  0.35050000  0.50117000  1.0
  H  H25  1  0.45501000  0.35049000  0.00118000  1.0
  H  H26  1  0.19019000  0.67275000  0.51708000  1.0
  H  H27  1  0.30981000  0.67276000  0.01708000  1.0
  H  H28  1  0.80981000  0.32725000  0.48292000  1.0
  H  H29  1  0.69019000  0.32724000  0.98293000  1.0
  C  C30  1  0.90328000  0.69635000  0.09371000  1.0
  C  C31  1  0.59671000  0.69635000  0.59371000  1.0
  C  C32  1  0.09672000  0.30366000  0.90629000  1.0
  C  C33  1  0.40329000  0.30365000  0.40628000  1.0
  C  C34  1  0.77441000  0.79504000  0.12655000  1.0
  C  C35  1  0.72559000  0.79505000  0.62655000  1.0
  C  C36  1  0.22559000  0.20496000  0.87345000  1.0
  C  C37  1  0.27441000  0.20495000  0.37345000  1.0
  C  C38  1  0.78362000  0.91474000  0.06081000  1.0
  C  C39  1  0.71638000  0.91474000  0.56081000  1.0
  C  C40  1  0.21638000  0.08526000  0.93919000  1.0
  C  C41  1  0.28362000  0.08526000  0.43919000  1.0
  C  C42  1  0.67076000  0.01039000  0.08923000  1.0
  C  C43  1  0.82924000  0.01039000  0.58923000  1.0
  C  C44  1  0.32925000  0.98961000  0.91077000  1.0
  C  C45  1  0.17075000  0.98960000  0.41077000  1.0
  C  C46  1  0.54556000  0.98674000  0.18329000  1.0
  C  C47  1  0.95444000  0.98674000  0.68328000  1.0
  C  C48  1  0.45444000  0.01326000  0.81671000  1.0
  C  C49  1  0.04556000  0.01326000  0.31671000  1.0
  C  C50  1  0.53267000  0.86717000  0.24788000  1.0
  C  C51  1  0.96733000  0.86718000  0.74788000  1.0
  C  C52  1  0.46732000  0.13282000  0.75212000  1.0
  C  C53  1  0.03267000  0.13282000  0.25212000  1.0
  C  C54  1  0.64762000  0.77048000  0.22099000  1.0
  C  C55  1  0.85238000  0.77048000  0.72099000  1.0
  C  C56  1  0.35238000  0.22952000  0.77901000  1.0
  C  C57  1  0.14762000  0.22952000  0.27901000  1.0
  C  C58  1  0.64309000  0.64437000  0.29534000  1.0
  C  C59  1  0.85692000  0.64437000  0.79534000  1.0
  C  C60  1  0.35691000  0.35563000  0.70466000  1.0
  C  C61  1  0.14308000  0.35563000  0.20466000  1.0
  O  O62  1  0.09353000  0.70008000  0.10510000  1.0
  O  O63  1  0.40647000  0.70008000  0.60509000  1.0
  O  O64  1  0.90648000  0.29991000  0.89491000  1.0
  O  O65  1  0.59353000  0.29991000  0.39491000  1.0
  O  O66  1  0.80718000  0.61506000  0.05089000  1.0
  O  O67  1  0.69281000  0.61506000  0.55090000  1.0
  O  O68  1  0.19282000  0.38494000  0.94911000  1.0
  O  O69  1  0.30719000  0.38494000  0.44911000  1.0
  O  O70  1  0.48252000  0.62027000  0.35778000  1.0
  O  O71  1  0.01749000  0.62027000  0.85778000  1.0
  O  O72  1  0.51749000  0.37973000  0.64222000  1.0
  O  O73  1  0.98251000  0.37973000  0.14223000  1.0
  O  O74  1  0.78774000  0.56968000  0.29454000  1.0
  O  O75  1  0.71226000  0.56968000  0.79453000  1.0
  O  O76  1  0.21225000  0.43032000  0.70546000  1.0
  O  O77  1  0.28774000  0.43032000  0.20547000  1.0
  O  O78  1  0.08631000  0.66882000  0.46009000  1.0
  O  O79  1  0.41370000  0.66883000  0.96009000  1.0
  O  O80  1  0.91370000  0.33119000  0.53991000  1.0
  O  O81  1  0.58629000  0.33118000  0.03991000  1.0
