# generated using pymatgen
data_Y2H22C42N4O15
_symmetry_space_group_name_H-M   'P 1'
_cell_length_a   10.49980000
_cell_length_b   21.21300000
_cell_length_c   21.21314899
_cell_angle_alpha   86.48392804
_cell_angle_beta   75.67052452
_cell_angle_gamma   75.67230000
_symmetry_Int_Tables_number   1
_chemical_formula_structural   Y2H22C42N4O15
_chemical_formula_sum   'Y8 H88 C168 N16 O60'
_cell_volume   4435.46678623
_cell_formula_units_Z   4
loop_
 _symmetry_equiv_pos_site_id
 _symmetry_equiv_pos_as_xyz
  1  'x, y, z'
loop_
 _atom_site_type_symbol
 _atom_site_label
 _atom_site_symmetry_multiplicity
 _atom_site_fract_x
 _atom_site_fract_y
 _atom_site_fract_z
 _atom_site_occupancy
  Y  Y0  1  0.21814000  0.20789000  0.42651000  1.0
  Y  Y1  1  0.85251000  0.79210000  0.57349000  1.0
  Y  Y2  1  0.35540000  0.42650000  0.79213000  1.0
  Y  Y3  1  0.57400000  0.57350000  0.20789000  1.0
  Y  Y4  1  0.89746000  0.92651000  0.70790000  1.0
  Y  Y5  1  0.53190000  0.07349000  0.29210000  1.0
  Y  Y6  1  0.17595000  0.29213000  0.92651000  1.0
  Y  Y7  1  0.39462000  0.70790000  0.07349000  1.0
  H  H8  1  0.04097000  0.29484000  0.28257000  1.0
  H  H9  1  0.97920000  0.34239000  0.16740000  1.0
  H  H10  1  0.31309000  0.91850000  0.33628000  1.0
  H  H11  1  0.22692000  0.36380000  0.38722000  1.0
  H  H12  1  0.08959000  0.47055000  0.35672000  1.0
  H  H13  1  0.84816000  0.47954000  0.35379000  1.0
  H  H14  1  0.65307000  0.42597000  0.37042000  1.0
  H  H15  1  0.56019000  0.32963000  0.40544000  1.0
  H  H16  1  0.59102000  0.21528000  0.44901000  1.0
  H  H17  1  0.74650000  0.11714000  0.48497000  1.0
  H  H18  1  0.98879000  0.11791000  0.47486000  1.0
  H  H19  1  0.61831000  0.70519000  0.71745000  1.0
  H  H20  1  0.48895000  0.65764000  0.83261000  1.0
  H  H21  1  0.56781000  0.08149000  0.66372000  1.0
  H  H22  1  0.97790000  0.63622000  0.61281000  1.0
  H  H23  1  0.91686000  0.52947000  0.64330000  1.0
  H  H24  1  0.68148000  0.52048000  0.64621000  1.0
  H  H25  1  0.44955000  0.57400000  0.62959000  1.0
  H  H26  1  0.29523000  0.67032000  0.59458000  1.0
  H  H27  1  0.25524000  0.78472000  0.55100000  1.0
  H  H28  1  0.34854000  0.88283000  0.51500000  1.0
  H  H29  1  0.58150000  0.88209000  0.52508000  1.0
  H  H30  1  0.67636000  0.28256000  0.70515000  1.0
  H  H31  1  0.85343000  0.16741000  0.65763000  1.0
  H  H32  1  0.35069000  0.33626000  0.08157000  1.0
  H  H33  1  0.38588000  0.38721000  0.63622000  1.0
  H  H34  1  0.55366000  0.35671000  0.52947000  1.0
  H  H35  1  0.79805000  0.35382000  0.52045000  1.0
  H  H36  1  0.97646000  0.37042000  0.57398000  1.0
  H  H37  1  0.03449000  0.40538000  0.67032000  1.0
  H  H38  1  0.96012000  0.44900000  0.78466000  1.0
  H  H39  1  0.76864000  0.48503000  0.88277000  1.0
  H  H40  1  0.53650000  0.47489000  0.88206000  1.0
  H  H41  1  0.66438000  0.71744000  0.29484000  1.0
  H  H42  1  0.67843000  0.83266000  0.34235000  1.0
  H  H43  1  0.76837000  0.66375000  0.91850000  1.0
  H  H44  1  0.40932000  0.61280000  0.36376000  1.0
  H  H45  1  0.43985000  0.64333000  0.47051000  1.0
  H  H46  1  0.67228000  0.64621000  0.47954000  1.0
  H  H47  1  0.92104000  0.62953000  0.42598000  1.0
  H  H48  1  0.11027000  0.59454000  0.32963000  1.0
  H  H49  1  0.19373000  0.55102000  0.21529000  1.0
  H  H50  1  0.13642000  0.51511000  0.11715000  1.0
  H  H51  1  0.89341000  0.52515000  0.11791000  1.0
  H  H52  1  0.13163000  0.78258000  0.79483000  1.0
  H  H53  1  0.26100000  0.66741000  0.84239000  1.0
  H  H54  1  0.18213000  0.83629000  0.41850000  1.0
  H  H55  1  0.77208000  0.88722000  0.86382000  1.0
  H  H56  1  0.83317000  0.85671000  0.97056000  1.0
  H  H57  1  0.06854000  0.85378000  0.97955000  1.0
  H  H58  1  0.30056000  0.87044000  0.92598000  1.0
  H  H59  1  0.45475000  0.90546000  0.82963000  1.0
  H  H60  1  0.49469000  0.94902000  0.71528000  1.0
  H  H61  1  0.40138000  0.98498000  0.61714000  1.0
  H  H62  1  0.16841000  0.97487000  0.61793000  1.0
  H  H63  1  0.70907000  0.21745000  0.20519000  1.0
  H  H64  1  0.77081000  0.33262000  0.15764000  1.0
  H  H65  1  0.43694000  0.16371000  0.58150000  1.0
  H  H66  1  0.52308000  0.11279000  0.13622000  1.0
  H  H67  1  0.66037000  0.14329000  0.02947000  1.0
  H  H68  1  0.90184000  0.14622000  0.02048000  1.0
  H  H69  1  0.09686000  0.12960000  0.07401000  1.0
  H  H70  1  0.18987000  0.09458000  0.17032000  1.0
  H  H71  1  0.15904000  0.05101000  0.28473000  1.0
  H  H72  1  0.00363000  0.01501000  0.38284000  1.0
  H  H73  1  0.76132000  0.02508000  0.38210000  1.0
  H  H74  1  0.08590000  0.20514000  0.78256000  1.0
  H  H75  1  0.07150000  0.15763000  0.66740000  1.0
  H  H76  1  0.98154000  0.58157000  0.83626000  1.0
  H  H77  1  0.34066000  0.13621000  0.88724000  1.0
  H  H78  1  0.31014000  0.02948000  0.85672000  1.0
  H  H79  1  0.07767000  0.02046000  0.85382000  1.0
  H  H80  1  0.82913000  0.07398000  0.87042000  1.0
  H  H81  1  0.63979000  0.17031000  0.90539000  1.0
  H  H82  1  0.55620000  0.28466000  0.94900000  1.0
  H  H83  1  0.61354000  0.38277000  0.98501000  1.0
  H  H84  1  0.85653000  0.38206000  0.97488000  1.0
  H  H85  1  0.07335000  0.79482000  0.21744000  1.0
  H  H86  1  0.89657000  0.84234000  0.33265000  1.0
  H  H87  1  0.39945000  0.41852000  0.16373000  1.0
  H  H88  1  0.36410000  0.86377000  0.11280000  1.0
  H  H89  1  0.19629000  0.97052000  0.14332000  1.0
  H  H90  1  0.95195000  0.97954000  0.14621000  1.0
  H  H91  1  0.77343000  0.92598000  0.12954000  1.0
  H  H92  1  0.71555000  0.82962000  0.09455000  1.0
  H  H93  1  0.78993000  0.71528000  0.05104000  1.0
  H  H94  1  0.98131000  0.61714000  0.01513000  1.0
  H  H95  1  0.21352000  0.61791000  0.02516000  1.0
  C  C96  1  0.27044000  0.17776000  0.26064000  1.0
  C  C97  1  0.19532000  0.22174000  0.21860000  1.0
  C  C98  1  0.08876000  0.27577000  0.23402000  1.0
  C  C99  1  0.05647000  0.30004000  0.17487000  1.0
  C  C100  1  0.14444000  0.25911000  0.12647000  1.0
  C  C101  1  0.15204000  0.26046000  0.05612000  1.0
  C  C102  1  0.26138000  0.04705000  0.39804000  1.0
  C  C103  1  0.22458000  0.98514000  0.41934000  1.0
  C  C104  1  0.25215000  0.92774000  0.38565000  1.0
  C  C105  1  0.12114000  0.36972000  0.38640000  1.0
  C  C106  1  0.04379000  0.42925000  0.36878000  1.0
  C  C107  1  0.91094000  0.43416000  0.36723000  1.0
  C  C108  1  0.85470000  0.37965000  0.38373000  1.0
  C  C109  1  0.71696000  0.38127000  0.38470000  1.0
  C  C110  1  0.66556000  0.32803000  0.40385000  1.0
  C  C111  1  0.74805000  0.26905000  0.42279000  1.0
  C  C112  1  0.69695000  0.21408000  0.44600000  1.0
  C  C113  1  0.78243000  0.15989000  0.46536000  1.0
  C  C114  1  0.91853000  0.15987000  0.46005000  1.0
  C  C115  1  0.88654000  0.26500000  0.42006000  1.0
  C  C116  1  0.94047000  0.32144000  0.40101000  1.0
  C  C117  1  0.70896000  0.82224000  0.73939000  1.0
  C  C118  1  0.63573000  0.77826000  0.78142000  1.0
  C  C119  1  0.59854000  0.72426000  0.76600000  1.0
  C  C120  1  0.53142000  0.69996000  0.82514000  1.0
  C  C121  1  0.53014000  0.74087000  0.87355000  1.0
  C  C122  1  0.46869000  0.73954000  0.94389000  1.0
  C  C123  1  0.70628000  0.95291000  0.60199000  1.0
  C  C124  1  0.62902000  0.01485000  0.58067000  1.0
  C  C125  1  0.56550000  0.07225000  0.61435000  1.0
  C  C126  1  0.87723000  0.63030000  0.61362000  1.0
  C  C127  1  0.84183000  0.57077000  0.63123000  1.0
  C  C128  1  0.71234000  0.56585000  0.63278000  1.0
  C  C129  1  0.61809000  0.62036000  0.61626000  1.0
  C  C130  1  0.48296000  0.61872000  0.61530000  1.0
  C  C131  1  0.39741000  0.67194000  0.59616000  1.0
  C  C132  1  0.43981000  0.73093000  0.57722000  1.0
  C  C133  1  0.35698000  0.78590000  0.55400000  1.0
  C  C134  1  0.40764000  0.84008000  0.53461000  1.0
  C  C135  1  0.53842000  0.84013000  0.53989000  1.0
  C  C136  1  0.57154000  0.73500000  0.57993000  1.0
  C  C137  1  0.66289000  0.67857000  0.59898000  1.0
  C  C138  1  0.46884000  0.26061000  0.82225000  1.0
  C  C139  1  0.58601000  0.21855000  0.77825000  1.0
  C  C140  1  0.67712000  0.23400000  0.72423000  1.0
  C  C141  1  0.76867000  0.17488000  0.69996000  1.0
  C  C142  1  0.72916000  0.12646000  0.74089000  1.0
  C  C143  1  0.79191000  0.05612000  0.73953000  1.0
  C  C144  1  0.34062000  0.39804000  0.95297000  1.0
  C  C145  1  0.35602000  0.41933000  0.01491000  1.0
  C  C146  1  0.36223000  0.38563000  0.07231000  1.0
  C  C147  1  0.49248000  0.38640000  0.63028000  1.0
  C  C148  1  0.58741000  0.36880000  0.57075000  1.0
  C  C149  1  0.72182000  0.36725000  0.56583000  1.0
  C  C150  1  0.76157000  0.38373000  0.62035000  1.0
  C  C151  1  0.89835000  0.38469000  0.61870000  1.0
  C  C152  1  0.93068000  0.40381000  0.67193000  1.0
  C  C153  1  0.82928000  0.42272000  0.73093000  1.0
  C  C154  1  0.85721000  0.44598000  0.78587000  1.0
  C  C155  1  0.75235000  0.46536000  0.84004000  1.0
  C  C156  1  0.62155000  0.46005000  0.84010000  1.0
  C  C157  1  0.69349000  0.42000000  0.73499000  1.0
  C  C158  1  0.65853000  0.40100000  0.67856000  1.0
  C  C159  1  0.55175000  0.73937000  0.17776000  1.0
  C  C160  1  0.58283000  0.78139000  0.22178000  1.0
  C  C161  1  0.63547000  0.76599000  0.27579000  1.0
  C  C162  1  0.64342000  0.82515000  0.30005000  1.0
  C  C163  1  0.59624000  0.87354000  0.25915000  1.0
  C  C164  1  0.58744000  0.94387000  0.26045000  1.0
  C  C165  1  0.69168000  0.60195000  0.04708000  1.0
  C  C166  1  0.79035000  0.58069000  0.98514000  1.0
  C  C167  1  0.82009000  0.61439000  0.92774000  1.0
  C  C168  1  0.50916000  0.61360000  0.36971000  1.0
  C  C169  1  0.52696000  0.63123000  0.42923000  1.0
  C  C170  1  0.65491000  0.63276000  0.43415000  1.0
  C  C171  1  0.76573000  0.61625000  0.37966000  1.0
  C  C172  1  0.90184000  0.61526000  0.38129000  1.0
  C  C173  1  0.00649000  0.59613000  0.32804000  1.0
  C  C174  1  0.98294000  0.57722000  0.26906000  1.0
  C  C175  1  0.08899000  0.55404000  0.21410000  1.0
  C  C176  1  0.05771000  0.53471000  0.15990000  1.0
  C  C177  1  0.92167000  0.53997000  0.15987000  1.0
  C  C178  1  0.84849000  0.57994000  0.26500000  1.0
  C  C179  1  0.73815000  0.59897000  0.32145000  1.0
  C  C180  1  0.04116000  0.76065000  0.67775000  1.0
  C  C181  1  0.11435000  0.71860000  0.72174000  1.0
  C  C182  1  0.15146000  0.73402000  0.77576000  1.0
  C  C183  1  0.21862000  0.67488000  0.80004000  1.0
  C  C184  1  0.21998000  0.62647000  0.75911000  1.0
  C  C185  1  0.28136000  0.55612000  0.76047000  1.0
  C  C186  1  0.04353000  0.89804000  0.54705000  1.0
  C  C187  1  0.12094000  0.91934000  0.48514000  1.0
  C  C188  1  0.18447000  0.88565000  0.42774000  1.0
  C  C189  1  0.87274000  0.88640000  0.86974000  1.0
  C  C190  1  0.90819000  0.86878000  0.92926000  1.0
  C  C191  1  0.03770000  0.86723000  0.93417000  1.0
  C  C192  1  0.13194000  0.88373000  0.87966000  1.0
  C  C193  1  0.26708000  0.88471000  0.88128000  1.0
  C  C194  1  0.35258000  0.90386000  0.82803000  1.0
  C  C195  1  0.31011000  0.92279000  0.76906000  1.0
  C  C196  1  0.39297000  0.94601000  0.71409000  1.0
  C  C197  1  0.34232000  0.96536000  0.65989000  1.0
  C  C198  1  0.21153000  0.96006000  0.65988000  1.0
  C  C199  1  0.17840000  0.92006000  0.76501000  1.0
  C  C200  1  0.08708000  0.90101000  0.82146000  1.0
  C  C201  1  0.47943000  0.23939000  0.32223000  1.0
  C  C202  1  0.55460000  0.28142000  0.27826000  1.0
  C  C203  1  0.66121000  0.26600000  0.22425000  1.0
  C  C204  1  0.69349000  0.32514000  0.19996000  1.0
  C  C205  1  0.60545000  0.37355000  0.24087000  1.0
  C  C206  1  0.59788000  0.44389000  0.23953000  1.0
  C  C207  1  0.48882000  0.10199000  0.45291000  1.0
  C  C208  1  0.52547000  0.08066000  0.51485000  1.0
  C  C209  1  0.49789000  0.11435000  0.57225000  1.0
  C  C210  1  0.62886000  0.11361000  0.13030000  1.0
  C  C211  1  0.70618000  0.13123000  0.07077000  1.0
  C  C212  1  0.83903000  0.13277000  0.06586000  1.0
  C  C213  1  0.89529000  0.11626000  0.12036000  1.0
  C  C214  1  0.03302000  0.11531000  0.11872000  1.0
  C  C215  1  0.08448000  0.09617000  0.17195000  1.0
  C  C216  1  0.00204000  0.07722000  0.23093000  1.0
  C  C217  1  0.05312000  0.05401000  0.28591000  1.0
  C  C218  1  0.96766000  0.03462000  0.34009000  1.0
  C  C219  1  0.83157000  0.03989000  0.34013000  1.0
  C  C220  1  0.86352000  0.07994000  0.23501000  1.0
  C  C221  1  0.80956000  0.09898000  0.17857000  1.0
  C  C222  1  0.19829000  0.32224000  0.76062000  1.0
  C  C223  1  0.16717000  0.27825000  0.71856000  1.0
  C  C224  1  0.11462000  0.22422000  0.73400000  1.0
  C  C225  1  0.10647000  0.19997000  0.67488000  1.0
  C  C226  1  0.15350000  0.24089000  0.62646000  1.0
  C  C227  1  0.16246000  0.23953000  0.55612000  1.0
  C  C228  1  0.05834000  0.45297000  0.89804000  1.0
  C  C229  1  0.95975000  0.51492000  0.91932000  1.0
  C  C230  1  0.92985000  0.57232000  0.88563000  1.0
  C  C231  1  0.24081000  0.13028000  0.88642000  1.0
  C  C232  1  0.22302000  0.07076000  0.86881000  1.0
  C  C233  1  0.09507000  0.06584000  0.86726000  1.0
  C  C234  1  0.98433000  0.12035000  0.88373000  1.0
  C  C235  1  0.84824000  0.11870000  0.88469000  1.0
  C  C236  1  0.74356000  0.17193000  0.90381000  1.0
  C  C237  1  0.76704000  0.23093000  0.92272000  1.0
  C  C238  1  0.66093000  0.28587000  0.94597000  1.0
  C  C239  1  0.69223000  0.34004000  0.96535000  1.0
  C  C240  1  0.82828000  0.34010000  0.96004000  1.0
  C  C241  1  0.90151000  0.23499000  0.92000000  1.0
  C  C242  1  0.01188000  0.17855000  0.90101000  1.0
  C  C243  1  0.28112000  0.67774000  0.23938000  1.0
  C  C244  1  0.16400000  0.72177000  0.28139000  1.0
  C  C245  1  0.07275000  0.77577000  0.26599000  1.0
  C  C246  1  0.98139000  0.80004000  0.32514000  1.0
  C  C247  1  0.02108000  0.75914000  0.37354000  1.0
  C  C248  1  0.95825000  0.76045000  0.44387000  1.0
  C  C249  1  0.40930000  0.54710000  0.10194000  1.0
  C  C250  1  0.39385000  0.48515000  0.08067000  1.0
  C  C251  1  0.38782000  0.42775000  0.11437000  1.0
  C  C252  1  0.25751000  0.86971000  0.11360000  1.0
  C  C253  1  0.16256000  0.92924000  0.13123000  1.0
  C  C254  1  0.02816000  0.93416000  0.13276000  1.0
  C  C255  1  0.98836000  0.87966000  0.11625000  1.0
  C  C256  1  0.85160000  0.88128000  0.11526000  1.0
  C  C257  1  0.81933000  0.82804000  0.09614000  1.0
  C  C258  1  0.92077000  0.76905000  0.07723000  1.0
  C  C259  1  0.89285000  0.71409000  0.05405000  1.0
  C  C260  1  0.99767000  0.65990000  0.03472000  1.0
  C  C261  1  0.12848000  0.65987000  0.03998000  1.0
  C  C262  1  0.05656000  0.76500000  0.07995000  1.0
  C  C263  1  0.09142000  0.82145000  0.09897000  1.0
  N  N264  1  0.07155000  0.31721000  0.40189000  1.0
  N  N265  1  0.97007000  0.21049000  0.43724000  1.0
  N  N266  1  0.79061000  0.68281000  0.59811000  1.0
  N  N267  1  0.61773000  0.78951000  0.56273000  1.0
  N  N268  1  0.52658000  0.40189000  0.68280000  1.0
  N  N269  1  0.59279000  0.43722000  0.78950000  1.0
  N  N270  1  0.61129000  0.59810000  0.31721000  1.0
  N  N271  1  0.81948000  0.56275000  0.21049000  1.0
  N  N272  1  0.95936000  0.90190000  0.81722000  1.0
  N  N273  1  0.13220000  0.93725000  0.71050000  1.0
  N  N274  1  0.67847000  0.09811000  0.18281000  1.0
  N  N275  1  0.78002000  0.06273000  0.28952000  1.0
  N  N276  1  0.13871000  0.18280000  0.90190000  1.0
  N  N277  1  0.93047000  0.28951000  0.93722000  1.0
  N  N278  1  0.22338000  0.81721000  0.09810000  1.0
  N  N279  1  0.15727000  0.71049000  0.06275000  1.0
  O  O280  1  0.37263000  0.13327000  0.23472000  1.0
  O  O281  1  0.22527000  0.18874000  0.32152000  1.0
  O  O282  1  0.23130000  0.21153000  0.15253000  1.0
  O  O283  1  0.24200000  0.22022000  0.01641000  1.0
  O  O284  1  0.06287000  0.30567000  0.03753000  1.0
  O  O285  1  0.21429000  0.09627000  0.43497000  1.0
  O  O286  1  0.33851000  0.04484000  0.34106000  1.0
  O  O287  1  0.74075000  0.86673000  0.76532000  1.0
  O  O288  1  0.73571000  0.81124000  0.67851000  1.0
  O  O289  1  0.59548000  0.78846000  0.84749000  1.0
  O  O290  1  0.47868000  0.77980000  0.98359000  1.0
  O  O291  1  0.40613000  0.69433000  0.96248000  1.0
  O  O292  1  0.74523000  0.90370000  0.56505000  1.0
  O  O293  1  0.72429000  0.95510000  0.65897000  1.0
  O  O294  1  0.39254000  0.23468000  0.86672000  1.0
  O  O295  1  0.45324000  0.32149000  0.81128000  1.0
  O  O296  1  0.61620000  0.15249000  0.78846000  1.0
  O  O297  1  0.74162000  0.01642000  0.77978000  1.0
  O  O298  1  0.89964000  0.03753000  0.69431000  1.0
  O  O299  1  0.35088000  0.43501000  0.90377000  1.0
  O  O300  1  0.32048000  0.34107000  0.95511000  1.0
  O  O301  1  0.49406000  0.76532000  0.13326000  1.0
  O  O302  1  0.58595000  0.67849000  0.18872000  1.0
  O  O303  1  0.55695000  0.84747000  0.21158000  1.0
  O  O304  1  0.53775000  0.98357000  0.22019000  1.0
  O  O305  1  0.63149000  0.96247000  0.30563000  1.0
  O  O306  1  0.68970000  0.56498000  0.09627000  1.0
  O  O307  1  0.61664000  0.65892000  0.04491000  1.0
  O  O308  1  0.00938000  0.73472000  0.63327000  1.0
  O  O309  1  0.01447000  0.82153000  0.68874000  1.0
  O  O310  1  0.15464000  0.65254000  0.71153000  1.0
  O  O311  1  0.27137000  0.51642000  0.72022000  1.0
  O  O312  1  0.34388000  0.53753000  0.80569000  1.0
  O  O313  1  0.00447000  0.93498000  0.59627000  1.0
  O  O314  1  0.02559000  0.84107000  0.54484000  1.0
  O  O315  1  0.37723000  0.26532000  0.36672000  1.0
  O  O316  1  0.52458000  0.17851000  0.31123000  1.0
  O  O317  1  0.51858000  0.34749000  0.28845000  1.0
  O  O318  1  0.50791000  0.48360000  0.27978000  1.0
  O  O319  1  0.68707000  0.46247000  0.19433000  1.0
  O  O320  1  0.53602000  0.06504000  0.40370000  1.0
  O  O321  1  0.41166000  0.15896000  0.45510000  1.0
  O  O322  1  0.25606000  0.36671000  0.73469000  1.0
  O  O323  1  0.16399000  0.31127000  0.82149000  1.0
  O  O324  1  0.19285000  0.28846000  0.65250000  1.0
  O  O325  1  0.21222000  0.27977000  0.51642000  1.0
  O  O326  1  0.11853000  0.19432000  0.53753000  1.0
  O  O327  1  0.06031000  0.40378000  0.93502000  1.0
  O  O328  1  0.13333000  0.45510000  0.84106000  1.0
  O  O329  1  0.35735000  0.63326000  0.26531000  1.0
  O  O330  1  0.29685000  0.68872000  0.17848000  1.0
  O  O331  1  0.13401000  0.71157000  0.34747000  1.0
  O  O332  1  0.00849000  0.72019000  0.48358000  1.0
  O  O333  1  0.85043000  0.80562000  0.46246000  1.0
  O  O334  1  0.39905000  0.59629000  0.06495000  1.0
  O  O335  1  0.42953000  0.54494000  0.15889000  1.0
  O  O336  1  0.14456000  0.98044000  0.48044000  1.0
  O  O337  1  0.60546000  0.01955000  0.51955000  1.0
  O  O338  1  0.37485000  0.48045000  0.01959000  1.0
  O  O339  1  0.87510000  0.51960000  0.98044000  1.0
