# generated using pymatgen
data_CuH22C16(SN3)2
_symmetry_space_group_name_H-M   'P 1'
_cell_length_a   7.97759000
_cell_length_b   8.49304000
_cell_length_c   13.80020000
_cell_angle_alpha   89.99930000
_cell_angle_beta   89.99810000
_cell_angle_gamma   87.48040000
_symmetry_Int_Tables_number   1
_chemical_formula_structural   CuH22C16(SN3)2
_chemical_formula_sum   'Cu2 H44 C32 S4 N12'
_cell_volume   934.11468856
_cell_formula_units_Z   2
loop_
 _symmetry_equiv_pos_site_id
 _symmetry_equiv_pos_as_xyz
  1  'x, y, z'
loop_
 _atom_site_type_symbol
 _atom_site_label
 _atom_site_symmetry_multiplicity
 _atom_site_fract_x
 _atom_site_fract_y
 _atom_site_fract_z
 _atom_site_occupancy
  Cu  Cu0  1  0.50000000  0.00000000  0.00000000  1.0
  Cu  Cu1  1  0.50000000  0.50000000  0.50000000  1.0
  H  H2  1  0.01387000  0.27897000  0.25248000  1.0
  H  H3  1  0.98613000  0.22104000  0.75249000  1.0
  H  H4  1  0.98614000  0.72103000  0.74752000  1.0
  H  H5  1  0.01387000  0.77896000  0.24752000  1.0
  H  H6  1  0.00946000  0.13349000  0.34575000  1.0
  H  H7  1  0.99053000  0.36652000  0.84575000  1.0
  H  H8  1  0.99055000  0.86651000  0.65425000  1.0
  H  H9  1  0.00945000  0.63349000  0.15425000  1.0
  H  H10  1  0.90214000  0.10506000  0.23498000  1.0
  H  H11  1  0.09786000  0.39496000  0.73498000  1.0
  H  H12  1  0.09787000  0.89495000  0.76502000  1.0
  H  H13  1  0.90214000  0.60504000  0.26503000  1.0
  H  H14  1  0.29206000  0.94428000  0.35340000  1.0
  H  H15  1  0.70793000  0.55573000  0.85340000  1.0
  H  H16  1  0.70795000  0.05572000  0.64660000  1.0
  H  H17  1  0.29206000  0.44427000  0.14660000  1.0
  H  H18  1  0.58788000  0.75077000  0.15131000  1.0
  H  H19  1  0.41212000  0.74924000  0.65130000  1.0
  H  H20  1  0.41212000  0.24923000  0.84869000  1.0
  H  H21  1  0.58788000  0.25076000  0.34869000  1.0
  H  H22  1  0.55128000  0.74265000  0.27868000  1.0
  H  H23  1  0.44872000  0.75735000  0.77867000  1.0
  H  H24  1  0.44872000  0.25735000  0.72132000  1.0
  H  H25  1  0.55128000  0.24264000  0.22132000  1.0
  H  H26  1  0.67352000  0.89265000  0.23092000  1.0
  H  H27  1  0.32647000  0.60735000  0.73092000  1.0
  H  H28  1  0.32648000  0.10735000  0.76908000  1.0
  H  H29  1  0.67353000  0.39264000  0.26907000  1.0
  H  H30  1  0.22939000  0.23991000  0.02227000  1.0
  H  H31  1  0.77061000  0.26010000  0.52227000  1.0
  H  H32  1  0.77060000  0.76009000  0.97773000  1.0
  H  H33  1  0.22942000  0.73991000  0.47772000  1.0
  H  H34  1  0.03763000  0.24012000  0.08646000  1.0
  H  H35  1  0.96237000  0.25988000  0.58645000  1.0
  H  H36  1  0.96237000  0.75988000  0.91355000  1.0
  H  H37  1  0.03765000  0.74013000  0.41355000  1.0
  H  H38  1  0.00696000  0.13067000  0.92338000  1.0
  H  H39  1  0.99304000  0.36934000  0.42338000  1.0
  H  H40  1  0.99303000  0.86933000  0.07662000  1.0
  H  H41  1  0.00697000  0.63067000  0.57662000  1.0
  H  H42  1  0.16642000  0.98339000  0.94411000  1.0
  H  H43  1  0.83360000  0.51661000  0.44411000  1.0
  H  H44  1  0.83357000  0.01660000  0.05589000  1.0
  H  H45  1  0.16643000  0.48340000  0.55589000  1.0
  C  C46  1  0.35812000  0.68437000  0.96748000  1.0
  C  C47  1  0.64189000  0.81562000  0.46747000  1.0
  C  C48  1  0.64188000  0.31563000  0.03252000  1.0
  C  C49  1  0.35812000  0.18437000  0.53252000  1.0
  C  C50  1  0.17134000  0.07074000  0.22970000  1.0
  C  C51  1  0.82866000  0.42926000  0.72970000  1.0
  C  C52  1  0.82866000  0.92926000  0.77030000  1.0
  C  C53  1  0.17135000  0.57074000  0.27030000  1.0
  C  C54  1  0.01573000  0.15179000  0.26731000  1.0
  C  C55  1  0.98426000  0.34822000  0.76731000  1.0
  C  C56  1  0.98428000  0.84822000  0.73270000  1.0
  C  C57  1  0.01573000  0.65178000  0.23270000  1.0
  C  C58  1  0.29021000  0.97309000  0.27682000  1.0
  C  C59  1  0.70978000  0.52692000  0.77682000  1.0
  C  C60  1  0.70979000  0.02691000  0.72318000  1.0
  C  C61  1  0.29021000  0.47309000  0.22318000  1.0
  C  C62  1  0.40874000  0.92449000  0.20623000  1.0
  C  C63  1  0.59125000  0.57551000  0.70622000  1.0
  C  C64  1  0.59126000  0.07551000  0.79377000  1.0
  C  C65  1  0.40875000  0.42449000  0.29377000  1.0
  C  C66  1  0.56385000  0.82184000  0.21668000  1.0
  C  C67  1  0.43614000  0.67816000  0.71668000  1.0
  C  C68  1  0.43615000  0.17816000  0.78331000  1.0
  C  C69  1  0.56386000  0.32183000  0.28331000  1.0
  C  C70  1  0.13794000  0.16319000  0.05537000  1.0
  C  C71  1  0.86206000  0.33681000  0.55536000  1.0
  C  C72  1  0.86205000  0.83681000  0.94464000  1.0
  C  C73  1  0.13796000  0.66319000  0.44464000  1.0
  C  C74  1  0.06481000  0.05439000  0.97958000  1.0
  C  C75  1  0.93520000  0.44561000  0.47958000  1.0
  C  C76  1  0.93518000  0.94560000  0.02042000  1.0
  C  C77  1  0.06482000  0.55440000  0.52042000  1.0
  S  S78  1  0.21890000  0.55524000  0.95352000  1.0
  S  S79  1  0.78108000  0.94477000  0.45350000  1.0
  S  S80  1  0.78108000  0.44475000  0.04649000  1.0
  S  S81  1  0.21891000  0.05523000  0.54649000  1.0
  N  N82  1  0.36438000  0.99053000  0.12070000  1.0
  N  N83  1  0.63561000  0.50947000  0.62070000  1.0
  N  N84  1  0.63561000  0.00946000  0.87930000  1.0
  N  N85  1  0.36439000  0.49053000  0.37929000  1.0
  N  N86  1  0.22075000  0.07962000  0.13548000  1.0
  N  N87  1  0.77924000  0.42038000  0.63548000  1.0
  N  N88  1  0.77925000  0.92038000  0.86452000  1.0
  N  N89  1  0.22077000  0.57962000  0.36452000  1.0
  N  N90  1  0.46500000  0.77750000  0.97630000  1.0
  N  N91  1  0.53502000  0.72248000  0.47629000  1.0
  N  N92  1  0.53498000  0.22248000  0.02370000  1.0
  N  N93  1  0.46499000  0.27752000  0.52371000  1.0
