# generated using pymatgen
data_ZnH13C18N5O4
_symmetry_space_group_name_H-M   'P 1'
_cell_length_a   8.75042000
_cell_length_b   12.97580000
_cell_length_c   17.20170000
_cell_angle_alpha   90.00000000
_cell_angle_beta   90.00000000
_cell_angle_gamma   90.00000000
_symmetry_Int_Tables_number   1
_chemical_formula_structural   ZnH13C18N5O4
_chemical_formula_sum   'Zn4 H52 C72 N20 O16'
_cell_volume   1953.14466147
_cell_formula_units_Z   4
loop_
 _symmetry_equiv_pos_site_id
 _symmetry_equiv_pos_as_xyz
  1  'x, y, z'
loop_
 _atom_site_type_symbol
 _atom_site_label
 _atom_site_symmetry_multiplicity
 _atom_site_fract_x
 _atom_site_fract_y
 _atom_site_fract_z
 _atom_site_occupancy
  Zn  Zn0  1  0.14097000  0.38054000  0.76069000  1.0
  Zn  Zn1  1  0.35903000  0.61946000  0.26069000  1.0
  Zn  Zn2  1  0.64097000  0.11946000  0.23931000  1.0
  Zn  Zn3  1  0.85903000  0.88054000  0.73931000  1.0
  H  H4  1  0.35571000  0.01186000  0.85444000  1.0
  H  H5  1  0.14429000  0.98814000  0.35444000  1.0
  H  H6  1  0.85571000  0.48814000  0.14556000  1.0
  H  H7  1  0.64429000  0.51186000  0.64556000  1.0
  H  H8  1  0.54910000  0.20512000  0.67538000  1.0
  H  H9  1  0.95090000  0.79488000  0.17538000  1.0
  H  H10  1  0.04910000  0.29488000  0.32462000  1.0
  H  H11  1  0.45090000  0.70512000  0.82462000  1.0
  H  H12  1  0.90731000  0.39272000  0.03175000  1.0
  H  H13  1  0.59269000  0.60728000  0.53175000  1.0
  H  H14  1  0.40731000  0.10728000  0.96825000  1.0
  H  H15  1  0.09269000  0.89272000  0.46825000  1.0
  H  H16  1  0.94496000  0.58748000  0.78714000  1.0
  H  H17  1  0.55504000  0.41252000  0.28714000  1.0
  H  H18  1  0.44496000  0.91252000  0.21286000  1.0
  H  H19  1  0.05504000  0.08748000  0.71286000  1.0
  H  H20  1  0.78245000  0.56615000  0.02320000  1.0
  H  H21  1  0.71755000  0.43385000  0.52320000  1.0
  H  H22  1  0.28245000  0.93385000  0.97680000  1.0
  H  H23  1  0.21755000  0.06615000  0.47680000  1.0
  H  H24  1  0.58324000  0.89541000  0.83904000  1.0
  H  H25  1  0.91676000  0.10459000  0.33904000  1.0
  H  H26  1  0.08324000  0.60459000  0.16096000  1.0
  H  H27  1  0.41676000  0.39541000  0.66096000  1.0
  H  H28  1  0.80155000  0.66580000  0.89732000  1.0
  H  H29  1  0.69845000  0.33420000  0.39732000  1.0
  H  H30  1  0.30155000  0.83420000  0.10268000  1.0
  H  H31  1  0.19845000  0.16580000  0.60268000  1.0
  H  H32  1  0.76792000  0.08339000  0.66806000  1.0
  H  H33  1  0.73208000  0.91661000  0.16806000  1.0
  H  H34  1  0.26792000  0.41661000  0.33194000  1.0
  H  H35  1  0.23208000  0.58339000  0.83194000  1.0
  H  H36  1  0.19999000  0.34973000  0.05899000  1.0
  H  H37  1  0.30001000  0.65027000  0.55899000  1.0
  H  H38  1  0.69999000  0.15027000  0.94101000  1.0
  H  H39  1  0.80001000  0.84973000  0.44101000  1.0
  H  H40  1  0.97676000  0.10850000  0.92970000  1.0
  H  H41  1  0.52324000  0.89150000  0.42970000  1.0
  H  H42  1  0.47676000  0.39150000  0.07030000  1.0
  H  H43  1  0.02324000  0.60850000  0.57030000  1.0
  H  H44  1  0.20634000  0.23685000  0.17603000  1.0
  H  H45  1  0.29367000  0.76315000  0.67603000  1.0
  H  H46  1  0.70633000  0.26315000  0.82397000  1.0
  H  H47  1  0.79367000  0.73685000  0.32397000  1.0
  H  H48  1  0.08575000  0.06388000  0.17151000  1.0
  H  H49  1  0.41425000  0.93612000  0.67151000  1.0
  H  H50  1  0.58575000  0.43612000  0.82849000  1.0
  H  H51  1  0.91425000  0.56388000  0.32849000  1.0
  H  H52  1  0.96927000  0.99995000  0.04839000  1.0
  H  H53  1  0.53073000  0.00005000  0.54839000  1.0
  H  H54  1  0.46927000  0.50005000  0.95161000  1.0
  H  H55  1  0.03073000  0.49995000  0.45161000  1.0
  C  C56  1  0.44582000  0.03026000  0.81316000  1.0
  C  C57  1  0.05418000  0.96974000  0.31316000  1.0
  C  C58  1  0.94582000  0.46974000  0.18684000  1.0
  C  C59  1  0.55418000  0.53026000  0.68684000  1.0
  C  C60  1  0.55171000  0.13707000  0.71232000  1.0
  C  C61  1  0.94829000  0.86293000  0.21232000  1.0
  C  C62  1  0.05171000  0.36293000  0.28768000  1.0
  C  C63  1  0.44829000  0.63707000  0.78768000  1.0
  C  C64  1  0.67421000  0.06952000  0.70828000  1.0
  C  C65  1  0.82579000  0.93048000  0.20828000  1.0
  C  C66  1  0.17421000  0.43048000  0.29172000  1.0
  C  C67  1  0.32579000  0.56952000  0.79172000  1.0
  C  C68  1  0.91865000  0.43973000  0.97957000  1.0
  C  C69  1  0.58135000  0.56027000  0.47957000  1.0
  C  C70  1  0.41865000  0.06027000  0.02043000  1.0
  C  C71  1  0.08135000  0.93973000  0.52043000  1.0
  C  C72  1  0.31224000  0.19589000  0.77600000  1.0
  C  C73  1  0.18776000  0.80411000  0.27600000  1.0
  C  C74  1  0.81224000  0.30411000  0.22400000  1.0
  C  C75  1  0.68776000  0.69590000  0.72400000  1.0
  C  C76  1  0.00124000  0.40246000  0.91577000  1.0
  C  C77  1  0.49876000  0.59754000  0.41577000  1.0
  C  C78  1  0.50124000  0.09754000  0.08423000  1.0
  C  C79  1  0.99876000  0.90246000  0.58423000  1.0
  C  C80  1  0.08480000  0.23746000  0.98743000  1.0
  C  C81  1  0.41520000  0.76254000  0.48743000  1.0
  C  C82  1  0.58480000  0.26254000  0.01257000  1.0
  C  C83  1  0.91520000  0.73746000  0.51257000  1.0
  C  C84  1  0.43595000  0.11873000  0.76667000  1.0
  C  C85  1  0.06405000  0.88127000  0.26667000  1.0
  C  C86  1  0.93595000  0.38127000  0.23333000  1.0
  C  C87  1  0.56405000  0.61873000  0.73333000  1.0
  C  C88  1  0.85682000  0.59129000  0.90501000  1.0
  C  C89  1  0.64318000  0.40871000  0.40501000  1.0
  C  C90  1  0.35682000  0.90871000  0.09499000  1.0
  C  C91  1  0.14318000  0.09129000  0.59499000  1.0
  C  C92  1  0.15114000  0.21025000  0.12287000  1.0
  C  C93  1  0.34886000  0.78975000  0.62287000  1.0
  C  C94  1  0.65114000  0.28974000  0.87713000  1.0
  C  C95  1  0.84886000  0.71026000  0.37713000  1.0
  C  C96  1  0.57134000  0.96583000  0.80513000  1.0
  C  C97  1  0.92866000  0.03417000  0.30512000  1.0
  C  C98  1  0.07134000  0.53417000  0.19487000  1.0
  C  C99  1  0.42866000  0.46583000  0.69488000  1.0
  C  C100  1  0.84734000  0.53561000  0.97421000  1.0
  C  C101  1  0.65266000  0.46439000  0.47421000  1.0
  C  C102  1  0.34734000  0.96439000  0.02579000  1.0
  C  C103  1  0.15266000  0.03561000  0.52579000  1.0
  C  C104  1  0.08457000  0.30356000  0.91752000  1.0
  C  C105  1  0.41543000  0.69644000  0.41752000  1.0
  C  C106  1  0.58457000  0.19644000  0.08248000  1.0
  C  C107  1  0.91543000  0.80356000  0.58248000  1.0
  C  C108  1  0.14904000  0.27313000  0.05710000  1.0
  C  C109  1  0.35097000  0.72687000  0.55710000  1.0
  C  C110  1  0.64903000  0.22687000  0.94290000  1.0
  C  C111  1  0.85097000  0.77313000  0.44290000  1.0
  C  C112  1  0.93637000  0.54777000  0.84290000  1.0
  C  C113  1  0.56363000  0.45223000  0.34290000  1.0
  C  C114  1  0.43637000  0.95223000  0.15710000  1.0
  C  C115  1  0.06363000  0.04777000  0.65710000  1.0
  C  C116  1  0.08404000  0.11282000  0.12012000  1.0
  C  C117  1  0.41596000  0.88718000  0.62012000  1.0
  C  C118  1  0.58404000  0.38718000  0.87988000  1.0
  C  C119  1  0.91596000  0.61282000  0.37988000  1.0
  C  C120  1  0.02223000  0.13792000  0.98436000  1.0
  C  C121  1  0.47777000  0.86208000  0.48436000  1.0
  C  C122  1  0.52223000  0.36208000  0.01564000  1.0
  C  C123  1  0.97777000  0.63792000  0.51564000  1.0
  C  C124  1  0.01926000  0.07687000  0.05099000  1.0
  C  C125  1  0.48074000  0.92313000  0.55099000  1.0
  C  C126  1  0.51926000  0.42313000  0.94901000  1.0
  C  C127  1  0.98074000  0.57687000  0.44901000  1.0
  N  N128  1  0.24860000  0.19780000  0.84746000  1.0
  N  N129  1  0.25140000  0.80220000  0.34746000  1.0
  N  N130  1  0.74860000  0.30220000  0.15254000  1.0
  N  N131  1  0.75140000  0.69780000  0.65254000  1.0
  N  N132  1  0.00749000  0.45665000  0.84817000  1.0
  N  N133  1  0.49251000  0.54334000  0.34817000  1.0
  N  N134  1  0.50749000  0.04335000  0.15183000  1.0
  N  N135  1  0.99251000  0.95666000  0.65183000  1.0
  N  N136  1  0.68502000  0.98542000  0.75392000  1.0
  N  N137  1  0.81498000  0.01458000  0.25392000  1.0
  N  N138  1  0.18502000  0.51458000  0.24608000  1.0
  N  N139  1  0.31498000  0.48542000  0.74608000  1.0
  N  N140  1  0.15753000  0.28118000  0.85355000  1.0
  N  N141  1  0.34247000  0.71882000  0.35355000  1.0
  N  N142  1  0.65753000  0.21882000  0.14645000  1.0
  N  N143  1  0.84247000  0.78118000  0.64645000  1.0
  N  N144  1  0.89739000  0.33221000  0.66801000  1.0
  N  N145  1  0.60261000  0.66779000  0.16800000  1.0
  N  N146  1  0.39739000  0.16779000  0.33199000  1.0
  N  N147  1  0.10261000  0.83221000  0.83200000  1.0
  O  O148  1  0.28290000  0.25635000  0.71920000  1.0
  O  O149  1  0.21710000  0.74365000  0.21920000  1.0
  O  O150  1  0.78290000  0.24365000  0.28080000  1.0
  O  O151  1  0.71710000  0.75635000  0.78080000  1.0
  O  O152  1  0.90167000  0.26745000  0.72248000  1.0
  O  O153  1  0.59834000  0.73255000  0.22247000  1.0
  O  O154  1  0.40166000  0.23255000  0.27753000  1.0
  O  O155  1  0.09834000  0.76745000  0.77753000  1.0
  O  O156  1  0.00447000  0.40295000  0.66563000  1.0
  O  O157  1  0.49553000  0.59705000  0.16563000  1.0
  O  O158  1  0.50448000  0.09705000  0.33437000  1.0
  O  O159  1  0.99553000  0.90295000  0.83437000  1.0
  O  O160  1  0.79659000  0.33208000  0.61694000  1.0
  O  O161  1  0.70341000  0.66792000  0.11694000  1.0
  O  O162  1  0.29659000  0.16791000  0.38306000  1.0
  O  O163  1  0.20341000  0.83208000  0.88306000  1.0
