# generated using pymatgen
data_ZnH10C11NO6
_symmetry_space_group_name_H-M   'P 1'
_cell_length_a   9.55956000
_cell_length_b   10.99390000
_cell_length_c   11.19570000
_cell_angle_alpha   92.92120000
_cell_angle_beta   90.24560000
_cell_angle_gamma   91.26810000
_symmetry_Int_Tables_number   1
_chemical_formula_structural   ZnH10C11NO6
_chemical_formula_sum   'Zn2 H20 C22 N2 O12'
_cell_volume   1174.79874020
_cell_formula_units_Z   2
loop_
 _symmetry_equiv_pos_site_id
 _symmetry_equiv_pos_as_xyz
  1  'x, y, z'
loop_
 _atom_site_type_symbol
 _atom_site_label
 _atom_site_symmetry_multiplicity
 _atom_site_fract_x
 _atom_site_fract_y
 _atom_site_fract_z
 _atom_site_occupancy
  Zn  Zn0  1  0.64629000  0.50636000  0.50333000  1.0
  Zn  Zn1  1  0.36325000  0.49741000  0.49338000  1.0
  H  H2  1  0.28658000  0.88195000  0.46839000  1.0
  H  H3  1  0.28817000  0.11062000  0.46233000  1.0
  H  H4  1  0.72857000  0.12299000  0.53739000  1.0
  H  H5  1  0.72897000  0.89410000  0.53623000  1.0
  H  H6  1  0.13656000  0.36246000  0.61902000  1.0
  H  H7  1  0.14297000  0.64660000  0.38913000  1.0
  H  H8  1  0.86742000  0.36511000  0.62114000  1.0
  H  H9  1  0.87456000  0.65356000  0.39630000  1.0
  H  H10  1  0.26240000  0.21443000  0.00017000  1.0
  H  H11  1  0.43764000  0.19842000  0.94905000  1.0
  H  H12  1  0.35006000  0.12022000  0.74713000  1.0
  H  H13  1  0.28053000  0.02980000  0.86132000  1.0
  H  H14  1  0.17380000  0.13888000  0.79527000  1.0
  H  H15  1  0.11455000  0.40287000  0.97012000  1.0
  H  H16  1  0.18610000  0.55359000  0.98918000  1.0
  H  H17  1  0.06314000  0.58519000  0.18284000  1.0
  H  H18  1  0.93846000  0.53039000  0.07241000  1.0
  H  H19  1  0.00521000  0.42966000  0.17728000  1.0
  H  H20  1  0.63107000  0.61720000  0.85383000  1.0
  H  H21  1  0.69884000  0.43238000  0.16650000  1.0
  C  C22  1  0.50847000  0.73912000  0.50199000  1.0
  C  C23  1  0.50725000  0.26534000  0.49742000  1.0
  C  C24  1  0.50381000  0.47833000  0.26565000  1.0
  C  C25  1  0.49444000  0.49741000  0.73129000  1.0
  C  C26  1  0.40915000  0.42169000  0.92931000  1.0
  C  C27  1  0.39606000  0.43534000  0.05950000  1.0
  C  C28  1  0.49062000  0.49757000  0.86433000  1.0
  C  C29  1  0.50846000  0.44500000  0.13622000  1.0
  C  C30  1  0.38300000  0.93564000  0.48238000  1.0
  C  C31  1  0.38351000  0.06196000  0.47990000  1.0
  C  C32  1  0.50826000  0.12954000  0.49990000  1.0
  C  C33  1  0.50791000  0.87514000  0.50203000  1.0
  C  C34  1  0.63268000  0.06914000  0.52153000  1.0
  C  C35  1  0.63283000  0.94264000  0.52112000  1.0
  C  C36  1  0.07623000  0.42538000  0.56824000  1.0
  C  C37  1  0.07985000  0.58486000  0.44098000  1.0
  C  C38  1  0.93077000  0.42795000  0.57067000  1.0
  C  C39  1  0.93453000  0.58836000  0.44451000  1.0
  C  C40  1  0.32965000  0.21512000  0.92037000  1.0
  C  C41  1  0.28074000  0.12088000  0.82508000  1.0
  C  C42  1  0.14937000  0.47406000  0.03716000  1.0
  C  C43  1  0.03233000  0.50706000  0.12278000  1.0
  N  N44  1  0.86168000  0.50889000  0.50829000  1.0
  N  N45  1  0.14876000  0.50295000  0.50201000  1.0
  O  O46  1  0.62599000  0.68825000  0.48480000  1.0
  O  O47  1  0.62045000  0.32380000  0.52698000  1.0
  O  O48  1  0.39226000  0.68397000  0.51919000  1.0
  O  O49  1  0.39359000  0.31273000  0.46601000  1.0
  O  O50  1  0.62323000  0.47148000  0.31941000  1.0
  O  O51  1  0.60937000  0.53859000  0.68809000  1.0
  O  O52  1  0.39121000  0.51286000  0.31566000  1.0
  O  O53  1  0.38572000  0.46545000  0.67139000  1.0
  O  O54  1  0.32527000  0.33400000  0.86961000  1.0
  O  O55  1  0.26356000  0.42892000  0.10631000  1.0
  O  O56  1  0.57422000  0.58626000  0.91920000  1.0
  O  O57  1  0.64000000  0.42090000  0.09403000  1.0
