# generated using pymatgen
data_CdH5C6N2ClO5
_symmetry_space_group_name_H-M   'P 1'
_cell_length_a   7.23699000
_cell_length_b   10.08340000
_cell_length_c   12.31730000
_cell_angle_alpha   89.99900000
_cell_angle_beta   84.73370000
_cell_angle_gamma   89.99950000
_symmetry_Int_Tables_number   1
_chemical_formula_structural   CdH5C6N2ClO5
_chemical_formula_sum   'Cd4 H20 C24 N8 Cl4 O20'
_cell_volume   895.04194352
_cell_formula_units_Z   4
loop_
 _symmetry_equiv_pos_site_id
 _symmetry_equiv_pos_as_xyz
  1  'x, y, z'
loop_
 _atom_site_type_symbol
 _atom_site_label
 _atom_site_symmetry_multiplicity
 _atom_site_fract_x
 _atom_site_fract_y
 _atom_site_fract_z
 _atom_site_occupancy
  Cd  Cd0  1  0.85880000  0.11412000  0.59228000  1.0
  Cd  Cd1  1  0.64120000  0.61412000  0.90772000  1.0
  Cd  Cd2  1  0.14119000  0.88588000  0.40772000  1.0
  Cd  Cd3  1  0.35880000  0.38588000  0.09228000  1.0
  H  H4  1  0.19167000  0.92142000  0.93964000  1.0
  H  H5  1  0.30833000  0.42143000  0.56035000  1.0
  H  H6  1  0.80834000  0.07857000  0.06036000  1.0
  H  H7  1  0.69167000  0.57857000  0.43966000  1.0
  H  H8  1  0.12946000  0.48920000  0.88063000  1.0
  H  H9  1  0.37053000  0.98921000  0.61936000  1.0
  H  H10  1  0.87055000  0.51078000  0.11935000  1.0
  H  H11  1  0.62946000  0.01080000  0.38064000  1.0
  H  H12  1  0.96476000  0.40247000  0.72031000  1.0
  H  H13  1  0.53525000  0.90247000  0.77968000  1.0
  H  H14  1  0.03524000  0.59752000  0.27968000  1.0
  H  H15  1  0.46476000  0.09754000  0.22031000  1.0
  H  H16  1  0.51284000  0.23453000  0.68025000  1.0
  H  H17  1  0.98718000  0.73453000  0.81975000  1.0
  H  H18  1  0.48717000  0.76548000  0.31976000  1.0
  H  H19  1  0.01283000  0.26547000  0.18024000  1.0
  H  H20  1  0.62299000  0.18977000  0.77594000  1.0
  H  H21  1  0.87702000  0.68978000  0.72406000  1.0
  H  H22  1  0.37701000  0.81023000  0.22407000  1.0
  H  H23  1  0.12298000  0.31021000  0.27594000  1.0
  C  C24  1  0.02870000  0.97679000  0.80363000  1.0
  C  C25  1  0.47131000  0.47680000  0.69637000  1.0
  C  C26  1  0.97131000  0.02320000  0.19638000  1.0
  C  C27  1  0.52870000  0.52321000  0.30364000  1.0
  C  C28  1  0.07672000  0.12024000  0.83044000  1.0
  C  C29  1  0.42328000  0.62025000  0.66955000  1.0
  C  C30  1  0.92328000  0.87974000  0.16955000  1.0
  C  C31  1  0.57671000  0.37976000  0.33045000  1.0
  C  C32  1  0.17538000  0.16822000  0.91661000  1.0
  C  C33  1  0.32462000  0.66823000  0.58339000  1.0
  C  C34  1  0.82464000  0.83179000  0.08338000  1.0
  C  C35  1  0.67536000  0.33178000  0.41663000  1.0
  C  C36  1  0.27077000  0.09072000  0.00223000  1.0
  C  C37  1  0.22922000  0.59073000  0.49777000  1.0
  C  C38  1  0.72925000  0.90927000  0.99777000  1.0
  C  C39  1  0.77075000  0.40927000  0.50224000  1.0
  C  C40  1  0.11534000  0.38350000  0.86500000  1.0
  C  C41  1  0.38465000  0.88350000  0.63500000  1.0
  C  C42  1  0.88465000  0.61648000  0.13500000  1.0
  C  C43  1  0.61534000  0.11650000  0.36500000  1.0
  C  C44  1  0.02447000  0.33630000  0.77748000  1.0
  C  C45  1  0.47554000  0.83631000  0.72251000  1.0
  C  C46  1  0.97555000  0.66368000  0.22250000  1.0
  C  C47  1  0.52446000  0.16371000  0.27749000  1.0
  N  N48  1  0.00579000  0.20693000  0.76184000  1.0
  N  N49  1  0.49422000  0.70692000  0.73816000  1.0
  N  N50  1  0.99422000  0.79306000  0.23816000  1.0
  N  N51  1  0.50578000  0.29308000  0.26184000  1.0
  N  N52  1  0.19042000  0.30029000  0.93183000  1.0
  N  N53  1  0.30957000  0.80030000  0.56818000  1.0
  N  N54  1  0.80958000  0.69971000  0.06817000  1.0
  N  N55  1  0.69041000  0.19971000  0.43184000  1.0
  Cl  Cl56  1  0.19471000  0.11967000  0.49656000  1.0
  Cl  Cl57  1  0.30528000  0.61967000  0.00344000  1.0
  Cl  Cl58  1  0.80527000  0.88033000  0.50344000  1.0
  Cl  Cl59  1  0.69471000  0.38033000  0.99656000  1.0
  O  O60  1  0.92729000  0.95647000  0.72868000  1.0
  O  O61  1  0.57271000  0.45647000  0.77132000  1.0
  O  O62  1  0.07271000  0.04351000  0.27132000  1.0
  O  O63  1  0.42730000  0.54354000  0.22869000  1.0
  O  O64  1  0.09105000  0.88098000  0.85927000  1.0
  O  O65  1  0.40895000  0.38098000  0.64073000  1.0
  O  O66  1  0.90897000  0.11901000  0.14072000  1.0
  O  O67  1  0.59105000  0.61903000  0.35928000  1.0
  O  O68  1  0.26504000  0.96191000  0.00473000  1.0
  O  O69  1  0.23496000  0.46192000  0.49528000  1.0
  O  O70  1  0.73495000  0.03808000  0.99527000  1.0
  O  O71  1  0.76503000  0.53809000  0.50473000  1.0
  O  O72  1  0.35137000  0.15266000  0.07083000  1.0
  O  O73  1  0.14862000  0.65267000  0.42916000  1.0
  O  O74  1  0.64862000  0.84733000  0.92917000  1.0
  O  O75  1  0.85136000  0.34734000  0.57084000  1.0
  O  O76  1  0.57910000  0.15647000  0.70834000  1.0
  O  O77  1  0.92090000  0.65648000  0.79165000  1.0
  O  O78  1  0.42088000  0.84353000  0.29166000  1.0
  O  O79  1  0.07911000  0.34352000  0.20834000  1.0
