# generated using pymatgen
data_AgH8C11(NO)3
_symmetry_space_group_name_H-M   'P 1'
_cell_length_a   10.05770000
_cell_length_b   11.33120000
_cell_length_c   19.78880000
_cell_angle_alpha   89.99950000
_cell_angle_beta   95.57620000
_cell_angle_gamma   89.99990000
_symmetry_Int_Tables_number   1
_chemical_formula_structural   AgH8C11(NO)3
_chemical_formula_sum   'Ag8 H64 C88 N24 O24'
_cell_volume   2244.57445783
_cell_formula_units_Z   8
loop_
 _symmetry_equiv_pos_site_id
 _symmetry_equiv_pos_as_xyz
  1  'x, y, z'
loop_
 _atom_site_type_symbol
 _atom_site_label
 _atom_site_symmetry_multiplicity
 _atom_site_fract_x
 _atom_site_fract_y
 _atom_site_fract_z
 _atom_site_occupancy
  Ag  Ag0  1  0.72258000  0.70094000  0.20240000  1.0
  Ag  Ag1  1  0.27741000  0.20095000  0.29760000  1.0
  Ag  Ag2  1  0.27741000  0.29906000  0.79760000  1.0
  Ag  Ag3  1  0.72259000  0.79905000  0.70240000  1.0
  Ag  Ag4  1  0.90448000  0.70037000  0.31774000  1.0
  Ag  Ag5  1  0.09551000  0.20038000  0.18226000  1.0
  Ag  Ag6  1  0.09551000  0.29963000  0.68227000  1.0
  Ag  Ag7  1  0.90449000  0.79961000  0.81773000  1.0
  H  H8  1  0.36900000  0.30232000  0.16049000  1.0
  H  H9  1  0.63099000  0.80234000  0.33952000  1.0
  H  H10  1  0.63100000  0.69768000  0.83951000  1.0
  H  H11  1  0.36900000  0.19766000  0.66048000  1.0
  H  H12  1  0.99850000  0.31148000  0.31690000  1.0
  H  H13  1  0.00149000  0.81149000  0.18310000  1.0
  H  H14  1  0.00150000  0.68853000  0.68310000  1.0
  H  H15  1  0.99850000  0.18851000  0.81690000  1.0
  H  H16  1  0.37016000  0.08249000  0.16423000  1.0
  H  H17  1  0.62985000  0.58251000  0.33576000  1.0
  H  H18  1  0.62985000  0.91751000  0.83577000  1.0
  H  H19  1  0.37014000  0.41749000  0.66424000  1.0
  H  H20  1  0.99845000  0.09237000  0.32199000  1.0
  H  H21  1  0.00155000  0.59238000  0.17801000  1.0
  H  H22  1  0.00155000  0.90763000  0.67801000  1.0
  H  H23  1  0.99844000  0.40761000  0.82200000  1.0
  H  H24  1  0.57261000  0.97622000  0.21371000  1.0
  H  H25  1  0.42740000  0.47624000  0.28628000  1.0
  H  H26  1  0.42740000  0.02378000  0.78629000  1.0
  H  H27  1  0.57259000  0.52376000  0.71371000  1.0
  H  H28  1  0.45332000  0.86477000  0.14509000  1.0
  H  H29  1  0.54667000  0.36477000  0.35491000  1.0
  H  H30  1  0.54668000  0.13524000  0.85491000  1.0
  H  H31  1  0.45332000  0.63523000  0.64508000  1.0
  H  H32  1  0.56936000  0.41436000  0.20498000  1.0
  H  H33  1  0.43062000  0.91438000  0.29502000  1.0
  H  H34  1  0.43064000  0.58564000  0.79501000  1.0
  H  H35  1  0.56937000  0.08562000  0.70497000  1.0
  H  H36  1  0.17497000  0.82102000  0.38913000  1.0
  H  H37  1  0.82504000  0.32100000  0.11087000  1.0
  H  H38  1  0.82504000  0.17899000  0.61087000  1.0
  H  H39  1  0.17497000  0.67898000  0.88913000  1.0
  H  H40  1  0.39869000  0.75314000  0.44165000  1.0
  H  H41  1  0.60131000  0.25314000  0.05835000  1.0
  H  H42  1  0.60132000  0.24685000  0.55835000  1.0
  H  H43  1  0.39869000  0.74686000  0.94165000  1.0
  H  H44  1  0.03075000  0.47752000  0.39614000  1.0
  H  H45  1  0.96925000  0.97750000  0.10386000  1.0
  H  H46  1  0.96924000  0.52250000  0.60386000  1.0
  H  H47  1  0.03074000  0.02248000  0.89614000  1.0
  H  H48  1  0.56238000  0.51852000  0.10895000  1.0
  H  H49  1  0.43762000  0.01852000  0.39104000  1.0
  H  H50  1  0.43762000  0.48149000  0.89104000  1.0
  H  H51  1  0.56240000  0.98148000  0.60896000  1.0
  H  H52  1  0.22429000  0.82628000  0.08619000  1.0
  H  H53  1  0.77570000  0.32629000  0.41381000  1.0
  H  H54  1  0.77571000  0.17372000  0.91381000  1.0
  H  H55  1  0.22429000  0.67372000  0.58618000  1.0
  H  H56  1  0.44142000  0.41579000  0.50749000  1.0
  H  H57  1  0.55857000  0.91578000  0.99251000  1.0
  H  H58  1  0.55857000  0.58422000  0.49250000  1.0
  H  H59  1  0.44142000  0.08422000  0.00749000  1.0
  H  H60  1  0.39214000  0.26568000  0.51157000  1.0
  H  H61  1  0.60787000  0.76567000  0.98842000  1.0
  H  H62  1  0.60786000  0.73433000  0.48843000  1.0
  H  H63  1  0.39212000  0.23432000  0.01157000  1.0
  H  H64  1  0.19288000  0.35784000  0.97447000  1.0
  H  H65  1  0.80711000  0.85785000  0.52554000  1.0
  H  H66  1  0.80713000  0.64216000  0.02553000  1.0
  H  H67  1  0.19290000  0.14216000  0.47446000  1.0
  H  H68  1  0.14986000  0.50441000  0.99882000  1.0
  H  H69  1  0.85014000  0.00442000  0.50119000  1.0
  H  H70  1  0.85015000  0.49558000  0.00118000  1.0
  H  H71  1  0.14987000  0.99558000  0.49881000  1.0
  C  C72  1  0.68788000  0.26035000  0.23464000  1.0
  C  C73  1  0.31212000  0.76036000  0.26536000  1.0
  C  C74  1  0.31213000  0.73965000  0.76535000  1.0
  C  C75  1  0.68788000  0.23964000  0.73464000  1.0
  C  C76  1  0.45779000  0.25595000  0.18239000  1.0
  C  C77  1  0.54221000  0.75597000  0.31761000  1.0
  C  C78  1  0.54221000  0.74405000  0.81760000  1.0
  C  C79  1  0.45779000  0.24403000  0.68239000  1.0
  C  C80  1  0.91234000  0.26294000  0.29355000  1.0
  C  C81  1  0.08765000  0.76295000  0.20645000  1.0
  C  C82  1  0.08766000  0.73706000  0.70645000  1.0
  C  C83  1  0.91234000  0.23705000  0.79355000  1.0
  C  C84  1  0.45876000  0.13119000  0.18445000  1.0
  C  C85  1  0.54124000  0.63120000  0.31554000  1.0
  C  C86  1  0.54125000  0.86881000  0.81555000  1.0
  C  C87  1  0.45875000  0.36879000  0.68446000  1.0
  C  C88  1  0.80431000  0.07385000  0.26819000  1.0
  C  C89  1  0.19570000  0.57386000  0.23181000  1.0
  C  C90  1  0.19570000  0.92616000  0.73181000  1.0
  C  C91  1  0.80429000  0.42614000  0.76819000  1.0
  C  C92  1  0.91220000  0.13863000  0.29696000  1.0
  C  C93  1  0.08780000  0.63864000  0.20304000  1.0
  C  C94  1  0.08780000  0.86137000  0.70304000  1.0
  C  C95  1  0.91219000  0.36135000  0.79696000  1.0
  C  C96  1  0.57111000  0.07205000  0.21179000  1.0
  C  C97  1  0.42890000  0.57206000  0.28820000  1.0
  C  C98  1  0.42890000  0.92795000  0.78821000  1.0
  C  C99  1  0.57109000  0.42794000  0.71180000  1.0
  C  C100  1  0.42644000  0.77823000  0.12402000  1.0
  C  C101  1  0.57355000  0.27823000  0.37598000  1.0
  C  C102  1  0.57356000  0.22176000  0.87598000  1.0
  C  C103  1  0.42645000  0.72176000  0.62402000  1.0
  C  C104  1  0.36261000  0.56904000  0.06762000  1.0
  C  C105  1  0.63738000  0.06905000  0.43238000  1.0
  C  C106  1  0.63740000  0.43095000  0.93238000  1.0
  C  C107  1  0.36262000  0.93096000  0.56762000  1.0
  C  C108  1  0.56974000  0.31852000  0.20690000  1.0
  C  C109  1  0.43026000  0.81853000  0.29311000  1.0
  C  C110  1  0.43027000  0.68148000  0.79310000  1.0
  C  C111  1  0.56974000  0.18147000  0.70689000  1.0
  C  C112  1  0.80405000  0.32375000  0.26170000  1.0
  C  C113  1  0.19593000  0.82376000  0.23830000  1.0
  C  C114  1  0.19595000  0.67625000  0.73830000  1.0
  C  C115  1  0.80406000  0.17623000  0.76170000  1.0
  C  C116  1  0.19226000  0.72888000  0.40353000  1.0
  C  C117  1  0.80775000  0.22887000  0.09647000  1.0
  C  C118  1  0.80775000  0.27112000  0.59648000  1.0
  C  C119  1  0.19225000  0.77112000  0.90353000  1.0
  C  C120  1  0.31642000  0.69065000  0.43316000  1.0
  C  C121  1  0.68359000  0.19064000  0.06684000  1.0
  C  C122  1  0.68359000  0.30935000  0.56684000  1.0
  C  C123  1  0.31642000  0.80935000  0.93316000  1.0
  C  C124  1  0.68823000  0.13344000  0.23770000  1.0
  C  C125  1  0.31178000  0.63345000  0.26230000  1.0
  C  C126  1  0.31178000  0.86657000  0.76230000  1.0
  C  C127  1  0.68822000  0.36655000  0.73770000  1.0
  C  C128  1  0.23603000  0.50241000  0.43884000  1.0
  C  C129  1  0.76397000  0.00241000  0.06116000  1.0
  C  C130  1  0.76396000  0.49759000  0.56116000  1.0
  C  C131  1  0.23603000  0.99759000  0.93884000  1.0
  C  C132  1  0.80879000  0.45617000  0.25905000  1.0
  C  C133  1  0.19120000  0.95618000  0.24095000  1.0
  C  C134  1  0.19121000  0.54383000  0.74095000  1.0
  C  C135  1  0.80879000  0.04381000  0.75904000  1.0
  C  C136  1  0.11243000  0.53947000  0.40794000  1.0
  C  C137  1  0.88758000  0.03946000  0.09206000  1.0
  C  C138  1  0.88757000  0.46054000  0.59207000  1.0
  C  C139  1  0.11242000  0.96052000  0.90794000  1.0
  C  C140  1  0.81325000  0.94170000  0.26811000  1.0
  C  C141  1  0.18675000  0.44171000  0.23189000  1.0
  C  C142  1  0.18675000  0.05831000  0.73189000  1.0
  C  C143  1  0.81325000  0.55829000  0.76811000  1.0
  C  C144  1  0.48745000  0.58814000  0.10360000  1.0
  C  C145  1  0.51255000  0.08814000  0.39639000  1.0
  C  C146  1  0.51255000  0.41186000  0.89640000  1.0
  C  C147  1  0.48746000  0.91186000  0.60361000  1.0
  C  C148  1  0.30011000  0.75708000  0.09016000  1.0
  C  C149  1  0.69988000  0.25708000  0.40984000  1.0
  C  C150  1  0.69989000  0.24291000  0.90984000  1.0
  C  C151  1  0.30012000  0.74292000  0.59016000  1.0
  C  C152  1  0.25658000  0.37520000  0.45926000  1.0
  C  C153  1  0.74342000  0.87519000  0.04073000  1.0
  C  C154  1  0.74341000  0.62481000  0.54075000  1.0
  C  C155  1  0.25657000  0.12480000  0.95927000  1.0
  C  C156  1  0.33661000  0.45281000  0.03269000  1.0
  C  C157  1  0.66339000  0.95282000  0.46731000  1.0
  C  C158  1  0.66340000  0.54719000  0.96731000  1.0
  C  C159  1  0.33662000  0.04719000  0.53269000  1.0
  N  N160  1  0.51969000  0.69319000  0.13161000  1.0
  N  N161  1  0.48030000  0.19319000  0.36839000  1.0
  N  N162  1  0.48031000  0.30681000  0.86839000  1.0
  N  N163  1  0.51970000  0.80680000  0.63161000  1.0
  N  N164  1  0.33847000  0.57818000  0.45152000  1.0
  N  N165  1  0.66154000  0.07817000  0.04848000  1.0
  N  N166  1  0.66153000  0.42182000  0.54849000  1.0
  N  N167  1  0.33846000  0.92182000  0.95152000  1.0
  N  N168  1  0.26786000  0.65262000  0.06159000  1.0
  N  N169  1  0.73214000  0.15263000  0.43841000  1.0
  N  N170  1  0.73214000  0.34738000  0.93841000  1.0
  N  N171  1  0.26787000  0.84738000  0.56159000  1.0
  N  N172  1  0.37130000  0.35190000  0.49669000  1.0
  N  N173  1  0.62871000  0.85189000  0.00330000  1.0
  N  N174  1  0.62870000  0.64811000  0.50330000  1.0
  N  N175  1  0.37129000  0.14811000  0.99669000  1.0
  N  N176  1  0.21749000  0.43809000  0.99751000  1.0
  N  N177  1  0.78250000  0.93810000  0.50250000  1.0
  N  N178  1  0.78252000  0.56191000  0.00249000  1.0
  N  N179  1  0.21751000  0.06191000  0.49750000  1.0
  N  N180  1  0.09039000  0.65307000  0.39099000  1.0
  N  N181  1  0.90962000  0.15306000  0.10901000  1.0
  N  N182  1  0.90962000  0.34694000  0.60902000  1.0
  N  N183  1  0.09038000  0.84693000  0.89099000  1.0
  O  O184  1  0.77328000  0.89050000  0.21242000  1.0
  O  O185  1  0.22673000  0.39051000  0.28758000  1.0
  O  O186  1  0.22672000  0.10950000  0.78758000  1.0
  O  O187  1  0.77327000  0.60949000  0.71242000  1.0
  O  O188  1  0.86133000  0.89186000  0.32280000  1.0
  O  O189  1  0.13867000  0.39187000  0.17720000  1.0
  O  O190  1  0.13866000  0.10814000  0.67720000  1.0
  O  O191  1  0.86133000  0.60812000  0.82280000  1.0
  O  O192  1  0.16899000  0.29921000  0.44207000  1.0
  O  O193  1  0.83103000  0.79920000  0.05791000  1.0
  O  O194  1  0.83099000  0.70080000  0.55794000  1.0
  O  O195  1  0.16897000  0.20079000  0.94208000  1.0
  O  O196  1  0.77264000  0.50650000  0.20259000  1.0
  O  O197  1  0.22735000  0.00651000  0.29742000  1.0
  O  O198  1  0.22736000  0.49351000  0.79742000  1.0
  O  O199  1  0.77264000  0.99349000  0.70258000  1.0
  O  O200  1  0.42809000  0.37721000  0.03684000  1.0
  O  O201  1  0.57191000  0.87721000  0.46316000  1.0
  O  O202  1  0.57192000  0.62279000  0.96315000  1.0
  O  O203  1  0.42810000  0.12279000  0.53685000  1.0
  O  O204  1  0.84846000  0.50753000  0.31469000  1.0
  O  O205  1  0.15152000  0.00754000  0.18532000  1.0
  O  O206  1  0.15153000  0.49247000  0.68532000  1.0
  O  O207  1  0.84849000  0.99246000  0.81468000  1.0
