# generated using pymatgen
data_AgH11C14(NO)2
_symmetry_space_group_name_H-M   'P 1'
_cell_length_a   7.85902000
_cell_length_b   9.52894000
_cell_length_c   17.10290000
_cell_angle_alpha   90.00000000
_cell_angle_beta   96.58950000
_cell_angle_gamma   90.00000000
_symmetry_Int_Tables_number   1
_chemical_formula_structural   AgH11C14(NO)2
_chemical_formula_sum   'Ag4 H44 C56 N8 O8'
_cell_volume   1272.34296623
_cell_formula_units_Z   4
loop_
 _symmetry_equiv_pos_site_id
 _symmetry_equiv_pos_as_xyz
  1  'x, y, z'
loop_
 _atom_site_type_symbol
 _atom_site_label
 _atom_site_symmetry_multiplicity
 _atom_site_fract_x
 _atom_site_fract_y
 _atom_site_fract_z
 _atom_site_occupancy
  Ag  Ag0  1  0.28934000  0.09599000  0.15215000  1.0
  Ag  Ag1  1  0.21067000  0.09599000  0.34785000  1.0
  Ag  Ag2  1  0.71067000  0.90401000  0.84785000  1.0
  Ag  Ag3  1  0.78933000  0.90401000  0.65215000  1.0
  H  H4  1  0.78557000  0.93261000  0.01984000  1.0
  H  H5  1  0.71443000  0.93261000  0.48016000  1.0
  H  H6  1  0.21443000  0.06739000  0.98016000  1.0
  H  H7  1  0.28557000  0.06739000  0.51984000  1.0
  H  H8  1  0.48606000  0.84731000  0.99242000  1.0
  H  H9  1  0.01394000  0.84731000  0.50759000  1.0
  H  H10  1  0.51394000  0.15269000  0.00758000  1.0
  H  H11  1  0.98605000  0.15269000  0.49241000  1.0
  H  H12  1  0.32690000  0.77161000  0.10379000  1.0
  H  H13  1  0.17311000  0.77161000  0.39621000  1.0
  H  H14  1  0.67310000  0.22839000  0.89621000  1.0
  H  H15  1  0.82689000  0.22839000  0.60379000  1.0
  H  H16  1  0.47158000  0.77487000  0.24004000  1.0
  H  H17  1  0.02844000  0.77487000  0.25996000  1.0
  H  H18  1  0.52842000  0.22513000  0.75996000  1.0
  H  H19  1  0.97157000  0.22513000  0.74004000  1.0
  H  H20  1  0.29288000  0.42709000  0.08830000  1.0
  H  H21  1  0.20713000  0.42709000  0.41170000  1.0
  H  H22  1  0.70712000  0.57291000  0.91170000  1.0
  H  H23  1  0.79288000  0.57291000  0.58830000  1.0
  H  H24  1  0.59837000  0.57334000  0.08617000  1.0
  H  H25  1  0.90163000  0.57334000  0.41383000  1.0
  H  H26  1  0.40163000  0.42666000  0.91383000  1.0
  H  H27  1  0.09837000  0.42666000  0.58617000  1.0
  H  H28  1  0.70481000  0.17123000  0.18477000  1.0
  H  H29  1  0.79519000  0.17123000  0.31523000  1.0
  H  H30  1  0.29519000  0.82877000  0.81523000  1.0
  H  H31  1  0.20481000  0.82877000  0.68477000  1.0
  H  H32  1  0.95207000  0.31973000  0.17323000  1.0
  H  H33  1  0.54793000  0.31973000  0.32677000  1.0
  H  H34  1  0.04793000  0.68027000  0.82677000  1.0
  H  H35  1  0.45207000  0.68027000  0.67323000  1.0
  H  H36  1  0.90812000  0.49909000  0.19329000  1.0
  H  H37  1  0.59188000  0.49908000  0.30671000  1.0
  H  H38  1  0.09188000  0.50091000  0.80671000  1.0
  H  H39  1  0.40812000  0.50091000  0.69329000  1.0
  H  H40  1  0.91935000  0.25128000  0.02025000  1.0
  H  H41  1  0.58065000  0.25128000  0.47975000  1.0
  H  H42  1  0.08065000  0.74872000  0.97975000  1.0
  H  H43  1  0.41935000  0.74872000  0.52025000  1.0
  H  H44  1  0.98804000  0.67657000  0.10604000  1.0
  H  H45  1  0.51196000  0.67657000  0.39396000  1.0
  H  H46  1  0.01196000  0.32343000  0.89396000  1.0
  H  H47  1  0.48804000  0.32343000  0.60604000  1.0
  C  C48  1  0.79555000  0.90725000  0.14563000  1.0
  C  C49  1  0.70446000  0.90725000  0.35437000  1.0
  C  C50  1  0.20445000  0.09276000  0.85437000  1.0
  C  C51  1  0.29554000  0.09275000  0.64563000  1.0
  C  C52  1  0.71591000  0.89807000  0.06816000  1.0
  C  C53  1  0.78410000  0.89807000  0.43184000  1.0
  C  C54  1  0.28409000  0.10193000  0.93184000  1.0
  C  C55  1  0.21590000  0.10192000  0.56816000  1.0
  C  C56  1  0.54758000  0.85043000  0.05277000  1.0
  C  C57  1  0.95243000  0.85043000  0.44723000  1.0
  C  C58  1  0.45242000  0.14957000  0.94723000  1.0
  C  C59  1  0.04756000  0.14956000  0.55277000  1.0
  C  C60  1  0.45864000  0.80860000  0.11500000  1.0
  C  C61  1  0.04137000  0.80860000  0.38501000  1.0
  C  C62  1  0.54136000  0.19140000  0.88500000  1.0
  C  C63  1  0.95863000  0.19140000  0.61499000  1.0
  C  C64  1  0.54005000  0.81163000  0.19193000  1.0
  C  C65  1  0.95996000  0.81163000  0.30808000  1.0
  C  C66  1  0.45995000  0.18837000  0.80807000  1.0
  C  C67  1  0.04004000  0.18837000  0.69192000  1.0
  C  C68  1  0.70818000  0.86170000  0.20890000  1.0
  C  C69  1  0.79184000  0.86170000  0.29111000  1.0
  C  C70  1  0.29182000  0.13830000  0.79110000  1.0
  C  C71  1  0.20817000  0.13830000  0.70889000  1.0
  C  C72  1  0.96465000  0.98214000  0.16005000  1.0
  C  C73  1  0.53535000  0.98214000  0.33995000  1.0
  C  C74  1  0.03534000  0.01786000  0.83995000  1.0
  C  C75  1  0.46465000  0.01786000  0.66005000  1.0
  C  C76  1  0.42297000  0.39553000  0.10852000  1.0
  C  C77  1  0.07703000  0.39554000  0.39148000  1.0
  C  C78  1  0.57703000  0.60446000  0.89148000  1.0
  C  C79  1  0.92297000  0.60447000  0.60852000  1.0
  C  C80  1  0.57279000  0.46907000  0.10691000  1.0
  C  C81  1  0.92721000  0.46907000  0.39309000  1.0
  C  C82  1  0.42720000  0.53093000  0.89309000  1.0
  C  C83  1  0.07280000  0.53093000  0.60691000  1.0
  C  C84  1  0.63026000  0.25851000  0.15861000  1.0
  C  C85  1  0.86975000  0.25852000  0.34139000  1.0
  C  C86  1  0.36974000  0.74148000  0.84139000  1.0
  C  C87  1  0.13025000  0.74148000  0.65861000  1.0
  C  C88  1  0.88582000  0.41474000  0.14939000  1.0
  C  C89  1  0.61418000  0.41474000  0.35061000  1.0
  C  C90  1  0.11418000  0.58526000  0.85061000  1.0
  C  C91  1  0.38582000  0.58526000  0.64939000  1.0
  C  C92  1  0.94679000  0.45868000  0.07248000  1.0
  C  C93  1  0.55322000  0.45868000  0.42752000  1.0
  C  C94  1  0.05321000  0.54132000  0.92751000  1.0
  C  C95  1  0.44679000  0.54132000  0.57248000  1.0
  C  C96  1  0.95397000  0.36077000  0.01179000  1.0
  C  C97  1  0.54603000  0.36077000  0.48821000  1.0
  C  C98  1  0.04602000  0.63923000  0.98821000  1.0
  C  C99  1  0.45398000  0.63923000  0.51179000  1.0
  C  C100  1  0.99340000  0.59812000  0.05994000  1.0
  C  C101  1  0.50660000  0.59812000  0.44006000  1.0
  C  C102  1  0.00660000  0.40188000  0.94006000  1.0
  C  C103  1  0.49340000  0.40188000  0.55994000  1.0
  N  N104  1  0.46053000  0.26453000  0.14104000  1.0
  N  N105  1  0.03948000  0.26453000  0.35896000  1.0
  N  N106  1  0.53947000  0.73547000  0.85896000  1.0
  N  N107  1  0.96053000  0.73547000  0.64104000  1.0
  N  N108  1  0.70223000  0.38119000  0.13892000  1.0
  N  N109  1  0.79777000  0.38119000  0.36108000  1.0
  N  N110  1  0.29777000  0.61881000  0.86108000  1.0
  N  N111  1  0.20223000  0.61881000  0.63892000  1.0
  O  O112  1  0.97263000  0.08917000  0.20383000  1.0
  O  O113  1  0.52738000  0.08917000  0.29617000  1.0
  O  O114  1  0.02737000  0.91083000  0.79617000  1.0
  O  O115  1  0.47262000  0.91083000  0.70383000  1.0
  O  O116  1  0.08958000  0.93659000  0.12487000  1.0
  O  O117  1  0.41043000  0.93659000  0.37514000  1.0
  O  O118  1  0.91042000  0.06341000  0.87514000  1.0
  O  O119  1  0.58957000  0.06341000  0.62486000  1.0
