# generated using pymatgen
data_NiH18C16(SN2)2
_symmetry_space_group_name_H-M   'P 1'
_cell_length_a   8.77902000
_cell_length_b   10.40070000
_cell_length_c   10.86390000
_cell_angle_alpha   68.34460000
_cell_angle_beta   67.74620000
_cell_angle_gamma   84.49770000
_symmetry_Int_Tables_number   1
_chemical_formula_structural   NiH18C16(SN2)2
_chemical_formula_sum   'Ni2 H36 C32 S4 N8'
_cell_volume   852.16679778
_cell_formula_units_Z   2
loop_
 _symmetry_equiv_pos_site_id
 _symmetry_equiv_pos_as_xyz
  1  'x, y, z'
loop_
 _atom_site_type_symbol
 _atom_site_label
 _atom_site_symmetry_multiplicity
 _atom_site_fract_x
 _atom_site_fract_y
 _atom_site_fract_z
 _atom_site_occupancy
  Ni  Ni0  1  0.00000000  0.50000000  0.50000000  1.0
  Ni  Ni1  1  0.50000000  0.50000000  0.00000000  1.0
  H  H2  1  0.08087000  0.61600000  0.17898000  1.0
  H  H3  1  0.91913000  0.38401000  0.82102000  1.0
  H  H4  1  0.96012000  0.77030000  0.00872000  1.0
  H  H5  1  0.03988000  0.22970000  0.99128000  1.0
  H  H6  1  0.53367000  0.78479000  0.37053000  1.0
  H  H7  1  0.46633000  0.21521000  0.62947000  1.0
  H  H8  1  0.67390000  0.63004000  0.52694000  1.0
  H  H9  1  0.32610000  0.36996000  0.47306000  1.0
  H  H10  1  0.56244000  0.94746000  0.13520000  1.0
  H  H11  1  0.43756000  0.05254000  0.86480000  1.0
  H  H12  1  0.58903000  0.82905000  0.04945000  1.0
  H  H13  1  0.41097000  0.17095000  0.95055000  1.0
  H  H14  1  0.71312000  0.06677000  0.87452000  1.0
  H  H15  1  0.28688000  0.93324000  0.12548000  1.0
  H  H16  1  0.86134000  0.93996000  0.87086000  1.0
  H  H17  1  0.13867000  0.06004000  0.12914000  1.0
  H  H18  1  0.85366000  0.05543000  0.95939000  1.0
  H  H19  1  0.14634000  0.94458000  0.04062000  1.0
  H  H20  1  0.33158000  0.48326000  0.80785000  1.0
  H  H21  1  0.66843000  0.51674000  0.19215000  1.0
  H  H22  1  0.19379000  0.63729000  0.64929000  1.0
  H  H23  1  0.80621000  0.36271000  0.35071000  1.0
  H  H24  1  0.27708000  0.96864000  0.76851000  1.0
  H  H25  1  0.72293000  0.03136000  0.23149000  1.0
  H  H26  1  0.41362000  0.80014000  0.92203000  1.0
  H  H27  1  0.58638000  0.19986000  0.07797000  1.0
  H  H28  1  0.07242000  0.86122000  0.57025000  1.0
  H  H29  1  0.92758000  0.13878000  0.42975000  1.0
  H  H30  1  0.06867000  0.98578000  0.64691000  1.0
  H  H31  1  0.93133000  0.01422000  0.35310000  1.0
  H  H32  1  0.22624000  0.08385000  0.38411000  1.0
  H  H33  1  0.77376000  0.91615000  0.61589000  1.0
  H  H34  1  0.36097000  0.94557000  0.39699000  1.0
  H  H35  1  0.63902000  0.05442000  0.60301000  1.0
  H  H36  1  0.36109000  0.06821000  0.47553000  1.0
  H  H37  1  0.63891000  0.93179000  0.52447000  1.0
  C  C38  1  0.83802000  0.63632000  0.72725000  1.0
  C  C39  1  0.16198000  0.36368000  0.27274000  1.0
  C  C40  1  0.65736000  0.36908000  0.76573000  1.0
  C  C41  1  0.34265000  0.63091000  0.23427000  1.0
  C  C42  1  0.95989000  0.65610000  0.21776000  1.0
  C  C43  1  0.04011000  0.34390000  0.78224000  1.0
  C  C44  1  0.89112000  0.74348000  0.12266000  1.0
  C  C45  1  0.10888000  0.25652000  0.87734000  1.0
  C  C46  1  0.73580000  0.79514000  0.17415000  1.0
  C  C47  1  0.26420000  0.20487000  0.82585000  1.0
  C  C48  1  0.65629000  0.75131000  0.32280000  1.0
  C  C49  1  0.34371000  0.24869000  0.67720000  1.0
  C  C50  1  0.73286000  0.66372000  0.41127000  1.0
  C  C51  1  0.26714000  0.33629000  0.58873000  1.0
  C  C52  1  0.65712000  0.89233000  0.07577000  1.0
  C  C53  1  0.34287000  0.10767000  0.92423000  1.0
  C  C54  1  0.77810000  0.99419000  0.93803000  1.0
  C  C55  1  0.22190000  0.00581000  0.06198000  1.0
  C  C56  1  0.31794000  0.59193000  0.79569000  1.0
  C  C57  1  0.68206000  0.40807000  0.20431000  1.0
  C  C58  1  0.24105000  0.67898000  0.70701000  1.0
  C  C59  1  0.75895000  0.32102000  0.29299000  1.0
  C  C60  1  0.22443000  0.81826000  0.69349000  1.0
  C  C61  1  0.77557000  0.18174000  0.30650000  1.0
  C  C62  1  0.28695000  0.86168000  0.77370000  1.0
  C  C63  1  0.71305000  0.13832000  0.22630000  1.0
  C  C64  1  0.36323000  0.76877000  0.85932000  1.0
  C  C65  1  0.63678000  0.23123000  0.14068000  1.0
  C  C66  1  0.14954000  0.91867000  0.59409000  1.0
  C  C67  1  0.85046000  0.08133000  0.40592000  1.0
  C  C68  1  0.28206000  0.00947000  0.45480000  1.0
  C  C69  1  0.71793000  0.99053000  0.54521000  1.0
  S  S70  1  0.74624000  0.66593000  0.87444000  1.0
  S  S71  1  0.25376000  0.33407000  0.12556000  1.0
  S  S72  1  0.76609000  0.32497000  0.63008000  1.0
  S  S73  1  0.23391000  0.67502000  0.36992000  1.0
  N  N74  1  0.90558000  0.61470000  0.62008000  1.0
  N  N75  1  0.09442000  0.38530000  0.37992000  1.0
  N  N76  1  0.57942000  0.39924000  0.86611000  1.0
  N  N77  1  0.42058000  0.60075000  0.13389000  1.0
  N  N78  1  0.88359000  0.61726000  0.36015000  1.0
  N  N79  1  0.11641000  0.38274000  0.63985000  1.0
  N  N80  1  0.37957000  0.63534000  0.87062000  1.0
  N  N81  1  0.62043000  0.36466000  0.12938000  1.0
