# generated using pymatgen
data_ZnH10C22Br3NO4
_symmetry_space_group_name_H-M   'P 1'
_cell_length_a   16.52780000
_cell_length_b   17.34030000
_cell_length_c   17.67370000
_cell_angle_alpha   90.90170000
_cell_angle_beta   90.02600000
_cell_angle_gamma   95.34810000
_symmetry_Int_Tables_number   1
_chemical_formula_structural   ZnH10C22Br3NO4
_chemical_formula_sum   'Zn2 H20 C44 Br6 N2 O8'
_cell_volume   5042.54573288
_cell_formula_units_Z   2
loop_
 _symmetry_equiv_pos_site_id
 _symmetry_equiv_pos_as_xyz
  1  'x, y, z'
loop_
 _atom_site_type_symbol
 _atom_site_label
 _atom_site_symmetry_multiplicity
 _atom_site_fract_x
 _atom_site_fract_y
 _atom_site_fract_z
 _atom_site_occupancy
  Zn  Zn0  1  0.58266000  0.49885000  0.51399000  1.0
  Zn  Zn1  1  0.41306000  0.48924000  0.50146000  1.0
  H  H2  1  0.39755000  0.71808000  0.41471000  1.0
  H  H3  1  0.61647000  0.25767000  0.51054000  1.0
  H  H4  1  0.87983000  0.59398000  0.57589000  1.0
  H  H5  1  0.12472000  0.42360000  0.39709000  1.0
  H  H6  1  0.69461000  0.39967000  0.44072000  1.0
  H  H7  1  0.29167000  0.55717000  0.59905000  1.0
  H  H8  1  0.35941000  0.24130000  0.47070000  1.0
  H  H9  1  0.64944000  0.74529000  0.47726000  1.0
  H  H10  1  0.41974000  0.98901000  0.44566000  1.0
  H  H11  1  0.60059000  0.99308000  0.40573000  1.0
  H  H12  1  0.60871000  0.47803000  0.11265000  1.0
  H  H13  1  0.36992000  0.51382000  0.89676000  1.0
  H  H14  1  0.40137000  0.56847000  0.28742000  1.0
  H  H15  1  0.60970000  0.58507000  0.73602000  1.0
  H  H16  1  0.40232000  0.60851000  0.15228000  1.0
  H  H17  1  0.61866000  0.61064000  0.87517000  1.0
  H  H18  1  0.72736000  0.59420000  0.58018000  1.0
  H  H19  1  0.27760000  0.42594000  0.40085000  1.0
  H  H20  1  0.65531000  0.88549000  0.44602000  1.0
  H  H21  1  0.36213000  0.10137000  0.43779000  1.0
  C  C22  1  0.49021000  0.52022000  0.65332000  1.0
  C  C23  1  0.49938000  0.48539000  0.35968000  1.0
  C  C24  1  0.56397000  0.49911000  0.15106000  1.0
  C  C25  1  0.42231000  0.53098000  0.86153000  1.0
  C  C26  1  0.56316000  0.47859000  0.22689000  1.0
  C  C27  1  0.41812000  0.51823000  0.78354000  1.0
  C  C28  1  0.50420000  0.50269000  0.27682000  1.0
  C  C29  1  0.48602000  0.53652000  0.73696000  1.0
  C  C30  1  0.44676000  0.54963000  0.24824000  1.0
  C  C31  1  0.55723000  0.57082000  0.77216000  1.0
  C  C32  1  0.44721000  0.57182000  0.17317000  1.0
  C  C33  1  0.56240000  0.58475000  0.84951000  1.0
  C  C34  1  0.50550000  0.54570000  0.12306000  1.0
  C  C35  1  0.49498000  0.56299000  0.89586000  1.0
  C  C36  1  0.50340000  0.56097000  0.04455000  1.0
  C  C37  1  0.50042000  0.56676000  0.97589000  1.0
  C  C38  1  0.84048000  0.55022000  0.54534000  1.0
  C  C39  1  0.15993000  0.45402000  0.44232000  1.0
  C  C40  1  0.75678000  0.55048000  0.54811000  1.0
  C  C41  1  0.24380000  0.45471000  0.44421000  1.0
  C  C42  1  0.73800000  0.44137000  0.46954000  1.0
  C  C43  1  0.25231000  0.52945000  0.55506000  1.0
  C  C44  1  0.51531000  0.64198000  0.47784000  1.0
  C  C45  1  0.48981000  0.34365000  0.50938000  1.0
  C  C46  1  0.82153000  0.43738000  0.46363000  1.0
  C  C47  1  0.16838000  0.53187000  0.55670000  1.0
  C  C48  1  0.87535000  0.49262000  0.50226000  1.0
  C  C49  1  0.11961000  0.49316000  0.49957000  1.0
  C  C50  1  0.96047000  0.49156000  0.49917000  1.0
  C  C51  1  0.03431000  0.49291000  0.49941000  1.0
  C  C52  1  0.52196000  0.72403000  0.45172000  1.0
  C  C53  1  0.48819000  0.25867000  0.49202000  1.0
  C  C54  1  0.45375000  0.75545000  0.42225000  1.0
  C  C55  1  0.56081000  0.22321000  0.49369000  1.0
  C  C56  1  0.45770000  0.83343000  0.40404000  1.0
  C  C57  1  0.56207000  0.14516000  0.47506000  1.0
  C  C58  1  0.52902000  0.88367000  0.41609000  1.0
  C  C59  1  0.49072000  0.09837000  0.45358000  1.0
  C  C60  1  0.59867000  0.84832000  0.43895000  1.0
  C  C61  1  0.41825000  0.13620000  0.45348000  1.0
  C  C62  1  0.59571000  0.77060000  0.45709000  1.0
  C  C63  1  0.41617000  0.21406000  0.47183000  1.0
  C  C64  1  0.53854000  0.96830000  0.41548000  1.0
  C  C65  1  0.48160000  0.01530000  0.43698000  1.0
  Br  Br66  1  0.86027000  0.35742000  0.40419000  1.0
  Br  Br67  1  0.12207000  0.58627000  0.63648000  1.0
  Br  Br68  1  0.66648000  0.10656000  0.48560000  1.0
  Br  Br69  1  0.36225000  0.86793000  0.35900000  1.0
  Br  Br70  1  0.64230000  0.41195000  0.25789000  1.0
  Br  Br71  1  0.31699000  0.46913000  0.74709000  1.0
  N  N72  1  0.70687000  0.49685000  0.51105000  1.0
  N  N73  1  0.28871000  0.49150000  0.49982000  1.0
  O  O74  1  0.56038000  0.50963000  0.62765000  1.0
  O  O75  1  0.42841000  0.46867000  0.38629000  1.0
  O  O76  1  0.42528000  0.51884000  0.61452000  1.0
  O  O77  1  0.56542000  0.49291000  0.39682000  1.0
  O  O78  1  0.57979000  0.61641000  0.50327000  1.0
  O  O79  1  0.42215000  0.37285000  0.51574000  1.0
  O  O80  1  0.44563000  0.60402000  0.47320000  1.0
  O  O81  1  0.55988000  0.38091000  0.51492000  1.0
