# generated using pymatgen
data_GaH5C8O5
_symmetry_space_group_name_H-M   'P 1'
_cell_length_a   6.75993000
_cell_length_b   12.74380000
_cell_length_c   19.50430000
_cell_angle_alpha   89.99940000
_cell_angle_beta   97.29510000
_cell_angle_gamma   89.99910000
_symmetry_Int_Tables_number   1
_chemical_formula_structural   GaH5C8O5
_chemical_formula_sum   'Ga8 H40 C64 O40'
_cell_volume   1666.63971802
_cell_formula_units_Z   8
loop_
 _symmetry_equiv_pos_site_id
 _symmetry_equiv_pos_as_xyz
  1  'x, y, z'
loop_
 _atom_site_type_symbol
 _atom_site_label
 _atom_site_symmetry_multiplicity
 _atom_site_fract_x
 _atom_site_fract_y
 _atom_site_fract_z
 _atom_site_occupancy
  Ga  Ga0  1  0.99901000  0.24696000  0.49978000  1.0
  Ga  Ga1  1  0.50098000  0.74696000  0.50022000  1.0
  Ga  Ga2  1  0.00098000  0.75305000  0.50022000  1.0
  Ga  Ga3  1  0.49901000  0.25304000  0.49978000  1.0
  Ga  Ga4  1  0.00000000  0.50000000  0.00000000  1.0
  Ga  Ga5  1  0.50000000  0.00000000  1.00000000  1.0
  Ga  Ga6  1  0.50000000  0.50000000  1.00000000  1.0
  Ga  Ga7  1  0.00001000  0.00000000  0.00000000  1.0
  H  H8  1  0.92576000  0.06727000  0.78463000  1.0
  H  H9  1  0.57423000  0.56725000  0.21536000  1.0
  H  H10  1  0.07424000  0.93274000  0.21537000  1.0
  H  H11  1  0.42576000  0.43273000  0.78464000  1.0
  H  H12  1  0.96652000  0.08215000  0.65885000  1.0
  H  H13  1  0.53349000  0.58214000  0.34115000  1.0
  H  H14  1  0.03347000  0.91785000  0.34115000  1.0
  H  H15  1  0.46652000  0.41785000  0.65885000  1.0
  H  H16  1  0.57259000  0.18263000  0.71357000  1.0
  H  H17  1  0.92740000  0.68263000  0.28643000  1.0
  H  H18  1  0.42742000  0.81737000  0.28643000  1.0
  H  H19  1  0.07261000  0.31737000  0.71357000  1.0
  H  H20  1  0.53200000  0.16766000  0.83931000  1.0
  H  H21  1  0.96797000  0.66765000  0.16069000  1.0
  H  H22  1  0.46800000  0.83234000  0.16069000  1.0
  H  H23  1  0.03203000  0.33234000  0.83931000  1.0
  H  H24  1  0.42716000  0.31670000  0.28562000  1.0
  H  H25  1  0.07282000  0.81670000  0.71438000  1.0
  H  H26  1  0.57284000  0.68330000  0.71439000  1.0
  H  H27  1  0.92718000  0.18330000  0.28562000  1.0
  H  H28  1  0.46625000  0.32738000  0.15996000  1.0
  H  H29  1  0.03374000  0.82738000  0.84004000  1.0
  H  H30  1  0.53374000  0.67261000  0.84004000  1.0
  H  H31  1  0.96626000  0.17261000  0.15996000  1.0
  H  H32  1  0.06983000  0.43358000  0.21213000  1.0
  H  H33  1  0.43013000  0.93357000  0.78788000  1.0
  H  H34  1  0.93015000  0.56642000  0.78787000  1.0
  H  H35  1  0.56987000  0.06642000  0.21212000  1.0
  H  H36  1  0.03053000  0.42334000  0.33767000  1.0
  H  H37  1  0.46944000  0.92334000  0.66233000  1.0
  H  H38  1  0.96946000  0.57666000  0.66233000  1.0
  H  H39  1  0.53057000  0.07666000  0.33767000  1.0
  H  H40  1  0.22987000  0.38752000  0.47138000  1.0
  H  H41  1  0.27014000  0.88752000  0.52863000  1.0
  H  H42  1  0.77014000  0.61249000  0.52862000  1.0
  H  H43  1  0.72986000  0.11249000  0.47138000  1.0
  H  H44  1  0.74168000  0.64354000  0.98290000  1.0
  H  H45  1  0.75831000  0.14354000  0.01709000  1.0
  H  H46  1  0.25832000  0.35645000  0.01709000  1.0
  H  H47  1  0.24170000  0.85646000  0.98291000  1.0
  C  C48  1  0.22655000  0.11699000  0.81913000  1.0
  C  C49  1  0.27345000  0.61701000  0.18087000  1.0
  C  C50  1  0.77345000  0.88301000  0.18088000  1.0
  C  C51  1  0.72655000  0.38300000  0.81913000  1.0
  C  C52  1  0.06667000  0.09231000  0.76855000  1.0
  C  C53  1  0.43331000  0.59231000  0.23144000  1.0
  C  C54  1  0.93332000  0.90770000  0.23145000  1.0
  C  C55  1  0.56669000  0.40769000  0.76856000  1.0
  C  C56  1  0.08965000  0.09951000  0.69887000  1.0
  C  C57  1  0.41036000  0.59951000  0.30112000  1.0
  C  C58  1  0.91035000  0.90050000  0.30113000  1.0
  C  C59  1  0.58965000  0.40049000  0.69888000  1.0
  C  C60  1  0.27229000  0.13217000  0.67909000  1.0
  C  C61  1  0.22770000  0.63217000  0.32091000  1.0
  C  C62  1  0.72770000  0.86784000  0.32091000  1.0
  C  C63  1  0.77231000  0.36784000  0.67909000  1.0
  C  C64  1  0.43197000  0.15718000  0.72967000  1.0
  C  C65  1  0.06803000  0.65718000  0.27033000  1.0
  C  C66  1  0.56803000  0.84283000  0.27033000  1.0
  C  C67  1  0.93198000  0.34283000  0.72967000  1.0
  C  C68  1  0.40902000  0.14990000  0.79932000  1.0
  C  C69  1  0.09096000  0.64990000  0.20068000  1.0
  C  C70  1  0.59097000  0.85011000  0.20068000  1.0
  C  C71  1  0.90905000  0.35011000  0.79932000  1.0
  C  C72  1  0.21049000  0.09891000  0.89390000  1.0
  C  C73  1  0.28950000  0.59891000  0.10609000  1.0
  C  C74  1  0.78951000  0.90110000  0.10610000  1.0
  C  C75  1  0.71052000  0.40109000  0.89391000  1.0
  C  C76  1  0.28902000  0.15012000  0.60443000  1.0
  C  C77  1  0.21099000  0.65013000  0.39558000  1.0
  C  C78  1  0.71097000  0.84988000  0.39558000  1.0
  C  C79  1  0.78902000  0.34988000  0.60442000  1.0
  C  C80  1  0.72664000  0.36954000  0.31917000  1.0
  C  C81  1  0.77334000  0.86955000  0.68083000  1.0
  C  C82  1  0.27335000  0.63045000  0.68083000  1.0
  C  C83  1  0.22666000  0.13045000  0.31916000  1.0
  C  C84  1  0.56716000  0.34230000  0.26910000  1.0
  C  C85  1  0.93282000  0.84230000  0.73091000  1.0
  C  C86  1  0.43284000  0.65770000  0.73091000  1.0
  C  C87  1  0.06719000  0.15770000  0.26910000  1.0
  C  C88  1  0.58947000  0.34727000  0.19929000  1.0
  C  C89  1  0.91051000  0.84728000  0.80071000  1.0
  C  C90  1  0.41052000  0.65272000  0.80071000  1.0
  C  C91  1  0.08948000  0.15272000  0.19929000  1.0
  C  C92  1  0.77085000  0.38001000  0.17860000  1.0
  C  C93  1  0.72913000  0.88001000  0.82141000  1.0
  C  C94  1  0.22915000  0.61998000  0.82141000  1.0
  C  C95  1  0.27087000  0.11999000  0.17859000  1.0
  C  C96  1  0.93009000  0.40763000  0.22865000  1.0
  C  C97  1  0.56989000  0.90763000  0.77136000  1.0
  C  C98  1  0.06990000  0.59236000  0.77135000  1.0
  C  C99  1  0.43011000  0.09236000  0.22864000  1.0
  C  C100  1  0.90766000  0.40272000  0.29840000  1.0
  C  C101  1  0.59232000  0.90272000  0.70160000  1.0
  C  C102  1  0.09235000  0.59728000  0.70160000  1.0
  C  C103  1  0.40769000  0.09729000  0.29840000  1.0
  C  C104  1  0.71153000  0.35356000  0.39428000  1.0
  C  C105  1  0.78843000  0.85357000  0.60572000  1.0
  C  C106  1  0.28845000  0.64644000  0.60572000  1.0
  C  C107  1  0.21158000  0.14644000  0.39428000  1.0
  C  C108  1  0.78757000  0.39549000  0.10366000  1.0
  C  C109  1  0.71243000  0.89549000  0.89634000  1.0
  C  C110  1  0.21242000  0.60450000  0.89634000  1.0
  C  C111  1  0.28758000  0.10450000  0.10365000  1.0
  O  O112  1  0.24652000  0.32496000  0.50007000  1.0
  O  O113  1  0.25347000  0.82496000  0.49992000  1.0
  O  O114  1  0.75348000  0.67505000  0.49992000  1.0
  O  O115  1  0.74653000  0.17505000  0.50008000  1.0
  O  O116  1  0.75105000  0.57412000  0.00365000  1.0
  O  O117  1  0.74894000  0.07412000  0.99634000  1.0
  O  O118  1  0.24895000  0.42588000  0.99635000  1.0
  O  O119  1  0.25107000  0.92588000  0.00365000  1.0
  O  O120  1  0.04190000  0.06899000  0.90966000  1.0
  O  O121  1  0.45810000  0.56900000  0.09034000  1.0
  O  O122  1  0.95811000  0.93101000  0.09034000  1.0
  O  O123  1  0.54191000  0.43100000  0.90966000  1.0
  O  O124  1  0.36837000  0.11097000  0.93664000  1.0
  O  O125  1  0.13162000  0.61098000  0.06335000  1.0
  O  O126  1  0.63164000  0.88902000  0.06335000  1.0
  O  O127  1  0.86839000  0.38901000  0.93665000  1.0
  O  O128  1  0.13320000  0.13533000  0.56104000  1.0
  O  O129  1  0.36679000  0.63533000  0.43896000  1.0
  O  O130  1  0.86678000  0.86469000  0.43897000  1.0
  O  O131  1  0.63322000  0.36467000  0.56104000  1.0
  O  O132  1  0.45645000  0.18220000  0.58896000  1.0
  O  O133  1  0.04354000  0.68221000  0.41104000  1.0
  O  O134  1  0.54354000  0.81780000  0.41104000  1.0
  O  O135  1  0.95649000  0.31781000  0.58896000  1.0
  O  O136  1  0.54076000  0.32851000  0.41088000  1.0
  O  O137  1  0.95922000  0.82850000  0.58913000  1.0
  O  O138  1  0.45922000  0.67150000  0.58912000  1.0
  O  O139  1  0.04077000  0.17149000  0.41088000  1.0
  O  O140  1  0.87182000  0.36186000  0.43631000  1.0
  O  O141  1  0.62815000  0.86186000  0.56370000  1.0
  O  O142  1  0.12816000  0.63815000  0.56369000  1.0
  O  O143  1  0.37186000  0.13814000  0.43631000  1.0
  O  O144  1  0.62961000  0.38406000  0.06065000  1.0
  O  O145  1  0.87040000  0.88406000  0.93936000  1.0
  O  O146  1  0.37038000  0.61594000  0.93936000  1.0
  O  O147  1  0.12960000  0.11594000  0.06065000  1.0
  O  O148  1  0.95782000  0.42230000  0.08755000  1.0
  O  O149  1  0.54218000  0.92229000  0.91245000  1.0
  O  O150  1  0.04218000  0.57770000  0.91245000  1.0
  O  O151  1  0.45783000  0.07771000  0.08754000  1.0
