# generated using pymatgen
data_RbH7(CO)8
_symmetry_space_group_name_H-M   'P 1'
_cell_length_a   5.53218000
_cell_length_b   9.68352538
_cell_length_c   10.79780000
_cell_angle_alpha   98.58913305
_cell_angle_beta   91.60440000
_cell_angle_gamma   105.12235316
_symmetry_Int_Tables_number   1
_chemical_formula_structural   RbH7(CO)8
_chemical_formula_sum   'Rb2 H14 C16 O16'
_cell_volume   550.79481321
_cell_formula_units_Z   2
loop_
 _symmetry_equiv_pos_site_id
 _symmetry_equiv_pos_as_xyz
  1  'x, y, z'
loop_
 _atom_site_type_symbol
 _atom_site_label
 _atom_site_symmetry_multiplicity
 _atom_site_fract_x
 _atom_site_fract_y
 _atom_site_fract_z
 _atom_site_occupancy
  Rb  Rb0  1  0.84052000  0.63504000  0.14791000  1.0
  Rb  Rb1  1  0.15948000  0.36497000  0.85210000  1.0
  H  H2  1  0.76896000  0.02197000  0.25711000  1.0
  H  H3  1  0.23107000  0.97804000  0.74288000  1.0
  H  H4  1  0.92284000  0.21014000  0.14481000  1.0
  H  H5  1  0.07715000  0.78987000  0.85517000  1.0
  H  H6  1  0.26678000  0.10697000  0.08012000  1.0
  H  H7  1  0.73320000  0.89302000  0.91987000  1.0
  H  H8  1  0.49764000  0.85141000  0.32581000  1.0
  H  H9  1  0.50237000  0.14860000  0.67421000  1.0
  H  H10  1  0.06084000  0.75422000  0.46305000  1.0
  H  H11  1  0.93918000  0.24579000  0.53697000  1.0
  H  H12  1  0.07705000  0.60254000  0.61092000  1.0
  H  H13  1  0.92295000  0.39745000  0.38907000  1.0
  H  H14  1  0.49129000  0.67839000  0.62816000  1.0
  H  H15  1  0.50871000  0.32160000  0.37184000  1.0
  C  C16  1  0.36611000  0.97279000  0.21118000  1.0
  C  C17  1  0.63391000  0.02721000  0.78882000  1.0
  C  C18  1  0.63056000  0.05585000  0.20361000  1.0
  C  C19  1  0.36946000  0.94416000  0.79638000  1.0
  C  C20  1  0.71988000  0.16455000  0.13858000  1.0
  C  C21  1  0.28012000  0.83546000  0.86140000  1.0
  C  C22  1  0.59178000  0.23971000  0.05790000  1.0
  C  C23  1  0.40820000  0.76030000  0.94209000  1.0
  C  C24  1  0.67783000  0.77291000  0.47393000  1.0
  C  C25  1  0.32218000  0.22710000  0.52608000  1.0
  C  C26  1  0.89290000  0.72014000  0.51368000  1.0
  C  C27  1  0.10709000  0.27985000  0.48632000  1.0
  C  C28  1  0.90320000  0.63353000  0.59941000  1.0
  C  C29  1  0.09680000  0.36646000  0.40059000  1.0
  C  C30  1  0.71316000  0.56613000  0.68310000  1.0
  C  C31  1  0.28684000  0.43386000  0.31690000  1.0
  O  O32  1  0.18376000  0.99497000  0.15164000  1.0
  O  O33  1  0.81625000  0.00502000  0.84836000  1.0
  O  O34  1  0.32527000  0.87122000  0.28002000  1.0
  O  O35  1  0.67475000  0.12879000  0.71999000  1.0
  O  O36  1  0.34543000  0.19535000  0.03320000  1.0
  O  O37  1  0.65454000  0.80464000  0.96680000  1.0
  O  O38  1  0.71964000  0.34340000  0.01300000  1.0
  O  O39  1  0.28031000  0.65661000  0.98700000  1.0
  O  O40  1  0.69765000  0.82058000  0.36885000  1.0
  O  O41  1  0.30237000  0.17944000  0.63117000  1.0
  O  O42  1  0.48994000  0.76939000  0.53949000  1.0
  O  O43  1  0.51005000  0.23060000  0.46052000  1.0
  O  O44  1  0.49578000  0.60048000  0.68829000  1.0
  O  O45  1  0.50421000  0.39950000  0.31171000  1.0
  O  O46  1  0.76063000  0.47990000  0.74768000  1.0
  O  O47  1  0.23936000  0.52008000  0.25231000  1.0
