# generated using pymatgen
data_Cd8H26C24N36Cl4O
_symmetry_space_group_name_H-M   'P 1'
_cell_length_a   13.28330000
_cell_length_b   13.28330000
_cell_length_c   17.92950000
_cell_angle_alpha   68.69800000
_cell_angle_beta   68.69810000
_cell_angle_gamma   77.29330000
_symmetry_Int_Tables_number   1
_chemical_formula_structural   Cd8H26C24N36Cl4O
_chemical_formula_sum   'Cd16 H52 C48 N72 Cl8 O2'
_cell_volume   2731.93279035
_cell_formula_units_Z   2
loop_
 _symmetry_equiv_pos_site_id
 _symmetry_equiv_pos_as_xyz
  1  'x, y, z'
loop_
 _atom_site_type_symbol
 _atom_site_label
 _atom_site_symmetry_multiplicity
 _atom_site_fract_x
 _atom_site_fract_y
 _atom_site_fract_z
 _atom_site_occupancy
  Cd  Cd0  1  0.60435000  0.79977000  0.86360000  1.0
  Cd  Cd1  1  0.20023000  0.39565000  0.63640000  1.0
  Cd  Cd2  1  0.39565000  0.20023000  0.13641000  1.0
  Cd  Cd3  1  0.79977000  0.60435000  0.36359000  1.0
  Cd  Cd4  1  0.46979000  0.68602000  0.12664000  1.0
  Cd  Cd5  1  0.31398000  0.53021000  0.37335000  1.0
  Cd  Cd6  1  0.53021000  0.31398000  0.87336000  1.0
  Cd  Cd7  1  0.68602000  0.46979000  0.62665000  1.0
  Cd  Cd8  1  0.00000000  0.00000000  0.50000000  1.0
  Cd  Cd9  1  0.00000000  0.00000000  0.00000000  1.0
  Cd  Cd10  1  0.09283000  0.70300000  0.57936000  1.0
  Cd  Cd11  1  0.29700000  0.90717000  0.92063000  1.0
  Cd  Cd12  1  0.90716000  0.29700000  0.42063000  1.0
  Cd  Cd13  1  0.70299000  0.09284000  0.07936000  1.0
  Cd  Cd14  1  0.50000000  0.00000000  0.50000000  1.0
  Cd  Cd15  1  0.00000000  0.50000000  0.00000000  1.0
  H  H16  1  0.66747000  0.70268000  0.69075000  1.0
  H  H17  1  0.29731000  0.33252000  0.80925000  1.0
  H  H18  1  0.33253000  0.29731000  0.30925000  1.0
  H  H19  1  0.70268000  0.66748000  0.19075000  1.0
  H  H20  1  0.57684000  0.50412000  0.94209000  1.0
  H  H21  1  0.49588000  0.42316000  0.55791000  1.0
  H  H22  1  0.42315000  0.49588000  0.05791000  1.0
  H  H23  1  0.50412000  0.57684000  0.44209000  1.0
  H  H24  1  0.64244000  0.23969000  0.43833000  1.0
  H  H25  1  0.76031000  0.35756000  0.06167000  1.0
  H  H26  1  0.35756000  0.76031000  0.56167000  1.0
  H  H27  1  0.23969000  0.64244000  0.93833000  1.0
  H  H28  1  0.77277000  0.91281000  0.49465000  1.0
  H  H29  1  0.08719000  0.22724000  0.00535000  1.0
  H  H30  1  0.22724000  0.08719000  0.50535000  1.0
  H  H31  1  0.91281000  0.77277000  0.99465000  1.0
  H  H32  1  0.84662000  0.66102000  0.76665000  1.0
  H  H33  1  0.33898000  0.15338000  0.73335000  1.0
  H  H34  1  0.15338000  0.33898000  0.23335000  1.0
  H  H35  1  0.66102000  0.84662000  0.26665000  1.0
  H  H36  1  0.77607000  0.00014000  0.68750000  1.0
  H  H37  1  0.99986000  0.22393000  0.81250000  1.0
  H  H38  1  0.22393000  0.99986000  0.31250000  1.0
  H  H39  1  0.00014000  0.77607000  0.18750000  1.0
  H  H40  1  0.34532000  0.15220000  0.91589000  1.0
  H  H41  1  0.84781000  0.65468000  0.58411000  1.0
  H  H42  1  0.65468000  0.84781000  0.08411000  1.0
  H  H43  1  0.15219000  0.34532000  0.41589000  1.0
  H  H44  1  0.67707000  0.04682000  0.87888000  1.0
  H  H45  1  0.95318000  0.32293000  0.62112000  1.0
  H  H46  1  0.32293000  0.95318000  0.12112000  1.0
  H  H47  1  0.04682000  0.67707000  0.37888000  1.0
  H  H48  1  0.85574000  0.70896000  0.88222000  1.0
  H  H49  1  0.29103000  0.14426000  0.61778000  1.0
  H  H50  1  0.14426000  0.29103000  0.11778000  1.0
  H  H51  1  0.70897000  0.85574000  0.38222000  1.0
  H  H52  1  0.71742000  0.51716000  0.13040000  1.0
  H  H53  1  0.48284000  0.28259000  0.36960000  1.0
  H  H54  1  0.28259000  0.48283000  0.86960000  1.0
  H  H55  1  0.51716000  0.71741000  0.63040000  1.0
  H  H56  1  0.29618000  0.93120000  0.71087000  1.0
  H  H57  1  0.06880000  0.70382000  0.78913000  1.0
  H  H58  1  0.70382000  0.06880000  0.28913000  1.0
  H  H59  1  0.93120000  0.29618000  0.21087000  1.0
  H  H60  1  0.63337000  0.92995000  0.64508000  1.0
  H  H61  1  0.07006000  0.36663000  0.85492000  1.0
  H  H62  1  0.36663000  0.07005000  0.35492000  1.0
  H  H63  1  0.92995000  0.63337000  0.14508000  1.0
  H  H64  1  0.26240000  0.78096000  0.27526000  1.0
  H  H65  1  0.21904000  0.73761000  0.22474000  1.0
  H  H66  1  0.73760000  0.21905000  0.72474000  1.0
  H  H67  1  0.78096000  0.26240000  0.77525000  1.0
  C  C68  1  0.64366000  0.63388000  0.74686000  1.0
  C  C69  1  0.36612000  0.35634000  0.75314000  1.0
  C  C70  1  0.35634000  0.36612000  0.25314000  1.0
  C  C71  1  0.63388000  0.64367000  0.24686000  1.0
  C  C72  1  0.59771000  0.53439000  0.87401000  1.0
  C  C73  1  0.46561000  0.40228000  0.62599000  1.0
  C  C74  1  0.40228000  0.46561000  0.12599000  1.0
  C  C75  1  0.53439000  0.59772000  0.37401000  1.0
  C  C76  1  0.69701000  0.16580000  0.44898000  1.0
  C  C77  1  0.83420000  0.30299000  0.05102000  1.0
  C  C78  1  0.30299000  0.83420000  0.55102000  1.0
  C  C79  1  0.16580000  0.69701000  0.94898000  1.0
  C  C80  1  0.76245000  0.00067000  0.47817000  1.0
  C  C81  1  0.99933000  0.23755000  0.02183000  1.0
  C  C82  1  0.23755000  0.99933000  0.52183000  1.0
  C  C83  1  0.00067000  0.76245000  0.97817000  1.0
  C  C84  1  0.84982000  0.74665000  0.73096000  1.0
  C  C85  1  0.25335000  0.15018000  0.76904000  1.0
  C  C86  1  0.15018000  0.25335000  0.26904000  1.0
  C  C87  1  0.74665000  0.84982000  0.23096000  1.0
  C  C88  1  0.81312000  0.91779000  0.69109000  1.0
  C  C89  1  0.08221000  0.18688000  0.80891000  1.0
  C  C90  1  0.18688000  0.08221000  0.30891000  1.0
  C  C91  1  0.91779000  0.81312000  0.19109000  1.0
  C  C92  1  0.42349000  0.10410000  0.90529000  1.0
  C  C93  1  0.89590000  0.57651000  0.59471000  1.0
  C  C94  1  0.57651000  0.89590000  0.09471000  1.0
  C  C95  1  0.10410000  0.42349000  0.40529000  1.0
  C  C96  1  0.59165000  0.05064000  0.88575000  1.0
  C  C97  1  0.94936000  0.40835000  0.61425000  1.0
  C  C98  1  0.40835000  0.94936000  0.11425000  1.0
  C  C99  1  0.05064000  0.59165000  0.38575000  1.0
  C  C100  1  0.79825000  0.67375000  0.94308000  1.0
  C  C101  1  0.32625000  0.20175000  0.55692000  1.0
  C  C102  1  0.20175000  0.32625000  0.05692000  1.0
  C  C103  1  0.67375000  0.79825000  0.44308000  1.0
  C  C104  1  0.72828000  0.57692000  0.06845000  1.0
  C  C105  1  0.42308000  0.27172000  0.43155000  1.0
  C  C106  1  0.27172000  0.42308000  0.93156000  1.0
  C  C107  1  0.57692000  0.72828000  0.56845000  1.0
  C  C108  1  0.37795000  0.92153000  0.71417000  1.0
  C  C109  1  0.07848000  0.62205000  0.78583000  1.0
  C  C110  1  0.62205000  0.07847000  0.28583000  1.0
  C  C111  1  0.92153000  0.37795000  0.21417000  1.0
  C  C112  1  0.54846000  0.92046000  0.68100000  1.0
  C  C113  1  0.07955000  0.45154000  0.81899000  1.0
  C  C114  1  0.45154000  0.07954000  0.31899000  1.0
  C  C115  1  0.92046000  0.54846000  0.18100000  1.0
  N  N116  1  0.64711000  0.64536000  0.04503000  1.0
  N  N117  1  0.35464000  0.35289000  0.45497000  1.0
  N  N118  1  0.35289000  0.35464000  0.95497000  1.0
  N  N119  1  0.64536000  0.64711000  0.54503000  1.0
  N  N120  1  0.69259000  0.70805000  0.96379000  1.0
  N  N121  1  0.29195000  0.30741000  0.53622000  1.0
  N  N122  1  0.30741000  0.29195000  0.03622000  1.0
  N  N123  1  0.70805000  0.69259000  0.46378000  1.0
  N  N124  1  0.82462000  0.59174000  0.00650000  1.0
  N  N125  1  0.40826000  0.17539000  0.49350000  1.0
  N  N126  1  0.17539000  0.40825000  0.99350000  1.0
  N  N127  1  0.59174000  0.82461000  0.50650000  1.0
  N  N128  1  0.51167000  0.88222000  0.76477000  1.0
  N  N129  1  0.11778000  0.48833000  0.73523000  1.0
  N  N130  1  0.48833000  0.11778000  0.23523000  1.0
  N  N131  1  0.88222000  0.51167000  0.26477000  1.0
  N  N132  1  0.40142000  0.88331000  0.78655000  1.0
  N  N133  1  0.11670000  0.59858000  0.71345000  1.0
  N  N134  1  0.59858000  0.11670000  0.21345000  1.0
  N  N135  1  0.88331000  0.40142000  0.28655000  1.0
  N  N136  1  0.46752000  0.94624000  0.64624000  1.0
  N  N137  1  0.05376000  0.53249000  0.85376000  1.0
  N  N138  1  0.53248000  0.05376000  0.35376000  1.0
  N  N139  1  0.94625000  0.46752000  0.14624000  1.0
  N  N140  1  0.92609000  0.78435000  0.65775000  1.0
  N  N141  1  0.21565000  0.07392000  0.84225000  1.0
  N  N142  1  0.07391000  0.21565000  0.34225000  1.0
  N  N143  1  0.78435000  0.92609000  0.15775000  1.0
  N  N144  1  0.90193000  0.89461000  0.63206000  1.0
  N  N145  1  0.10539000  0.09808000  0.86794000  1.0
  N  N146  1  0.09807000  0.10539000  0.36795000  1.0
  N  N147  1  0.89461000  0.90193000  0.13206000  1.0
  N  N148  1  0.77658000  0.82727000  0.75477000  1.0
  N  N149  1  0.17273000  0.22342000  0.74523000  1.0
  N  N150  1  0.22342000  0.17273000  0.24523000  1.0
  N  N151  1  0.82727000  0.77658000  0.25477000  1.0
  N  N152  1  0.80011000  0.16502000  0.44345000  1.0
  N  N153  1  0.83498000  0.19989000  0.05655000  1.0
  N  N154  1  0.19989000  0.83498000  0.55655000  1.0
  N  N155  1  0.16502000  0.80011000  0.94345000  1.0
  N  N156  1  0.84200000  0.05858000  0.46248000  1.0
  N  N157  1  0.94142000  0.15801000  0.03752000  1.0
  N  N158  1  0.15800000  0.94142000  0.53752000  1.0
  N  N159  1  0.05858000  0.84200000  0.96248000  1.0
  N  N160  1  0.66945000  0.06419000  0.47062000  1.0
  N  N161  1  0.93581000  0.33055000  0.02938000  1.0
  N  N162  1  0.33055000  0.93581000  0.52938000  1.0
  N  N163  1  0.06419000  0.66945000  0.97062000  1.0
  N  N164  1  0.54465000  0.96756000  0.89224000  1.0
  N  N165  1  0.03244000  0.45535000  0.60776000  1.0
  N  N166  1  0.45535000  0.03244000  0.10776000  1.0
  N  N167  1  0.96756000  0.54465000  0.39224000  1.0
  N  N168  1  0.43633000  0.00238000  0.90461000  1.0
  N  N169  1  0.99762000  0.56367000  0.59538000  1.0
  N  N170  1  0.56367000  0.99762000  0.09538000  1.0
  N  N171  1  0.00238000  0.43633000  0.40461000  1.0
  N  N172  1  0.51857000  0.13853000  0.89322000  1.0
  N  N173  1  0.86147000  0.48143000  0.60678000  1.0
  N  N174  1  0.48143000  0.86147000  0.10678000  1.0
  N  N175  1  0.13853000  0.51857000  0.39322000  1.0
  N  N176  1  0.62304000  0.63601000  0.82603000  1.0
  N  N177  1  0.36398000  0.37695000  0.67397000  1.0
  N  N178  1  0.37695000  0.36398000  0.17397000  1.0
  N  N179  1  0.63601000  0.62304000  0.32603000  1.0
  N  N180  1  0.60237000  0.47314000  0.82756000  1.0
  N  N181  1  0.52686000  0.39762000  0.67245000  1.0
  N  N182  1  0.39762000  0.52686000  0.17245000  1.0
  N  N183  1  0.47314000  0.60237000  0.32755000  1.0
  N  N184  1  0.63170000  0.53772000  0.74501000  1.0
  N  N185  1  0.46228000  0.36830000  0.75499000  1.0
  N  N186  1  0.36830000  0.46228000  0.25499000  1.0
  N  N187  1  0.53772000  0.63170000  0.24501000  1.0
  Cl  Cl188  1  0.41561000  0.72360000  0.98610000  1.0
  Cl  Cl189  1  0.27640000  0.58439000  0.51390000  1.0
  Cl  Cl190  1  0.58439000  0.27640000  0.01390000  1.0
  Cl  Cl191  1  0.72360000  0.41561000  0.48610000  1.0
  Cl  Cl192  1  0.05063000  0.82768000  0.43844000  1.0
  Cl  Cl193  1  0.17232000  0.94937000  0.06156000  1.0
  Cl  Cl194  1  0.94937000  0.17232000  0.56156000  1.0
  Cl  Cl195  1  0.82768000  0.05063000  0.93844000  1.0
  O  O196  1  0.27660000  0.72340000  0.25000000  1.0
  O  O197  1  0.72339000  0.27661000  0.75000000  1.0
