# generated using pymatgen
data_TbH6C6(NO4)2
_symmetry_space_group_name_H-M   'P 1'
_cell_length_a   6.95119000
_cell_length_b   11.57510000
_cell_length_c   14.05430000
_cell_angle_alpha   109.45700000
_cell_angle_beta   90.01730000
_cell_angle_gamma   107.44800000
_symmetry_Int_Tables_number   1
_chemical_formula_structural   TbH6C6(NO4)2
_chemical_formula_sum   'Tb4 H24 C24 N8 O32'
_cell_volume   1010.85381689
_cell_formula_units_Z   4
loop_
 _symmetry_equiv_pos_site_id
 _symmetry_equiv_pos_as_xyz
  1  'x, y, z'
loop_
 _atom_site_type_symbol
 _atom_site_label
 _atom_site_symmetry_multiplicity
 _atom_site_fract_x
 _atom_site_fract_y
 _atom_site_fract_z
 _atom_site_occupancy
  Tb  Tb0  1  0.49565000  0.23294000  0.19405000  1.0
  Tb  Tb1  1  0.26230000  0.76687000  0.30596000  1.0
  Tb  Tb2  1  0.50435000  0.76706000  0.80595000  1.0
  Tb  Tb3  1  0.73769000  0.23313000  0.69404000  1.0
  H  H4  1  0.77647000  0.56926000  0.59892000  1.0
  H  H5  1  0.20708000  0.43074000  0.90101000  1.0
  H  H6  1  0.22353000  0.43074000  0.40108000  1.0
  H  H7  1  0.79291000  0.56925000  0.09899000  1.0
  H  H8  1  0.57935000  0.33704000  0.49104000  1.0
  H  H9  1  0.24146000  0.66285000  0.00896000  1.0
  H  H10  1  0.42065000  0.66296000  0.50895000  1.0
  H  H11  1  0.75853000  0.33714000  0.99105000  1.0
  H  H12  1  0.81348000  0.11083000  0.18480000  1.0
  H  H13  1  0.70226000  0.88905000  0.31535000  1.0
  H  H14  1  0.18652000  0.88917000  0.81521000  1.0
  H  H15  1  0.29774000  0.11095000  0.68466000  1.0
  H  H16  1  0.83768000  0.17970000  0.30450000  1.0
  H  H17  1  0.65761000  0.82003000  0.19566000  1.0
  H  H18  1  0.16232000  0.82030000  0.69550000  1.0
  H  H19  1  0.34239000  0.17998000  0.80434000  1.0
  H  H20  1  0.32533000  0.09265000  0.33719000  1.0
  H  H21  1  0.23252000  0.90728000  0.16274000  1.0
  H  H22  1  0.67466000  0.90735000  0.66281000  1.0
  H  H23  1  0.76748000  0.09271000  0.83726000  1.0
  H  H24  1  0.19562000  0.18642000  0.34070000  1.0
  H  H25  1  0.00899000  0.81365000  0.15928000  1.0
  H  H26  1  0.80439000  0.81358000  0.65930000  1.0
  H  H27  1  0.99101000  0.18635000  0.84072000  1.0
  C  C28  1  0.81422000  0.52593000  0.25890000  1.0
  C  C29  1  0.28830000  0.47386000  0.24097000  1.0
  C  C30  1  0.18579000  0.47408000  0.74111000  1.0
  C  C31  1  0.71170000  0.52614000  0.75903000  1.0
  C  C32  1  0.41172000  0.95411000  0.01702000  1.0
  C  C33  1  0.45786000  0.04595000  0.48289000  1.0
  C  C34  1  0.58830000  0.04591000  0.98299000  1.0
  C  C35  1  0.54212000  0.95406000  0.51711000  1.0
  C  C36  1  0.66164000  0.41124000  0.46138000  1.0
  C  C37  1  0.24969000  0.58862000  0.03858000  1.0
  C  C38  1  0.33837000  0.58876000  0.53862000  1.0
  C  C39  1  0.75031000  0.41138000  0.96143000  1.0
  C  C40  1  0.79187000  0.51507000  0.36077000  1.0
  C  C41  1  0.27658000  0.48477000  0.13914000  1.0
  C  C42  1  0.20814000  0.48493000  0.63922000  1.0
  C  C43  1  0.72342000  0.51523000  0.86086000  1.0
  C  C44  1  0.99082000  0.73708000  0.50558000  1.0
  C  C45  1  0.25433000  0.26289000  0.99430000  1.0
  C  C46  1  0.00918000  0.26293000  0.49442000  1.0
  C  C47  1  0.74566000  0.73710000  0.00570000  1.0
  C  C48  1  0.85508000  0.60211000  0.46002000  1.0
  C  C49  1  0.25310000  0.39780000  0.03989000  1.0
  C  C50  1  0.14492000  0.39788000  0.53998000  1.0
  C  C51  1  0.74690000  0.60220000  0.96011000  1.0
  N  N52  1  0.67219000  0.39757000  0.36385000  1.0
  N  N53  1  0.27396000  0.60223000  0.13608000  1.0
  N  N54  1  0.32782000  0.60243000  0.63615000  1.0
  N  N55  1  0.72604000  0.39777000  0.86392000  1.0
  N  N56  1  0.76916000  0.53313000  0.52091000  1.0
  N  N57  1  0.23582000  0.46680000  0.97904000  1.0
  N  N58  1  0.23084000  0.46687000  0.47909000  1.0
  N  N59  1  0.76418000  0.53319000  0.02097000  1.0
  O  O60  1  0.36758000  0.00202000  0.10658000  1.0
  O  O61  1  0.36561000  0.99798000  0.39336000  1.0
  O  O62  1  0.63245000  0.99799000  0.89341000  1.0
  O  O63  1  0.63437000  0.00202000  0.60664000  1.0
  O  O64  1  0.71481000  0.42494000  0.18444000  1.0
  O  O65  1  0.28993000  0.57485000  0.31547000  1.0
  O  O66  1  0.28519000  0.57506000  0.81556000  1.0
  O  O67  1  0.71007000  0.42516000  0.68453000  1.0
  O  O68  1  0.92076000  0.62892000  0.24611000  1.0
  O  O69  1  0.29189000  0.37080000  0.25369000  1.0
  O  O70  1  0.07924000  0.37109000  0.75389000  1.0
  O  O71  1  0.70812000  0.62921000  0.74631000  1.0
  O  O72  1  0.99861000  0.79052000  0.60153000  1.0
  O  O73  1  0.20877000  0.20957000  0.89833000  1.0
  O  O74  1  0.00139000  0.20948000  0.39847000  1.0
  O  O75  1  0.79122000  0.79043000  0.10166000  1.0
  O  O76  1  0.32723000  0.84166000  0.95489000  1.0
  O  O77  1  0.48638000  0.15855000  0.54487000  1.0
  O  O78  1  0.67276000  0.15833000  0.04510000  1.0
  O  O79  1  0.51360000  0.84145000  0.45514000  1.0
  O  O80  1  0.09397000  0.79120000  0.44915000  1.0
  O  O81  1  0.30347000  0.20869000  0.05066000  1.0
  O  O82  1  0.90602000  0.20880000  0.55085000  1.0
  O  O83  1  0.69654000  0.79132000  0.94934000  1.0
  O  O84  1  0.75370000  0.16013000  0.23980000  1.0
  O  O85  1  0.59325000  0.83932000  0.26037000  1.0
  O  O86  1  0.24630000  0.83987000  0.76021000  1.0
  O  O87  1  0.40675000  0.16069000  0.73963000  1.0
  O  O88  1  0.30478000  0.15476000  0.30562000  1.0
  O  O89  1  0.14987000  0.84517000  0.19429000  1.0
  O  O90  1  0.69522000  0.84524000  0.69438000  1.0
  O  O91  1  0.85013000  0.15482000  0.80571000  1.0
