# generated using pymatgen
data_ZnH11C15(NO2)2
_symmetry_space_group_name_H-M   'P 1'
_cell_length_a   9.22551000
_cell_length_b   10.33000000
_cell_length_c   14.22190000
_cell_angle_alpha   98.60960000
_cell_angle_beta   89.99990000
_cell_angle_gamma   90.00000000
_symmetry_Int_Tables_number   1
_chemical_formula_structural   ZnH11C15(NO2)2
_chemical_formula_sum   'Zn4 H44 C60 N8 O16'
_cell_volume   1340.06731362
_cell_formula_units_Z   4
loop_
 _symmetry_equiv_pos_site_id
 _symmetry_equiv_pos_as_xyz
  1  'x, y, z'
loop_
 _atom_site_type_symbol
 _atom_site_label
 _atom_site_symmetry_multiplicity
 _atom_site_fract_x
 _atom_site_fract_y
 _atom_site_fract_z
 _atom_site_occupancy
  Zn  Zn0  1  0.85364000  0.06768000  0.08312000  1.0
  Zn  Zn1  1  0.35365000  0.93232000  0.41688000  1.0
  Zn  Zn2  1  0.14636000  0.93232000  0.91688000  1.0
  Zn  Zn3  1  0.64636000  0.06768000  0.58312000  1.0
  H  H4  1  0.76350000  0.96539000  0.86614000  1.0
  H  H5  1  0.26350000  0.03461000  0.63386000  1.0
  H  H6  1  0.23650000  0.03461000  0.13386000  1.0
  H  H7  1  0.73650000  0.96539000  0.36614000  1.0
  H  H8  1  0.35591000  0.58704000  0.40980000  1.0
  H  H9  1  0.85591000  0.41296000  0.09020000  1.0
  H  H10  1  0.64409000  0.41296000  0.59020000  1.0
  H  H11  1  0.14409000  0.58704000  0.90980000  1.0
  H  H12  1  0.72684000  0.51594000  0.90795000  1.0
  H  H13  1  0.22684000  0.48405000  0.59205000  1.0
  H  H14  1  0.27316000  0.48405000  0.09205000  1.0
  H  H15  1  0.77316000  0.51595000  0.40795000  1.0
  H  H16  1  0.66135000  0.44278000  0.18973000  1.0
  H  H17  1  0.16135000  0.55722000  0.31027000  1.0
  H  H18  1  0.33865000  0.55722000  0.81027000  1.0
  H  H19  1  0.83865000  0.44278000  0.68973000  1.0
  H  H20  1  0.37036000  0.37298000  0.47061000  1.0
  H  H21  1  0.87036000  0.62703000  0.02939000  1.0
  H  H22  1  0.62964000  0.62703000  0.52939000  1.0
  H  H23  1  0.12964000  0.37297000  0.97061000  1.0
  H  H24  1  0.49868000  0.62123000  0.26789000  1.0
  H  H25  1  0.99868000  0.37877000  0.23211000  1.0
  H  H26  1  0.50132000  0.37877000  0.73211000  1.0
  H  H27  1  0.00132000  0.62123000  0.76789000  1.0
  H  H28  1  0.51460000  0.86753000  0.17281000  1.0
  H  H29  1  0.01460000  0.13247000  0.32719000  1.0
  H  H30  1  0.48540000  0.13247000  0.82719000  1.0
  H  H31  1  0.98540000  0.86754000  0.67281000  1.0
  H  H32  1  0.69940000  0.91080000  0.19417000  1.0
  H  H33  1  0.19941000  0.08920000  0.30583000  1.0
  H  H34  1  0.30059000  0.08920000  0.80583000  1.0
  H  H35  1  0.80059000  0.91080000  0.69417000  1.0
  H  H36  1  0.64839000  0.74276000  0.17045000  1.0
  H  H37  1  0.14839000  0.25724000  0.32955000  1.0
  H  H38  1  0.35161000  0.25724000  0.82955000  1.0
  H  H39  1  0.85161000  0.74276000  0.67045000  1.0
  H  H40  1  0.63254000  0.72043000  0.82412000  1.0
  H  H41  1  0.13254000  0.27957000  0.67588000  1.0
  H  H42  1  0.36746000  0.27957000  0.17588000  1.0
  H  H43  1  0.86746000  0.72042000  0.32412000  1.0
  H  H44  1  0.63137000  0.29690000  0.92965000  1.0
  H  H45  1  0.13137000  0.70310000  0.57035000  1.0
  H  H46  1  0.36863000  0.70310000  0.07035000  1.0
  H  H47  1  0.86863000  0.29690000  0.42965000  1.0
  C  C48  1  0.71555000  0.20860000  0.24393000  1.0
  C  C49  1  0.21555000  0.79140000  0.25607000  1.0
  C  C50  1  0.28445000  0.79141000  0.75607000  1.0
  C  C51  1  0.78445000  0.20860000  0.74393000  1.0
  C  C52  1  0.72014000  0.90112000  0.91282000  1.0
  C  C53  1  0.22014000  0.09888000  0.58718000  1.0
  C  C54  1  0.27986000  0.09888000  0.08718000  1.0
  C  C55  1  0.77986000  0.90112000  0.41282000  1.0
  C  C56  1  0.42380000  0.50823000  0.37417000  1.0
  C  C57  1  0.92380000  0.49177000  0.12583000  1.0
  C  C58  1  0.57620000  0.49177000  0.62583000  1.0
  C  C59  1  0.07620000  0.50823000  0.87417000  1.0
  C  C60  1  0.62697000  0.50825000  0.94769000  1.0
  C  C61  1  0.12697000  0.49175000  0.55231000  1.0
  C  C62  1  0.37303000  0.49175000  0.05231000  1.0
  C  C63  1  0.87303000  0.50825000  0.44769000  1.0
  C  C64  1  0.52360000  0.16349000  0.40748000  1.0
  C  C65  1  0.02360000  0.83651000  0.09252000  1.0
  C  C66  1  0.47640000  0.83651000  0.59252000  1.0
  C  C67  1  0.97640000  0.16349000  0.90748000  1.0
  C  C68  1  0.60784000  0.30946000  0.28646000  1.0
  C  C69  1  0.10784000  0.69054000  0.21354000  1.0
  C  C70  1  0.39216000  0.69054000  0.71354000  1.0
  C  C71  1  0.89216000  0.30946000  0.78646000  1.0
  C  C72  1  0.52353000  0.28867000  0.36512000  1.0
  C  C73  1  0.02353000  0.71133000  0.13488000  1.0
  C  C74  1  0.47647000  0.71133000  0.63488000  1.0
  C  C75  1  0.97647000  0.28867000  0.86512000  1.0
  C  C76  1  0.59629000  0.42892000  0.25129000  1.0
  C  C77  1  0.09629000  0.57108000  0.24871000  1.0
  C  C78  1  0.40371000  0.57108000  0.74871000  1.0
  C  C79  1  0.90371000  0.42892000  0.75129000  1.0
  C  C80  1  0.43256000  0.38882000  0.40832000  1.0
  C  C81  1  0.93256000  0.61119000  0.09168000  1.0
  C  C82  1  0.56744000  0.61119000  0.59168000  1.0
  C  C83  1  0.06744000  0.38881000  0.90832000  1.0
  C  C84  1  0.65192000  0.84232000  0.04918000  1.0
  C  C85  1  0.15193000  0.15768000  0.45082000  1.0
  C  C86  1  0.34807000  0.15768000  0.95082000  1.0
  C  C87  1  0.84808000  0.84232000  0.54918000  1.0
  C  C88  1  0.55368000  0.62146000  0.98840000  1.0
  C  C89  1  0.05368000  0.37854000  0.51160000  1.0
  C  C90  1  0.44632000  0.37854000  0.01160000  1.0
  C  C91  1  0.94632000  0.62145000  0.48840000  1.0
  C  C92  1  0.50561000  0.52807000  0.29488000  1.0
  C  C93  1  0.00561000  0.47193000  0.20512000  1.0
  C  C94  1  0.49439000  0.47193000  0.70512000  1.0
  C  C95  1  0.99439000  0.52807000  0.79488000  1.0
  C  C96  1  0.62692000  0.84057000  0.15205000  1.0
  C  C97  1  0.12692000  0.15943000  0.34795000  1.0
  C  C98  1  0.37308000  0.15943000  0.84795000  1.0
  C  C99  1  0.87308000  0.84057000  0.65205000  1.0
  C  C100  1  0.65612000  0.78129000  0.89109000  1.0
  C  C101  1  0.15612000  0.21871000  0.60891000  1.0
  C  C102  1  0.34388000  0.21871000  0.10891000  1.0
  C  C103  1  0.84388000  0.78129000  0.39109000  1.0
  C  C104  1  0.57358000  0.38573000  0.95949000  1.0
  C  C105  1  0.07358000  0.61427000  0.54051000  1.0
  C  C106  1  0.42642000  0.61427000  0.04051000  1.0
  C  C107  1  0.92642000  0.38573000  0.45949000  1.0
  N  N108  1  0.61291000  0.74519000  0.97719000  1.0
  N  N109  1  0.11291000  0.25481000  0.52281000  1.0
  N  N110  1  0.38709000  0.25481000  0.02281000  1.0
  N  N111  1  0.88709000  0.74519000  0.47719000  1.0
  N  N112  1  0.71811000  0.93715000  0.01075000  1.0
  N  N113  1  0.21812000  0.06285000  0.48925000  1.0
  N  N114  1  0.28188000  0.06285000  0.98925000  1.0
  N  N115  1  0.78189000  0.93715000  0.51075000  1.0
  O  O116  1  0.56001000  0.17692000  0.49468000  1.0
  O  O117  1  0.06002000  0.82307000  0.00532000  1.0
  O  O118  1  0.43999000  0.82308000  0.50532000  1.0
  O  O119  1  0.93999000  0.17692000  0.99468000  1.0
  O  O120  1  0.76871000  0.13105000  0.29417000  1.0
  O  O121  1  0.26871000  0.86895000  0.20583000  1.0
  O  O122  1  0.23129000  0.86895000  0.70583000  1.0
  O  O123  1  0.73129000  0.13105000  0.79417000  1.0
  O  O124  1  0.74820000  0.21237000  0.15566000  1.0
  O  O125  1  0.24820000  0.78762000  0.34434000  1.0
  O  O126  1  0.25180000  0.78763000  0.84434000  1.0
  O  O127  1  0.75180000  0.21238000  0.65566000  1.0
  O  O128  1  0.47587000  0.05917000  0.35775000  1.0
  O  O129  1  0.97587000  0.94083000  0.14225000  1.0
  O  O130  1  0.52413000  0.94083000  0.64225000  1.0
  O  O131  1  0.02413000  0.05917000  0.85775000  1.0
