# generated using pymatgen
data_CuSiH12C24N8(O4F3)2
_symmetry_space_group_name_H-M   'P 1'
_cell_length_a   7.88399000
_cell_length_b   13.78500000
_cell_length_c   13.78480000
_cell_angle_alpha   90.09630000
_cell_angle_beta   90.34900000
_cell_angle_gamma   89.64790000
_symmetry_Int_Tables_number   1
_chemical_formula_structural   CuSiH12C24N8(O4F3)2
_chemical_formula_sum   'Cu1 Si1 H12 C24 N8 O8 F6'
_cell_volume   1498.08501814
_cell_formula_units_Z   1
loop_
 _symmetry_equiv_pos_site_id
 _symmetry_equiv_pos_as_xyz
  1  'x, y, z'
loop_
 _atom_site_type_symbol
 _atom_site_label
 _atom_site_symmetry_multiplicity
 _atom_site_fract_x
 _atom_site_fract_y
 _atom_site_fract_z
 _atom_site_occupancy
  Cu  Cu0  1  0.49997000  0.50147000  0.50149000  1.0
  Si  Si1  1  0.99999000  0.50002000  0.50004000  1.0
  H  H2  1  0.76091000  0.65892000  0.50184000  1.0
  H  H3  1  0.76835000  0.83879000  0.49980000  1.0
  H  H4  1  0.23093000  0.65761000  0.50680000  1.0
  H  H5  1  0.76882000  0.34399000  0.50749000  1.0
  H  H6  1  0.23886000  0.34297000  0.50140000  1.0
  H  H7  1  0.23113000  0.16315000  0.49955000  1.0
  H  H8  1  0.76107000  0.50151000  0.34300000  1.0
  H  H9  1  0.76884000  0.49967000  0.16319000  1.0
  H  H10  1  0.23109000  0.50743000  0.34400000  1.0
  H  H11  1  0.76903000  0.50685000  0.65762000  1.0
  H  H12  1  0.23907000  0.50170000  0.65895000  1.0
  H  H13  1  0.23165000  0.49973000  0.83882000  1.0
  C  C14  1  0.64345000  0.70089000  0.50092000  1.0
  C  C15  1  0.64679000  0.80155000  0.49880000  1.0
  C  C16  1  0.49363000  0.85464000  0.49577000  1.0
  C  C17  1  0.34352000  0.79962000  0.49846000  1.0
  C  C18  1  0.34809000  0.69912000  0.50328000  1.0
  C  C19  1  0.49447000  0.95683000  0.49419000  1.0
  C  C20  1  0.50456000  0.04494000  0.49433000  1.0
  C  C21  1  0.50562000  0.14713000  0.49604000  1.0
  C  C22  1  0.65577000  0.20210000  0.49910000  1.0
  C  C23  1  0.65145000  0.30266000  0.50376000  1.0
  C  C24  1  0.35631000  0.30106000  0.50074000  1.0
  C  C25  1  0.35270000  0.20037000  0.49873000  1.0
  C  C26  1  0.64363000  0.50082000  0.30108000  1.0
  C  C27  1  0.64727000  0.49882000  0.20040000  1.0
  C  C28  1  0.49435000  0.49608000  0.14715000  1.0
  C  C29  1  0.34420000  0.49910000  0.20211000  1.0
  C  C30  1  0.34849000  0.50373000  0.30268000  1.0
  C  C31  1  0.49544000  0.49437000  0.04496000  1.0
  C  C32  1  0.50554000  0.49423000  0.95686000  1.0
  C  C33  1  0.50637000  0.49579000  0.85466000  1.0
  C  C34  1  0.65647000  0.49850000  0.79964000  1.0
  C  C35  1  0.65189000  0.50331000  0.69912000  1.0
  C  C36  1  0.35653000  0.50085000  0.70091000  1.0
  C  C37  1  0.35320000  0.49876000  0.80158000  1.0
  N  N38  1  0.49669000  0.65066000  0.50240000  1.0
  N  N39  1  0.50303000  0.35140000  0.50241000  1.0
  N  N40  1  0.49689000  0.50242000  0.35142000  1.0
  N  N41  1  0.50327000  0.50238000  0.65068000  1.0
  N  N42  1  0.17597000  0.84706000  0.49522000  1.0
  N  N43  1  0.82315000  0.15451000  0.49634000  1.0
  N  N44  1  0.17683000  0.49631000  0.15451000  1.0
  N  N45  1  0.82404000  0.49529000  0.84705000  1.0
  O  O46  1  0.15495000  0.91175000  0.43420000  1.0
  O  O47  1  0.06874000  0.81772000  0.55340000  1.0
  O  O48  1  0.84369000  0.09026000  0.43471000  1.0
  O  O49  1  0.93074000  0.18322000  0.55547000  1.0
  O  O50  1  0.15632000  0.43467000  0.09028000  1.0
  O  O51  1  0.06922000  0.55544000  0.18321000  1.0
  O  O52  1  0.84512000  0.43428000  0.91175000  1.0
  O  O53  1  0.93123000  0.55349000  0.81769000  1.0
  F  F54  1  0.78004000  0.50027000  0.49962000  1.0
  F  F55  1  0.21993000  0.49962000  0.50030000  1.0
  F  F56  1  0.99993000  0.58739000  0.58736000  1.0
  F  F57  1  0.00002000  0.41220000  0.41227000  1.0
  F  F58  1  0.99927000  0.58746000  0.41262000  1.0
  F  F59  1  0.00074000  0.41267000  0.58753000  1.0
