# generated using pymatgen
data_NaPH17C8SNClO
_symmetry_space_group_name_H-M   'P 1'
_cell_length_a   9.79000000
_cell_length_b   11.20290000
_cell_length_c   12.04740000
_cell_angle_alpha   100.73300000
_cell_angle_beta   90.00000000
_cell_angle_gamma   90.00000000
_symmetry_Int_Tables_number   1
_chemical_formula_structural   NaPH17C8SNClO
_chemical_formula_sum   'Na4 P4 H68 C32 S4 N4 Cl4 O4'
_cell_volume   1298.19986215
_cell_formula_units_Z   4
loop_
 _symmetry_equiv_pos_site_id
 _symmetry_equiv_pos_as_xyz
  1  'x, y, z'
loop_
 _atom_site_type_symbol
 _atom_site_label
 _atom_site_symmetry_multiplicity
 _atom_site_fract_x
 _atom_site_fract_y
 _atom_site_fract_z
 _atom_site_occupancy
  Na  Na0  1  0.75978000  0.34727000  0.14228000  1.0
  Na  Na1  1  0.20691000  0.17234000  0.86678000  1.0
  Na  Na2  1  0.29313000  0.67241000  0.86662000  1.0
  Na  Na3  1  0.74039000  0.84783000  0.14176000  1.0
  P  P4  1  0.56952000  0.60743000  0.03655000  1.0
  P  P5  1  0.06229000  0.90979000  0.96287000  1.0
  P  P6  1  0.43781000  0.40983000  0.96286000  1.0
  P  P7  1  0.93065000  0.10741000  0.03660000  1.0
  H  H8  1  0.52890000  0.50821000  0.26755000  1.0
  H  H9  1  0.00915000  0.99045000  0.70548000  1.0
  H  H10  1  0.49087000  0.49052000  0.70543000  1.0
  H  H11  1  0.97138000  0.00810000  0.26771000  1.0
  H  H12  1  0.43121000  0.37428000  0.21843000  1.0
  H  H13  1  0.91284000  0.12225000  0.76396000  1.0
  H  H14  1  0.58722000  0.62230000  0.76391000  1.0
  H  H15  1  0.06905000  0.87422000  0.21845000  1.0
  H  H16  1  0.37312000  0.48295000  0.33588000  1.0
  H  H17  1  0.84216000  0.01085000  0.65354000  1.0
  H  H18  1  0.65784000  0.51093000  0.65346000  1.0
  H  H19  1  0.12723000  0.98286000  0.33588000  1.0
  H  H20  1  0.27999000  0.68534000  0.30679000  1.0
  H  H21  1  0.77270000  0.80647000  0.69394000  1.0
  H  H22  1  0.72729000  0.30643000  0.69392000  1.0
  H  H23  1  0.22026000  0.18532000  0.30678000  1.0
  H  H24  1  0.27570000  0.72277000  0.16959000  1.0
  H  H25  1  0.78480000  0.77377000  0.83234000  1.0
  H  H26  1  0.71516000  0.27383000  0.83236000  1.0
  H  H27  1  0.22441000  0.22275000  0.16955000  1.0
  H  H28  1  0.43511000  0.71704000  0.23990000  1.0
  H  H29  1  0.93562000  0.78093000  0.75074000  1.0
  H  H30  1  0.56433000  0.28096000  0.75070000  1.0
  H  H31  1  0.06506000  0.21702000  0.23998000  1.0
  H  H32  1  0.14567000  0.49150000  0.23258000  1.0
  H  H33  1  0.63531000  0.99646000  0.77615000  1.0
  H  H34  1  0.86479000  0.49633000  0.77612000  1.0
  H  H35  1  0.35459000  0.99149000  0.23247000  1.0
  H  H36  1  0.20343000  0.39082000  0.11024000  1.0
  H  H37  1  0.70450000  0.10499000  0.88863000  1.0
  H  H38  1  0.79563000  0.60495000  0.88855000  1.0
  H  H39  1  0.29671000  0.89081000  0.11013000  1.0
  H  H40  1  0.13995000  0.53716000  0.10085000  1.0
  H  H41  1  0.65306000  0.96052000  0.91381000  1.0
  H  H42  1  0.84686000  0.46044000  0.91379000  1.0
  H  H43  1  0.36010000  0.03718000  0.10072000  1.0
  H  H44  1  0.62096000  0.23014000  0.35234000  1.0
  H  H45  1  0.11781000  0.27476000  0.64596000  1.0
  H  H46  1  0.38223000  0.77472000  0.64593000  1.0
  H  H47  1  0.87888000  0.73025000  0.35210000  1.0
  H  H48  1  0.62413000  0.34872000  0.47770000  1.0
  H  H49  1  0.12193000  0.14951000  0.52925000  1.0
  H  H50  1  0.37806000  0.64949000  0.52925000  1.0
  H  H51  1  0.87552000  0.84906000  0.47735000  1.0
  H  H52  1  0.84669000  0.16434000  0.38588000  1.0
  H  H53  1  0.34997000  0.33412000  0.60856000  1.0
  H  H54  1  0.15008000  0.83417000  0.60860000  1.0
  H  H55  1  0.65317000  0.66440000  0.38559000  1.0
  H  H56  1  0.79168000  0.20293000  0.52882000  1.0
  H  H57  1  0.29029000  0.28804000  0.46741000  1.0
  H  H58  1  0.20974000  0.78805000  0.46740000  1.0
  H  H59  1  0.70809000  0.70319000  0.52854000  1.0
  H  H60  1  0.92401000  0.38533000  0.56088000  1.0
  H  H61  1  0.40670000  0.09728000  0.44571000  1.0
  H  H62  1  0.09332000  0.59729000  0.44579000  1.0
  H  H63  1  0.57573000  0.88557000  0.56039000  1.0
  H  H64  1  0.01680000  0.31512000  0.43993000  1.0
  H  H65  1  0.51558000  0.17887000  0.55008000  1.0
  H  H66  1  0.98446000  0.67890000  0.55005000  1.0
  H  H67  1  0.48288000  0.81507000  0.43957000  1.0
  H  H68  1  0.81455000  0.51853000  0.46268000  1.0
  H  H69  1  0.32940000  0.97933000  0.57400000  1.0
  H  H70  1  0.17047000  0.47935000  0.57413000  1.0
  H  H71  1  0.68475000  0.01871000  0.46180000  1.0
  H  H72  1  0.92242000  0.46930000  0.34403000  1.0
  H  H73  1  0.43164000  0.06379000  0.68423000  1.0
  H  H74  1  0.06831000  0.56396000  0.68436000  1.0
  H  H75  1  0.57700000  0.96891000  0.34322000  1.0
  C  C76  1  0.34434000  0.53912000  0.17434000  1.0
  C  C77  1  0.84341000  0.95780000  0.81836000  1.0
  C  C78  1  0.65659000  0.45782000  0.81827000  1.0
  C  C79  1  0.15586000  0.03909000  0.17435000  1.0
  C  C80  1  0.42470000  0.47196000  0.25340000  1.0
  C  C81  1  0.90617000  0.02448000  0.72987000  1.0
  C  C82  1  0.59385000  0.52454000  0.72980000  1.0
  C  C83  1  0.07558000  0.97190000  0.25344000  1.0
  C  C84  1  0.33374000  0.67463000  0.22550000  1.0
  C  C85  1  0.83433000  0.82130000  0.77148000  1.0
  C  C86  1  0.66564000  0.32131000  0.77144000  1.0
  C  C87  1  0.16644000  0.17461000  0.22550000  1.0
  C  C88  1  0.20091000  0.48631000  0.15253000  1.0
  C  C89  1  0.70048000  0.00785000  0.85174000  1.0
  C  C90  1  0.79954000  0.50780000  0.85168000  1.0
  C  C91  1  0.29928000  0.98628000  0.15247000  1.0
  C  C92  1  0.68516000  0.29589000  0.40801000  1.0
  C  C93  1  0.18397000  0.20614000  0.59573000  1.0
  C  C94  1  0.31604000  0.70610000  0.59574000  1.0
  C  C95  1  0.81460000  0.79606000  0.40766000  1.0
  C  C96  1  0.81130000  0.23932000  0.45174000  1.0
  C  C97  1  0.31024000  0.25710000  0.54712000  1.0
  C  C98  1  0.18978000  0.75711000  0.54714000  1.0
  C  C99  1  0.68845000  0.73949000  0.45142000  1.0
  C  C100  1  0.91478000  0.34521000  0.47077000  1.0
  C  C101  1  0.40993000  0.14902000  0.53249000  1.0
  C  C102  1  0.09007000  0.64905000  0.53252000  1.0
  C  C103  1  0.58490000  0.84526000  0.47030000  1.0
  C  C104  1  0.85371000  0.43796000  0.40460000  1.0
  C  C105  1  0.35807000  0.07137000  0.61698000  1.0
  C  C106  1  0.14186000  0.57144000  0.61704000  1.0
  C  C107  1  0.64583000  0.93789000  0.40390000  1.0
  S  S108  1  0.52563000  0.75998000  0.97594000  1.0
  S  S109  1  0.05241000  0.74391000  0.98901000  1.0
  S  S110  1  0.44769000  0.24398000  0.98904000  1.0
  S  S111  1  0.97438000  0.25996000  0.97593000  1.0
  N  N112  1  0.41476000  0.52889000  0.06365000  1.0
  N  N113  1  0.92840000  0.97814000  0.92187000  1.0
  N  N114  1  0.57164000  0.47819000  0.92180000  1.0
  N  N115  1  0.08537000  0.02884000  0.06368000  1.0
  Cl  Cl116  1  0.85915000  0.58067000  0.17046000  1.0
  Cl  Cl117  1  0.23360000  0.91863000  0.84035000  1.0
  Cl  Cl118  1  0.26662000  0.41854000  0.84033000  1.0
  Cl  Cl119  1  0.64137000  0.08146000  0.17007000  1.0
  O  O120  1  0.74104000  0.37739000  0.34032000  1.0
  O  O121  1  0.23826000  0.13206000  0.67114000  1.0
  O  O122  1  0.26180000  0.63210000  0.67113000  1.0
  O  O123  1  0.75865000  0.87734000  0.33980000  1.0
