# generated using pymatgen
data_NiH16C14(NO)4
_symmetry_space_group_name_H-M   'P 1'
_cell_length_a   8.38232000
_cell_length_b   8.42159000
_cell_length_c   11.79110000
_cell_angle_alpha   89.99980000
_cell_angle_beta   89.99740000
_cell_angle_gamma   66.80000000
_symmetry_Int_Tables_number   1
_chemical_formula_structural   NiH16C14(NO)4
_chemical_formula_sum   'Ni2 H32 C28 N8 O8'
_cell_volume   765.05404722
_cell_formula_units_Z   2
loop_
 _symmetry_equiv_pos_site_id
 _symmetry_equiv_pos_as_xyz
  1  'x, y, z'
loop_
 _atom_site_type_symbol
 _atom_site_label
 _atom_site_symmetry_multiplicity
 _atom_site_fract_x
 _atom_site_fract_y
 _atom_site_fract_z
 _atom_site_occupancy
  Ni  Ni0  1  0.99999000  0.00001000  0.50000000  1.0
  Ni  Ni1  1  0.50000000  0.49999000  0.00000000  1.0
  H  H2  1  0.14345000  0.38162000  0.22397000  1.0
  H  H3  1  0.35657000  0.11838000  0.72398000  1.0
  H  H4  1  0.85655000  0.61838000  0.77603000  1.0
  H  H5  1  0.64343000  0.88162000  0.27602000  1.0
  H  H6  1  0.07608000  0.68177000  0.35265000  1.0
  H  H7  1  0.42394000  0.81823000  0.85264000  1.0
  H  H8  1  0.92391000  0.31824000  0.64735000  1.0
  H  H9  1  0.57608000  0.18175000  0.14735000  1.0
  H  H10  1  0.16752000  0.92387000  0.27087000  1.0
  H  H11  1  0.33248000  0.57613000  0.77088000  1.0
  H  H12  1  0.83248000  0.07614000  0.72913000  1.0
  H  H13  1  0.66752000  0.42386000  0.22912000  1.0
  H  H14  1  0.20984000  0.05665000  0.16683000  1.0
  H  H15  1  0.29017000  0.44335000  0.66684000  1.0
  H  H16  1  0.79017000  0.94335000  0.83317000  1.0
  H  H17  1  0.70984000  0.55665000  0.33315000  1.0
  H  H18  1  0.99593000  0.06444000  0.18425000  1.0
  H  H19  1  0.50408000  0.43556000  0.68425000  1.0
  H  H20  1  0.00408000  0.93556000  0.81575000  1.0
  H  H21  1  0.49592000  0.56444000  0.31574000  1.0
  H  H22  1  0.55061000  0.69775000  0.63172000  1.0
  H  H23  1  0.94941000  0.80224000  0.13172000  1.0
  H  H24  1  0.44936000  0.30224000  0.36829000  1.0
  H  H25  1  0.05060000  0.19777000  0.86829000  1.0
  H  H26  1  0.58861000  0.88644000  0.60381000  1.0
  H  H27  1  0.91142000  0.61356000  0.10381000  1.0
  H  H28  1  0.41139000  0.11355000  0.39620000  1.0
  H  H29  1  0.08858000  0.38646000  0.89620000  1.0
  H  H30  1  0.56966000  0.75520000  0.48906000  1.0
  H  H31  1  0.93040000  0.74479000  0.98906000  1.0
  H  H32  1  0.43033000  0.24478000  0.51095000  1.0
  H  H33  1  0.06960000  0.25524000  0.01095000  1.0
  C  C34  1  0.04725000  0.44092000  0.39252000  1.0
  C  C35  1  0.45274000  0.05908000  0.89252000  1.0
  C  C36  1  0.95272000  0.55910000  0.60748000  1.0
  C  C37  1  0.54728000  0.94090000  0.10747000  1.0
  C  C38  1  0.00489000  0.33852000  0.47409000  1.0
  C  C39  1  0.49511000  0.16148000  0.97410000  1.0
  C  C40  1  0.99510000  0.66149000  0.52590000  1.0
  C  C41  1  0.50490000  0.83851000  0.02589000  1.0
  C  C42  1  0.04461000  0.60415000  0.41542000  1.0
  C  C43  1  0.45540000  0.89585000  0.91542000  1.0
  C  C44  1  0.95538000  0.39586000  0.58458000  1.0
  C  C45  1  0.54460000  0.10414000  0.08458000  1.0
  C  C46  1  0.07891000  0.18890000  0.31540000  1.0
  C  C47  1  0.42109000  0.31110000  0.81541000  1.0
  C  C48  1  0.92108000  0.81110000  0.68460000  1.0
  C  C49  1  0.57891000  0.68889000  0.18459000  1.0
  C  C50  1  0.11559000  0.05055000  0.22940000  1.0
  C  C51  1  0.38441000  0.44945000  0.72941000  1.0
  C  C52  1  0.88441000  0.94945000  0.77060000  1.0
  C  C53  1  0.61559000  0.55055000  0.27058000  1.0
  C  C54  1  0.52093000  0.80703000  0.57297000  1.0
  C  C55  1  0.97910000  0.69297000  0.07297000  1.0
  C  C56  1  0.47906000  0.19296000  0.42704000  1.0
  C  C57  1  0.02091000  0.30705000  0.92704000  1.0
  C  C58  1  0.32727000  0.91078000  0.57241000  1.0
  C  C59  1  0.17275000  0.58922000  0.07240000  1.0
  C  C60  1  0.67272000  0.08923000  0.42759000  1.0
  C  C61  1  0.82725000  0.41078000  0.92760000  1.0
  N  N62  1  0.09055000  0.34272000  0.29453000  1.0
  N  N63  1  0.40946000  0.15728000  0.79453000  1.0
  N  N64  1  0.90945000  0.65728000  0.70547000  1.0
  N  N65  1  0.59056000  0.84272000  0.20547000  1.0
  N  N66  1  0.02736000  0.18258000  0.42236000  1.0
  N  N67  1  0.47263000  0.31742000  0.92237000  1.0
  N  N68  1  0.97263000  0.81742000  0.57763000  1.0
  N  N69  1  0.52738000  0.68257000  0.07763000  1.0
  O  O70  1  0.25696000  0.02585000  0.64582000  1.0
  O  O71  1  0.24308000  0.47413000  0.14580000  1.0
  O  O72  1  0.74303000  0.97416000  0.35418000  1.0
  O  O73  1  0.75692000  0.52586000  0.85419000  1.0
  O  O74  1  0.24151000  0.87044000  0.49423000  1.0
  O  O75  1  0.25850000  0.62958000  0.99422000  1.0
  O  O76  1  0.75847000  0.12956000  0.50577000  1.0
  O  O77  1  0.74151000  0.37042000  0.00577000  1.0
