# generated using pymatgen
data_ZnH16C22(SN)6
_symmetry_space_group_name_H-M   'P 1'
_cell_length_a   9.03986000
_cell_length_b   10.25540000
_cell_length_c   10.29640000
_cell_angle_alpha   104.72200000
_cell_angle_beta   96.87160000
_cell_angle_gamma   108.64600000
_symmetry_Int_Tables_number   1
_chemical_formula_structural   ZnH16C22(SN)6
_chemical_formula_sum   'Zn1 H16 C22 S6 N6'
_cell_volume   853.47870012
_cell_formula_units_Z   1
loop_
 _symmetry_equiv_pos_site_id
 _symmetry_equiv_pos_as_xyz
  1  'x, y, z'
loop_
 _atom_site_type_symbol
 _atom_site_label
 _atom_site_symmetry_multiplicity
 _atom_site_fract_x
 _atom_site_fract_y
 _atom_site_fract_z
 _atom_site_occupancy
  Zn  Zn0  1  0.00000000  0.00000000  0.00000000  1.0
  H  H1  1  0.03888000  0.20104000  0.29708000  1.0
  H  H2  1  0.96113000  0.79896000  0.70292000  1.0
  H  H3  1  0.23843000  0.33333333  0.52076000  1.0
  H  H4  1  0.76157000  0.66666667  0.47924000  1.0
  H  H5  1  0.21554000  0.98040000  0.78228000  1.0
  H  H6  1  0.78446000  0.01960000  0.21773000  1.0
  H  H7  1  0.36085000  0.04790000  0.11621000  1.0
  H  H8  1  0.63915000  0.95210000  0.88379000  1.0
  H  H9  1  0.57576000  0.17941000  0.32512000  1.0
  H  H10  1  0.42424000  0.82059000  0.67488000  1.0
  H  H11  1  0.12433000  0.32084000  0.02583000  1.0
  H  H12  1  0.87566000  0.67917000  0.97416000  1.0
  H  H13  1  0.39727000  0.14135000  0.67598000  1.0
  H  H14  1  0.60272000  0.85865000  0.32401000  1.0
  H  H15  1  0.30557000  0.49944000  0.93499000  1.0
  H  H16  1  0.69442000  0.50056000  0.06500000  1.0
  C  C17  1  0.42295000  0.26441000  0.44258000  1.0
  C  C18  1  0.57706000  0.73559000  0.55742000  1.0
  C  C19  1  0.78456000  0.19082000  0.04540000  1.0
  C  C20  1  0.21543000  0.80918000  0.95459000  1.0
  C  C21  1  0.15787000  0.19512000  0.30989000  1.0
  C  C22  1  0.84214000  0.80488000  0.69011000  1.0
  C  C23  1  0.26957000  0.27004000  0.43368000  1.0
  C  C24  1  0.73043000  0.72997000  0.56633000  1.0
  C  C25  1  0.23609000  0.09568000  0.81057000  1.0
  C  C26  1  0.76390000  0.90432000  0.18944000  1.0
  C  C27  1  0.33634000  0.11073000  0.20768000  1.0
  C  C28  1  0.66367000  0.88927000  0.79232000  1.0
  C  C29  1  0.45697000  0.18379000  0.32617000  1.0
  C  C30  1  0.54303000  0.81622000  0.67383000  1.0
  C  C31  1  0.18784000  0.28616000  0.94830000  1.0
  C  C32  1  0.81216000  0.71384000  0.05170000  1.0
  C  C33  1  0.33788000  0.18565000  0.75210000  1.0
  C  C34  1  0.66212000  0.81435000  0.24789000  1.0
  C  C35  1  0.28881000  0.38491000  0.89734000  1.0
  C  C36  1  0.71118000  0.61509000  0.10266000  1.0
  C  C37  1  0.36537000  0.33357000  0.79631000  1.0
  C  C38  1  0.63463000  0.66642000  0.20369000  1.0
  S  S39  1  0.57905000  0.35087000  0.59200000  1.0
  S  S40  1  0.42096000  0.64913000  0.40800000  1.0
  S  S41  1  0.62915000  0.23362000  0.01928000  1.0
  S  S42  1  0.37084000  0.76637000  0.98071000  1.0
  S  S43  1  0.48946000  0.46416000  0.73273000  1.0
  S  S44  1  0.51054000  0.53583000  0.26728000  1.0
  N  N45  1  0.89639000  0.15478000  0.06298000  1.0
  N  N46  1  0.10360000  0.84522000  0.93702000  1.0
  N  N47  1  0.18840000  0.11496000  0.19850000  1.0
  N  N48  1  0.81161000  0.88505000  0.80150000  1.0
  N  N49  1  0.16053000  0.14349000  0.90615000  1.0
  N  N50  1  0.83946000  0.85651000  0.09385000  1.0
