# generated using pymatgen
data_KH5C3N8O3
_symmetry_space_group_name_H-M   'P 1'
_cell_length_a   6.96202000
_cell_length_b   7.62250000
_cell_length_c   18.27040000
_cell_angle_alpha   90.00010000
_cell_angle_beta   90.00000000
_cell_angle_gamma   112.02800000
_symmetry_Int_Tables_number   1
_chemical_formula_structural   KH5C3N8O3
_chemical_formula_sum   'K4 H20 C12 N32 O12'
_cell_volume   898.79532810
_cell_formula_units_Z   4
loop_
 _symmetry_equiv_pos_site_id
 _symmetry_equiv_pos_as_xyz
  1  'x, y, z'
loop_
 _atom_site_type_symbol
 _atom_site_label
 _atom_site_symmetry_multiplicity
 _atom_site_fract_x
 _atom_site_fract_y
 _atom_site_fract_z
 _atom_site_occupancy
  K  K0  1  0.92450000  0.84756000  0.75000000  1.0
  K  K1  1  0.07550000  0.15244000  0.25000000  1.0
  K  K2  1  0.34518000  0.62992000  0.75000000  1.0
  K  K3  1  0.65482000  0.37007000  0.25000000  1.0
  H  H4  1  0.67323000  0.59375000  0.61439000  1.0
  H  H5  1  0.32677000  0.40625000  0.11439000  1.0
  H  H6  1  0.32677000  0.40625000  0.38561000  1.0
  H  H7  1  0.67323000  0.59375000  0.88561000  1.0
  H  H8  1  0.67314000  0.79794000  0.59885000  1.0
  H  H9  1  0.32686000  0.20206000  0.09885000  1.0
  H  H10  1  0.32686000  0.20206000  0.40115000  1.0
  H  H11  1  0.67314000  0.79794000  0.90115000  1.0
  H  H12  1  0.86453000  0.39125000  0.70760000  1.0
  H  H13  1  0.13547000  0.60875000  0.20760000  1.0
  H  H14  1  0.13547000  0.60875000  0.29240000  1.0
  H  H15  1  0.86453000  0.39125000  0.79240000  1.0
  H  H16  1  0.62359000  0.08493000  0.70677000  1.0
  H  H17  1  0.37641000  0.91507000  0.20677000  1.0
  H  H18  1  0.37640000  0.91506000  0.29323000  1.0
  H  H19  1  0.62359000  0.08493000  0.79323000  1.0
  H  H20  1  0.23944000  0.47473000  0.95602000  1.0
  H  H21  1  0.76056000  0.52527000  0.45602000  1.0
  H  H22  1  0.76056000  0.52526000  0.04398000  1.0
  H  H23  1  0.23944000  0.47474000  0.54398000  1.0
  C  C24  1  0.24758000  0.81546000  0.00040000  1.0
  C  C25  1  0.75242000  0.18454000  0.50040000  1.0
  C  C26  1  0.75242000  0.18453000  0.99960000  1.0
  C  C27  1  0.24758000  0.81547000  0.49960000  1.0
  C  C28  1  0.20846000  0.87584000  0.92712000  1.0
  C  C29  1  0.79155000  0.12416000  0.42712000  1.0
  C  C30  1  0.79156000  0.12417000  0.07289000  1.0
  C  C31  1  0.20843000  0.87583000  0.57289000  1.0
  C  C32  1  0.20748000  0.06726000  0.91623000  1.0
  C  C33  1  0.79252000  0.93274000  0.41623000  1.0
  C  C34  1  0.79252000  0.93273000  0.08377000  1.0
  C  C35  1  0.20749000  0.06728000  0.58377000  1.0
  N  N36  1  0.25461000  0.64248000  0.01081000  1.0
  N  N37  1  0.74539000  0.35752000  0.51081000  1.0
  N  N38  1  0.74539000  0.35752000  0.98919000  1.0
  N  N39  1  0.25461000  0.64248000  0.48919000  1.0
  N  N40  1  0.28929000  0.63066000  0.08158000  1.0
  N  N41  1  0.71070000  0.36934000  0.58158000  1.0
  N  N42  1  0.71071000  0.36934000  0.91842000  1.0
  N  N43  1  0.28929000  0.63066000  0.41842000  1.0
  N  N44  1  0.30251000  0.79219000  0.11402000  1.0
  N  N45  1  0.69749000  0.20781000  0.61402000  1.0
  N  N46  1  0.69749000  0.20781000  0.88598000  1.0
  N  N47  1  0.30251000  0.79218000  0.38598000  1.0
  N  N48  1  0.27730000  0.91054000  0.06442000  1.0
  N  N49  1  0.72271000  0.08946000  0.56442000  1.0
  N  N50  1  0.72270000  0.08946000  0.93558000  1.0
  N  N51  1  0.27730000  0.91054000  0.43558000  1.0
  N  N52  1  0.23333000  0.19944000  0.96791000  1.0
  N  N53  1  0.76667000  0.80056000  0.46791000  1.0
  N  N54  1  0.76666000  0.80055000  0.03209000  1.0
  N  N55  1  0.23334000  0.19945000  0.53209000  1.0
  N  N56  1  0.22536000  0.34248000  0.92933000  1.0
  N  N57  1  0.77464000  0.65752000  0.42933000  1.0
  N  N58  1  0.77464000  0.65751000  0.07067000  1.0
  N  N59  1  0.22536000  0.34249000  0.57067000  1.0
  N  N60  1  0.19582000  0.30616000  0.85785000  1.0
  N  N61  1  0.80418000  0.69383000  0.35785000  1.0
  N  N62  1  0.80418000  0.69383000  0.14215000  1.0
  N  N63  1  0.19582000  0.30617000  0.64215000  1.0
  N  N64  1  0.18350000  0.13141000  0.84863000  1.0
  N  N65  1  0.81650000  0.86858000  0.34864000  1.0
  N  N66  1  0.81650000  0.86858000  0.15136000  1.0
  N  N67  1  0.18350000  0.13142000  0.65136000  1.0
  O  O68  1  0.64577000  0.70003000  0.63665000  1.0
  O  O69  1  0.35423000  0.29997000  0.13665000  1.0
  O  O70  1  0.35423000  0.29997000  0.36335000  1.0
  O  O71  1  0.64577000  0.70003000  0.86335000  1.0
  O  O72  1  0.90375000  0.47529000  0.75000000  1.0
  O  O73  1  0.09625000  0.52471000  0.25000000  1.0
  O  O74  1  0.17769000  0.76671000  0.87446000  1.0
  O  O75  1  0.82232000  0.23329000  0.37446000  1.0
  O  O76  1  0.82232000  0.23327000  0.12553000  1.0
  O  O77  1  0.17767000  0.76672000  0.62553000  1.0
  O  O78  1  0.61026000  0.00380000  0.75000000  1.0
  O  O79  1  0.38973000  0.99620000  0.25000000  1.0
