# generated using pymatgen
data_Cd2H19C27S4N5OF12
_symmetry_space_group_name_H-M   'P 1'
_cell_length_a   11.39750000
_cell_length_b   12.31340000
_cell_length_c   14.50051492
_cell_angle_alpha   65.52677435
_cell_angle_beta   69.24270684
_cell_angle_gamma   77.23600000
_symmetry_Int_Tables_number   1
_chemical_formula_structural   Cd2H19C27S4N5OF12
_chemical_formula_sum   'Cd4 H38 C54 S8 N10 O2 F24'
_cell_volume   1725.38803553
_cell_formula_units_Z   2
loop_
 _symmetry_equiv_pos_site_id
 _symmetry_equiv_pos_as_xyz
  1  'x, y, z'
loop_
 _atom_site_type_symbol
 _atom_site_label
 _atom_site_symmetry_multiplicity
 _atom_site_fract_x
 _atom_site_fract_y
 _atom_site_fract_z
 _atom_site_occupancy
  Cd  Cd0  1  0.86233000  0.50972000  0.12622000  1.0
  Cd  Cd1  1  0.13767000  0.49029000  0.87377000  1.0
  Cd  Cd2  1  0.64626000  0.43486000  0.41365000  1.0
  Cd  Cd3  1  0.35375000  0.56514000  0.58635000  1.0
  H  H4  1  0.19467000  0.81983000  0.88715000  1.0
  H  H5  1  0.80533000  0.18017000  0.11285000  1.0
  H  H6  1  0.05803000  0.01018000  0.83739000  1.0
  H  H7  1  0.94197000  0.98982000  0.16261000  1.0
  H  H8  1  0.73523000  0.80113000  0.01391000  1.0
  H  H9  1  0.26477000  0.19886000  0.98609000  1.0
  H  H10  1  0.81059000  0.07725000  0.41566000  1.0
  H  H11  1  0.18940000  0.92276000  0.58433000  1.0
  H  H12  1  0.03451000  0.00517000  0.41061000  1.0
  H  H13  1  0.96549000  0.99484000  0.58939000  1.0
  H  H14  1  0.13773000  0.35341000  0.17472000  1.0
  H  H15  1  0.86227000  0.64658000  0.82529000  1.0
  H  H16  1  0.07038000  0.60427000  0.27347000  1.0
  H  H17  1  0.92962000  0.39574000  0.72653000  1.0
  H  H18  1  0.20022000  0.45713000  0.38777000  1.0
  H  H19  1  0.79978000  0.54287000  0.61223000  1.0
  H  H20  1  0.88237000  0.24249000  0.55932000  1.0
  H  H21  1  0.11763000  0.75752000  0.44068000  1.0
  H  H22  1  0.44841000  0.26575000  0.82137000  1.0
  H  H23  1  0.55159000  0.73424000  0.17863000  1.0
  H  H24  1  0.38543000  0.06960000  0.85033000  1.0
  H  H25  1  0.61458000  0.93039000  0.14967000  1.0
  H  H26  1  0.54433000  0.15200000  0.51230000  1.0
  H  H27  1  0.45566000  0.84800000  0.48770000  1.0
  H  H28  1  0.59190000  0.44017000  0.16225000  1.0
  H  H29  1  0.40810000  0.55983000  0.83775000  1.0
  H  H30  1  0.36201000  0.73494000  0.09458000  1.0
  H  H31  1  0.63799000  0.26507000  0.90541000  1.0
  H  H32  1  0.38358000  0.69750000  0.98311000  1.0
  H  H33  1  0.61642000  0.30250000  0.01688000  1.0
  H  H34  1  0.51319000  0.74385000  0.99700000  1.0
  H  H35  1  0.48681000  0.25616000  0.00299000  1.0
  H  H36  1  0.34179000  0.47945000  0.08189000  1.0
  H  H37  1  0.65822000  0.52054000  0.91812000  1.0
  H  H38  1  0.28868000  0.51252000  0.19906000  1.0
  H  H39  1  0.71133000  0.48747000  0.80095000  1.0
  H  H40  1  0.41145000  0.39608000  0.18738000  1.0
  H  H41  1  0.58856000  0.60392000  0.81262000  1.0
  C  C42  1  0.03700000  0.71103000  0.97937000  1.0
  C  C43  1  0.96300000  0.28897000  0.02063000  1.0
  C  C44  1  0.09270000  0.81997000  0.91494000  1.0
  C  C45  1  0.90731000  0.18003000  0.08506000  1.0
  C  C46  1  0.01651000  0.92529000  0.88721000  1.0
  C  C47  1  0.98349000  0.07471000  0.11279000  1.0
  C  C48  1  0.88504000  0.92134000  0.92359000  1.0
  C  C49  1  0.11496000  0.07866000  0.07641000  1.0
  C  C50  1  0.83595000  0.81079000  0.98535000  1.0
  C  C51  1  0.16405000  0.18921000  0.01465000  1.0
  C  C52  1  0.80108000  0.03385000  0.89518000  1.0
  C  C53  1  0.19891000  0.96615000  0.10482000  1.0
  C  C54  1  0.85599000  0.25260000  0.29712000  1.0
  C  C55  1  0.14401000  0.74740000  0.70288000  1.0
  C  C56  1  0.88560000  0.13567000  0.36407000  1.0
  C  C57  1  0.11440000  0.86433000  0.63593000  1.0
  C  C58  1  0.00992000  0.09607000  0.36117000  1.0
  C  C59  1  0.99007000  0.90392000  0.63884000  1.0
  C  C60  1  0.10410000  0.17403000  0.29334000  1.0
  C  C61  1  0.89589000  0.82596000  0.70667000  1.0
  C  C62  1  0.06884000  0.28872000  0.22961000  1.0
  C  C63  1  0.93117000  0.71128000  0.77039000  1.0
  C  C64  1  0.24001000  0.13736000  0.28611000  1.0
  C  C65  1  0.75999000  0.86263000  0.71390000  1.0
  C  C66  1  0.90850000  0.50052000  0.35617000  1.0
  C  C67  1  0.09150000  0.49949000  0.64383000  1.0
  C  C68  1  0.03276000  0.52276000  0.33707000  1.0
  C  C69  1  0.96724000  0.47724000  0.66293000  1.0
  C  C70  1  0.10460000  0.44077000  0.40009000  1.0
  C  C71  1  0.89540000  0.55923000  0.59991000  1.0
  C  C72  1  0.05211000  0.33713000  0.48116000  1.0
  C  C73  1  0.94788000  0.66287000  0.51884000  1.0
  C  C74  1  0.92821000  0.32098000  0.49631000  1.0
  C  C75  1  0.07179000  0.67902000  0.50369000  1.0
  C  C76  1  0.12580000  0.24234000  0.54900000  1.0
  C  C77  1  0.87419000  0.75766000  0.45100000  1.0
  C  C78  1  0.52950000  0.31227000  0.65178000  1.0
  C  C79  1  0.47050000  0.68773000  0.34822000  1.0
  C  C80  1  0.46940000  0.23666000  0.75542000  1.0
  C  C81  1  0.53061000  0.76334000  0.24458000  1.0
  C  C82  1  0.43306000  0.12866000  0.77087000  1.0
  C  C83  1  0.56694000  0.87133000  0.22913000  1.0
  C  C84  1  0.45750000  0.09612000  0.68346000  1.0
  C  C85  1  0.54250000  0.90389000  0.31653000  1.0
  C  C86  1  0.52058000  0.17284000  0.58341000  1.0
  C  C87  1  0.47942000  0.82716000  0.41658000  1.0
  C  C88  1  0.41255000  0.98378000  0.69683000  1.0
  C  C89  1  0.58745000  0.01622000  0.30317000  1.0
  C  C90  1  0.57666000  0.53693000  0.11768000  1.0
  C  C91  1  0.42334000  0.46308000  0.88231000  1.0
  C  C92  1  0.42929000  0.69405000  0.03952000  1.0
  C  C93  1  0.57071000  0.30596000  0.96047000  1.0
  C  C94  1  0.37199000  0.48438000  0.14388000  1.0
  C  C95  1  0.62801000  0.51562000  0.85612000  1.0
  S  S96  1  0.12364000  0.57503000  0.02106000  1.0
  S  S97  1  0.87636000  0.42497000  0.97894000  1.0
  S  S98  1  0.70439000  0.30741000  0.29152000  1.0
  S  S99  1  0.29561000  0.69260000  0.70847000  1.0
  S  S100  1  0.80974000  0.59811000  0.28332000  1.0
  S  S101  1  0.19026000  0.40189000  0.71668000  1.0
  S  S102  1  0.57001000  0.45446000  0.62069000  1.0
  S  S103  1  0.42999000  0.54554000  0.37931000  1.0
  N  N104  1  0.90992000  0.70930000  0.01213000  1.0
  N  N105  1  0.09009000  0.29070000  0.98786000  1.0
  N  N106  1  0.94926000  0.32609000  0.23097000  1.0
  N  N107  1  0.05074000  0.67392000  0.76902000  1.0
  N  N108  1  0.85880000  0.40000000  0.43606000  1.0
  N  N109  1  0.14119000  0.60001000  0.56394000  1.0
  N  N110  1  0.55591000  0.27682000  0.56887000  1.0
  N  N111  1  0.44409000  0.72318000  0.43113000  1.0
  N  N112  1  0.46586000  0.57000000  0.09733000  1.0
  N  N113  1  0.53414000  0.43000000  0.90267000  1.0
  O  O114  1  0.65937000  0.60631000  0.08886000  1.0
  O  O115  1  0.34064000  0.39370000  0.91113000  1.0
  F  F116  1  0.67621000  0.01713000  0.94712000  1.0
  F  F117  1  0.32379000  0.98287000  0.05288000  1.0
  F  F118  1  0.81208000  0.08464000  0.78863000  1.0
  F  F119  1  0.18792000  0.91537000  0.21136000  1.0
  F  F120  1  0.82844000  0.12049000  0.91931000  1.0
  F  F121  1  0.17156000  0.87951000  0.08068000  1.0
  F  F122  1  0.31091000  0.13448000  0.18793000  1.0
  F  F123  1  0.68909000  0.86551000  0.81208000  1.0
  F  F124  1  0.29371000  0.21552000  0.30148000  1.0
  F  F125  1  0.70629000  0.78448000  0.69852000  1.0
  F  F126  1  0.25855000  0.02632000  0.35879000  1.0
  F  F127  1  0.74145000  0.97367000  0.64123000  1.0
  F  F128  1  0.14697000  0.13759000  0.53015000  1.0
  F  F129  1  0.85302000  0.86241000  0.46985000  1.0
  F  F130  1  0.24054000  0.27439000  0.53200000  1.0
  F  F131  1  0.75946000  0.72561000  0.46800000  1.0
  F  F132  1  0.06335000  0.21160000  0.65527000  1.0
  F  F133  1  0.93664000  0.78840000  0.34473000  1.0
  F  F134  1  0.47711000  0.94482000  0.61579000  1.0
  F  F135  1  0.52289000  0.05517000  0.38421000  1.0
  F  F136  1  0.28727000  0.99927000  0.70181000  1.0
  F  F137  1  0.71273000  0.00073000  0.29819000  1.0
  F  F138  1  0.42186000  0.89169000  0.78941000  1.0
  F  F139  1  0.57814000  0.10831000  0.21059000  1.0
