# generated using pymatgen
data_Cu4H24C45N8
_symmetry_space_group_name_H-M   'P 1'
_cell_length_a   30.97960000
_cell_length_b   31.26860000
_cell_length_c   32.03470000
_cell_angle_alpha   90.26690000
_cell_angle_beta   89.89380000
_cell_angle_gamma   89.64240000
_symmetry_Int_Tables_number   1
_chemical_formula_structural   Cu4H24C45N8
_chemical_formula_sum   'Cu12 H72 C135 N24'
_cell_volume   31030.65648467
_cell_formula_units_Z   3
loop_
 _symmetry_equiv_pos_site_id
 _symmetry_equiv_pos_as_xyz
  1  'x, y, z'
loop_
 _atom_site_type_symbol
 _atom_site_label
 _atom_site_symmetry_multiplicity
 _atom_site_fract_x
 _atom_site_fract_y
 _atom_site_fract_z
 _atom_site_occupancy
  Cu  Cu0  1  0.77369000  0.84586000  0.76986000  1.0
  Cu  Cu1  1  0.76754000  0.76974000  0.83444000  1.0
  Cu  Cu2  1  0.84903000  0.77721000  0.77453000  1.0
  Cu  Cu3  1  0.22529000  0.15462000  0.77078000  1.0
  Cu  Cu4  1  0.22924000  0.23249000  0.83449000  1.0
  Cu  Cu5  1  0.14753000  0.22061000  0.77603000  1.0
  Cu  Cu6  1  0.77064000  0.15876000  0.23227000  1.0
  Cu  Cu7  1  0.76506000  0.23643000  0.16919000  1.0
  Cu  Cu8  1  0.84793000  0.22408000  0.22618000  1.0
  Cu  Cu9  1  0.23286000  0.83902000  0.22836000  1.0
  Cu  Cu10  1  0.23275000  0.76868000  0.15670000  1.0
  Cu  Cu11  1  0.16099000  0.76719000  0.22836000  1.0
  H  H12  1  0.70061000  0.90750000  0.80515000  1.0
  H  H13  1  0.68646000  0.79915000  0.88774000  1.0
  H  H14  1  0.90769000  0.80700000  0.69898000  1.0
  H  H15  1  0.80103000  0.89664000  0.68881000  1.0
  H  H16  1  0.79164000  0.68527000  0.88361000  1.0
  H  H17  1  0.90922000  0.70531000  0.81319000  1.0
  H  H18  1  0.30056000  0.09628000  0.80625000  1.0
  H  H19  1  0.31207000  0.20722000  0.88686000  1.0
  H  H20  1  0.08954000  0.18790000  0.70134000  1.0
  H  H21  1  0.19920000  0.10192000  0.68989000  1.0
  H  H22  1  0.20264000  0.31729000  0.88286000  1.0
  H  H23  1  0.08497000  0.29113000  0.81477000  1.0
  H  H24  1  0.69650000  0.09985000  0.19654000  1.0
  H  H25  1  0.68312000  0.21024000  0.11628000  1.0
  H  H26  1  0.90821000  0.18997000  0.29871000  1.0
  H  H27  1  0.79849000  0.10586000  0.31220000  1.0
  H  H28  1  0.78987000  0.32163000  0.12178000  1.0
  H  H29  1  0.90906000  0.29447000  0.18727000  1.0
  H  H30  1  0.31014000  0.89697000  0.19883000  1.0
  H  H31  1  0.31011000  0.80156000  0.10034000  1.0
  H  H32  1  0.10486000  0.79671000  0.30637000  1.0
  H  H33  1  0.20312000  0.89470000  0.30574000  1.0
  H  H34  1  0.20168000  0.69155000  0.10050000  1.0
  H  H35  1  0.10371000  0.69017000  0.19712000  1.0
  H  H36  1  0.59380000  0.98389000  0.88338000  1.0
  H  H37  1  0.64756000  0.94368000  0.84188000  1.0
  H  H38  1  0.63262000  0.83536000  0.92352000  1.0
  H  H39  1  0.57891000  0.87579000  0.96492000  1.0
  H  H40  1  0.41129000  0.12765000  0.97197000  1.0
  H  H41  1  0.35649000  0.16639000  0.93079000  1.0
  H  H42  1  0.36546000  0.06989000  0.83440000  1.0
  H  H43  1  0.41946000  0.03073000  0.87621000  1.0
  H  H44  1  0.57959000  0.03285000  0.12565000  1.0
  H  H45  1  0.63226000  0.07293000  0.16795000  1.0
  H  H46  1  0.64099000  0.16795000  0.07113000  1.0
  H  H47  1  0.58748000  0.12831000  0.02944000  1.0
  H  H48  1  0.42747000  0.87357000  0.03448000  1.0
  H  H49  1  0.37438000  0.83178000  0.07448000  1.0
  H  H50  1  0.35408000  0.93947000  0.15706000  1.0
  H  H51  1  0.40793000  0.98069000  0.11755000  1.0
  H  H52  1  0.87244000  0.96532000  0.57569000  1.0
  H  H53  1  0.83399000  0.92759000  0.63183000  1.0
  H  H54  1  0.94054000  0.83874000  0.64236000  1.0
  H  H55  1  0.97881000  0.87667000  0.58623000  1.0
  H  H56  1  0.03106000  0.87139000  0.41581000  1.0
  H  H57  1  0.07095000  0.83117000  0.36162000  1.0
  H  H58  1  0.16859000  0.92901000  0.36025000  1.0
  H  H59  1  0.12852000  0.96905000  0.41441000  1.0
  H  H60  1  0.02049000  0.11615000  0.58846000  1.0
  H  H61  1  0.05774000  0.15528000  0.64470000  1.0
  H  H62  1  0.16669000  0.06929000  0.63327000  1.0
  H  H63  1  0.12921000  0.03027000  0.57709000  1.0
  H  H64  1  0.98080000  0.11603000  0.40776000  1.0
  H  H65  1  0.94182000  0.15619000  0.35343000  1.0
  H  H66  1  0.83260000  0.07246000  0.36771000  1.0
  H  H67  1  0.87181000  0.03247000  0.42207000  1.0
  H  H68  1  0.86962000  0.58544000  0.96961000  1.0
  H  H69  1  0.83168000  0.64091000  0.92891000  1.0
  H  H70  1  0.93498000  0.63931000  0.83842000  1.0
  H  H71  1  0.97331000  0.58462000  0.87981000  1.0
  H  H72  1  0.86801000  0.42065000  0.03579000  1.0
  H  H73  1  0.82971000  0.36572000  0.07637000  1.0
  H  H74  1  0.93597000  0.36021000  0.16305000  1.0
  H  H75  1  0.97467000  0.41428000  0.12168000  1.0
  H  H76  1  0.03583000  0.57230000  0.12885000  1.0
  H  H77  1  0.07782000  0.62558000  0.16843000  1.0
  H  H78  1  0.15672000  0.64809000  0.05970000  1.0
  H  H79  1  0.11529000  0.59406000  0.02058000  1.0
  H  H80  1  0.12326000  0.41756000  0.96778000  1.0
  H  H81  1  0.16224000  0.36202000  0.92746000  1.0
  H  H82  1  0.05655000  0.35620000  0.84014000  1.0
  H  H83  1  0.01725000  0.41097000  0.88120000  1.0
  C  C84  1  0.70231000  0.87747000  0.82189000  1.0
  C  C85  1  0.67819000  0.86327000  0.85632000  1.0
  C  C86  1  0.69509000  0.82221000  0.86401000  1.0
  C  C87  1  0.87839000  0.82595000  0.70195000  1.0
  C  C88  1  0.86335000  0.86028000  0.67764000  1.0
  C  C89  1  0.82399000  0.87167000  0.69676000  1.0
  C  C90  1  0.81731000  0.69572000  0.86307000  1.0
  C  C91  1  0.85941000  0.67947000  0.85791000  1.0
  C  C92  1  0.87713000  0.70567000  0.82680000  1.0
  C  C93  1  0.29816000  0.12681000  0.82233000  1.0
  C  C94  1  0.32202000  0.14261000  0.85630000  1.0
  C  C95  1  0.30375000  0.18322000  0.86373000  1.0
  C  C96  1  0.11950000  0.17001000  0.70398000  1.0
  C  C97  1  0.13558000  0.13606000  0.67943000  1.0
  C  C98  1  0.17542000  0.12614000  0.69815000  1.0
  C  C99  1  0.17709000  0.30534000  0.86294000  1.0
  C  C100  1  0.13436000  0.31990000  0.85826000  1.0
  C  C101  1  0.11722000  0.29228000  0.82783000  1.0
  C  C102  1  0.69829000  0.13034000  0.18064000  1.0
  C  C103  1  0.67447000  0.14565000  0.14645000  1.0
  C  C104  1  0.69178000  0.18646000  0.13939000  1.0
  C  C105  1  0.87807000  0.17263000  0.29672000  1.0
  C  C106  1  0.86258000  0.13882000  0.32126000  1.0
  C  C107  1  0.82212000  0.12971000  0.30359000  1.0
  C  C108  1  0.81589000  0.30945000  0.14106000  1.0
  C  C109  1  0.85859000  0.32379000  0.14518000  1.0
  C  C110  1  0.87653000  0.29592000  0.17487000  1.0
  C  C111  1  0.30469000  0.87020000  0.17789000  1.0
  C  C112  1  0.32565000  0.85913000  0.14038000  1.0
  C  C113  1  0.30493000  0.82130000  0.12785000  1.0
  C  C114  1  0.13223000  0.81741000  0.30093000  1.0
  C  C115  1  0.14471000  0.85499000  0.32186000  1.0
  C  C116  1  0.18235000  0.86739000  0.30062000  1.0
  C  C117  1  0.18098000  0.69665000  0.12744000  1.0
  C  C118  1  0.14310000  0.67535000  0.13936000  1.0
  C  C119  1  0.13127000  0.69566000  0.17696000  1.0
  C  C120  1  0.99611000  0.50029000  0.00109000  1.0
  C  C121  1  0.50047000  0.00463000  0.00058000  1.0
  C  C122  1  0.00163000  0.99656000  0.49762000  1.0
  C  C123  1  0.58281000  0.93288000  0.92736000  1.0
  C  C124  1  0.60243000  0.95126000  0.89203000  1.0
  C  C125  1  0.63268000  0.92840000  0.86879000  1.0
  C  C126  1  0.64479000  0.88639000  0.87960000  1.0
  C  C127  1  0.62432000  0.86793000  0.91438000  1.0
  C  C128  1  0.59404000  0.89051000  0.93785000  1.0
  C  C129  1  0.55335000  0.95684000  0.95220000  1.0
  C  C130  1  0.52892000  0.97792000  0.97387000  1.0
  C  C131  1  0.41885000  0.07613000  0.92729000  1.0
  C  C132  1  0.40113000  0.11513000  0.94176000  1.0
  C  C133  1  0.37043000  0.13685000  0.91834000  1.0
  C  C134  1  0.35618000  0.12094000  0.87956000  1.0
  C  C135  1  0.37504000  0.08267000  0.86472000  1.0
  C  C136  1  0.40561000  0.06058000  0.88799000  1.0
  C  C137  1  0.44819000  0.05240000  0.95217000  1.0
  C  C138  1  0.47232000  0.03136000  0.97391000  1.0
  C  C139  1  0.58008000  0.07750000  0.07434000  1.0
  C  C140  1  0.59306000  0.06260000  0.11389000  1.0
  C  C141  1  0.62286000  0.08522000  0.13745000  1.0
  C  C142  1  0.64121000  0.12340000  0.12271000  1.0
  C  C143  1  0.62736000  0.13857000  0.08359000  1.0
  C  C144  1  0.59741000  0.11631000  0.05986000  1.0
  C  C145  1  0.55130000  0.05340000  0.04929000  1.0
  C  C146  1  0.52764000  0.03199000  0.02749000  1.0
  C  C147  1  0.42108000  0.93031000  0.07281000  1.0
  C  C148  1  0.41133000  0.88783000  0.06147000  1.0
  C  C149  1  0.38127000  0.86457000  0.08401000  1.0
  C  C150  1  0.35941000  0.88253000  0.11853000  1.0
  C  C151  1  0.37028000  0.92454000  0.13043000  1.0
  C  C152  1  0.40045000  0.94799000  0.10824000  1.0
  C  C153  1  0.44976000  0.95515000  0.04848000  1.0
  C  C154  1  0.47313000  0.97709000  0.02701000  1.0
  C  C155  1  0.92870000  0.92414000  0.57744000  1.0
  C  C156  1  0.88720000  0.93747000  0.59038000  1.0
  C  C157  1  0.86576000  0.91609000  0.62207000  1.0
  C  C158  1  0.88455000  0.88064000  0.64224000  1.0
  C  C159  1  0.92524000  0.86646000  0.62794000  1.0
  C  C160  1  0.94697000  0.88763000  0.59632000  1.0
  C  C161  1  0.95247000  0.94794000  0.54778000  1.0
  C  C162  1  0.97405000  0.96929000  0.52408000  1.0
  C  C163  1  0.07659000  0.92341000  0.41858000  1.0
  C  C164  1  0.06130000  0.88385000  0.40355000  1.0
  C  C165  1  0.08393000  0.86139000  0.37299000  1.0
  C  C166  1  0.12265000  0.87718000  0.35605000  1.0
  C  C167  1  0.13846000  0.91599000  0.37225000  1.0
  C  C168  1  0.11606000  0.93873000  0.40279000  1.0
  C  C169  1  0.05195000  0.94792000  0.44751000  1.0
  C  C170  1  0.02971000  0.96950000  0.47087000  1.0
  C  C171  1  0.07188000  0.06995000  0.57931000  1.0
  C  C172  1  0.05258000  0.10603000  0.59844000  1.0
  C  C173  1  0.07375000  0.12787000  0.63011000  1.0
  C  C174  1  0.11485000  0.11488000  0.64411000  1.0
  C  C175  1  0.13459000  0.07986000  0.62371000  1.0
  C  C176  1  0.11371000  0.05775000  0.59203000  1.0
  C  C177  1  0.04895000  0.04555000  0.54934000  1.0
  C  C178  1  0.02824000  0.02375000  0.52520000  1.0
  C  C179  1  0.92938000  0.07094000  0.41828000  1.0
  C  C180  1  0.94825000  0.10664000  0.39885000  1.0
  C  C181  1  0.92610000  0.12909000  0.36826000  1.0
  C  C182  1  0.88438000  0.11703000  0.35557000  1.0
  C  C183  1  0.86513000  0.08232000  0.37624000  1.0
  C  C184  1  0.88699000  0.05967000  0.40691000  1.0
  C  C185  1  0.95322000  0.04607000  0.44722000  1.0
  C  C186  1  0.97454000  0.02394000  0.47060000  1.0
  C  C187  1  0.92443000  0.58154000  0.92790000  1.0
  C  C188  1  0.88379000  0.59735000  0.94077000  1.0
  C  C189  1  0.86253000  0.62843000  0.91762000  1.0
  C  C190  1  0.88060000  0.64494000  0.88072000  1.0
  C  C191  1  0.92053000  0.62793000  0.86735000  1.0
  C  C192  1  0.94216000  0.59701000  0.89035000  1.0
  C  C193  1  0.94782000  0.55203000  0.95275000  1.0
  C  C194  1  0.96887000  0.52806000  0.97458000  1.0
  C  C195  1  0.92436000  0.42089000  0.07546000  1.0
  C  C196  1  0.88279000  0.40727000  0.06373000  1.0
  C  C197  1  0.86133000  0.37648000  0.08682000  1.0
  C  C198  1  0.88007000  0.35810000  0.12259000  1.0
  C  C199  1  0.92094000  0.37301000  0.13494000  1.0
  C  C200  1  0.94279000  0.40360000  0.11195000  1.0
  C  C201  1  0.94785000  0.44995000  0.05042000  1.0
  C  C202  1  0.96891000  0.47348000  0.02833000  1.0
  C  C203  1  0.07220000  0.57980000  0.07172000  1.0
  C  C204  1  0.06246000  0.58895000  0.11385000  1.0
  C  C205  1  0.08608000  0.61914000  0.13588000  1.0
  C  C206  1  0.12018000  0.64161000  0.11702000  1.0
  C  C207  1  0.13050000  0.63136000  0.07530000  1.0
  C  C208  1  0.10721000  0.60112000  0.05303000  1.0
  C  C209  1  0.04671000  0.55097000  0.04812000  1.0
  C  C210  1  0.02429000  0.52753000  0.02710000  1.0
  C  C211  1  0.06725000  0.41779000  0.92767000  1.0
  C  C212  1  0.10877000  0.40398000  0.93975000  1.0
  C  C213  1  0.13061000  0.37285000  0.91681000  1.0
  C  C214  1  0.11227000  0.35430000  0.88088000  1.0
  C  C215  1  0.07135000  0.36924000  0.86829000  1.0
  C  C216  1  0.04914000  0.40019000  0.89113000  1.0
  C  C217  1  0.04365000  0.44759000  0.95237000  1.0
  C  C218  1  0.02268000  0.47196000  0.97415000  1.0
  N  N219  1  0.72673000  0.81293000  0.83643000  1.0
  N  N220  1  0.73119000  0.84729000  0.81022000  1.0
  N  N221  1  0.81644000  0.84621000  0.72977000  1.0
  N  N222  1  0.85024000  0.81778000  0.73298000  1.0
  N  N223  1  0.84789000  0.73511000  0.81458000  1.0
  N  N224  1  0.81068000  0.72894000  0.83712000  1.0
  N  N225  1  0.27159000  0.19080000  0.83639000  1.0
  N  N226  1  0.26811000  0.15570000  0.81067000  1.0
  N  N227  1  0.18227000  0.15206000  0.73118000  1.0
  N  N228  1  0.14751000  0.17934000  0.73478000  1.0
  N  N229  1  0.14738000  0.26361000  0.81557000  1.0
  N  N230  1  0.18462000  0.27173000  0.83738000  1.0
  N  N231  1  0.72341000  0.19457000  0.16713000  1.0
  N  N232  1  0.72747000  0.15965000  0.19273000  1.0
  N  N233  1  0.81439000  0.15592000  0.27113000  1.0
  N  N234  1  0.84916000  0.18261000  0.26689000  1.0
  N  N235  1  0.84685000  0.26730000  0.18725000  1.0
  N  N236  1  0.80912000  0.27571000  0.16624000  1.0
  N  N237  1  0.27406000  0.81092000  0.15569000  1.0
  N  N238  1  0.27399000  0.84129000  0.18681000  1.0
  N  N239  1  0.19131000  0.83947000  0.26959000  1.0
  N  N240  1  0.16017000  0.80841000  0.26975000  1.0
  N  N241  1  0.15975000  0.72663000  0.18642000  1.0
  N  N242  1  0.19070000  0.72719000  0.15567000  1.0
