# generated using pymatgen
data_NiH18C15(N2O)4
_symmetry_space_group_name_H-M   'P 1'
_cell_length_a   8.26245000
_cell_length_b   9.02501000
_cell_length_c   12.44880000
_cell_angle_alpha   102.01700000
_cell_angle_beta   103.16700000
_cell_angle_gamma   91.53760000
_symmetry_Int_Tables_number   1
_chemical_formula_structural   NiH18C15(N2O)4
_chemical_formula_sum   'Ni2 H36 C30 N16 O8'
_cell_volume   881.38675421
_cell_formula_units_Z   2
loop_
 _symmetry_equiv_pos_site_id
 _symmetry_equiv_pos_as_xyz
  1  'x, y, z'
loop_
 _atom_site_type_symbol
 _atom_site_label
 _atom_site_symmetry_multiplicity
 _atom_site_fract_x
 _atom_site_fract_y
 _atom_site_fract_z
 _atom_site_occupancy
  Ni  Ni0  1  0.55096000  0.72316000  0.52567000  1.0
  Ni  Ni1  1  0.44904000  0.27684000  0.47433000  1.0
  H  H2  1  0.06457000  0.44330000  0.66015000  1.0
  H  H3  1  0.93543000  0.55669000  0.33983000  1.0
  H  H4  1  0.30061000  0.61141000  0.66336000  1.0
  H  H5  1  0.69939000  0.38858000  0.33664000  1.0
  H  H6  1  0.71760000  0.92673000  0.78994000  1.0
  H  H7  1  0.28240000  0.07327000  0.21006000  1.0
  H  H8  1  0.41814000  0.63573000  0.96971000  1.0
  H  H9  1  0.58186000  0.36428000  0.03030000  1.0
  H  H10  1  0.25480000  0.57030000  0.84636000  1.0
  H  H11  1  0.74520000  0.42971000  0.15365000  1.0
  H  H12  1  0.14251000  0.82998000  0.87932000  1.0
  H  H13  1  0.85750000  0.17003000  0.12069000  1.0
  H  H14  1  0.29654000  0.88284000  0.00878000  1.0
  H  H15  1  0.70346000  0.11716000  0.99123000  1.0
  H  H16  1  0.02953000  0.61436000  0.94578000  1.0
  H  H17  1  0.97047000  0.38564000  0.05422000  1.0
  H  H18  1  0.18191000  0.66407000  0.07489000  1.0
  H  H19  1  0.81809000  0.33593000  0.92511000  1.0
  H  H20  1  0.91223000  0.86770000  0.98905000  1.0
  H  H21  1  0.08777000  0.13231000  0.01095000  1.0
  H  H22  1  0.06327000  0.91772000  0.11841000  1.0
  H  H23  1  0.93673000  0.08229000  0.88159000  1.0
  H  H24  1  0.95184000  0.70098000  0.18352000  1.0
  H  H25  1  0.04816000  0.29902000  0.81648000  1.0
  H  H26  1  0.79862000  0.64883000  0.05353000  1.0
  H  H27  1  0.20138000  0.35117000  0.94647000  1.0
  H  H28  1  0.83373000  0.96019000  0.21942000  1.0
  H  H29  1  0.16627000  0.03981000  0.78058000  1.0
  H  H30  1  0.67249000  0.89309000  0.09393000  1.0
  H  H31  1  0.32751000  0.10691000  0.90607000  1.0
  H  H32  1  0.79723000  0.88937000  0.40001000  1.0
  H  H33  1  0.20277000  0.11063000  0.59999000  1.0
  H  H34  1  0.38103000  0.57389000  0.25595000  1.0
  H  H35  1  0.61897000  0.42611000  0.74405000  1.0
  H  H36  1  0.86791000  0.99386000  0.60502000  1.0
  H  H37  1  0.13209000  0.00613000  0.39497000  1.0
  C  C38  1  0.78018000  0.17930000  0.56455000  1.0
  C  C39  1  0.21982000  0.82070000  0.43544000  1.0
  C  C40  1  0.80415000  0.34386000  0.57760000  1.0
  C  C41  1  0.19585000  0.65614000  0.42239000  1.0
  C  C42  1  0.93560000  0.45745000  0.62307000  1.0
  C  C43  1  0.06441000  0.54254000  0.37692000  1.0
  C  C44  1  0.86216000  0.59181000  0.60616000  1.0
  C  C45  1  0.13785000  0.40818000  0.39384000  1.0
  C  C46  1  0.92356000  0.75362000  0.63015000  1.0
  C  C47  1  0.07644000  0.24638000  0.36984000  1.0
  C  C48  1  0.40122000  0.68952000  0.71857000  1.0
  C  C49  1  0.59878000  0.31048000  0.28143000  1.0
  C  C50  1  0.61102000  0.85126000  0.78579000  1.0
  C  C51  1  0.38898000  0.14874000  0.21421000  1.0
  C  C52  1  0.33014000  0.67161000  0.90118000  1.0
  C  C53  1  0.66987000  0.32840000  0.09882000  1.0
  C  C54  1  0.21832000  0.78631000  0.94900000  1.0
  C  C55  1  0.78168000  0.21370000  0.05101000  1.0
  C  C56  1  0.10508000  0.71152000  0.00727000  1.0
  C  C57  1  0.89492000  0.28848000  0.99273000  1.0
  C  C58  1  0.98892000  0.82036000  0.05657000  1.0
  C  C59  1  0.01108000  0.17965000  0.94343000  1.0
  C  C60  1  0.87535000  0.74558000  0.11432000  1.0
  C  C61  1  0.12465000  0.25442000  0.88568000  1.0
  C  C62  1  0.76161000  0.85843000  0.16247000  1.0
  C  C63  1  0.23839000  0.14158000  0.83753000  1.0
  C  C64  1  0.69661000  0.81390000  0.34184000  1.0
  C  C65  1  0.30338000  0.18610000  0.65816000  1.0
  C  C66  1  0.48660000  0.65363000  0.26564000  1.0
  C  C67  1  0.51340000  0.34637000  0.73436000  1.0
  N  N68  1  0.66249000  0.40924000  0.53730000  1.0
  N  N69  1  0.33751000  0.59076000  0.46270000  1.0
  N  N70  1  0.69754000  0.55707000  0.55426000  1.0
  N  N71  1  0.30246000  0.44292000  0.44573000  1.0
  N  N72  1  0.51717000  0.76458000  0.68665000  1.0
  N  N73  1  0.48283000  0.23541000  0.31335000  1.0
  N  N74  1  0.55976000  0.83275000  0.87630000  1.0
  N  N75  1  0.44023000  0.16726000  0.12370000  1.0
  N  N76  1  0.42603000  0.72864000  0.83137000  1.0
  N  N77  1  0.57397000  0.27137000  0.16863000  1.0
  N  N78  1  0.66604000  0.79314000  0.22882000  1.0
  N  N79  1  0.33395000  0.20686000  0.77118000  1.0
  N  N80  1  0.53234000  0.69057000  0.17839000  1.0
  N  N81  1  0.46766000  0.30943000  0.82161000  1.0
  N  N82  1  0.58459000  0.72643000  0.36812000  1.0
  N  N83  1  0.41541000  0.27357000  0.63188000  1.0
  O  O84  1  0.90814000  0.11010000  0.60977000  1.0
  O  O85  1  0.09186000  0.88990000  0.39022000  1.0
  O  O86  1  0.64060000  0.11185000  0.51414000  1.0
  O  O87  1  0.35939000  0.88815000  0.48586000  1.0
  O  O88  1  0.07206000  0.79830000  0.67584000  1.0
  O  O89  1  0.92794000  0.20169000  0.32416000  1.0
  O  O90  1  0.80682000  0.84274000  0.59890000  1.0
  O  O91  1  0.19319000  0.15725000  0.40110000  1.0
