# generated using pymatgen
data_LiH29C23NO3
_symmetry_space_group_name_H-M   'P 1'
_cell_length_a   8.98624000
_cell_length_b   9.26164000
_cell_length_c   12.62400000
_cell_angle_alpha   76.04900000
_cell_angle_beta   86.52400000
_cell_angle_gamma   80.97230000
_symmetry_Int_Tables_number   1
_chemical_formula_structural   LiH29C23NO3
_chemical_formula_sum   'Li2 H58 C46 N2 O6'
_cell_volume   1006.75352423
_cell_formula_units_Z   2
loop_
 _symmetry_equiv_pos_site_id
 _symmetry_equiv_pos_as_xyz
  1  'x, y, z'
loop_
 _atom_site_type_symbol
 _atom_site_label
 _atom_site_symmetry_multiplicity
 _atom_site_fract_x
 _atom_site_fract_y
 _atom_site_fract_z
 _atom_site_occupancy
  Li  Li0  1  0.38654000  0.56938000  0.41235000  1.0
  Li  Li1  1  0.61346000  0.43061000  0.58765000  1.0
  H  H2  1  0.92987000  0.22732000  0.21573000  1.0
  H  H3  1  0.07013000  0.77268000  0.78426000  1.0
  H  H4  1  0.75637000  0.44809000  0.11485000  1.0
  H  H5  1  0.24363000  0.55191000  0.88515000  1.0
  H  H6  1  0.99534000  0.99804000  0.09645000  1.0
  H  H7  1  0.00466000  0.00196000  0.90355000  1.0
  H  H8  1  0.49115000  0.78460000  0.04362000  1.0
  H  H9  1  0.50886000  0.21540000  0.95638000  1.0
  H  H10  1  0.56691000  0.60092000  0.02851000  1.0
  H  H11  1  0.43310000  0.39908000  0.97148000  1.0
  H  H12  1  0.68294000  0.71115000  0.07186000  1.0
  H  H13  1  0.31707000  0.28885000  0.92814000  1.0
  H  H14  1  0.37028000  0.19669000  0.16210000  1.0
  H  H15  1  0.62972000  0.80331000  0.83790000  1.0
  H  H16  1  0.61516000  0.82494000  0.25468000  1.0
  H  H17  1  0.38484000  0.17506000  0.74531000  1.0
  H  H18  1  0.11331000  0.22509000  0.09195000  1.0
  H  H19  1  0.88669000  0.77491000  0.90805000  1.0
  H  H20  1  0.66399000  0.99797000  0.07427000  1.0
  H  H21  1  0.33600000  0.00203000  0.92573000  1.0
  H  H22  1  0.77542000  0.02086000  0.17920000  1.0
  H  H23  1  0.22458000  0.97915000  0.82079000  1.0
  H  H24  1  0.61707000  0.15521000  0.13423000  1.0
  H  H25  1  0.38293000  0.84480000  0.86577000  1.0
  H  H26  1  0.79190000  0.01489000  0.58867000  1.0
  H  H27  1  0.20811000  0.98511000  0.41133000  1.0
  H  H28  1  0.90326000  0.15861000  0.59644000  1.0
  H  H29  1  0.09674000  0.84140000  0.40356000  1.0
  H  H30  1  0.90734000  0.77904000  0.25267000  1.0
  H  H31  1  0.09267000  0.22096000  0.74733000  1.0
  H  H32  1  0.90182000  0.61697000  0.20192000  1.0
  H  H33  1  0.09818000  0.38303000  0.79808000  1.0
  H  H34  1  0.89144000  0.79682000  0.11082000  1.0
  H  H35  1  0.10856000  0.20318000  0.88918000  1.0
  H  H36  1  0.49885000  0.92241000  0.41100000  1.0
  H  H37  1  0.50115000  0.07759000  0.58900000  1.0
  H  H38  1  0.51402000  0.11063000  0.33786000  1.0
  H  H39  1  0.48598000  0.88936000  0.66214000  1.0
  H  H40  1  0.67896000  0.97948000  0.37469000  1.0
  H  H41  1  0.32104000  0.02051000  0.62531000  1.0
  H  H42  1  0.10715000  0.32937000  0.35514000  1.0
  H  H43  1  0.89285000  0.67063000  0.64486000  1.0
  H  H44  1  0.24809000  0.23716000  0.45463000  1.0
  H  H45  1  0.75191000  0.76284000  0.54537000  1.0
  H  H46  1  0.30111000  0.35674000  0.32909000  1.0
  H  H47  1  0.69889000  0.64326000  0.67091000  1.0
  H  H48  1  0.16246000  0.61680000  0.24446000  1.0
  H  H49  1  0.83754000  0.38320000  0.75554000  1.0
  H  H50  1  0.28642000  0.60458000  0.06661000  1.0
  H  H51  1  0.71358000  0.39542000  0.93339000  1.0
  H  H52  1  0.12926000  0.71988000  0.99656000  1.0
  H  H53  1  0.87074000  0.28012000  0.00344000  1.0
  H  H54  1  0.11080000  0.53553000  0.07540000  1.0
  H  H55  1  0.88921000  0.46447000  0.92460000  1.0
  H  H56  1  0.11139000  0.52281000  0.58143000  1.0
  H  H57  1  0.88861000  0.47719000  0.41857000  1.0
  H  H58  1  0.07325000  0.34593000  0.56728000  1.0
  H  H59  1  0.92675000  0.65406000  0.43272000  1.0
  C  C60  1  0.61647000  0.47859000  0.25690000  1.0
  C  C61  1  0.38353000  0.52141000  0.74310000  1.0
  C  C62  1  0.83667000  0.28316000  0.25708000  1.0
  C  C63  1  0.16333000  0.71684000  0.74291000  1.0
  C  C64  1  0.68653000  0.30779000  0.41808000  1.0
  C  C65  1  0.31347000  0.69221000  0.58191000  1.0
  C  C66  1  0.33667000  0.82573000  0.20143000  1.0
  C  C67  1  0.66333000  0.17427000  0.79857000  1.0
  C  C68  1  0.52556000  0.61712000  0.19567000  1.0
  C  C69  1  0.47445000  0.38288000  0.80433000  1.0
  C  C70  1  0.40417000  0.95471000  0.20015000  1.0
  C  C71  1  0.59583000  0.04529000  0.79985000  1.0
  C  C72  1  0.58446000  0.42945000  0.37191000  1.0
  C  C73  1  0.41554000  0.57055000  0.62809000  1.0
  C  C74  1  0.73691000  0.40695000  0.20214000  1.0
  C  C75  1  0.26309000  0.59305000  0.79786000  1.0
  C  C76  1  0.10883000  0.98530000  0.12672000  1.0
  C  C77  1  0.89117000  0.01470000  0.87328000  1.0
  C  C78  1  0.18677000  0.84093000  0.16680000  1.0
  C  C79  1  0.81323000  0.15906000  0.83320000  1.0
  C  C80  1  0.80862000  0.23542000  0.36808000  1.0
  C  C81  1  0.19138000  0.76458000  0.63192000  1.0
  C  C82  1  0.56811000  0.68275000  0.07866000  1.0
  C  C83  1  0.43190000  0.31725000  0.92134000  1.0
  C  C84  1  0.31972000  0.09679000  0.16269000  1.0
  C  C85  1  0.68028000  0.90321000  0.83731000  1.0
  C  C86  1  0.56332000  0.94346000  0.23886000  1.0
  C  C87  1  0.43668000  0.05654000  0.76114000  1.0
  C  C88  1  0.17456000  0.11302000  0.12432000  1.0
  C  C89  1  0.82544000  0.88698000  0.87568000  1.0
  C  C90  1  0.65983000  0.03440000  0.15116000  1.0
  C  C91  1  0.34017000  0.96561000  0.84884000  1.0
  C  C92  1  0.82191000  0.12573000  0.54804000  1.0
  C  C93  1  0.17809000  0.87427000  0.45196000  1.0
  C  C94  1  0.94485000  0.72505000  0.18519000  1.0
  C  C95  1  0.05515000  0.27495000  0.81481000  1.0
  C  C96  1  0.56287000  0.99180000  0.34713000  1.0
  C  C97  1  0.43714000  0.00820000  0.65287000  1.0
  C  C98  1  0.21163000  0.34021000  0.39188000  1.0
  C  C99  1  0.78837000  0.65979000  0.60812000  1.0
  C  C100  1  0.11642000  0.70072000  0.17209000  1.0
  C  C101  1  0.88358000  0.29928000  0.82791000  1.0
  C  C102  1  0.16377000  0.63603000  0.07197000  1.0
  C  C103  1  0.83623000  0.36397000  0.92803000  1.0
  C  C104  1  0.07727000  0.46361000  0.52339000  1.0
  C  C105  1  0.92273000  0.53639000  0.47661000  1.0
  N  N106  1  0.41359000  0.68116000  0.24655000  1.0
  N  N107  1  0.58641000  0.31884000  0.75345000  1.0
  O  O108  1  0.68912000  0.23585000  0.53156000  1.0
  O  O109  1  0.31088000  0.76415000  0.46844000  1.0
  O  O110  1  0.88909000  0.11962000  0.44114000  1.0
  O  O111  1  0.11091000  0.88037000  0.55886000  1.0
  O  O112  1  0.19242000  0.46884000  0.43893000  1.0
  O  O113  1  0.80758000  0.53116000  0.56107000  1.0
