# generated using pymatgen
data_CuH20C22(N2O3)2
_symmetry_space_group_name_H-M   'P 1'
_cell_length_a   5.01688000
_cell_length_b   10.34960000
_cell_length_c   11.17708467
_cell_angle_alpha   116.47408767
_cell_angle_beta   97.55437895
_cell_angle_gamma   94.30790000
_symmetry_Int_Tables_number   1
_chemical_formula_structural   CuH20C22(N2O3)2
_chemical_formula_sum   'Cu1 H20 C22 N4 O6'
_cell_volume   509.09731757
_cell_formula_units_Z   1
loop_
 _symmetry_equiv_pos_site_id
 _symmetry_equiv_pos_as_xyz
  1  'x, y, z'
loop_
 _atom_site_type_symbol
 _atom_site_label
 _atom_site_symmetry_multiplicity
 _atom_site_fract_x
 _atom_site_fract_y
 _atom_site_fract_z
 _atom_site_occupancy
  Cu  Cu0  1  0.00000000  0.00000000  0.00000000  1.0
  H  H1  1  0.53113000  0.58840000  0.60339000  1.0
  H  H2  1  0.46883000  0.41157000  0.39661000  1.0
  H  H3  1  0.24279000  0.57275000  0.67468000  1.0
  H  H4  1  0.75719000  0.42723000  0.32532000  1.0
  H  H5  1  0.45529000  0.74371000  0.74449000  1.0
  H  H6  1  0.54467000  0.25628000  0.25551000  1.0
  H  H7  1  0.79099000  0.90013000  0.35368000  1.0
  H  H8  1  0.20900000  0.09986000  0.64631000  1.0
  H  H9  1  0.68916000  0.96025000  0.51639000  1.0
  H  H10  1  0.31083000  0.03975000  0.48361000  1.0
  H  H11  1  0.51676000  0.79666000  0.37462000  1.0
  H  H12  1  0.48323000  0.20333000  0.62538000  1.0
  H  H13  1  0.01493000  0.68476000  0.85260000  1.0
  H  H14  1  0.98511000  0.31525000  0.14741000  1.0
  H  H15  1  0.82334000  0.45877000  0.85251000  1.0
  H  H16  1  0.17670000  0.54125000  0.14750000  1.0
  H  H17  1  0.32968000  0.71987000  0.13549000  1.0
  H  H18  1  0.67033000  0.28015000  0.86451000  1.0
  H  H19  1  0.54850000  0.93274000  0.12670000  1.0
  H  H20  1  0.45152000  0.06727000  0.87331000  1.0
  C  C21  1  0.95046000  0.88975000  0.72180000  1.0
  C  C22  1  0.04953000  0.11026000  0.27820000  1.0
  C  C23  1  0.01267000  0.79147000  0.58762000  1.0
  C  C24  1  0.98731000  0.20851000  0.41238000  1.0
  C  C25  1  0.19798000  0.68641000  0.55609000  1.0
  C  C26  1  0.80200000  0.31357000  0.44391000  1.0
  C  C27  1  0.90888000  0.78515000  0.46448000  1.0
  C  C28  1  0.09112000  0.21485000  0.53552000  1.0
  C  C29  1  0.36849000  0.64568000  0.64968000  1.0
  C  C30  1  0.63148000  0.35431000  0.35032000  1.0
  C  C31  1  0.71579000  0.86555000  0.42427000  1.0
  C  C32  1  0.28421000  0.13444000  0.57573000  1.0
  C  C33  1  0.86671000  0.68664000  0.91593000  1.0
  C  C34  1  0.13331000  0.31337000  0.08407000  1.0
  C  C35  1  0.75548000  0.56028000  0.91682000  1.0
  C  C36  1  0.24454000  0.43973000  0.08318000  1.0
  C  C37  1  0.55981000  0.56608000  0.99740000  1.0
  C  C38  1  0.44018000  0.43394000  0.00259000  1.0
  C  C39  1  0.48258000  0.70352000  0.07158000  1.0
  C  C40  1  0.51740000  0.29649000  0.92841000  1.0
  C  C41  1  0.60454000  0.82576000  0.06695000  1.0
  C  C42  1  0.39547000  0.17424000  0.93304000  1.0
  N  N43  1  0.20513000  0.62165000  0.42505000  1.0
  N  N44  1  0.79487000  0.37834000  0.57495000  1.0
  N  N45  1  0.79627000  0.81820000  0.99114000  1.0
  N  N46  1  0.20373000  0.18181000  0.00886000  1.0
  O  O47  1  0.09061000  0.87919000  0.82347000  1.0
  O  O48  1  0.90940000  0.12082000  0.17653000  1.0
  O  O49  1  0.78003000  0.97511000  0.73437000  1.0
  O  O50  1  0.21999000  0.02491000  0.26563000  1.0
  O  O51  1  0.01944000  0.68492000  0.36554000  1.0
  O  O52  1  0.98058000  0.31508000  0.63446000  1.0
