# generated using pymatgen
data_La2H40C52O19
_symmetry_space_group_name_H-M   'P 1'
_cell_length_a   7.39752000
_cell_length_b   14.46490000
_cell_length_c   16.97717649
_cell_angle_alpha   104.03811788
_cell_angle_beta   102.59785763
_cell_angle_gamma   89.99640000
_symmetry_Int_Tables_number   1
_chemical_formula_structural   La2H40C52O19
_chemical_formula_sum   'La2 H40 C52 O19'
_cell_volume   1717.26744930
_cell_formula_units_Z   1
loop_
 _symmetry_equiv_pos_site_id
 _symmetry_equiv_pos_as_xyz
  1  'x, y, z'
loop_
 _atom_site_type_symbol
 _atom_site_label
 _atom_site_symmetry_multiplicity
 _atom_site_fract_x
 _atom_site_fract_y
 _atom_site_fract_z
 _atom_site_occupancy
  La  La0  1  0.50585000  0.96408000  0.50045000  1.0
  La  La1  1  0.00536000  0.03578000  0.49952000  1.0
  H  H2  1  0.29378000  0.53327000  0.10530000  1.0
  H  H3  1  0.18823000  0.46682000  0.89477000  1.0
  H  H4  1  0.31545000  0.42698000  0.02784000  1.0
  H  H5  1  0.28746000  0.57316000  0.97213000  1.0
  H  H6  1  0.88870000  0.49517000  0.10527000  1.0
  H  H7  1  0.78312000  0.50503000  0.89461000  1.0
  H  H8  1  0.91552000  0.42015000  0.17695000  1.0
  H  H9  1  0.73842000  0.57996000  0.82285000  1.0
  H  H10  1  0.37932000  0.33597000  0.12707000  1.0
  H  H11  1  0.25235000  0.66406000  0.87310000  1.0
  H  H12  1  0.36243000  0.43922000  0.20843000  1.0
  H  H13  1  0.15393000  0.56095000  0.79162000  1.0
  H  H14  1  0.96702000  0.27380000  0.07265000  1.0
  H  H15  1  0.89392000  0.72625000  0.92729000  1.0
  H  H16  1  0.88813000  0.35057000  0.00478000  1.0
  H  H17  1  0.88313000  0.64946000  0.99517000  1.0
  H  H18  1  0.58653000  0.35178000  0.24793000  1.0
  H  H19  1  0.33893000  0.64832000  0.75228000  1.0
  H  H20  1  0.80026000  0.27372000  0.34256000  1.0
  H  H21  1  0.45833000  0.72629000  0.65770000  1.0
  H  H22  1  0.33973000  0.11693000  0.37465000  1.0
  H  H23  1  0.96563000  0.88305000  0.62523000  1.0
  H  H24  1  0.12076000  0.19577000  0.28070000  1.0
  H  H25  1  0.84050000  0.80441000  0.71921000  1.0
  H  H26  1  0.27260000  0.21536000  0.86045000  1.0
  H  H27  1  0.41194000  0.78474000  0.13950000  1.0
  H  H28  1  0.11348000  0.11698000  0.72028000  1.0
  H  H29  1  0.39299000  0.88297000  0.27968000  1.0
  H  H30  1  0.60728000  0.10903000  0.80405000  1.0
  H  H31  1  0.80288000  0.89074000  0.19590000  1.0
  H  H32  1  0.76242000  0.20749000  0.94395000  1.0
  H  H33  1  0.81811000  0.79241000  0.05595000  1.0
  H  H34  1  0.71379000  0.54882000  0.19015000  1.0
  H  H35  1  0.52357000  0.45108000  0.80986000  1.0
  H  H36  1  0.55550000  0.67199000  0.27586000  1.0
  H  H37  1  0.27976000  0.32776000  0.72409000  1.0
  H  H38  1  0.08281000  0.79757000  0.42628000  1.0
  H  H39  1  0.65671000  0.20239000  0.57372000  1.0
  H  H40  1  0.24554000  0.67800000  0.33942000  1.0
  H  H41  1  0.90619000  0.32209000  0.66064000  1.0
  C  C42  1  0.12618000  0.40904000  0.10386000  1.0
  C  C43  1  0.02210000  0.59107000  0.89610000  1.0
  C  C44  1  0.21697000  0.47020000  0.05954000  1.0
  C  C45  1  0.15722000  0.52994000  0.94049000  1.0
  C  C46  1  0.98989000  0.46636000  0.14994000  1.0
  C  C47  1  0.83975000  0.53377000  0.84994000  1.0
  C  C48  1  0.28488000  0.37646000  0.16312000  1.0
  C  C49  1  0.12177000  0.62371000  0.83696000  1.0
  C  C50  1  0.01144000  0.32420000  0.04031000  1.0
  C  C51  1  0.97077000  0.67587000  0.95962000  1.0
  C  C52  1  0.33938000  0.27751000  0.25772000  1.0
  C  C53  1  0.08206000  0.72268000  0.74238000  1.0
  C  C54  1  0.53086000  0.30026000  0.27490000  1.0
  C  C55  1  0.25640000  0.69986000  0.72526000  1.0
  C  C56  1  0.65133000  0.25666000  0.32798000  1.0
  C  C57  1  0.32393000  0.74342000  0.67219000  1.0
  C  C58  1  0.58396000  0.18975000  0.36336000  1.0
  C  C59  1  0.22127000  0.81027000  0.63671000  1.0
  C  C60  1  0.39206000  0.16801000  0.34616000  1.0
  C  C61  1  0.04647000  0.83201000  0.65379000  1.0
  C  C62  1  0.26991000  0.21185000  0.29411000  1.0
  C  C63  1  0.97629000  0.78830000  0.70587000  1.0
  C  C64  1  0.02714000  0.21931000  0.91019000  1.0
  C  C65  1  0.11666000  0.78067000  0.08974000  1.0
  C  C66  1  0.12704000  0.19128000  0.84764000  1.0
  C  C67  1  0.27912000  0.80872000  0.15230000  1.0
  C  C68  1  0.03835000  0.13585000  0.76984000  1.0
  C  C69  1  0.26822000  0.86405000  0.23014000  1.0
  C  C70  1  0.84972000  0.10707000  0.75345000  1.0
  C  C71  1  0.09596000  0.89275000  0.24652000  1.0
  C  C72  1  0.75301000  0.13276000  0.81715000  1.0
  C  C73  1  0.93547000  0.86700000  0.18280000  1.0
  C  C74  1  0.83997000  0.18858000  0.89527000  1.0
  C  C75  1  0.94434000  0.81130000  0.10466000  1.0
  C  C76  1  0.74724000  0.05381000  0.66971000  1.0
  C  C77  1  0.07740000  0.94604000  0.33025000  1.0
  C  C78  1  0.99076000  0.60591000  0.25936000  1.0
  C  C79  1  0.73133000  0.39409000  0.74064000  1.0
  C  C80  1  0.79588000  0.60339000  0.24139000  1.0
  C  C81  1  0.55446000  0.39654000  0.75863000  1.0
  C  C82  1  0.70652000  0.67228000  0.28959000  1.0
  C  C83  1  0.41708000  0.32757000  0.71040000  1.0
  C  C84  1  0.80854000  0.74303000  0.35618000  1.0
  C  C85  1  0.45257000  0.25687000  0.64380000  1.0
  C  C86  1  0.00313000  0.74332000  0.37411000  1.0
  C  C87  1  0.62917000  0.25664000  0.62587000  1.0
  C  C88  1  0.09445000  0.67624000  0.32612000  1.0
  C  C89  1  0.76838000  0.32378000  0.67390000  1.0
  C  C90  1  0.71087000  0.81693000  0.40515000  1.0
  C  C91  1  0.30598000  0.18291000  0.59483000  1.0
  C  C92  1  0.71733000  0.14318000  0.41729000  1.0
  C  C93  1  0.30083000  0.85675000  0.58280000  1.0
  O  O94  1  0.82743000  0.03938000  0.60701000  1.0
  O  O95  1  0.22035000  0.96039000  0.39292000  1.0
  O  O96  1  0.58023000  0.02426000  0.65853000  1.0
  O  O97  1  0.92168000  0.97575000  0.34145000  1.0
  O  O98  1  0.88697000  0.17221000  0.44030000  1.0
  O  O99  1  0.44774000  0.82783000  0.56003000  1.0
  O  O100  1  0.65988000  0.07107000  0.44050000  1.0
  O  O101  1  0.21987000  0.92869000  0.55933000  1.0
  O  O102  1  0.80644000  0.88383000  0.46558000  1.0
  O  O103  1  0.34101000  0.11605000  0.53436000  1.0
  O  O104  1  0.53478000  0.81553000  0.38838000  1.0
  O  O105  1  0.14673000  0.18424000  0.61167000  1.0
  O  O106  1  0.21141000  0.31662000  0.20574000  1.0
  O  O107  1  0.00600000  0.68368000  0.79438000  1.0
  O  O108  1  0.09104000  0.54255000  0.21478000  1.0
  O  O109  1  0.87615000  0.45750000  0.78519000  1.0
  O  O110  1  0.12136000  0.27767000  0.98405000  1.0
  O  O111  1  0.13700000  0.72242000  0.01585000  1.0
  O  O112  1  0.07791000  0.50012000  0.00007000  1.0
