# generated using pymatgen
data_CdH8C12(IN)2
_symmetry_space_group_name_H-M   'P 1'
_cell_length_a   7.62603000
_cell_length_b   9.90504000
_cell_length_c   9.90506000
_cell_angle_alpha   68.33950000
_cell_angle_beta   77.37490000
_cell_angle_gamma   77.37470000
_symmetry_Int_Tables_number   1
_chemical_formula_structural   CdH8C12(IN)2
_chemical_formula_sum   'Cd2 H16 C24 I4 N4'
_cell_volume   670.65539725
_cell_formula_units_Z   2
loop_
 _symmetry_equiv_pos_site_id
 _symmetry_equiv_pos_as_xyz
  1  'x, y, z'
loop_
 _atom_site_type_symbol
 _atom_site_label
 _atom_site_symmetry_multiplicity
 _atom_site_fract_x
 _atom_site_fract_y
 _atom_site_fract_z
 _atom_site_occupancy
  Cd  Cd0  1  0.75000000  0.57632000  0.42367000  1.0
  Cd  Cd1  1  0.25000000  0.42367000  0.57633000  1.0
  H  H2  1  0.07900000  0.49570000  0.17059000  1.0
  H  H3  1  0.42099000  0.82940000  0.50430000  1.0
  H  H4  1  0.92099000  0.50430000  0.82940000  1.0
  H  H5  1  0.57901000  0.17060000  0.49570000  1.0
  H  H6  1  0.20471000  0.60612000  0.90264000  1.0
  H  H7  1  0.29528000  0.09736000  0.39388000  1.0
  H  H8  1  0.79528000  0.39388000  0.09736000  1.0
  H  H9  1  0.70472000  0.90264000  0.60612000  1.0
  H  H10  1  0.07602000  0.86317000  0.76330000  1.0
  H  H11  1  0.42398000  0.23670000  0.13683000  1.0
  H  H12  1  0.92398000  0.13683000  0.23671000  1.0
  H  H13  1  0.57602000  0.76330000  0.86317000  1.0
  H  H14  1  0.63157000  0.23236000  0.90340000  1.0
  H  H15  1  0.86843000  0.09661000  0.76764000  1.0
  H  H16  1  0.36844000  0.76764000  0.09660000  1.0
  H  H17  1  0.13157000  0.90340000  0.23236000  1.0
  C  C18  1  0.02617000  0.60727000  0.10527000  1.0
  C  C19  1  0.47383000  0.89473000  0.39273000  1.0
  C  C20  1  0.97383000  0.39273000  0.89472000  1.0
  C  C21  1  0.52617000  0.10527000  0.60727000  1.0
  C  C22  1  0.09552000  0.66937000  0.95593000  1.0
  C  C23  1  0.40448000  0.04407000  0.33063000  1.0
  C  C24  1  0.90449000  0.33062000  0.04407000  1.0
  C  C25  1  0.59552000  0.95593000  0.66937000  1.0
  C  C26  1  0.02502000  0.81157000  0.87932000  1.0
  C  C27  1  0.47497000  0.12068000  0.18843000  1.0
  C  C28  1  0.97498000  0.18842000  0.12068000  1.0
  C  C29  1  0.52503000  0.87932000  0.81157000  1.0
  C  C30  1  0.88741000  0.89213000  0.95273000  1.0
  C  C31  1  0.61258000  0.04727000  0.10787000  1.0
  C  C32  1  0.11259000  0.10786000  0.04727000  1.0
  C  C33  1  0.38742000  0.95273000  0.89213000  1.0
  C  C34  1  0.82195000  0.81913000  0.10297000  1.0
  C  C35  1  0.67805000  0.89703000  0.18087000  1.0
  C  C36  1  0.17806000  0.18087000  0.89703000  1.0
  C  C37  1  0.32195000  0.10297000  0.81913000  1.0
  C  C38  1  0.81545000  0.04233000  0.88261000  1.0
  C  C39  1  0.68454000  0.11739000  0.95767000  1.0
  C  C40  1  0.18455000  0.95767000  0.11739000  1.0
  C  C41  1  0.31546000  0.88261000  0.04233000  1.0
  I  I42  1  0.01504000  0.70615000  0.52270000  1.0
  I  I43  1  0.48496000  0.47730000  0.29385000  1.0
  I  I44  1  0.98496000  0.29385000  0.47730000  1.0
  I  I45  1  0.51504000  0.52270000  0.70615000  1.0
  N  N46  1  0.89206000  0.67886000  0.17555000  1.0
  N  N47  1  0.60794000  0.82445000  0.32114000  1.0
  N  N48  1  0.10794000  0.32113000  0.82445000  1.0
  N  N49  1  0.39206000  0.17555000  0.67887000  1.0
