# generated using pymatgen
data_ZnH12C10(NO2)2
_symmetry_space_group_name_H-M   'P 1'
_cell_length_a   5.18169000
_cell_length_b   10.28810000
_cell_length_c   12.47820000
_cell_angle_alpha   92.48950000
_cell_angle_beta   97.95200000
_cell_angle_gamma   91.42800000
_symmetry_Int_Tables_number   1
_chemical_formula_structural   ZnH12C10(NO2)2
_chemical_formula_sum   'Zn2 H24 C20 N4 O8'
_cell_volume   657.86976329
_cell_formula_units_Z   2
loop_
 _symmetry_equiv_pos_site_id
 _symmetry_equiv_pos_as_xyz
  1  'x, y, z'
loop_
 _atom_site_type_symbol
 _atom_site_label
 _atom_site_symmetry_multiplicity
 _atom_site_fract_x
 _atom_site_fract_y
 _atom_site_fract_z
 _atom_site_occupancy
  Zn  Zn0  1  0.74622000  0.46017000  0.73398000  1.0
  Zn  Zn1  1  0.25379000  0.53983000  0.26603000  1.0
  H  H2  1  0.30017000  0.53965000  0.65653000  1.0
  H  H3  1  0.69985000  0.46034000  0.34346000  1.0
  H  H4  1  0.27980000  0.38283000  0.65486000  1.0
  H  H5  1  0.72020000  0.61717000  0.34514000  1.0
  H  H6  1  0.88238000  0.47201000  0.93743000  1.0
  H  H7  1  0.11753000  0.52798000  0.06258000  1.0
  H  H8  1  0.69416000  0.34083000  0.89457000  1.0
  H  H9  1  0.30577000  0.65915000  0.10543000  1.0
  H  H10  1  0.27090000  0.74576000  0.61426000  1.0
  H  H11  1  0.72914000  0.25424000  0.38575000  1.0
  H  H12  1  0.44458000  0.95199000  0.55440000  1.0
  H  H13  1  0.55545000  0.04801000  0.44562000  1.0
  H  H14  1  0.25681000  0.16322000  0.60536000  1.0
  H  H15  1  0.74320000  0.83677000  0.39465000  1.0
  H  H16  1  0.73578000  0.95843000  0.78423000  1.0
  H  H17  1  0.26424000  0.04157000  0.21577000  1.0
  H  H18  1  0.20861000  0.46191000  0.47317000  1.0
  H  H19  1  0.79142000  0.53809000  0.52683000  1.0
  H  H20  1  0.46333000  0.35100000  0.49496000  1.0
  H  H21  1  0.53669000  0.64899000  0.50504000  1.0
  H  H22  1  0.30990000  0.45783000  0.89728000  1.0
  H  H23  1  0.69004000  0.54217000  0.10270000  1.0
  H  H24  1  0.49194000  0.60749000  0.91617000  1.0
  H  H25  1  0.50799000  0.39251000  0.08381000  1.0
  C  C26  1  0.87836000  0.71393000  0.73616000  1.0
  C  C27  1  0.12166000  0.28608000  0.26385000  1.0
  C  C28  1  0.99114000  0.83818000  0.70255000  1.0
  C  C29  1  0.00888000  0.16182000  0.29745000  1.0
  C  C30  1  0.19089000  0.83779000  0.63754000  1.0
  C  C31  1  0.80912000  0.16222000  0.36246000  1.0
  C  C32  1  0.28705000  0.95413000  0.60352000  1.0
  C  C33  1  0.71299000  0.04588000  0.39650000  1.0
  C  C34  1  0.18430000  0.07212000  0.63296000  1.0
  C  C35  1  0.81572000  0.92790000  0.36704000  1.0
  C  C36  1  0.98579000  0.07425000  0.69868000  1.0
  C  C37  1  0.01423000  0.92574000  0.30132000  1.0
  C  C38  1  0.89068000  0.95697000  0.73347000  1.0
  C  C39  1  0.10931000  0.04304000  0.26653000  1.0
  C  C40  1  0.86877000  0.19845000  0.73234000  1.0
  C  C41  1  0.13127000  0.80155000  0.26767000  1.0
  C  C42  1  0.40504000  0.44961000  0.51712000  1.0
  C  C43  1  0.59499000  0.55039000  0.48288000  1.0
  C  C44  1  0.49157000  0.50548000  0.93879000  1.0
  C  C45  1  0.50836000  0.49453000  0.06119000  1.0
  N  N46  1  0.39870000  0.45816000  0.63562000  1.0
  N  N47  1  0.60131000  0.54184000  0.36438000  1.0
  N  N48  1  0.70779000  0.44133000  0.89447000  1.0
  N  N49  1  0.29215000  0.55867000  0.10552000  1.0
  O  O50  1  0.98882000  0.60608000  0.70854000  1.0
  O  O51  1  0.01118000  0.39390000  0.29145000  1.0
  O  O52  1  0.68239000  0.71288000  0.78440000  1.0
  O  O53  1  0.31763000  0.28712000  0.21560000  1.0
  O  O54  1  0.69484000  0.19546000  0.79271000  1.0
  O  O55  1  0.30518000  0.80454000  0.20729000  1.0
  O  O56  1  0.95385000  0.30636000  0.69470000  1.0
  O  O57  1  0.04616000  0.69365000  0.30529000  1.0
