# generated using pymatgen
data_MnCrBH34C34N11O4
_symmetry_space_group_name_H-M   'P 1'
_cell_length_a   8.91096000
_cell_length_b   13.39310000
_cell_length_c   17.39790000
_cell_angle_alpha   89.59880000
_cell_angle_beta   89.44820000
_cell_angle_gamma   83.08770000
_symmetry_Int_Tables_number   1
_chemical_formula_structural   MnCrBH34C34N11O4
_chemical_formula_sum   'Mn2 Cr2 B2 H68 C68 N22 O8'
_cell_volume   2061.13570373
_cell_formula_units_Z   2
loop_
 _symmetry_equiv_pos_site_id
 _symmetry_equiv_pos_as_xyz
  1  'x, y, z'
loop_
 _atom_site_type_symbol
 _atom_site_label
 _atom_site_symmetry_multiplicity
 _atom_site_fract_x
 _atom_site_fract_y
 _atom_site_fract_z
 _atom_site_occupancy
  Mn  Mn0  1  0.09036000  0.49694000  0.34487000  1.0
  Mn  Mn1  1  0.92736000  0.49482000  0.82527000  1.0
  Cr  Cr2  1  0.79217000  0.66398000  0.10050000  1.0
  Cr  Cr3  1  0.20398000  0.34148000  0.59925000  1.0
  B  B4  1  0.46697000  0.77451000  0.13697000  1.0
  B  B5  1  0.52937000  0.23078000  0.63552000  1.0
  H  H6  1  0.80352000  0.72502000  0.41556000  1.0
  H  H7  1  0.19522000  0.27401000  0.92000000  1.0
  H  H8  1  0.73260000  0.54405000  0.31506000  1.0
  H  H9  1  0.28385000  0.45172000  0.81294000  1.0
  H  H10  1  0.87444000  0.25795000  0.33442000  1.0
  H  H11  1  0.12470000  0.74165000  0.83543000  1.0
  H  H12  1  0.84696000  0.43094000  0.45977000  1.0
  H  H13  1  0.14814000  0.56502000  0.95342000  1.0
  H  H14  1  0.60468000  0.67067000  0.40565000  1.0
  H  H15  1  0.39927000  0.32639000  0.90823000  1.0
  H  H16  1  0.67723000  0.59684000  0.48529000  1.0
  H  H17  1  0.31773000  0.40230000  0.98485000  1.0
  H  H18  1  0.46503000  0.28891000  0.24176000  1.0
  H  H19  1  0.54273000  0.70780000  0.73807000  1.0
  H  H20  1  0.39892000  0.73275000  0.32242000  1.0
  H  H21  1  0.60767000  0.26485000  0.81879000  1.0
  H  H22  1  0.70753000  0.29543000  0.41415000  1.0
  H  H23  1  0.29248000  0.70153000  0.90989000  1.0
  H  H24  1  0.64058000  0.36962000  0.33302000  1.0
  H  H25  1  0.36781000  0.62756000  0.83037000  1.0
  H  H26  1  0.90794000  0.86994000  0.44260000  1.0
  H  H27  1  0.08994000  0.12912000  0.94448000  1.0
  H  H28  1  0.41228000  0.56749000  0.45806000  1.0
  H  H29  1  0.58611000  0.43153000  0.96174000  1.0
  H  H30  1  0.45892000  0.53745000  0.36205000  1.0
  H  H31  1  0.54948000  0.45959000  0.86461000  1.0
  H  H32  1  0.45608000  0.11692000  0.18860000  1.0
  H  H33  1  0.54557000  0.88475000  0.69211000  1.0
  H  H34  1  0.99371000  0.12516000  0.26524000  1.0
  H  H35  1  0.00649000  0.87733000  0.76634000  1.0
  H  H36  1  0.36100000  0.90940000  0.37134000  1.0
  H  H37  1  0.64010000  0.08975000  0.87282000  1.0
  H  H38  1  0.44762000  0.38200000  0.43699000  1.0
  H  H39  1  0.55092000  0.61655000  0.93713000  1.0
  H  H40  1  0.58030000  0.41721000  0.50357000  1.0
  H  H41  1  0.41267000  0.58166000  0.00233000  1.0
  H  H42  1  0.77839000  0.77531000  0.92576000  1.0
  H  H43  1  0.21626000  0.22422000  0.42864000  1.0
  H  H44  1  0.66307000  0.44252000  0.13104000  1.0
  H  H45  1  0.33127000  0.56260000  0.62854000  1.0
  H  H46  1  0.93447000  0.79557000  0.24093000  1.0
  H  H47  1  0.05934000  0.20653000  0.73933000  1.0
  H  H48  1  0.51857000  0.89091000  0.87966000  1.0
  H  H49  1  0.47481000  0.10640000  0.38261000  1.0
  H  H50  1  0.34425000  0.81670000  0.15178000  1.0
  H  H51  1  0.65212000  0.18883000  0.64981000  1.0
  H  H52  1  0.32755000  0.88656000  0.00748000  1.0
  H  H53  1  0.66770000  0.11521000  0.50738000  1.0
  H  H54  1  0.36007000  0.43771000  0.16923000  1.0
  H  H55  1  0.63247000  0.56780000  0.66651000  1.0
  H  H56  1  0.24495000  0.63680000  0.17329000  1.0
  H  H57  1  0.74865000  0.36846000  0.67103000  1.0
  H  H58  1  0.74770000  0.94494000  0.31547000  1.0
  H  H59  1  0.24473000  0.05846000  0.81527000  1.0
  H  H60  1  0.46548000  0.92961000  0.25163000  1.0
  H  H61  1  0.52940000  0.07620000  0.75234000  1.0
  H  H62  1  0.89203000  0.04282000  0.42059000  1.0
  H  H63  1  0.10682000  0.95758000  0.91954000  1.0
  H  H64  1  0.99602000  0.12029000  0.47896000  1.0
  H  H65  1  0.00455000  0.87754000  0.97848000  1.0
  H  H66  1  0.95139000  0.00238000  0.51541000  1.0
  H  H67  1  0.04917000  0.99423000  0.01548000  1.0
  H  H68  1  0.06344000  0.95381000  0.25367000  1.0
  H  H69  1  0.93557000  0.04883000  0.75662000  1.0
  H  H70  1  0.12136000  0.89722000  0.16307000  1.0
  H  H71  1  0.87504000  0.10832000  0.66733000  1.0
  H  H72  1  0.00200000  0.01506000  0.16516000  1.0
  H  H73  1  0.99547000  0.99096000  0.66666667  1.0
  C  C74  1  0.91029000  0.68374000  0.39584000  1.0
  C  C75  1  0.09332000  0.31356000  0.89401000  1.0
  C  C76  1  0.76852000  0.54307000  0.37577000  1.0
  C  C77  1  0.23918000  0.45298000  0.87257000  1.0
  C  C78  1  0.23299000  0.30731000  0.28066000  1.0
  C  C79  1  0.77575000  0.68906000  0.77361000  1.0
  C  C80  1  0.17720000  0.69949000  0.35743000  1.0
  C  C81  1  0.82949000  0.29705000  0.85169000  1.0
  C  C82  1  0.96617000  0.30474000  0.32643000  1.0
  C  C83  1  0.03832000  0.69287000  0.82212000  1.0
  C  C84  1  0.81048000  0.43247000  0.39919000  1.0
  C  C85  1  0.19231000  0.56356000  0.89383000  1.0
  C  C86  1  0.92221000  0.57261000  0.17119000  1.0
  C  C87  1  0.07678000  0.42865000  0.67371000  1.0
  C  C88  1  0.03670000  0.74002000  0.39150000  1.0
  C  C89  1  0.96671000  0.25769000  0.88865000  1.0
  C  C90  1  0.63921000  0.59309000  0.42530000  1.0
  C  C91  1  0.36266000  0.40445000  0.92560000  1.0
  C  C92  1  0.36183000  0.25288000  0.24536000  1.0
  C  C93  1  0.64471000  0.74486000  0.74219000  1.0
  C  C94  1  0.09879000  0.25888000  0.28759000  1.0
  C  C95  1  0.90706000  0.73942000  0.78314000  1.0
  C  C96  1  0.29298000  0.76317000  0.34990000  1.0
  C  C97  1  0.71202000  0.23442000  0.84701000  1.0
  C  C98  1  0.67630000  0.37278000  0.39343000  1.0
  C  C99  1  0.32630000  0.62422000  0.89022000  1.0
  C  C100  1  0.01668000  0.84106000  0.41728000  1.0
  C  C101  1  0.98331000  0.15763000  0.91753000  1.0
  C  C102  1  0.50405000  0.53296000  0.42077000  1.0
  C  C103  1  0.49793000  0.46487000  0.92244000  1.0
  C  C104  1  0.35700000  0.15755000  0.21650000  1.0
  C  C105  1  0.64597000  0.84295000  0.71746000  1.0
  C  C106  1  0.09710000  0.16034000  0.25837000  1.0
  C  C107  1  0.90525000  0.84062000  0.75795000  1.0
  C  C108  1  0.27163000  0.86079000  0.37620000  1.0
  C  C109  1  0.73013000  0.13788000  0.87635000  1.0
  C  C110  1  0.54615000  0.42289000  0.44295000  1.0
  C  C111  1  0.45230000  0.57521000  0.94223000  1.0
  C  C112  1  0.83250000  0.56804000  0.01337000  1.0
  C  C113  1  0.16344000  0.43223000  0.50881000  1.0
  C  C114  1  0.98513000  0.71980000  0.07091000  1.0
  C  C115  1  0.01383000  0.28266000  0.57154000  1.0
  C  C116  1  0.13264000  0.90094000  0.41006000  1.0
  C  C117  1  0.86744000  0.09795000  0.91105000  1.0
  C  C118  1  0.22344000  0.11046000  0.22228000  1.0
  C  C119  1  0.77783000  0.89135000  0.72404000  1.0
  C  C120  1  0.67373000  0.79527000  0.95727000  1.0
  C  C121  1  0.32143000  0.20552000  0.45912000  1.0
  C  C122  1  0.57304000  0.50358000  0.13988000  1.0
  C  C123  1  0.42145000  0.50157000  0.63702000  1.0
  C  C124  1  0.81399000  0.81755000  0.23510000  1.0
  C  C125  1  0.18020000  0.18556000  0.73379000  1.0
  C  C126  1  0.54042000  0.85406000  0.93473000  1.0
  C  C127  1  0.45406000  0.14551000  0.43665000  1.0
  C  C128  1  0.44324000  0.85335000  0.99797000  1.0
  C  C129  1  0.55227000  0.14870000  0.49825000  1.0
  C  C130  1  0.42017000  0.50203000  0.15855000  1.0
  C  C131  1  0.57358000  0.50337000  0.65558000  1.0
  C  C132  1  0.35936000  0.60275000  0.16183000  1.0
  C  C133  1  0.63495000  0.40271000  0.65900000  1.0
  C  C134  1  0.71756000  0.89293000  0.27243000  1.0
  C  C135  1  0.27601000  0.11071000  0.77184000  1.0
  C  C136  1  0.57482000  0.88622000  0.24204000  1.0
  C  C137  1  0.41991000  0.11885000  0.74200000  1.0
  C  C138  1  0.98279000  0.04296000  0.46343000  1.0
  C  C139  1  0.01690000  0.95545000  0.96353000  1.0
  C  C140  1  0.09590000  0.96844000  0.19376000  1.0
  C  C141  1  0.90192000  0.03617000  0.69706000  1.0
  N  N142  1  0.91078000  0.58976000  0.37611000  1.0
  N  N143  1  0.09801000  0.40553000  0.86964000  1.0
  N  N144  1  0.94673000  0.39587000  0.35386000  1.0
  N  N145  1  0.06077000  0.59916000  0.84521000  1.0
  N  N146  1  0.14245000  0.46983000  0.44798000  1.0
  N  N147  1  0.84934000  0.51840000  0.95806000  1.0
  N  N148  1  0.00040000  0.52414000  0.21470000  1.0
  N  N149  1  0.00933000  0.46611000  0.72659000  1.0
  N  N150  1  0.65792000  0.76125000  0.02946000  1.0
  N  N151  1  0.33872000  0.24276000  0.52965000  1.0
  N  N152  1  0.60290000  0.59949000  0.13225000  1.0
  N  N153  1  0.39261000  0.40559000  0.62947000  1.0
  N  N154  1  0.73434000  0.76872000  0.18557000  1.0
  N  N155  1  0.26117000  0.23558000  0.68434000  1.0
  N  N156  1  0.51626000  0.79738000  0.05405000  1.0
  N  N157  1  0.48059000  0.20741000  0.55332000  1.0
  N  N158  1  0.47107000  0.65982000  0.14607000  1.0
  N  N159  1  0.52432000  0.34554000  0.64329000  1.0
  N  N160  1  0.58763000  0.81058000  0.19059000  1.0
  N  N161  1  0.40825000  0.19478000  0.69010000  1.0
  N  N162  1  0.10164000  0.74722000  0.05396000  1.0
  N  N163  1  0.90009000  0.25214000  0.55497000  1.0
  O  O164  1  0.24371000  0.39831000  0.30636000  1.0
  O  O165  1  0.76985000  0.59484000  0.79439000  1.0
  O  O166  1  0.20234000  0.60693000  0.33138000  1.0
  O  O167  1  0.80710000  0.38768000  0.82120000  1.0
  O  O168  1  0.12406000  0.99918000  0.43251000  1.0
  O  O169  1  0.87494000  0.99982000  0.93489000  1.0
  O  O170  1  0.23112000  0.01619000  0.19083000  1.0
  O  O171  1  0.76730000  0.98779000  0.69554000  1.0
