# generated using pymatgen
data_Cu4H24WC36S4(BrN9)2
_symmetry_space_group_name_H-M   'P 1'
_cell_length_a   13.77730000
_cell_length_b   20.50840000
_cell_length_c   20.50840000
_cell_angle_alpha   77.04100000
_cell_angle_beta   89.99910000
_cell_angle_gamma   89.99920000
_symmetry_Int_Tables_number   1
_chemical_formula_structural   Cu4H24WC36S4(BrN9)2
_chemical_formula_sum   'Cu16 H96 W4 C144 S16 Br8 N72'
_cell_volume   5647.07086465
_cell_formula_units_Z   4
loop_
 _symmetry_equiv_pos_site_id
 _symmetry_equiv_pos_as_xyz
  1  'x, y, z'
loop_
 _atom_site_type_symbol
 _atom_site_label
 _atom_site_symmetry_multiplicity
 _atom_site_fract_x
 _atom_site_fract_y
 _atom_site_fract_z
 _atom_site_occupancy
  Cu  Cu0  1  0.83035000  0.72550000  0.38524000  1.0
  Cu  Cu1  1  0.83036000  0.77449000  0.11475000  1.0
  Cu  Cu2  1  0.66964000  0.38525000  0.72551000  1.0
  Cu  Cu3  1  0.66965000  0.11476000  0.77450000  1.0
  Cu  Cu4  1  0.16965000  0.27450000  0.61476000  1.0
  Cu  Cu5  1  0.16964000  0.22551000  0.88525000  1.0
  Cu  Cu6  1  0.33036000  0.61475000  0.27449000  1.0
  Cu  Cu7  1  0.33035000  0.88524000  0.22550000  1.0
  Cu  Cu8  1  0.82366000  0.61853000  0.25216000  1.0
  Cu  Cu9  1  0.82363000  0.88147000  0.24781000  1.0
  Cu  Cu10  1  0.67637000  0.25219000  0.61853000  1.0
  Cu  Cu11  1  0.67635000  0.24784000  0.88147000  1.0
  Cu  Cu12  1  0.17636000  0.38147000  0.74783000  1.0
  Cu  Cu13  1  0.17638000  0.11853000  0.75219000  1.0
  Cu  Cu14  1  0.32363000  0.74781000  0.38146000  1.0
  Cu  Cu15  1  0.32365000  0.75217000  0.11853000  1.0
  H  H16  1  0.15911000  0.06100000  0.63448000  1.0
  H  H17  1  0.15909000  0.43899000  0.86554000  1.0
  H  H18  1  0.34091000  0.63446000  0.06100000  1.0
  H  H19  1  0.34089000  0.86551000  0.43900000  1.0
  H  H20  1  0.84089000  0.93900000  0.36552000  1.0
  H  H21  1  0.84091000  0.56100000  0.13446000  1.0
  H  H22  1  0.65909000  0.36554000  0.93900000  1.0
  H  H23  1  0.65911000  0.13448000  0.56100000  1.0
  H  H24  1  0.26018000  0.99631000  0.57229000  1.0
  H  H25  1  0.26017000  0.50367000  0.92775000  1.0
  H  H26  1  0.23983000  0.57226000  0.99632000  1.0
  H  H27  1  0.23982000  0.92771000  0.50369000  1.0
  H  H28  1  0.73982000  0.00369000  0.42771000  1.0
  H  H29  1  0.73983000  0.49632000  0.07226000  1.0
  H  H30  1  0.76017000  0.42774000  0.00367000  1.0
  H  H31  1  0.76018000  0.07229000  0.49631000  1.0
  H  H32  1  0.49511000  0.01084000  0.70984000  1.0
  H  H33  1  0.49508000  0.48915000  0.79018000  1.0
  H  H34  1  0.00492000  0.70983000  0.01085000  1.0
  H  H35  1  0.00490000  0.79016000  0.48916000  1.0
  H  H36  1  0.50490000  0.98916000  0.29016000  1.0
  H  H37  1  0.50492000  0.51085000  0.20982000  1.0
  H  H38  1  0.99508000  0.29018000  0.98915000  1.0
  H  H39  1  0.99510000  0.20984000  0.51084000  1.0
  H  H40  1  0.38452000  0.07390000  0.76652000  1.0
  H  H41  1  0.38449000  0.42610000  0.73350000  1.0
  H  H42  1  0.11551000  0.76650000  0.07389000  1.0
  H  H43  1  0.11548000  0.73348000  0.42611000  1.0
  H  H44  1  0.61549000  0.92611000  0.23348000  1.0
  H  H45  1  0.61551000  0.57389000  0.26650000  1.0
  H  H46  1  0.88449000  0.23350000  0.92610000  1.0
  H  H47  1  0.88451000  0.26651000  0.57390000  1.0
  H  H48  1  0.51937000  0.85357000  0.41891000  1.0
  H  H49  1  0.51937000  0.64643000  0.08109000  1.0
  H  H50  1  0.98063000  0.41891000  0.85357000  1.0
  H  H51  1  0.98063000  0.08109000  0.64643000  1.0
  H  H52  1  0.48063000  0.14643000  0.58109000  1.0
  H  H53  1  0.48063000  0.35357000  0.91891000  1.0
  H  H54  1  0.01937000  0.58109000  0.14643000  1.0
  H  H55  1  0.01937000  0.91891000  0.35357000  1.0
  H  H56  1  0.62683000  0.78465000  0.36365000  1.0
  H  H57  1  0.62684000  0.71535000  0.13634000  1.0
  H  H58  1  0.87316000  0.36365000  0.78465000  1.0
  H  H59  1  0.87317000  0.13635000  0.71535000  1.0
  H  H60  1  0.37317000  0.21535000  0.63635000  1.0
  H  H61  1  0.37316000  0.28465000  0.86366000  1.0
  H  H62  1  0.12684000  0.63634000  0.21535000  1.0
  H  H63  1  0.12683000  0.86365000  0.28465000  1.0
  H  H64  1  0.83521000  0.76847000  0.51206000  1.0
  H  H65  1  0.83523000  0.73150000  0.98793000  1.0
  H  H66  1  0.66477000  0.51206000  0.76849000  1.0
  H  H67  1  0.66479000  0.98794000  0.73153000  1.0
  H  H68  1  0.16479000  0.23153000  0.48794000  1.0
  H  H69  1  0.16477000  0.26849000  0.01206000  1.0
  H  H70  1  0.33522000  0.48794000  0.23151000  1.0
  H  H71  1  0.33521000  0.01206000  0.26847000  1.0
  H  H72  1  0.73941000  0.84092000  0.57204000  1.0
  H  H73  1  0.73942000  0.65906000  0.92796000  1.0
  H  H74  1  0.76058000  0.57204000  0.84094000  1.0
  H  H75  1  0.76059000  0.92796000  0.65908000  1.0
  H  H76  1  0.26059000  0.15908000  0.42796000  1.0
  H  H77  1  0.26058000  0.34094000  0.07204000  1.0
  H  H78  1  0.23942000  0.42796000  0.15906000  1.0
  H  H79  1  0.23941000  0.07204000  0.34092000  1.0
  H  H80  1  0.90111000  0.47669000  0.25689000  1.0
  H  H81  1  0.90110000  0.02330000  0.24310000  1.0
  H  H82  1  0.59890000  0.25690000  0.47670000  1.0
  H  H83  1  0.59889000  0.24311000  0.02331000  1.0
  H  H84  1  0.09889000  0.52331000  0.74311000  1.0
  H  H85  1  0.09890000  0.97670000  0.75690000  1.0
  H  H86  1  0.40110000  0.74310000  0.52330000  1.0
  H  H87  1  0.40111000  0.75689000  0.97669000  1.0
  H  H88  1  0.04669000  0.41156000  0.30946000  1.0
  H  H89  1  0.04668000  0.08843000  0.19054000  1.0
  H  H90  1  0.45332000  0.30946000  0.41157000  1.0
  H  H91  1  0.45331000  0.19055000  0.08844000  1.0
  H  H92  1  0.95331000  0.58844000  0.69055000  1.0
  H  H93  1  0.95332000  0.91157000  0.80946000  1.0
  H  H94  1  0.54668000  0.69054000  0.58843000  1.0
  H  H95  1  0.54669000  0.80945000  0.91156000  1.0
  H  H96  1  0.09895000  0.56861000  0.41430000  1.0
  H  H97  1  0.09897000  0.93139000  0.08568000  1.0
  H  H98  1  0.40104000  0.41431000  0.56861000  1.0
  H  H99  1  0.40104000  0.08570000  0.93139000  1.0
  H  H100  1  0.90105000  0.43139000  0.58570000  1.0
  H  H101  1  0.90103000  0.06861000  0.91431000  1.0
  H  H102  1  0.59896000  0.58568000  0.43139000  1.0
  H  H103  1  0.59895000  0.91430000  0.06861000  1.0
  H  H104  1  0.95420000  0.62751000  0.35771000  1.0
  H  H105  1  0.95421000  0.87248000  0.14227000  1.0
  H  H106  1  0.54579000  0.35773000  0.62752000  1.0
  H  H107  1  0.54580000  0.14229000  0.87248000  1.0
  H  H108  1  0.04580000  0.37249000  0.64229000  1.0
  H  H109  1  0.04578000  0.12752000  0.85773000  1.0
  H  H110  1  0.45421000  0.64227000  0.37248000  1.0
  H  H111  1  0.45420000  0.85771000  0.12751000  1.0
  W  W112  1  0.82976000  0.75000000  0.24999000  1.0
  W  W113  1  0.67024000  0.25001000  0.75000000  1.0
  W  W114  1  0.17024000  0.25000000  0.75001000  1.0
  W  W115  1  0.32976000  0.74999000  0.25000000  1.0
  C  C116  1  0.23388000  0.04856000  0.64972000  1.0
  C  C117  1  0.23386000  0.45143000  0.85031000  1.0
  C  C118  1  0.26614000  0.64969000  0.04857000  1.0
  C  C119  1  0.26612000  0.85028000  0.45144000  1.0
  C  C120  1  0.76613000  0.95144000  0.35028000  1.0
  C  C121  1  0.76614000  0.54857000  0.14969000  1.0
  C  C122  1  0.73386000  0.35031000  0.95143000  1.0
  C  C123  1  0.73388000  0.14972000  0.54856000  1.0
  C  C124  1  0.29099000  0.01238000  0.61488000  1.0
  C  C125  1  0.29098000  0.48760000  0.88515000  1.0
  C  C126  1  0.20902000  0.61485000  0.01239000  1.0
  C  C127  1  0.20901000  0.88512000  0.48762000  1.0
  C  C128  1  0.70901000  0.98762000  0.38512000  1.0
  C  C129  1  0.70902000  0.51239000  0.11485000  1.0
  C  C130  1  0.79098000  0.38515000  0.98761000  1.0
  C  C131  1  0.79099000  0.11488000  0.51238000  1.0
  C  C132  1  0.38748000  0.99783000  0.63533000  1.0
  C  C133  1  0.38747000  0.50216000  0.86470000  1.0
  C  C134  1  0.11253000  0.63530000  0.99784000  1.0
  C  C135  1  0.11252000  0.86468000  0.50217000  1.0
  C  C136  1  0.61252000  0.00217000  0.36468000  1.0
  C  C137  1  0.61253000  0.49784000  0.13530000  1.0
  C  C138  1  0.88747000  0.36470000  0.00216000  1.0
  C  C139  1  0.88748000  0.13532000  0.49783000  1.0
  C  C140  1  0.42139000  0.02029000  0.69096000  1.0
  C  C141  1  0.42137000  0.47970000  0.80906000  1.0
  C  C142  1  0.07863000  0.69094000  0.02030000  1.0
  C  C143  1  0.07862000  0.80904000  0.47971000  1.0
  C  C144  1  0.57862000  0.97971000  0.30904000  1.0
  C  C145  1  0.57864000  0.52030000  0.19094000  1.0
  C  C146  1  0.92137000  0.30906000  0.97970000  1.0
  C  C147  1  0.92138000  0.19096000  0.52029000  1.0
  C  C148  1  0.35914000  0.05599000  0.72326000  1.0
  C  C149  1  0.35912000  0.44401000  0.77676000  1.0
  C  C150  1  0.14088000  0.72324000  0.05599000  1.0
  C  C151  1  0.14086000  0.77674000  0.44401000  1.0
  C  C152  1  0.64086000  0.94401000  0.27674000  1.0
  C  C153  1  0.64088000  0.55599000  0.22324000  1.0
  C  C154  1  0.85912000  0.27676000  0.94401000  1.0
  C  C155  1  0.85914000  0.22325000  0.55599000  1.0
  C  C156  1  0.45101000  0.96141000  0.59850000  1.0
  C  C157  1  0.45100000  0.53857000  0.90152000  1.0
  C  C158  1  0.04899000  0.59848000  0.96143000  1.0
  C  C159  1  0.04899000  0.90151000  0.53859000  1.0
  C  C160  1  0.54899000  0.03859000  0.40151000  1.0
  C  C161  1  0.54899000  0.46143000  0.09848000  1.0
  C  C162  1  0.95101000  0.40152000  0.03857000  1.0
  C  C163  1  0.95101000  0.09850000  0.46141000  1.0
  C  C164  1  0.56040000  0.89351000  0.53497000  1.0
  C  C165  1  0.56040000  0.60648000  0.96504000  1.0
  C  C166  1  0.93960000  0.53496000  0.89352000  1.0
  C  C167  1  0.93960000  0.96503000  0.60649000  1.0
  C  C168  1  0.43960000  0.10649000  0.46503000  1.0
  C  C169  1  0.43960000  0.39352000  0.03496000  1.0
  C  C170  1  0.06040000  0.46504000  0.10648000  1.0
  C  C171  1  0.06040000  0.03497000  0.39351000  1.0
  C  C172  1  0.62055000  0.85268000  0.50066000  1.0
  C  C173  1  0.62056000  0.64731000  0.99934000  1.0
  C  C174  1  0.87944000  0.50066000  0.85268000  1.0
  C  C175  1  0.87944000  0.99934000  0.64732000  1.0
  C  C176  1  0.37944000  0.14732000  0.49934000  1.0
  C  C177  1  0.37944000  0.35268000  0.00066000  1.0
  C  C178  1  0.12056000  0.49934000  0.14731000  1.0
  C  C179  1  0.12056000  0.00066000  0.35268000  1.0
  C  C180  1  0.58902000  0.83624000  0.44117000  1.0
  C  C181  1  0.58903000  0.66375000  0.05883000  1.0
  C  C182  1  0.91097000  0.44117000  0.83625000  1.0
  C  C183  1  0.91097000  0.05883000  0.66375000  1.0
  C  C184  1  0.41098000  0.16375000  0.55883000  1.0
  C  C185  1  0.41097000  0.33625000  0.94117000  1.0
  C  C186  1  0.08903000  0.55883000  0.16375000  1.0
  C  C187  1  0.08902000  0.94117000  0.33625000  1.0
  C  C188  1  0.64874000  0.79782000  0.41023000  1.0
  C  C189  1  0.64874000  0.70217000  0.08977000  1.0
  C  C190  1  0.85126000  0.41023000  0.79782000  1.0
  C  C191  1  0.85126000  0.08977000  0.70218000  1.0
  C  C192  1  0.35126000  0.20218000  0.58977000  1.0
  C  C193  1  0.35126000  0.29782000  0.91023000  1.0
  C  C194  1  0.14874000  0.58977000  0.20218000  1.0
  C  C195  1  0.14874000  0.91023000  0.29782000  1.0
  C  C196  1  0.76537000  0.78962000  0.49304000  1.0
  C  C197  1  0.76538000  0.71036000  0.00696000  1.0
  C  C198  1  0.73462000  0.49304000  0.78963000  1.0
  C  C199  1  0.73463000  0.00696000  0.71038000  1.0
  C  C200  1  0.23463000  0.21038000  0.50696000  1.0
  C  C201  1  0.23462000  0.28964000  0.99304000  1.0
  C  C202  1  0.26538000  0.50696000  0.21036000  1.0
  C  C203  1  0.26537000  0.99304000  0.28962000  1.0
  C  C204  1  0.71117000  0.82876000  0.52668000  1.0
  C  C205  1  0.71118000  0.67122000  0.97332000  1.0
  C  C206  1  0.78882000  0.52668000  0.82877000  1.0
  C  C207  1  0.78883000  0.97332000  0.67123000  1.0
  C  C208  1  0.28883000  0.17123000  0.47332000  1.0
  C  C209  1  0.28882000  0.32878000  0.02668000  1.0
  C  C210  1  0.21118000  0.47332000  0.17122000  1.0
  C  C211  1  0.21117000  0.02668000  0.32876000  1.0
  C  C212  1  0.94754000  0.49533000  0.29183000  1.0
  C  C213  1  0.94753000  0.00466000  0.20816000  1.0
  C  C214  1  0.55247000  0.29184000  0.49534000  1.0
  C  C215  1  0.55246000  0.20817000  0.00467000  1.0
  C  C216  1  0.05246000  0.50467000  0.70817000  1.0
  C  C217  1  0.05247000  0.99534000  0.79184000  1.0
  C  C218  1  0.44753000  0.70816000  0.50466000  1.0
  C  C219  1  0.44754000  0.79183000  0.99533000  1.0
  C  C220  1  0.02791000  0.45935000  0.32083000  1.0
  C  C221  1  0.02790000  0.04064000  0.17916000  1.0
  C  C222  1  0.47210000  0.32084000  0.45936000  1.0
  C  C223  1  0.47209000  0.17917000  0.04065000  1.0
  C  C224  1  0.97209000  0.54065000  0.67917000  1.0
  C  C225  1  0.97210000  0.95936000  0.82084000  1.0
  C  C226  1  0.52790000  0.67916000  0.54064000  1.0
  C  C227  1  0.52791000  0.82083000  0.95936000  1.0
  C  C228  1  0.08534000  0.48597000  0.36502000  1.0
  C  C229  1  0.08534000  0.01403000  0.13497000  1.0
  C  C230  1  0.41466000  0.36503000  0.48597000  1.0
  C  C231  1  0.41466000  0.13498000  0.01403000  1.0
  C  C232  1  0.91466000  0.51403000  0.63499000  1.0
  C  C233  1  0.91466000  0.98597000  0.86503000  1.0
  C  C234  1  0.58534000  0.63497000  0.51403000  1.0
  C  C235  1  0.58534000  0.86502000  0.98597000  1.0
  C  C236  1  0.05769000  0.54700000  0.37918000  1.0
  C  C237  1  0.05770000  0.95300000  0.12081000  1.0
  C  C238  1  0.44230000  0.37919000  0.54701000  1.0
  C  C239  1  0.44231000  0.12082000  0.95300000  1.0
  C  C240  1  0.94231000  0.45300000  0.62082000  1.0
  C  C241  1  0.94230000  0.04700000  0.87919000  1.0
  C  C242  1  0.55770000  0.62081000  0.45300000  1.0
  C  C243  1  0.55769000  0.87918000  0.04700000  1.0
  C  C244  1  0.97698000  0.57989000  0.34751000  1.0
  C  C245  1  0.97699000  0.92011000  0.15247000  1.0
  C  C246  1  0.52301000  0.34753000  0.57990000  1.0
  C  C247  1  0.52302000  0.15249000  0.92011000  1.0
  C  C248  1  0.02302000  0.42011000  0.65249000  1.0
  C  C249  1  0.02301000  0.07990000  0.84753000  1.0
  C  C250  1  0.47699000  0.65247000  0.42011000  1.0
  C  C251  1  0.47698000  0.84751000  0.07989000  1.0
  C  C252  1  0.17307000  0.45222000  0.39629000  1.0
  C  C253  1  0.17307000  0.04778000  0.10370000  1.0
  C  C254  1  0.32693000  0.39629000  0.45222000  1.0
  C  C255  1  0.32693000  0.10371000  0.04778000  1.0
  C  C256  1  0.82693000  0.54778000  0.60371000  1.0
  C  C257  1  0.82693000  0.95222000  0.89629000  1.0
  C  C258  1  0.67307000  0.60370000  0.54778000  1.0
  C  C259  1  0.67307000  0.89629000  0.95222000  1.0
  S  S260  1  0.73661000  0.67423000  0.31859000  1.0
  S  S261  1  0.73661000  0.82576000  0.18139000  1.0
  S  S262  1  0.76339000  0.31860000  0.67424000  1.0
  S  S263  1  0.76339000  0.18141000  0.82577000  1.0
  S  S264  1  0.26339000  0.32577000  0.68141000  1.0
  S  S265  1  0.26339000  0.17424000  0.81861000  1.0
  S  S266  1  0.23661000  0.68140000  0.32576000  1.0
  S  S267  1  0.23661000  0.81859000  0.17423000  1.0
  S  S268  1  0.92283000  0.80196000  0.31287000  1.0
  S  S269  1  0.92284000  0.69804000  0.18712000  1.0
  S  S270  1  0.57716000  0.31288000  0.80196000  1.0
  S  S271  1  0.57717000  0.18713000  0.69804000  1.0
  S  S272  1  0.07718000  0.19804000  0.68713000  1.0
  S  S273  1  0.07716000  0.30196000  0.81288000  1.0
  S  S274  1  0.42284000  0.68712000  0.19804000  1.0
  S  S275  1  0.42283000  0.81287000  0.30196000  1.0
  Br  Br276  1  0.93151000  0.66510000  0.47541000  1.0
  Br  Br277  1  0.93150000  0.83489000  0.02457000  1.0
  Br  Br278  1  0.56850000  0.47543000  0.66511000  1.0
  Br  Br279  1  0.56850000  0.02459000  0.83490000  1.0
  Br  Br280  1  0.06849000  0.33490000  0.52459000  1.0
  Br  Br281  1  0.06850000  0.16511000  0.97543000  1.0
  Br  Br282  1  0.43150000  0.52458000  0.33489000  1.0
  Br  Br283  1  0.43150000  0.97541000  0.16510000  1.0
  N  N284  1  0.26661000  0.07047000  0.70325000  1.0
  N  N285  1  0.26659000  0.42953000  0.79677000  1.0
  N  N286  1  0.23341000  0.70323000  0.07047000  1.0
  N  N287  1  0.23339000  0.79675000  0.42953000  1.0
  N  N288  1  0.73339000  0.92953000  0.29675000  1.0
  N  N289  1  0.73341000  0.57047000  0.20323000  1.0
  N  N290  1  0.76659000  0.29677000  0.92953000  1.0
  N  N291  1  0.76661000  0.20325000  0.57047000  1.0
  N  N292  1  0.41563000  0.94642000  0.54196000  1.0
  N  N293  1  0.41563000  0.55357000  0.95806000  1.0
  N  N294  1  0.08437000  0.54195000  0.94643000  1.0
  N  N295  1  0.08437000  0.95804000  0.55357000  1.0
  N  N296  1  0.58437000  0.05357000  0.45804000  1.0
  N  N297  1  0.58437000  0.44643000  0.04195000  1.0
  N  N298  1  0.91563000  0.45806000  0.05357000  1.0
  N  N299  1  0.91563000  0.04196000  0.44642000  1.0
  N  N300  1  0.47093000  0.91162000  0.50994000  1.0
  N  N301  1  0.47093000  0.58837000  0.99008000  1.0
  N  N302  1  0.02906000  0.50993000  0.91162000  1.0
  N  N303  1  0.02907000  0.99007000  0.58838000  1.0
  N  N304  1  0.52907000  0.08838000  0.49006000  1.0
  N  N305  1  0.52907000  0.41162000  0.00993000  1.0
  N  N306  1  0.97094000  0.49008000  0.08837000  1.0
  N  N307  1  0.97093000  0.00994000  0.41162000  1.0
  N  N308  1  0.59839000  0.91289000  0.58876000  1.0
  N  N309  1  0.59839000  0.58709000  0.91125000  1.0
  N  N310  1  0.90161000  0.58875000  0.91291000  1.0
  N  N311  1  0.90161000  0.91124000  0.58711000  1.0
  N  N312  1  0.40161000  0.08711000  0.41124000  1.0
  N  N313  1  0.40161000  0.41291000  0.08875000  1.0
  N  N314  1  0.09839000  0.41125000  0.08708000  1.0
  N  N315  1  0.09839000  0.08876000  0.41289000  1.0
  N  N316  1  0.54289000  0.94693000  0.62119000  1.0
  N  N317  1  0.54288000  0.55305000  0.87883000  1.0
  N  N318  1  0.95711000  0.62117000  0.94695000  1.0
  N  N319  1  0.95711000  0.87882000  0.55307000  1.0
  N  N320  1  0.45711000  0.05307000  0.37882000  1.0
  N  N321  1  0.45712000  0.44695000  0.12117000  1.0
  N  N322  1  0.04288000  0.37883000  0.05305000  1.0
  N  N323  1  0.04288000  0.12119000  0.44693000  1.0
  N  N324  1  0.73561000  0.77454000  0.43555000  1.0
  N  N325  1  0.73562000  0.72545000  0.06445000  1.0
  N  N326  1  0.76438000  0.43555000  0.77455000  1.0
  N  N327  1  0.76439000  0.06445000  0.72546000  1.0
  N  N328  1  0.26439000  0.22546000  0.56445000  1.0
  N  N329  1  0.26438000  0.27455000  0.93555000  1.0
  N  N330  1  0.23562000  0.56445000  0.22545000  1.0
  N  N331  1  0.23561000  0.93555000  0.27454000  1.0
  N  N332  1  0.92274000  0.55516000  0.30396000  1.0
  N  N333  1  0.92274000  0.94483000  0.19602000  1.0
  N  N334  1  0.57726000  0.30398000  0.55517000  1.0
  N  N335  1  0.57726000  0.19604000  0.94484000  1.0
  N  N336  1  0.07726000  0.44484000  0.69604000  1.0
  N  N337  1  0.07726000  0.05517000  0.80398000  1.0
  N  N338  1  0.42274000  0.69602000  0.44483000  1.0
  N  N339  1  0.42274000  0.80396000  0.05516000  1.0
  N  N340  1  0.21116000  0.40211000  0.37181000  1.0
  N  N341  1  0.21116000  0.09789000  0.12819000  1.0
  N  N342  1  0.28884000  0.37181000  0.40212000  1.0
  N  N343  1  0.28884000  0.12819000  0.09789000  1.0
  N  N344  1  0.78883000  0.59789000  0.62820000  1.0
  N  N345  1  0.78884000  0.90211000  0.87181000  1.0
  N  N346  1  0.71116000  0.62819000  0.59789000  1.0
  N  N347  1  0.71116000  0.87181000  0.90211000  1.0
  N  N348  1  0.21009000  0.47544000  0.44802000  1.0
  N  N349  1  0.21009000  0.02457000  0.05197000  1.0
  N  N350  1  0.28991000  0.44803000  0.47544000  1.0
  N  N351  1  0.28991000  0.05198000  0.02456000  1.0
  N  N352  1  0.78991000  0.52455000  0.55198000  1.0
  N  N353  1  0.78991000  0.97543000  0.94804000  1.0
  N  N354  1  0.71009000  0.55196000  0.52457000  1.0
  N  N355  1  0.71009000  0.94802000  0.97544000  1.0
