# generated using pymatgen
data_NdH6(C2N3)3
_symmetry_space_group_name_H-M   'P 1'
_cell_length_a   9.49101000
_cell_length_b   9.49101000
_cell_length_c   13.00730000
_cell_angle_alpha   92.19550000
_cell_angle_beta   92.19540000
_cell_angle_gamma   119.80000000
_symmetry_Int_Tables_number   1
_chemical_formula_structural   NdH6(C2N3)3
_chemical_formula_sum   'Nd4 H24 C24 N36'
_cell_volume   1013.77982801
_cell_formula_units_Z   4
loop_
 _symmetry_equiv_pos_site_id
 _symmetry_equiv_pos_as_xyz
  1  'x, y, z'
loop_
 _atom_site_type_symbol
 _atom_site_label
 _atom_site_symmetry_multiplicity
 _atom_site_fract_x
 _atom_site_fract_y
 _atom_site_fract_z
 _atom_site_occupancy
  Nd  Nd0  1  0.74248000  0.47732000  0.57302000  1.0
  Nd  Nd1  1  0.52268000  0.25752000  0.92698000  1.0
  Nd  Nd2  1  0.25751000  0.52268000  0.42698000  1.0
  Nd  Nd3  1  0.47732000  0.74248000  0.07302000  1.0
  H  H4  1  0.00668000  0.03876000  0.59908000  1.0
  H  H5  1  0.96124000  0.99332000  0.90092000  1.0
  H  H6  1  0.99332000  0.96124000  0.40092000  1.0
  H  H7  1  0.03876000  0.00667000  0.09908000  1.0
  H  H8  1  0.76181000  0.09773000  0.66480000  1.0
  H  H9  1  0.90227000  0.23819000  0.83520000  1.0
  H  H10  1  0.23819000  0.90227000  0.33520000  1.0
  H  H11  1  0.09773000  0.76181000  0.16480000  1.0
  H  H12  1  0.29853000  0.22755000  0.23029000  1.0
  H  H13  1  0.77245000  0.70147000  0.26971000  1.0
  H  H14  1  0.70147000  0.77245000  0.76971000  1.0
  H  H15  1  0.22755000  0.29853000  0.73029000  1.0
  H  H16  1  0.53191000  0.13458000  0.27090000  1.0
  H  H17  1  0.86542000  0.46809000  0.22910000  1.0
  H  H18  1  0.46809000  0.86542000  0.72910000  1.0
  H  H19  1  0.13458000  0.53191000  0.77090000  1.0
  H  H20  1  0.94180000  0.63280000  0.99218000  1.0
  H  H21  1  0.36720000  0.05820000  0.50782000  1.0
  H  H22  1  0.05820000  0.36720000  0.00782000  1.0
  H  H23  1  0.63280000  0.94180000  0.49218000  1.0
  H  H24  1  0.12336000  0.83469000  0.84023000  1.0
  H  H25  1  0.16531000  0.87664000  0.65977000  1.0
  H  H26  1  0.87664000  0.16532000  0.15977000  1.0
  H  H27  1  0.83469000  0.12336000  0.34023000  1.0
  C  C28  1  0.98512000  0.13872000  0.58573000  1.0
  C  C29  1  0.86128000  0.01488000  0.91427000  1.0
  C  C30  1  0.01488000  0.86127000  0.41427000  1.0
  C  C31  1  0.13872000  0.98512000  0.08573000  1.0
  C  C32  1  0.86364000  0.16816000  0.61869000  1.0
  C  C33  1  0.83184000  0.13636000  0.88131000  1.0
  C  C34  1  0.13635000  0.83184000  0.38131000  1.0
  C  C35  1  0.16816000  0.86364000  0.11869000  1.0
  C  C36  1  0.39063000  0.26522000  0.29323000  1.0
  C  C37  1  0.73479000  0.60937000  0.20677000  1.0
  C  C38  1  0.60937000  0.73479000  0.70677000  1.0
  C  C39  1  0.26521000  0.39063000  0.79323000  1.0
  C  C40  1  0.50634000  0.21869000  0.31362000  1.0
  C  C41  1  0.78131000  0.49366000  0.18638000  1.0
  C  C42  1  0.49366000  0.78131000  0.68638000  1.0
  C  C43  1  0.21869000  0.50634000  0.81362000  1.0
  C  C44  1  0.92022000  0.61916000  0.90916000  1.0
  C  C45  1  0.38084000  0.07978000  0.59084000  1.0
  C  C46  1  0.07978000  0.38084000  0.09084000  1.0
  C  C47  1  0.61916000  0.92022000  0.40916000  1.0
  C  C48  1  0.00973000  0.71971000  0.83342000  1.0
  C  C49  1  0.28029000  0.99027000  0.66658000  1.0
  C  C50  1  0.99027000  0.28029000  0.16658000  1.0
  C  C51  1  0.71971000  0.00973000  0.33342000  1.0
  N  N52  1  0.88946000  0.30972000  0.58102000  1.0
  N  N53  1  0.69028000  0.11054000  0.91897000  1.0
  N  N54  1  0.11054000  0.69028000  0.41898000  1.0
  N  N55  1  0.30972000  0.88946000  0.08102000  1.0
  N  N56  1  0.02160000  0.36399000  0.52726000  1.0
  N  N57  1  0.63601000  0.97840000  0.97274000  1.0
  N  N58  1  0.97840000  0.63601000  0.47274000  1.0
  N  N59  1  0.36399000  0.02160000  0.02726000  1.0
  N  N60  1  0.08190000  0.26337000  0.52862000  1.0
  N  N61  1  0.73663000  0.91810000  0.97138000  1.0
  N  N62  1  0.91810000  0.73663000  0.47138000  1.0
  N  N63  1  0.26337000  0.08190000  0.02862000  1.0
  N  N64  1  0.59434000  0.30416000  0.40119000  1.0
  N  N65  1  0.69585000  0.40567000  0.09881000  1.0
  N  N66  1  0.40567000  0.69585000  0.59881000  1.0
  N  N67  1  0.30416000  0.59433000  0.90119000  1.0
  N  N68  1  0.53425000  0.39808000  0.43246000  1.0
  N  N69  1  0.60192000  0.46575000  0.06754000  1.0
  N  N70  1  0.46575000  0.60192000  0.56754000  1.0
  N  N71  1  0.39808000  0.53425000  0.93246000  1.0
  N  N72  1  0.41058000  0.37696000  0.36898000  1.0
  N  N73  1  0.62304000  0.58942000  0.13102000  1.0
  N  N74  1  0.58942000  0.62304000  0.63102000  1.0
  N  N75  1  0.37696000  0.41058000  0.86898000  1.0
  N  N76  1  0.93051000  0.64581000  0.74108000  1.0
  N  N77  1  0.35419000  0.06950000  0.75892000  1.0
  N  N78  1  0.06950000  0.35419000  0.25892000  1.0
  N  N79  1  0.64581000  0.93051000  0.24108000  1.0
  N  N80  1  0.79854000  0.50625000  0.76049000  1.0
  N  N81  1  0.49375000  0.20146000  0.73951000  1.0
  N  N82  1  0.20146000  0.49375000  0.23951000  1.0
  N  N83  1  0.50625000  0.79854000  0.26049000  1.0
  N  N84  1  0.78871000  0.48708000  0.86162000  1.0
  N  N85  1  0.51292000  0.21129000  0.63838000  1.0
  N  N86  1  0.21129000  0.51292000  0.13838000  1.0
  N  N87  1  0.48708000  0.78871000  0.36162000  1.0
