# generated using pymatgen
data_DyH12C15NO11
_symmetry_space_group_name_H-M   'P 1'
_cell_length_a   12.32860000
_cell_length_b   13.74920000
_cell_length_c   28.24570000
_cell_angle_alpha   90.00060000
_cell_angle_beta   89.99970000
_cell_angle_gamma   89.99990000
_symmetry_Int_Tables_number   1
_chemical_formula_structural   DyH12C15NO11
_chemical_formula_sum   'Dy8 H96 C120 N8 O88'
_cell_volume   4787.88304974
_cell_formula_units_Z   8
loop_
 _symmetry_equiv_pos_site_id
 _symmetry_equiv_pos_as_xyz
  1  'x, y, z'
loop_
 _atom_site_type_symbol
 _atom_site_label
 _atom_site_symmetry_multiplicity
 _atom_site_fract_x
 _atom_site_fract_y
 _atom_site_fract_z
 _atom_site_occupancy
  Dy  Dy0  1  0.90642000  0.53502000  0.06942000  1.0
  Dy  Dy1  1  0.59359000  0.96497000  0.56943000  1.0
  Dy  Dy2  1  0.09359000  0.53502000  0.43057000  1.0
  Dy  Dy3  1  0.40641000  0.96498000  0.93058000  1.0
  Dy  Dy4  1  0.09360000  0.46498000  0.93057000  1.0
  Dy  Dy5  1  0.40641000  0.03502000  0.43057000  1.0
  Dy  Dy6  1  0.90640000  0.46498000  0.56942000  1.0
  Dy  Dy7  1  0.59361000  0.03502000  0.06943000  1.0
  H  H8  1  0.66326000  0.56026000  0.10504000  1.0
  H  H9  1  0.83673000  0.93975000  0.60504000  1.0
  H  H10  1  0.33673000  0.56026000  0.39496000  1.0
  H  H11  1  0.16327000  0.93973000  0.89496000  1.0
  H  H12  1  0.33675000  0.43974000  0.89496000  1.0
  H  H13  1  0.16325000  0.06026000  0.39496000  1.0
  H  H14  1  0.66325000  0.43973000  0.60504000  1.0
  H  H15  1  0.83675000  0.06026000  0.10503000  1.0
  H  H16  1  0.67210000  0.52355000  0.05229000  1.0
  H  H17  1  0.82790000  0.97646000  0.55229000  1.0
  H  H18  1  0.32791000  0.52353000  0.44770000  1.0
  H  H19  1  0.17209000  0.97646000  0.94771000  1.0
  H  H20  1  0.32791000  0.47645000  0.94771000  1.0
  H  H21  1  0.17209000  0.02355000  0.44771000  1.0
  H  H22  1  0.67209000  0.47645000  0.55229000  1.0
  H  H23  1  0.82792000  0.02355000  0.05229000  1.0
  H  H24  1  0.87709000  0.36829000  0.00477000  1.0
  H  H25  1  0.62291000  0.13172000  0.50478000  1.0
  H  H26  1  0.12291000  0.36829000  0.49523000  1.0
  H  H27  1  0.37710000  0.13171000  0.99523000  1.0
  H  H28  1  0.12292000  0.63171000  0.99522000  1.0
  H  H29  1  0.37708000  0.86829000  0.49523000  1.0
  H  H30  1  0.87709000  0.63171000  0.50477000  1.0
  H  H31  1  0.62291000  0.86829000  0.00477000  1.0
  H  H32  1  0.81562000  0.34852000  0.05494000  1.0
  H  H33  1  0.68438000  0.15147000  0.55495000  1.0
  H  H34  1  0.18438000  0.34852000  0.44506000  1.0
  H  H35  1  0.31562000  0.15147000  0.94506000  1.0
  H  H36  1  0.18438000  0.65147000  0.94505000  1.0
  H  H37  1  0.31561000  0.84852000  0.44506000  1.0
  H  H38  1  0.81561000  0.65147000  0.55494000  1.0
  H  H39  1  0.68439000  0.84852000  0.05494000  1.0
  H  H40  1  0.90890000  0.68656000  0.13933000  1.0
  H  H41  1  0.59111000  0.81344000  0.63933000  1.0
  H  H42  1  0.09110000  0.68655000  0.36068000  1.0
  H  H43  1  0.40890000  0.81343000  0.86067000  1.0
  H  H44  1  0.09112000  0.31344000  0.86068000  1.0
  H  H45  1  0.40888000  0.18656000  0.36068000  1.0
  H  H46  1  0.90889000  0.31344000  0.63932000  1.0
  H  H47  1  0.59113000  0.18654000  0.13932000  1.0
  H  H48  1  0.79169000  0.71625000  0.11820000  1.0
  H  H49  1  0.70832000  0.78374000  0.61820000  1.0
  H  H50  1  0.20831000  0.71625000  0.38180000  1.0
  H  H51  1  0.29169000  0.78374000  0.88180000  1.0
  H  H52  1  0.20834000  0.28375000  0.88181000  1.0
  H  H53  1  0.29167000  0.21625000  0.38181000  1.0
  H  H54  1  0.79167000  0.28374000  0.61819000  1.0
  H  H55  1  0.70834000  0.21624000  0.11820000  1.0
  H  H56  1  0.82852000  0.14449000  0.27682000  1.0
  H  H57  1  0.67145000  0.35552000  0.77683000  1.0
  H  H58  1  0.17151000  0.14449000  0.22317000  1.0
  H  H59  1  0.32850000  0.35552000  0.72318000  1.0
  H  H60  1  0.17147000  0.85552000  0.72317000  1.0
  H  H61  1  0.32851000  0.64449000  0.22317000  1.0
  H  H62  1  0.82851000  0.85552000  0.77683000  1.0
  H  H63  1  0.67151000  0.64449000  0.27682000  1.0
  H  H64  1  0.84851000  0.45515000  0.29580000  1.0
  H  H65  1  0.65148000  0.04485000  0.79580000  1.0
  H  H66  1  0.15150000  0.45516000  0.20420000  1.0
  H  H67  1  0.34849000  0.04485000  0.70420000  1.0
  H  H68  1  0.15148000  0.54485000  0.70420000  1.0
  H  H69  1  0.34849000  0.95516000  0.20420000  1.0
  H  H70  1  0.84849000  0.54485000  0.79580000  1.0
  H  H71  1  0.65149000  0.95515000  0.29580000  1.0
  H  H72  1  0.86716000  0.47415000  0.20880000  1.0
  H  H73  1  0.63282000  0.02585000  0.70881000  1.0
  H  H74  1  0.13284000  0.47415000  0.29120000  1.0
  H  H75  1  0.36715000  0.02585000  0.79120000  1.0
  H  H76  1  0.13282000  0.52585000  0.79119000  1.0
  H  H77  1  0.36714000  0.97415000  0.29120000  1.0
  H  H78  1  0.86715000  0.52585000  0.70881000  1.0
  H  H79  1  0.63284000  0.97415000  0.20880000  1.0
  H  H80  1  0.68118000  0.17704000  0.32881000  1.0
  H  H81  1  0.81881000  0.32297000  0.82881000  1.0
  H  H82  1  0.31887000  0.17705000  0.17119000  1.0
  H  H83  1  0.18115000  0.32296000  0.67119000  1.0
  H  H84  1  0.31883000  0.82295000  0.67119000  1.0
  H  H85  1  0.18117000  0.67704000  0.17119000  1.0
  H  H86  1  0.68118000  0.82297000  0.82882000  1.0
  H  H87  1  0.81884000  0.67704000  0.32881000  1.0
  H  H88  1  0.70084000  0.27017000  0.47371000  1.0
  H  H89  1  0.79915000  0.22984000  0.97371000  1.0
  H  H90  1  0.29918000  0.27017000  0.02628000  1.0
  H  H91  1  0.20084000  0.22984000  0.52628000  1.0
  H  H92  1  0.29916000  0.72984000  0.52628000  1.0
  H  H93  1  0.20086000  0.77017000  0.02628000  1.0
  H  H94  1  0.70086000  0.72986000  0.97372000  1.0
  H  H95  1  0.79916000  0.77017000  0.47371000  1.0
  H  H96  1  0.91370000  0.39660000  0.37046000  1.0
  H  H97  1  0.58631000  0.10340000  0.87046000  1.0
  H  H98  1  0.08634000  0.39661000  0.12954000  1.0
  H  H99  1  0.41367000  0.10339000  0.62954000  1.0
  H  H100  1  0.08630000  0.60340000  0.62953000  1.0
  H  H101  1  0.41369000  0.89661000  0.12954000  1.0
  H  H102  1  0.91368000  0.60340000  0.87046000  1.0
  H  H103  1  0.58632000  0.89660000  0.37046000  1.0
  C  C104  1  0.85148000  0.34798000  0.14103000  1.0
  C  C105  1  0.64852000  0.15201000  0.64104000  1.0
  C  C106  1  0.14852000  0.34798000  0.35896000  1.0
  C  C107  1  0.35148000  0.15202000  0.85896000  1.0
  C  C108  1  0.14852000  0.65201000  0.85896000  1.0
  C  C109  1  0.35147000  0.84797000  0.35896000  1.0
  C  C110  1  0.85147000  0.65201000  0.64104000  1.0
  C  C111  1  0.64853000  0.84797000  0.14104000  1.0
  C  C112  1  0.85608000  0.32272000  0.19310000  1.0
  C  C113  1  0.64391000  0.17729000  0.69310000  1.0
  C  C114  1  0.14392000  0.32272000  0.30690000  1.0
  C  C115  1  0.35608000  0.17728000  0.80690000  1.0
  C  C116  1  0.14392000  0.67729000  0.80690000  1.0
  C  C117  1  0.35606000  0.82271000  0.30690000  1.0
  C  C118  1  0.85607000  0.67728000  0.69310000  1.0
  C  C119  1  0.64393000  0.82271000  0.19310000  1.0
  C  C120  1  0.84794000  0.23004000  0.21403000  1.0
  C  C121  1  0.65203000  0.26997000  0.71403000  1.0
  C  C122  1  0.15206000  0.23004000  0.28597000  1.0
  C  C123  1  0.34794000  0.26997000  0.78597000  1.0
  C  C124  1  0.15205000  0.76996000  0.78597000  1.0
  C  C125  1  0.34793000  0.73003000  0.28597000  1.0
  C  C126  1  0.84793000  0.76996000  0.71403000  1.0
  C  C127  1  0.65206000  0.73004000  0.21403000  1.0
  C  C128  1  0.83453000  0.21798000  0.26269000  1.0
  C  C129  1  0.66545000  0.28203000  0.76270000  1.0
  C  C130  1  0.16550000  0.21799000  0.23730000  1.0
  C  C131  1  0.33451000  0.28202000  0.73731000  1.0
  C  C132  1  0.16546000  0.78203000  0.73730000  1.0
  C  C133  1  0.33452000  0.71798000  0.23730000  1.0
  C  C134  1  0.83452000  0.78202000  0.76270000  1.0
  C  C135  1  0.66549000  0.71798000  0.26269000  1.0
  C  C136  1  0.83094000  0.29883000  0.29288000  1.0
  C  C137  1  0.66905000  0.20118000  0.79288000  1.0
  C  C138  1  0.16910000  0.29882000  0.20712000  1.0
  C  C139  1  0.33092000  0.20118000  0.70712000  1.0
  C  C140  1  0.16905000  0.70118000  0.70712000  1.0
  C  C141  1  0.33092000  0.79882000  0.20712000  1.0
  C  C142  1  0.83093000  0.70119000  0.79288000  1.0
  C  C143  1  0.66908000  0.79882000  0.29288000  1.0
  C  C144  1  0.84819000  0.39109000  0.27297000  1.0
  C  C145  1  0.65180000  0.10892000  0.77298000  1.0
  C  C146  1  0.15182000  0.39110000  0.22703000  1.0
  C  C147  1  0.34817000  0.10890000  0.72703000  1.0
  C  C148  1  0.15180000  0.60891000  0.72702000  1.0
  C  C149  1  0.34817000  0.89110000  0.22703000  1.0
  C  C150  1  0.84818000  0.60890000  0.77298000  1.0
  C  C151  1  0.65182000  0.89110000  0.27297000  1.0
  C  C152  1  0.85947000  0.40207000  0.22429000  1.0
  C  C153  1  0.64051000  0.09793000  0.72429000  1.0
  C  C154  1  0.14053000  0.40207000  0.27571000  1.0
  C  C155  1  0.35946000  0.09793000  0.77571000  1.0
  C  C156  1  0.14051000  0.59793000  0.77571000  1.0
  C  C157  1  0.35946000  0.90207000  0.27571000  1.0
  C  C158  1  0.85946000  0.59793000  0.72429000  1.0
  C  C159  1  0.64053000  0.90207000  0.22429000  1.0
  C  C160  1  0.80239000  0.28762000  0.34331000  1.0
  C  C161  1  0.69761000  0.21239000  0.84331000  1.0
  C  C162  1  0.19766000  0.28764000  0.15669000  1.0
  C  C163  1  0.30236000  0.21238000  0.65669000  1.0
  C  C164  1  0.19761000  0.71238000  0.65668000  1.0
  C  C165  1  0.30238000  0.78763000  0.15669000  1.0
  C  C166  1  0.80237000  0.71238000  0.84332000  1.0
  C  C167  1  0.69763000  0.78763000  0.34331000  1.0
  C  C168  1  0.72054000  0.22175000  0.35566000  1.0
  C  C169  1  0.77946000  0.27826000  0.85566000  1.0
  C  C170  1  0.27951000  0.22177000  0.14434000  1.0
  C  C171  1  0.22052000  0.27824000  0.64434000  1.0
  C  C172  1  0.27946000  0.77825000  0.64434000  1.0
  C  C173  1  0.22053000  0.72176000  0.14434000  1.0
  C  C174  1  0.72054000  0.77826000  0.85567000  1.0
  C  C175  1  0.77948000  0.72175000  0.35566000  1.0
  C  C176  1  0.68270000  0.21566000  0.40219000  1.0
  C  C177  1  0.81730000  0.28435000  0.90219000  1.0
  C  C178  1  0.31734000  0.21566000  0.09780000  1.0
  C  C179  1  0.18268000  0.28435000  0.59780000  1.0
  C  C180  1  0.31731000  0.78434000  0.59781000  1.0
  C  C181  1  0.18270000  0.71566000  0.09780000  1.0
  C  C182  1  0.68270000  0.78436000  0.90220000  1.0
  C  C183  1  0.81731000  0.71566000  0.40220000  1.0
  C  C184  1  0.72939000  0.27350000  0.43731000  1.0
  C  C185  1  0.77061000  0.22651000  0.93731000  1.0
  C  C186  1  0.27063000  0.27350000  0.06269000  1.0
  C  C187  1  0.22938000  0.22650000  0.56269000  1.0
  C  C188  1  0.27061000  0.72650000  0.56269000  1.0
  C  C189  1  0.22940000  0.77350000  0.06269000  1.0
  C  C190  1  0.72940000  0.72651000  0.93731000  1.0
  C  C191  1  0.77061000  0.77351000  0.43731000  1.0
  C  C192  1  0.81389000  0.33703000  0.42578000  1.0
  C  C193  1  0.68611000  0.16298000  0.92578000  1.0
  C  C194  1  0.18613000  0.33702000  0.07422000  1.0
  C  C195  1  0.31388000  0.16298000  0.57422000  1.0
  C  C196  1  0.18612000  0.66298000  0.57421000  1.0
  C  C197  1  0.31389000  0.83703000  0.07422000  1.0
  C  C198  1  0.81389000  0.66299000  0.92578000  1.0
  C  C199  1  0.68613000  0.83702000  0.42578000  1.0
  C  C200  1  0.84901000  0.34544000  0.37883000  1.0
  C  C201  1  0.65099000  0.15456000  0.87883000  1.0
  C  C202  1  0.15103000  0.34545000  0.12117000  1.0
  C  C203  1  0.34899000  0.15455000  0.62117000  1.0
  C  C204  1  0.15099000  0.65456000  0.62116000  1.0
  C  C205  1  0.34901000  0.84545000  0.12117000  1.0
  C  C206  1  0.84901000  0.65456000  0.87884000  1.0
  C  C207  1  0.65101000  0.84545000  0.37883000  1.0
  C  C208  1  0.58883000  0.15115000  0.41261000  1.0
  C  C209  1  0.91117000  0.34885000  0.91261000  1.0
  C  C210  1  0.41120000  0.15116000  0.08739000  1.0
  C  C211  1  0.08882000  0.34885000  0.58739000  1.0
  C  C212  1  0.41118000  0.84885000  0.58740000  1.0
  C  C213  1  0.08884000  0.65115000  0.08739000  1.0
  C  C214  1  0.58883000  0.84886000  0.91261000  1.0
  C  C215  1  0.91117000  0.65115000  0.41261000  1.0
  C  C216  1  0.86587000  0.39527000  0.46433000  1.0
  C  C217  1  0.63413000  0.10473000  0.96433000  1.0
  C  C218  1  0.13414000  0.39526000  0.03567000  1.0
  C  C219  1  0.36587000  0.10473000  0.53567000  1.0
  C  C220  1  0.13413000  0.60473000  0.53567000  1.0
  C  C221  1  0.36588000  0.89527000  0.03567000  1.0
  C  C222  1  0.86588000  0.60474000  0.96433000  1.0
  C  C223  1  0.63413000  0.89527000  0.46433000  1.0
  N  N224  1  0.85721000  0.14009000  0.18635000  1.0
  N  N225  1  0.64277000  0.35992000  0.68635000  1.0
  N  N226  1  0.14279000  0.14008000  0.31364000  1.0
  N  N227  1  0.35720000  0.35992000  0.81365000  1.0
  N  N228  1  0.14280000  0.85992000  0.81365000  1.0
  N  N229  1  0.35719000  0.64007000  0.31364000  1.0
  N  N230  1  0.85718000  0.85992000  0.68636000  1.0
  N  N231  1  0.64279000  0.64008000  0.18635000  1.0
  O  O232  1  0.90106000  0.42609000  0.13032000  1.0
  O  O233  1  0.59895000  0.07390000  0.63033000  1.0
  O  O234  1  0.09895000  0.42609000  0.36968000  1.0
  O  O235  1  0.40105000  0.07391000  0.86968000  1.0
  O  O236  1  0.09896000  0.57391000  0.86967000  1.0
  O  O237  1  0.40104000  0.92608000  0.36968000  1.0
  O  O238  1  0.90103000  0.57391000  0.63033000  1.0
  O  O239  1  0.59897000  0.92608000  0.13032000  1.0
  O  O240  1  0.70850000  0.52285000  0.08283000  1.0
  O  O241  1  0.79149000  0.97717000  0.58283000  1.0
  O  O242  1  0.29149000  0.52284000  0.41717000  1.0
  O  O243  1  0.20850000  0.97716000  0.91717000  1.0
  O  O244  1  0.29152000  0.47717000  0.91717000  1.0
  O  O245  1  0.20849000  0.02283000  0.41717000  1.0
  O  O246  1  0.70849000  0.47716000  0.58282000  1.0
  O  O247  1  0.79153000  0.02282000  0.08283000  1.0
  O  O248  1  0.79719000  0.29762000  0.11188000  1.0
  O  O249  1  0.70281000  0.20238000  0.61188000  1.0
  O  O250  1  0.20281000  0.29761000  0.38812000  1.0
  O  O251  1  0.29719000  0.20239000  0.88812000  1.0
  O  O252  1  0.20282000  0.70238000  0.88812000  1.0
  O  O253  1  0.29717000  0.79761000  0.38812000  1.0
  O  O254  1  0.79717000  0.70238000  0.61188000  1.0
  O  O255  1  0.70282000  0.79761000  0.11188000  1.0
  O  O256  1  0.83036000  0.39734000  0.02966000  1.0
  O  O257  1  0.66964000  0.10266000  0.52967000  1.0
  O  O258  1  0.16964000  0.39734000  0.47033000  1.0
  O  O259  1  0.33036000  0.10266000  0.97034000  1.0
  O  O260  1  0.16964000  0.60266000  0.97033000  1.0
  O  O261  1  0.33035000  0.89734000  0.47034000  1.0
  O  O262  1  0.83035000  0.60266000  0.52966000  1.0
  O  O263  1  0.66965000  0.89733000  0.02967000  1.0
  O  O264  1  0.91120000  0.14244000  0.14897000  1.0
  O  O265  1  0.58880000  0.35757000  0.64897000  1.0
  O  O266  1  0.08880000  0.14244000  0.35102000  1.0
  O  O267  1  0.41119000  0.35757000  0.85103000  1.0
  O  O268  1  0.08882000  0.85757000  0.85103000  1.0
  O  O269  1  0.41117000  0.64241000  0.35102000  1.0
  O  O270  1  0.91116000  0.85758000  0.64897000  1.0
  O  O271  1  0.58880000  0.64243000  0.14897000  1.0
  O  O272  1  0.84779000  0.66264000  0.12096000  1.0
  O  O273  1  0.65223000  0.83736000  0.62096000  1.0
  O  O274  1  0.15221000  0.66264000  0.37904000  1.0
  O  O275  1  0.34779000  0.83734000  0.87904000  1.0
  O  O276  1  0.15224000  0.33736000  0.87905000  1.0
  O  O277  1  0.34777000  0.16264000  0.37905000  1.0
  O  O278  1  0.84777000  0.33735000  0.62095000  1.0
  O  O279  1  0.65226000  0.16262000  0.12096000  1.0
  O  O280  1  0.81241000  0.06585000  0.20178000  1.0
  O  O281  1  0.68758000  0.43415000  0.70179000  1.0
  O  O282  1  0.18759000  0.06586000  0.29821000  1.0
  O  O283  1  0.31240000  0.43415000  0.79822000  1.0
  O  O284  1  0.18760000  0.93414000  0.79821000  1.0
  O  O285  1  0.31239000  0.56585000  0.29820000  1.0
  O  O286  1  0.81239000  0.93414000  0.70179000  1.0
  O  O287  1  0.68758000  0.56585000  0.20178000  1.0
  O  O288  1  0.55106000  0.09679000  0.37982000  1.0
  O  O289  1  0.94895000  0.40320000  0.87982000  1.0
  O  O290  1  0.44896000  0.09681000  0.12018000  1.0
  O  O291  1  0.05106000  0.40321000  0.62018000  1.0
  O  O292  1  0.44894000  0.90321000  0.62018000  1.0
  O  O293  1  0.05108000  0.59679000  0.12017000  1.0
  O  O294  1  0.55107000  0.90322000  0.87983000  1.0
  O  O295  1  0.94893000  0.59679000  0.37983000  1.0
  O  O296  1  0.54424000  0.15305000  0.45369000  1.0
  O  O297  1  0.95576000  0.34695000  0.95369000  1.0
  O  O298  1  0.45579000  0.15305000  0.04631000  1.0
  O  O299  1  0.04424000  0.34695000  0.54631000  1.0
  O  O300  1  0.45577000  0.84695000  0.54631000  1.0
  O  O301  1  0.04425000  0.65304000  0.04631000  1.0
  O  O302  1  0.54424000  0.84696000  0.95370000  1.0
  O  O303  1  0.95576000  0.65305000  0.45369000  1.0
  O  O304  1  0.82428000  0.39025000  0.50560000  1.0
  O  O305  1  0.67573000  0.10975000  0.00560000  1.0
  O  O306  1  0.17572000  0.39025000  0.99440000  1.0
  O  O307  1  0.32428000  0.10975000  0.49440000  1.0
  O  O308  1  0.17571000  0.60975000  0.49439000  1.0
  O  O309  1  0.32430000  0.89025000  0.99440000  1.0
  O  O310  1  0.82430000  0.60976000  0.00560000  1.0
  O  O311  1  0.67572000  0.89025000  0.50560000  1.0
  O  O312  1  0.94892000  0.44621000  0.45488000  1.0
  O  O313  1  0.55108000  0.05380000  0.95488000  1.0
  O  O314  1  0.05108000  0.44619000  0.04512000  1.0
  O  O315  1  0.44892000  0.05379000  0.54513000  1.0
  O  O316  1  0.05108000  0.55380000  0.54512000  1.0
  O  O317  1  0.44893000  0.94621000  0.04513000  1.0
  O  O318  1  0.94892000  0.55380000  0.95487000  1.0
  O  O319  1  0.55108000  0.94621000  0.45487000  1.0
