# generated using pymatgen
data_Zn3H40C26N20(ClO2)2
_symmetry_space_group_name_H-M   'P 1'
_cell_length_a   15.46150000
_cell_length_b   15.77360000
_cell_length_c   20.18570000
_cell_angle_alpha   89.99960000
_cell_angle_beta   90.00000000
_cell_angle_gamma   112.65900000
_symmetry_Int_Tables_number   1
_chemical_formula_structural   Zn3H40C26N20(ClO2)2
_chemical_formula_sum   'Zn12 H160 C104 N80 Cl8 O16'
_cell_volume   4542.97595403
_cell_formula_units_Z   4
loop_
 _symmetry_equiv_pos_site_id
 _symmetry_equiv_pos_as_xyz
  1  'x, y, z'
loop_
 _atom_site_type_symbol
 _atom_site_label
 _atom_site_symmetry_multiplicity
 _atom_site_fract_x
 _atom_site_fract_y
 _atom_site_fract_z
 _atom_site_occupancy
  Zn  Zn0  1  0.65238000  0.29944000  0.91718000  1.0
  Zn  Zn1  1  0.84762000  0.20056000  0.41719000  1.0
  Zn  Zn2  1  0.34762000  0.70056000  0.08282000  1.0
  Zn  Zn3  1  0.15239000  0.79944000  0.58282000  1.0
  Zn  Zn4  1  0.80546000  0.15231000  0.91702000  1.0
  Zn  Zn5  1  0.69454000  0.34769000  0.41702000  1.0
  Zn  Zn6  1  0.19454000  0.84769000  0.08299000  1.0
  Zn  Zn7  1  0.30547000  0.65231000  0.58298000  1.0
  Zn  Zn8  1  0.38413000  0.37536000  0.74505000  1.0
  Zn  Zn9  1  0.11587000  0.12464000  0.24505000  1.0
  Zn  Zn10  1  0.61587000  0.62465000  0.25495000  1.0
  Zn  Zn11  1  0.88413000  0.87536000  0.75495000  1.0
  H  H12  1  0.63363000  0.12883000  0.76322000  1.0
  H  H13  1  0.86637000  0.37117000  0.26322000  1.0
  H  H14  1  0.36637000  0.87118000  0.23679000  1.0
  H  H15  1  0.13363000  0.62883000  0.73679000  1.0
  H  H16  1  0.64173000  0.13846000  0.85052000  1.0
  H  H17  1  0.85827000  0.36154000  0.35052000  1.0
  H  H18  1  0.35827000  0.86155000  0.14948000  1.0
  H  H19  1  0.14173000  0.63846000  0.64948000  1.0
  H  H20  1  0.59093000  0.99117000  0.92273000  1.0
  H  H21  1  0.90907000  0.50883000  0.42273000  1.0
  H  H22  1  0.40907000  0.00883000  0.07727000  1.0
  H  H23  1  0.09093000  0.49117000  0.57727000  1.0
  H  H24  1  0.54937000  0.88339000  0.88335000  1.0
  H  H25  1  0.95063000  0.61661000  0.38335000  1.0
  H  H26  1  0.45063000  0.11662000  0.11665000  1.0
  H  H27  1  0.04938000  0.38339000  0.61665000  1.0
  H  H28  1  0.32132000  0.89030000  0.82579000  1.0
  H  H29  1  0.17868000  0.60970000  0.32579000  1.0
  H  H30  1  0.67868000  0.10971000  0.17421000  1.0
  H  H31  1  0.82132000  0.39030000  0.67421000  1.0
  H  H32  1  0.39009000  0.82252000  0.82711000  1.0
  H  H33  1  0.10991000  0.67747000  0.32711000  1.0
  H  H34  1  0.60991000  0.17748000  0.17289000  1.0
  H  H35  1  0.89009000  0.32252000  0.67289000  1.0
  H  H36  1  0.37073000  0.03455000  0.75563000  1.0
  H  H37  1  0.12927000  0.46544000  0.25562000  1.0
  H  H38  1  0.62928000  0.96545000  0.24437000  1.0
  H  H39  1  0.87073000  0.53455000  0.74438000  1.0
  H  H40  1  0.47355000  0.06854000  0.70737000  1.0
  H  H41  1  0.02645000  0.43145000  0.20737000  1.0
  H  H42  1  0.52646000  0.93147000  0.29263000  1.0
  H  H43  1  0.97356000  0.56854000  0.79263000  1.0
  H  H44  1  0.54016000  0.87129000  0.75814000  1.0
  H  H45  1  0.95984000  0.62870000  0.25814000  1.0
  H  H46  1  0.45984000  0.12871000  0.24186000  1.0
  H  H47  1  0.04016000  0.37129000  0.74186000  1.0
  H  H48  1  0.57457000  0.97129000  0.70909000  1.0
  H  H49  1  0.92544000  0.52871000  0.20909000  1.0
  H  H50  1  0.42544000  0.02872000  0.29091000  1.0
  H  H51  1  0.07457000  0.47128000  0.79091000  1.0
  H  H52  1  0.48937000  0.08872000  0.92113000  1.0
  H  H53  1  0.01063000  0.41127000  0.42113000  1.0
  H  H54  1  0.51063000  0.91128000  0.07887000  1.0
  H  H55  1  0.98937000  0.58873000  0.57887000  1.0
  H  H56  1  0.38037000  0.04610000  0.88024000  1.0
  H  H57  1  0.11963000  0.45390000  0.38024000  1.0
  H  H58  1  0.61963000  0.95390000  0.11976000  1.0
  H  H59  1  0.88037000  0.54610000  0.61976000  1.0
  H  H60  1  0.27595000  0.40101000  0.87371000  1.0
  H  H61  1  0.22405000  0.09900000  0.37371000  1.0
  H  H62  1  0.72404000  0.59900000  0.12629000  1.0
  H  H63  1  0.77595000  0.90100000  0.62629000  1.0
  H  H64  1  0.03461000  0.24119000  0.79842000  1.0
  H  H65  1  0.46540000  0.25881000  0.29841000  1.0
  H  H66  1  0.96540000  0.75881000  0.20158000  1.0
  H  H67  1  0.53460000  0.74118000  0.70158000  1.0
  H  H68  1  0.02204000  0.18236000  0.87507000  1.0
  H  H69  1  0.47797000  0.31764000  0.37506000  1.0
  H  H70  1  0.97797000  0.81764000  0.12493000  1.0
  H  H71  1  0.52203000  0.68236000  0.62493000  1.0
  H  H72  1  0.10948000  0.18115000  0.81669000  1.0
  H  H73  1  0.39052000  0.31885000  0.31668000  1.0
  H  H74  1  0.89052000  0.81885000  0.18332000  1.0
  H  H75  1  0.60948000  0.68115000  0.68332000  1.0
  H  H76  1  0.16653000  0.41589000  0.93219000  1.0
  H  H77  1  0.33348000  0.08412000  0.43219000  1.0
  H  H78  1  0.83346000  0.58412000  0.06781000  1.0
  H  H79  1  0.66653000  0.91588000  0.56781000  1.0
  H  H80  1  0.07208000  0.31131000  0.95652000  1.0
  H  H81  1  0.42794000  0.18871000  0.45651000  1.0
  H  H82  1  0.92792000  0.68870000  0.04348000  1.0
  H  H83  1  0.57208000  0.81130000  0.54348000  1.0
  H  H84  1  0.05619000  0.37718000  0.88974000  1.0
  H  H85  1  0.44382000  0.12283000  0.38973000  1.0
  H  H86  1  0.94381000  0.62282000  0.11026000  1.0
  H  H87  1  0.55618000  0.87717000  0.61027000  1.0
  H  H88  1  0.43396000  0.58832000  0.78161000  1.0
  H  H89  1  0.06604000  0.91169000  0.28161000  1.0
  H  H90  1  0.56603000  0.41170000  0.21840000  1.0
  H  H91  1  0.93396000  0.08832000  0.71840000  1.0
  H  H92  1  0.51920000  0.50777000  0.92478000  1.0
  H  H93  1  0.98080000  0.99222000  0.42479000  1.0
  H  H94  1  0.48079000  0.49223000  0.07521000  1.0
  H  H95  1  0.01920000  0.00778000  0.57522000  1.0
  H  H96  1  0.49730000  0.59207000  0.97430000  1.0
  H  H97  1  0.00270000  0.90791000  0.47430000  1.0
  H  H98  1  0.50268000  0.40793000  0.02570000  1.0
  H  H99  1  0.99730000  0.09208000  0.52570000  1.0
  H  H100  1  0.60981000  0.61929000  0.93630000  1.0
  H  H101  1  0.89019000  0.88070000  0.43630000  1.0
  H  H102  1  0.39018000  0.38072000  0.06370000  1.0
  H  H103  1  0.10981000  0.11929000  0.56370000  1.0
  H  H104  1  0.48646000  0.72358000  0.82298000  1.0
  H  H105  1  0.01353000  0.77641000  0.32298000  1.0
  H  H106  1  0.51353000  0.27643000  0.17702000  1.0
  H  H107  1  0.98646000  0.22359000  0.67702000  1.0
  H  H108  1  0.59260000  0.75250000  0.86909000  1.0
  H  H109  1  0.90739000  0.74750000  0.36908000  1.0
  H  H110  1  0.40739000  0.24751000  0.13092000  1.0
  H  H111  1  0.09260000  0.25250000  0.63091000  1.0
  H  H112  1  0.48358000  0.72849000  0.91152000  1.0
  H  H113  1  0.01642000  0.77150000  0.41152000  1.0
  H  H114  1  0.51641000  0.27152000  0.08849000  1.0
  H  H115  1  0.98358000  0.22850000  0.58848000  1.0
  H  H116  1  0.46688000  0.50363000  0.60914000  1.0
  H  H117  1  0.03312000  0.99635000  0.10915000  1.0
  H  H118  1  0.53312000  0.49636000  0.39085000  1.0
  H  H119  1  0.96689000  0.00364000  0.89085000  1.0
  H  H120  1  0.73845000  0.56815000  0.64924000  1.0
  H  H121  1  0.76155000  0.93187000  0.14925000  1.0
  H  H122  1  0.26154000  0.43186000  0.35075000  1.0
  H  H123  1  0.23846000  0.06814000  0.85075000  1.0
  H  H124  1  0.71498000  0.47454000  0.59208000  1.0
  H  H125  1  0.78504000  0.02548000  0.09208000  1.0
  H  H126  1  0.28502000  0.52547000  0.40791000  1.0
  H  H127  1  0.21498000  0.97453000  0.90792000  1.0
  H  H128  1  0.66031000  0.45470000  0.67233000  1.0
  H  H129  1  0.83970000  0.04531000  0.17234000  1.0
  H  H130  1  0.33968000  0.54530000  0.32765000  1.0
  H  H131  1  0.16032000  0.95470000  0.82766000  1.0
  H  H132  1  0.64001000  0.53653000  0.50325000  1.0
  H  H133  1  0.86000000  0.96348000  0.00326000  1.0
  H  H134  1  0.36000000  0.46348000  0.49674000  1.0
  H  H135  1  0.14001000  0.03653000  0.99674000  1.0
  H  H136  1  0.67695000  0.64062000  0.55070000  1.0
  H  H137  1  0.82305000  0.85939000  0.05070000  1.0
  H  H138  1  0.32305000  0.35939000  0.44930000  1.0
  H  H139  1  0.17695000  0.14061000  0.94929000  1.0
  H  H140  1  0.55615000  0.58268000  0.52997000  1.0
  H  H141  1  0.94385000  0.91732000  0.02998000  1.0
  H  H142  1  0.44385000  0.41732000  0.47002000  1.0
  H  H143  1  0.05616000  0.08268000  0.97002000  1.0
  H  H144  1  0.21689000  0.19180000  0.72592000  1.0
  H  H145  1  0.28310000  0.30819000  0.22590000  1.0
  H  H146  1  0.78311000  0.80819000  0.27410000  1.0
  H  H147  1  0.71690000  0.69180000  0.77409000  1.0
  H  H148  1  0.28678000  0.09563000  0.55797000  1.0
  H  H149  1  0.21318000  0.40437000  0.05797000  1.0
  H  H150  1  0.71319000  0.90438000  0.44202000  1.0
  H  H151  1  0.78680000  0.59562000  0.94203000  1.0
  H  H152  1  0.34946000  0.06296000  0.61959000  1.0
  H  H153  1  0.15052000  0.43704000  0.11962000  1.0
  H  H154  1  0.65053000  0.93705000  0.38038000  1.0
  H  H155  1  0.84947000  0.56295000  0.88039000  1.0
  H  H156  1  0.38037000  0.18319000  0.60224000  1.0
  H  H157  1  0.11959000  0.31681000  0.10225000  1.0
  H  H158  1  0.61960000  0.81682000  0.39775000  1.0
  H  H159  1  0.88040000  0.68319000  0.89776000  1.0
  H  H160  1  0.14123000  0.04583000  0.71609000  1.0
  H  H161  1  0.35876000  0.45416000  0.21608000  1.0
  H  H162  1  0.85876000  0.95416000  0.28391000  1.0
  H  H163  1  0.64124000  0.54583000  0.78391000  1.0
  H  H164  1  0.21833000  0.98812000  0.69825000  1.0
  H  H165  1  0.28165000  0.51186000  0.19825000  1.0
  H  H166  1  0.78166000  0.01187000  0.30175000  1.0
  H  H167  1  0.71835000  0.48812000  0.80175000  1.0
  H  H168  1  0.14132000  0.99705000  0.63642000  1.0
  H  H169  1  0.35866000  0.50295000  0.13642000  1.0
  H  H170  1  0.85867000  0.00295000  0.36358000  1.0
  H  H171  1  0.64133000  0.49705000  0.86358000  1.0
  C  C172  1  0.49806000  0.18872000  0.81061000  1.0
  C  C173  1  0.00194000  0.31127000  0.31061000  1.0
  C  C174  1  0.50193000  0.81128000  0.18939000  1.0
  C  C175  1  0.99807000  0.68872000  0.68939000  1.0
  C  C176  1  0.49918000  0.09388000  0.81302000  1.0
  C  C177  1  0.00082000  0.40612000  0.31302000  1.0
  C  C178  1  0.50082000  0.90612000  0.18699000  1.0
  C  C179  1  0.99919000  0.59388000  0.68699000  1.0
  C  C180  1  0.60001000  0.09640000  0.80983000  1.0
  C  C181  1  0.89999000  0.40360000  0.30983000  1.0
  C  C182  1  0.39999000  0.90360000  0.19017000  1.0
  C  C183  1  0.10002000  0.59640000  0.69017000  1.0
  C  C184  1  0.59832000  0.99807000  0.81454000  1.0
  C  C185  1  0.90168000  0.50193000  0.31454000  1.0
  C  C186  1  0.40169000  0.00194000  0.18546000  1.0
  C  C187  1  0.09832000  0.49807000  0.68546000  1.0
  C  C188  1  0.55053000  0.95320000  0.88003000  1.0
  C  C189  1  0.94948000  0.54680000  0.38003000  1.0
  C  C190  1  0.44948000  0.04680000  0.11997000  1.0
  C  C191  1  0.05053000  0.45320000  0.61997000  1.0
  C  C192  1  0.45004000  0.95011000  0.88302000  1.0
  C  C193  1  0.04996000  0.54989000  0.38302000  1.0
  C  C194  1  0.54996000  0.04990000  0.11699000  1.0
  C  C195  1  0.95004000  0.45011000  0.61698000  1.0
  C  C196  1  0.39365000  0.89345000  0.82396000  1.0
  C  C197  1  0.10635000  0.60655000  0.32396000  1.0
  C  C198  1  0.60636000  0.10655000  0.17604000  1.0
  C  C199  1  0.89365000  0.39345000  0.67604000  1.0
  C  C200  1  0.44035000  0.93792000  0.75820000  1.0
  C  C201  1  0.05965000  0.56208000  0.25820000  1.0
  C  C202  1  0.55965000  0.06208000  0.24180000  1.0
  C  C203  1  0.94035000  0.43792000  0.74180000  1.0
  C  C204  1  0.44229000  0.03614000  0.75451000  1.0
  C  C205  1  0.05771000  0.46386000  0.25451000  1.0
  C  C206  1  0.55771000  0.96386000  0.24549000  1.0
  C  C207  1  0.94229000  0.53614000  0.74549000  1.0
  C  C208  1  0.54087000  0.94105000  0.75617000  1.0
  C  C209  1  0.95913000  0.55895000  0.25617000  1.0
  C  C210  1  0.45913000  0.05896000  0.24383000  1.0
  C  C211  1  0.04088000  0.44105000  0.74383000  1.0
  C  C212  1  0.45204000  0.04800000  0.87842000  1.0
  C  C213  1  0.04796000  0.45200000  0.37842000  1.0
  C  C214  1  0.54796000  0.95201000  0.12158000  1.0
  C  C215  1  0.95205000  0.54800000  0.62158000  1.0
  C  C216  1  0.69498000  0.99677000  0.81301000  1.0
  C  C217  1  0.80502000  0.50323000  0.31301000  1.0
  C  C218  1  0.30502000  0.00323000  0.18700000  1.0
  C  C219  1  0.19499000  0.49677000  0.68699000  1.0
  C  C220  1  0.40221000  0.90375000  0.94490000  1.0
  C  C221  1  0.09779000  0.59625000  0.44490000  1.0
  C  C222  1  0.59779000  0.09625000  0.05510000  1.0
  C  C223  1  0.90222000  0.40375000  0.55510000  1.0
  C  C224  1  0.38292000  0.87908000  0.70337000  1.0
  C  C225  1  0.11708000  0.62091000  0.20336000  1.0
  C  C226  1  0.61708000  0.12092000  0.29664000  1.0
  C  C227  1  0.88293000  0.37909000  0.79664000  1.0
  C  C228  1  0.23104000  0.33641000  0.84931000  1.0
  C  C229  1  0.26896000  0.16359000  0.34931000  1.0
  C  C230  1  0.76896000  0.66360000  0.15068000  1.0
  C  C231  1  0.73104000  0.83641000  0.65069000  1.0
  C  C232  1  0.07295000  0.22210000  0.83770000  1.0
  C  C233  1  0.42705000  0.27791000  0.33769000  1.0
  C  C234  1  0.92705000  0.77791000  0.16231000  1.0
  C  C235  1  0.57295000  0.72209000  0.66231000  1.0
  C  C236  1  0.10742000  0.35526000  0.91451000  1.0
  C  C237  1  0.39259000  0.14475000  0.41451000  1.0
  C  C238  1  0.89258000  0.64475000  0.08549000  1.0
  C  C239  1  0.60741000  0.85525000  0.58549000  1.0
  C  C240  1  0.45396000  0.55518000  0.82394000  1.0
  C  C241  1  0.04604000  0.94481000  0.32395000  1.0
  C  C242  1  0.54604000  0.44483000  0.17606000  1.0
  C  C243  1  0.95396000  0.05519000  0.67606000  1.0
  C  C244  1  0.53394000  0.58100000  0.93055000  1.0
  C  C245  1  0.96606000  0.91899000  0.43055000  1.0
  C  C246  1  0.46605000  0.41901000  0.06945000  1.0
  C  C247  1  0.03393000  0.08100000  0.56945000  1.0
  C  C248  1  0.51701000  0.70997000  0.86884000  1.0
  C  C249  1  0.98298000  0.79002000  0.36884000  1.0
  C  C250  1  0.48298000  0.29004000  0.13116000  1.0
  C  C251  1  0.01701000  0.20997000  0.63116000  1.0
  C  C252  1  0.52231000  0.48893000  0.63500000  1.0
  C  C253  1  0.97769000  0.01105000  0.13501000  1.0
  C  C254  1  0.47769000  0.51106000  0.36499000  1.0
  C  C255  1  0.02232000  0.98893000  0.86499000  1.0
  C  C256  1  0.68477000  0.50329000  0.63114000  1.0
  C  C257  1  0.81524000  0.99673000  0.13115000  1.0
  C  C258  1  0.31523000  0.49672000  0.36885000  1.0
  C  C259  1  0.18477000  0.00328000  0.86885000  1.0
  C  C260  1  0.62036000  0.57273000  0.54338000  1.0
  C  C261  1  0.87964000  0.92727000  0.04339000  1.0
  C  C262  1  0.37964000  0.42727000  0.45661000  1.0
  C  C263  1  0.12036000  0.07273000  0.95661000  1.0
  C  C264  1  0.26705000  0.19859000  0.68551000  1.0
  C  C265  1  0.23294000  0.30140000  0.18550000  1.0
  C  C266  1  0.73295000  0.80140000  0.31450000  1.0
  C  C267  1  0.76706000  0.69859000  0.81449000  1.0
  C  C268  1  0.32284000  0.11580000  0.60579000  1.0
  C  C269  1  0.17713000  0.38420000  0.10580000  1.0
  C  C270  1  0.67713000  0.88421000  0.39420000  1.0
  C  C271  1  0.82286000  0.61579000  0.89421000  1.0
  C  C272  1  0.18546000  0.03315000  0.67813000  1.0
  C  C273  1  0.31453000  0.46684000  0.17813000  1.0
  C  C274  1  0.81454000  0.96685000  0.32187000  1.0
  C  C275  1  0.68547000  0.53315000  0.82187000  1.0
  N  N276  1  0.54983000  0.26224000  0.84847000  1.0
  N  N277  1  0.95017000  0.23776000  0.34847000  1.0
  N  N278  1  0.45016000  0.73776000  0.15153000  1.0
  N  N279  1  0.04983000  0.76224000  0.65153000  1.0
  N  N280  1  0.52204000  0.33089000  0.83269000  1.0
  N  N281  1  0.97797000  0.16910000  0.33269000  1.0
  N  N282  1  0.47796000  0.66911000  0.16731000  1.0
  N  N283  1  0.02203000  0.83089000  0.66731000  1.0
  N  N284  1  0.45658000  0.29908000  0.78762000  1.0
  N  N285  1  0.04342000  0.20092000  0.28762000  1.0
  N  N286  1  0.54342000  0.70092000  0.21238000  1.0
  N  N287  1  0.95658000  0.79908000  0.71238000  1.0
  N  N288  1  0.43935000  0.21093000  0.77253000  1.0
  N  N289  1  0.06065000  0.28906000  0.27253000  1.0
  N  N290  1  0.56064000  0.78907000  0.22748000  1.0
  N  N291  1  0.93935000  0.71093000  0.72747000  1.0
  N  N292  1  0.77040000  0.04994000  0.84928000  1.0
  N  N293  1  0.72960000  0.45006000  0.34927000  1.0
  N  N294  1  0.22961000  0.95005000  0.15073000  1.0
  N  N295  1  0.27040000  0.54995000  0.65073000  1.0
  N  N296  1  0.84026000  0.02188000  0.83483000  1.0
  N  N297  1  0.65974000  0.47811000  0.33482000  1.0
  N  N298  1  0.15975000  0.97811000  0.16518000  1.0
  N  N299  1  0.34026000  0.52189000  0.66518000  1.0
  N  N300  1  0.80713000  0.95430000  0.79205000  1.0
  N  N301  1  0.69287000  0.54570000  0.29205000  1.0
  N  N302  1  0.19287000  0.04570000  0.20795000  1.0
  N  N303  1  0.30714000  0.45430000  0.70795000  1.0
  N  N304  1  0.71709000  0.93665000  0.77712000  1.0
  N  N305  1  0.78291000  0.56334000  0.27711000  1.0
  N  N306  1  0.28291000  0.06334000  0.22289000  1.0
  N  N307  1  0.21710000  0.43666000  0.72289000  1.0
  N  N308  1  0.41944000  0.83570000  0.97512000  1.0
  N  N309  1  0.08055000  0.66430000  0.47512000  1.0
  N  N310  1  0.58055000  0.16430000  0.02488000  1.0
  N  N311  1  0.91945000  0.33570000  0.52488000  1.0
  N  N312  1  0.35779000  0.80931000  0.02424000  1.0
  N  N313  1  0.14221000  0.69069000  0.52424000  1.0
  N  N314  1  0.64221000  0.19069000  0.97576000  1.0
  N  N315  1  0.85779000  0.30931000  0.47576000  1.0
  N  N316  1  0.30517000  0.85922000  0.02378000  1.0
  N  N317  1  0.19483000  0.64078000  0.52377000  1.0
  N  N318  1  0.69483000  0.14078000  0.97622000  1.0
  N  N319  1  0.80517000  0.35922000  0.47623000  1.0
  N  N320  1  0.33149000  0.91931000  0.97429000  1.0
  N  N321  1  0.16851000  0.58069000  0.47429000  1.0
  N  N322  1  0.66851000  0.08068000  0.02571000  1.0
  N  N323  1  0.83149000  0.41931000  0.52571000  1.0
  N  N324  1  0.30797000  0.88926000  0.67616000  1.0
  N  N325  1  0.19203000  0.61074000  0.17616000  1.0
  N  N326  1  0.69203000  0.11075000  0.32383000  1.0
  N  N327  1  0.80798000  0.38926000  0.82384000  1.0
  N  N328  1  0.27341000  0.81984000  0.63396000  1.0
  N  N329  1  0.22659000  0.68016000  0.13395000  1.0
  N  N330  1  0.72660000  0.18016000  0.36605000  1.0
  N  N331  1  0.77341000  0.31984000  0.86604000  1.0
  N  N332  1  0.32538000  0.76911000  0.63548000  1.0
  N  N333  1  0.17462000  0.73088000  0.13548000  1.0
  N  N334  1  0.67462000  0.23089000  0.36452000  1.0
  N  N335  1  0.82538000  0.26911000  0.86452000  1.0
  N  N336  1  0.39468000  0.80467000  0.67888000  1.0
  N  N337  1  0.10532000  0.69533000  0.17889000  1.0
  N  N338  1  0.60533000  0.19534000  0.32111000  1.0
  N  N339  1  0.89468000  0.30467000  0.82112000  1.0
  N  N340  1  0.14141000  0.30421000  0.86825000  1.0
  N  N341  1  0.35859000  0.19580000  0.36825000  1.0
  N  N342  1  0.85859000  0.69580000  0.13175000  1.0
  N  N343  1  0.64141000  0.80420000  0.63175000  1.0
  N  N344  1  0.50137000  0.61318000  0.87164000  1.0
  N  N345  1  0.99863000  0.88682000  0.37164000  1.0
  N  N346  1  0.49862000  0.38683000  0.12837000  1.0
  N  N347  1  0.00137000  0.11318000  0.62836000  1.0
  N  N348  1  0.60527000  0.51967000  0.60428000  1.0
  N  N349  1  0.89473000  0.98033000  0.10429000  1.0
  N  N350  1  0.39472000  0.48032000  0.39570000  1.0
  N  N351  1  0.10528000  0.01967000  0.89570000  1.0
  N  N352  1  0.25748000  0.11974000  0.65646000  1.0
  N  N353  1  0.24249000  0.38026000  0.15647000  1.0
  N  N354  1  0.74250000  0.88026000  0.34353000  1.0
  N  N355  1  0.75750000  0.61974000  0.84354000  1.0
  Cl  Cl356  1  0.66752000  0.41406000  0.98530000  1.0
  Cl  Cl357  1  0.83247000  0.08594000  0.48531000  1.0
  Cl  Cl358  1  0.33248000  0.58594000  0.01470000  1.0
  Cl  Cl359  1  0.16752000  0.91406000  0.51469000  1.0
  Cl  Cl360  1  0.91945000  0.15602000  0.98453000  1.0
  Cl  Cl361  1  0.58055000  0.34397000  0.48453000  1.0
  Cl  Cl362  1  0.08055000  0.84397000  0.01547000  1.0
  Cl  Cl363  1  0.41945000  0.65603000  0.51547000  1.0
  O  O364  1  0.26382000  0.29739000  0.80795000  1.0
  O  O365  1  0.23618000  0.20262000  0.30795000  1.0
  O  O366  1  0.73618000  0.70262000  0.19206000  1.0
  O  O367  1  0.76382000  0.79738000  0.69206000  1.0
  O  O368  1  0.43331000  0.47029000  0.82582000  1.0
  O  O369  1  0.06670000  0.02972000  0.32583000  1.0
  O  O370  1  0.56670000  0.52973000  0.17417000  1.0
  O  O371  1  0.93331000  0.97028000  0.67418000  1.0
  O  O372  1  0.50796000  0.44833000  0.68994000  1.0
  O  O373  1  0.99204000  0.05165000  0.18996000  1.0
  O  O374  1  0.49203000  0.55165000  0.31004000  1.0
  O  O375  1  0.00797000  0.94834000  0.81004000  1.0
  O  O376  1  0.32778000  0.27605000  0.66992000  1.0
  O  O377  1  0.17219000  0.22395000  0.16992000  1.0
  O  O378  1  0.67220000  0.72395000  0.33009000  1.0
  O  O379  1  0.82780000  0.77605000  0.83009000  1.0
