# generated using pymatgen
data_Cu2Mo2H9C10N3O8
_symmetry_space_group_name_H-M   'P 1'
_cell_length_a   7.53886000
_cell_length_b   9.27702000
_cell_length_c   27.20720000
_cell_angle_alpha   89.97230000
_cell_angle_beta   89.98660000
_cell_angle_gamma   70.54300000
_symmetry_Int_Tables_number   1
_chemical_formula_structural   Cu2Mo2H9C10N3O8
_chemical_formula_sum   'Cu8 Mo8 H36 C40 N12 O32'
_cell_volume   1794.15434725
_cell_formula_units_Z   4
loop_
 _symmetry_equiv_pos_site_id
 _symmetry_equiv_pos_as_xyz
  1  'x, y, z'
loop_
 _atom_site_type_symbol
 _atom_site_label
 _atom_site_symmetry_multiplicity
 _atom_site_fract_x
 _atom_site_fract_y
 _atom_site_fract_z
 _atom_site_occupancy
  Cu  Cu0  1  0.63608000  0.50615000  0.54689000  1.0
  Cu  Cu1  1  0.63676000  0.00582000  0.95310000  1.0
  Cu  Cu2  1  0.36351000  0.49415000  0.45291000  1.0
  Cu  Cu3  1  0.36334000  0.99414000  0.04696000  1.0
  Cu  Cu4  1  0.18859000  0.20261000  0.47115000  1.0
  Cu  Cu5  1  0.18735000  0.70264000  0.02871000  1.0
  Cu  Cu6  1  0.81127000  0.79736000  0.52871000  1.0
  Cu  Cu7  1  0.81276000  0.29732000  0.97133000  1.0
  Mo  Mo8  1  0.28626000  0.80969000  0.50804000  1.0
  Mo  Mo9  1  0.28591000  0.30969000  0.99179000  1.0
  Mo  Mo10  1  0.71358000  0.19038000  0.49186000  1.0
  Mo  Mo11  1  0.71421000  0.69025000  0.00826000  1.0
  Mo  Mo12  1  0.15015000  0.45275000  0.55916000  1.0
  Mo  Mo13  1  0.15005000  0.95298000  0.94073000  1.0
  Mo  Mo14  1  0.84941000  0.54799000  0.44046000  1.0
  Mo  Mo15  1  0.85007000  0.04698000  0.05934000  1.0
  H  H16  1  0.79033000  0.31091000  0.63296000  1.0
  H  H17  1  0.79274000  0.81095000  0.86714000  1.0
  H  H18  1  0.20948000  0.68927000  0.36694000  1.0
  H  H19  1  0.20744000  0.18912000  0.13290000  1.0
  H  H20  1  0.76535000  0.33296000  0.72367000  1.0
  H  H21  1  0.76775000  0.83308000  0.77646000  1.0
  H  H22  1  0.23492000  0.66711000  0.27625000  1.0
  H  H23  1  0.23251000  0.16710000  0.22360000  1.0
  H  H24  1  0.34958000  0.78226000  0.70219000  1.0
  H  H25  1  0.34910000  0.28113000  0.79788000  1.0
  H  H26  1  0.65085000  0.21798000  0.29784000  1.0
  H  H27  1  0.65087000  0.71890000  0.20221000  1.0
  H  H28  1  0.38928000  0.73613000  0.61257000  1.0
  H  H29  1  0.38923000  0.23502000  0.88750000  1.0
  H  H30  1  0.61041000  0.26402000  0.38745000  1.0
  H  H31  1  0.61062000  0.76486000  0.11257000  1.0
  H  H32  1  0.96342000  0.23598000  0.86782000  1.0
  H  H33  1  0.96305000  0.73588000  0.63207000  1.0
  H  H34  1  0.03669000  0.76394000  0.13221000  1.0
  H  H35  1  0.03683000  0.26372000  0.36810000  1.0
  H  H36  1  0.86792000  0.35482000  0.78646000  1.0
  H  H37  1  0.86839000  0.85444000  0.71348000  1.0
  H  H38  1  0.13220000  0.64504000  0.21357000  1.0
  H  H39  1  0.13187000  0.14593000  0.28661000  1.0
  H  H40  1  0.42196000  0.69611000  0.77806000  1.0
  H  H41  1  0.42217000  0.19557000  0.72208000  1.0
  H  H42  1  0.57825000  0.30383000  0.22194000  1.0
  H  H43  1  0.57811000  0.80463000  0.27797000  1.0
  H  H44  1  0.36793000  0.66438000  0.85688000  1.0
  H  H45  1  0.36770000  0.16423000  0.64334000  1.0
  H  H46  1  0.63218000  0.33551000  0.14313000  1.0
  H  H47  1  0.63198000  0.83523000  0.35671000  1.0
  H  H48  1  0.48348000  0.52897000  0.93463000  1.0
  H  H49  1  0.48245000  0.02901000  0.56555000  1.0
  H  H50  1  0.51658000  0.47096000  0.06538000  1.0
  H  H51  1  0.51709000  0.96986000  0.43458000  1.0
  C  C52  1  0.69641000  0.41403000  0.65038000  1.0
  C  C53  1  0.69821000  0.91384000  0.84971000  1.0
  C  C54  1  0.30344000  0.58612000  0.34954000  1.0
  C  C55  1  0.30193000  0.08622000  0.15035000  1.0
  C  C56  1  0.68231000  0.42831000  0.70126000  1.0
  C  C57  1  0.68404000  0.92819000  0.79883000  1.0
  C  C58  1  0.31784000  0.57177000  0.29868000  1.0
  C  C59  1  0.31618000  0.07196000  0.20122000  1.0
  C  C60  1  0.55902000  0.56424000  0.72177000  1.0
  C  C61  1  0.55984000  0.06378000  0.77832000  1.0
  C  C62  1  0.44121000  0.43582000  0.27821000  1.0
  C  C63  1  0.44031000  0.93636000  0.22174000  1.0
  C  C64  1  0.45087000  0.67588000  0.68864000  1.0
  C  C65  1  0.45110000  0.17508000  0.81144000  1.0
  C  C66  1  0.54933000  0.32428000  0.31137000  1.0
  C  C67  1  0.54897000  0.82497000  0.18863000  1.0
  C  C68  1  0.47190000  0.65161000  0.63870000  1.0
  C  C69  1  0.47232000  0.15083000  0.86137000  1.0
  C  C70  1  0.52796000  0.34852000  0.36130000  1.0
  C  C71  1  0.52770000  0.84915000  0.13870000  1.0
  C  C72  1  0.83110000  0.32993000  0.86342000  1.0
  C  C73  1  0.83087000  0.82986000  0.63655000  1.0
  C  C74  1  0.16899000  0.66995000  0.13661000  1.0
  C  C75  1  0.16904000  0.16978000  0.36357000  1.0
  C  C76  1  0.77499000  0.39635000  0.81760000  1.0
  C  C77  1  0.77519000  0.89613000  0.68240000  1.0
  C  C78  1  0.22514000  0.60355000  0.18242000  1.0
  C  C79  1  0.22491000  0.10389000  0.31770000  1.0
  C  C80  1  0.60403000  0.51805000  0.81379000  1.0
  C  C81  1  0.60428000  0.01782000  0.68629000  1.0
  C  C82  1  0.39612000  0.48188000  0.18622000  1.0
  C  C83  1  0.39574000  0.98212000  0.31378000  1.0
  C  C84  1  0.49909000  0.56751000  0.85709000  1.0
  C  C85  1  0.49887000  0.06741000  0.64307000  1.0
  C  C86  1  0.50103000  0.43239000  0.14292000  1.0
  C  C87  1  0.50090000  0.93215000  0.35701000  1.0
  C  C88  1  0.56395000  0.49404000  0.90090000  1.0
  C  C89  1  0.56329000  0.99405000  0.59922000  1.0
  C  C90  1  0.43616000  0.50587000  0.09911000  1.0
  C  C91  1  0.43640000  0.00512000  0.40089000  1.0
  N  N92  1  0.59623000  0.52380000  0.61941000  1.0
  N  N93  1  0.59737000  0.02332000  0.88066000  1.0
  N  N94  1  0.40342000  0.47632000  0.38054000  1.0
  N  N95  1  0.40269000  0.97667000  0.11941000  1.0
  N  N96  1  0.52968000  0.59765000  0.77120000  1.0
  N  N97  1  0.53019000  0.09726000  0.72891000  1.0
  N  N98  1  0.47058000  0.40231000  0.22881000  1.0
  N  N99  1  0.47007000  0.90293000  0.27115000  1.0
  N  N100  1  0.72806000  0.37700000  0.90413000  1.0
  N  N101  1  0.72740000  0.87705000  0.59591000  1.0
  N  N102  1  0.27204000  0.62294000  0.09590000  1.0
  N  N103  1  0.27234000  0.12217000  0.40421000  1.0
  O  O104  1  0.51104000  0.72552000  0.53800000  1.0
  O  O105  1  0.51036000  0.22537000  0.96185000  1.0
  O  O106  1  0.48898000  0.27472000  0.46183000  1.0
  O  O107  1  0.48977000  0.77458000  0.03822000  1.0
  O  O108  1  0.28534000  0.99639000  0.49462000  1.0
  O  O109  1  0.28466000  0.49612000  0.00574000  1.0
  O  O110  1  0.71414000  0.00417000  0.50581000  1.0
  O  O111  1  0.71543000  0.50382000  0.99432000  1.0
  O  O112  1  0.10234000  0.82441000  0.54926000  1.0
  O  O113  1  0.10249000  0.32454000  0.95039000  1.0
  O  O114  1  0.89745000  0.17486000  0.45055000  1.0
  O  O115  1  0.89763000  0.67541000  0.04966000  1.0
  O  O116  1  0.26478000  0.71668000  0.45099000  1.0
  O  O117  1  0.26322000  0.21641000  0.04874000  1.0
  O  O118  1  0.73582000  0.28370000  0.54878000  1.0
  O  O119  1  0.73693000  0.78355000  0.95133000  1.0
  O  O120  1  0.32123000  0.51331000  0.52542000  1.0
  O  O121  1  0.32186000  0.01291000  0.97425000  1.0
  O  O122  1  0.67919000  0.48655000  0.47407000  1.0
  O  O123  1  0.67826000  0.98705000  0.02582000  1.0
  O  O124  1  0.16769000  0.26394000  0.54125000  1.0
  O  O125  1  0.16852000  0.76405000  0.95879000  1.0
  O  O126  1  0.83146000  0.73682000  0.45863000  1.0
  O  O127  1  0.83166000  0.23589000  0.04128000  1.0
  O  O128  1  0.91234000  0.58079000  0.54838000  1.0
  O  O129  1  0.91191000  0.08080000  0.95167000  1.0
  O  O130  1  0.08685000  0.41919000  0.45120000  1.0
  O  O131  1  0.08820000  0.91915000  0.04839000  1.0
  O  O132  1  0.19789000  0.44961000  0.62165000  1.0
  O  O133  1  0.19700000  0.95009000  0.87820000  1.0
  O  O134  1  0.80147000  0.55177000  0.37795000  1.0
  O  O135  1  0.80314000  0.04987000  0.12188000  1.0
