# generated using pymatgen
data_CuH7C6N3ClO
_symmetry_space_group_name_H-M   'P 1'
_cell_length_a   6.02360000
_cell_length_b   6.77614000
_cell_length_c   18.40250000
_cell_angle_alpha   90.00370000
_cell_angle_beta   90.00120000
_cell_angle_gamma   93.67630000
_symmetry_Int_Tables_number   1
_chemical_formula_structural   CuH7C6N3ClO
_chemical_formula_sum   'Cu4 H28 C24 N12 Cl4 O4'
_cell_volume   749.58471076
_cell_formula_units_Z   4
loop_
 _symmetry_equiv_pos_site_id
 _symmetry_equiv_pos_as_xyz
  1  'x, y, z'
loop_
 _atom_site_type_symbol
 _atom_site_label
 _atom_site_symmetry_multiplicity
 _atom_site_fract_x
 _atom_site_fract_y
 _atom_site_fract_z
 _atom_site_occupancy
  Cu  Cu0  1  0.92893000  0.33783000  0.44778000  1.0
  Cu  Cu1  1  0.07109000  0.16217000  0.94777000  1.0
  Cu  Cu2  1  0.07106000  0.66216000  0.55223000  1.0
  Cu  Cu3  1  0.92892000  0.83785000  0.05223000  1.0
  H  H4  1  0.42001000  0.30132000  0.00911000  1.0
  H  H5  1  0.57997000  0.19862000  0.50908000  1.0
  H  H6  1  0.57998000  0.69866000  0.99091000  1.0
  H  H7  1  0.42000000  0.80135000  0.49091000  1.0
  H  H8  1  0.27592000  0.49289000  0.98535000  1.0
  H  H9  1  0.72413000  0.00709000  0.48533000  1.0
  H  H10  1  0.72410000  0.50711000  0.01466000  1.0
  H  H11  1  0.27587000  0.99289000  0.51466000  1.0
  H  H12  1  0.03118000  0.29530000  0.08727000  1.0
  H  H13  1  0.96883000  0.20470000  0.58725000  1.0
  H  H14  1  0.96882000  0.70469000  0.91275000  1.0
  H  H15  1  0.03115000  0.79529000  0.41275000  1.0
  H  H16  1  0.52553000  0.50335000  0.26136000  1.0
  H  H17  1  0.47451000  0.99670000  0.76133000  1.0
  H  H18  1  0.47447000  0.49670000  0.73866000  1.0
  H  H19  1  0.52551000  0.00326000  0.23866000  1.0
  H  H20  1  0.87319000  0.31473000  0.17913000  1.0
  H  H21  1  0.12682000  0.18535000  0.67911000  1.0
  H  H22  1  0.12678000  0.68534000  0.82088000  1.0
  H  H23  1  0.87319000  0.81462000  0.32087000  1.0
  H  H24  1  0.75298000  0.26176000  0.30646000  1.0
  H  H25  1  0.24704000  0.23829000  0.80646000  1.0
  H  H26  1  0.24703000  0.73827000  0.69354000  1.0
  H  H27  1  0.75297000  0.76166000  0.19352000  1.0
  H  H28  1  0.37435000  0.44890000  0.38736000  1.0
  H  H29  1  0.62569000  0.05110000  0.88734000  1.0
  H  H30  1  0.62566000  0.55110000  0.61265000  1.0
  H  H31  1  0.37433000  0.94886000  0.11266000  1.0
  C  C32  1  0.31678000  0.43579000  0.13547000  1.0
  C  C33  1  0.68322000  0.06426000  0.63546000  1.0
  C  C34  1  0.68319000  0.56426000  0.86453000  1.0
  C  C35  1  0.31677000  0.93571000  0.36453000  1.0
  C  C36  1  0.21551000  0.41133000  0.20954000  1.0
  C  C37  1  0.78452000  0.08871000  0.70952000  1.0
  C  C38  1  0.78449000  0.58872000  0.79048000  1.0
  C  C39  1  0.21548000  0.91127000  0.29047000  1.0
  C  C40  1  0.35285000  0.45101000  0.26978000  1.0
  C  C41  1  0.64717000  0.04902000  0.76977000  1.0
  C  C42  1  0.64713000  0.54902000  0.73022000  1.0
  C  C43  1  0.35285000  0.95096000  0.23023000  1.0
  C  C44  1  0.99342000  0.34582000  0.22268000  1.0
  C  C45  1  0.00659000  0.15424000  0.72267000  1.0
  C  C46  1  0.00656000  0.65423000  0.77733000  1.0
  C  C47  1  0.99342000  0.84576000  0.27732000  1.0
  C  C48  1  0.92190000  0.31905000  0.29388000  1.0
  C  C49  1  0.07811000  0.18100000  0.79387000  1.0
  C  C50  1  0.07809000  0.68098000  0.70613000  1.0
  C  C51  1  0.92191000  0.81898000  0.20612000  1.0
  C  C52  1  0.26976000  0.42177000  0.33951000  1.0
  C  C53  1  0.73027000  0.07824000  0.83950000  1.0
  C  C54  1  0.73024000  0.57824000  0.66049000  1.0
  C  C55  1  0.26974000  0.92174000  0.16050000  1.0
  N  N56  1  0.26269000  0.35380000  0.00825000  1.0
  N  N57  1  0.73731000  0.14619000  0.50823000  1.0
  N  N58  1  0.73730000  0.64620000  0.99176000  1.0
  N  N59  1  0.26265000  0.85379000  0.49176000  1.0
  N  N60  1  0.18600000  0.36521000  0.08036000  1.0
  N  N61  1  0.81403000  0.13481000  0.58034000  1.0
  N  N62  1  0.81403000  0.63480000  0.91965000  1.0
  N  N63  1  0.18597000  0.86519000  0.41965000  1.0
  N  N64  1  0.05611000  0.35611000  0.35219000  1.0
  N  N65  1  0.94393000  0.14389000  0.85218000  1.0
  N  N66  1  0.94389000  0.64390000  0.64782000  1.0
  N  N67  1  0.05609000  0.85609000  0.14781000  1.0
  Cl  Cl68  1  0.74368000  0.64288000  0.46474000  1.0
  Cl  Cl69  1  0.25630000  0.85710000  0.96474000  1.0
  Cl  Cl70  1  0.25631000  0.35710000  0.53527000  1.0
  Cl  Cl71  1  0.74369000  0.14291000  0.03527000  1.0
  O  O72  1  0.50878000  0.51116000  0.12636000  1.0
  O  O73  1  0.49127000  0.98888000  0.62635000  1.0
  O  O74  1  0.49123000  0.48891000  0.87364000  1.0
  O  O75  1  0.50875000  0.01106000  0.37365000  1.0
