# generated using pymatgen
data_ZnH8C10(BrN)2
_symmetry_space_group_name_H-M   'P 1'
_cell_length_a   4.95230000
_cell_length_b   12.92230000
_cell_length_c   17.79330000
_cell_angle_alpha   90.00000000
_cell_angle_beta   90.00000000
_cell_angle_gamma   90.00000000
_symmetry_Int_Tables_number   1
_chemical_formula_structural   ZnH8C10(BrN)2
_chemical_formula_sum   'Zn4 H32 C40 Br8 N8'
_cell_volume   1138.68412475
_cell_formula_units_Z   4
loop_
 _symmetry_equiv_pos_site_id
 _symmetry_equiv_pos_as_xyz
  1  'x, y, z'
loop_
 _atom_site_type_symbol
 _atom_site_label
 _atom_site_symmetry_multiplicity
 _atom_site_fract_x
 _atom_site_fract_y
 _atom_site_fract_z
 _atom_site_occupancy
  Zn  Zn0  1  0.93983000  0.25000000  0.39018000  1.0
  Zn  Zn1  1  0.43983000  0.75000000  0.10982000  1.0
  Zn  Zn2  1  0.06017000  0.75000000  0.60982000  1.0
  Zn  Zn3  1  0.56018000  0.25000000  0.89018000  1.0
  H  H4  1  0.70231000  0.41008000  0.28763000  1.0
  H  H5  1  0.20232000  0.58992000  0.21238000  1.0
  H  H6  1  0.29768000  0.91008000  0.71237000  1.0
  H  H7  1  0.79769000  0.08992000  0.78762000  1.0
  H  H8  1  0.29769000  0.58992000  0.71237000  1.0
  H  H9  1  0.79769000  0.41008000  0.78762000  1.0
  H  H10  1  0.70231000  0.08991000  0.28763000  1.0
  H  H11  1  0.20231000  0.91008000  0.21237000  1.0
  H  H12  1  0.39135000  0.41787000  0.17991000  1.0
  H  H13  1  0.89135000  0.58212000  0.32009000  1.0
  H  H14  1  0.60864000  0.91788000  0.82009000  1.0
  H  H15  1  0.10865000  0.08212000  0.67991000  1.0
  H  H16  1  0.60865000  0.58212000  0.82009000  1.0
  H  H17  1  0.10865000  0.41788000  0.67991000  1.0
  H  H18  1  0.39135000  0.08212000  0.17991000  1.0
  H  H19  1  0.89135000  0.91787000  0.32009000  1.0
  H  H20  1  0.11219000  0.41805000  0.09915000  1.0
  H  H21  1  0.61219000  0.58195000  0.40085000  1.0
  H  H22  1  0.88781000  0.91805000  0.90085000  1.0
  H  H23  1  0.38780000  0.08195000  0.59915000  1.0
  H  H24  1  0.88781000  0.58195000  0.90085000  1.0
  H  H25  1  0.38781000  0.41805000  0.59915000  1.0
  H  H26  1  0.11219000  0.08195000  0.09915000  1.0
  H  H27  1  0.61219000  0.91805000  0.40085000  1.0
  H  H28  1  0.79327000  0.41037000  0.99321000  1.0
  H  H29  1  0.29326000  0.58963000  0.50679000  1.0
  H  H30  1  0.20673000  0.91037000  0.00679000  1.0
  H  H31  1  0.70673000  0.08963000  0.49321000  1.0
  H  H32  1  0.20673000  0.58963000  0.00679000  1.0
  H  H33  1  0.70674000  0.41037000  0.49321000  1.0
  H  H34  1  0.79326000  0.08963000  0.99321000  1.0
  H  H35  1  0.29326000  0.91037000  0.50679000  1.0
  C  C36  1  0.62385000  0.33940000  0.26241000  1.0
  C  C37  1  0.12386000  0.66060000  0.23759000  1.0
  C  C38  1  0.37615000  0.83940000  0.73759000  1.0
  C  C39  1  0.87615000  0.16060000  0.76241000  1.0
  C  C40  1  0.37615000  0.66060000  0.73759000  1.0
  C  C41  1  0.87615000  0.33940000  0.76241000  1.0
  C  C42  1  0.62385000  0.16060000  0.26241000  1.0
  C  C43  1  0.12385000  0.83940000  0.23759000  1.0
  C  C44  1  0.44688000  0.34243000  0.20210000  1.0
  C  C45  1  0.94687000  0.65757000  0.29790000  1.0
  C  C46  1  0.55313000  0.84243000  0.79790000  1.0
  C  C47  1  0.05313000  0.15757000  0.70210000  1.0
  C  C48  1  0.55313000  0.65757000  0.79790000  1.0
  C  C49  1  0.05313000  0.34243000  0.70210000  1.0
  C  C50  1  0.44687000  0.15757000  0.20210000  1.0
  C  C51  1  0.94687000  0.84243000  0.29790000  1.0
  C  C52  1  0.34815000  0.25000000  0.17113000  1.0
  C  C53  1  0.84814000  0.75000000  0.32887000  1.0
  C  C54  1  0.65186000  0.75000000  0.82887000  1.0
  C  C55  1  0.15186000  0.25000000  0.67113000  1.0
  C  C56  1  0.15017000  0.25000000  0.10890000  1.0
  C  C57  1  0.65016000  0.75000000  0.39110000  1.0
  C  C58  1  0.84983000  0.75000000  0.89110000  1.0
  C  C59  1  0.34984000  0.25000000  0.60890000  1.0
  C  C60  1  0.05114000  0.34256000  0.07804000  1.0
  C  C61  1  0.55114000  0.65744000  0.42196000  1.0
  C  C62  1  0.94885000  0.84256000  0.92196000  1.0
  C  C63  1  0.44886000  0.15744000  0.57804000  1.0
  C  C64  1  0.94886000  0.65744000  0.92196000  1.0
  C  C65  1  0.44886000  0.34255000  0.57804000  1.0
  C  C66  1  0.05114000  0.15745000  0.07804000  1.0
  C  C67  1  0.55114000  0.84256000  0.42196000  1.0
  C  C68  1  0.87309000  0.33956000  0.01793000  1.0
  C  C69  1  0.37308000  0.66044000  0.48207000  1.0
  C  C70  1  0.12691000  0.83956000  0.98207000  1.0
  C  C71  1  0.62692000  0.16044000  0.51793000  1.0
  C  C72  1  0.12691000  0.66044000  0.98207000  1.0
  C  C73  1  0.62692000  0.33956000  0.51793000  1.0
  C  C74  1  0.87309000  0.16044000  0.01793000  1.0
  C  C75  1  0.37308000  0.83956000  0.48207000  1.0
  Br  Br76  1  0.14837000  0.41671000  0.38961000  1.0
  Br  Br77  1  0.64840000  0.58330000  0.11039000  1.0
  Br  Br78  1  0.85163000  0.91671000  0.61039000  1.0
  Br  Br79  1  0.35161000  0.08330000  0.88961000  1.0
  Br  Br80  1  0.85163000  0.58329000  0.61039000  1.0
  Br  Br81  1  0.35161000  0.41670000  0.88961000  1.0
  Br  Br82  1  0.14839000  0.08330000  0.38961000  1.0
  Br  Br83  1  0.64839000  0.91670000  0.11039000  1.0
  N  N84  1  0.70913000  0.25000000  0.29325000  1.0
  N  N85  1  0.20913000  0.75000000  0.20675000  1.0
  N  N86  1  0.29087000  0.75000000  0.70675000  1.0
  N  N87  1  0.79088000  0.25000000  0.79325000  1.0
  N  N88  1  0.78765000  0.25000000  0.98730000  1.0
  N  N89  1  0.28764000  0.75000000  0.51270000  1.0
  N  N90  1  0.21235000  0.75000000  0.01270000  1.0
  N  N91  1  0.71236000  0.25000000  0.48730000  1.0
