# generated using pymatgen
data_MgH13PtC19N7O
_symmetry_space_group_name_H-M   'P 1'
_cell_length_a   9.75449000
_cell_length_b   9.75448000
_cell_length_c   11.55290000
_cell_angle_alpha   82.54310000
_cell_angle_beta   82.54310000
_cell_angle_gamma   72.55210000
_symmetry_Int_Tables_number   1
_chemical_formula_structural   MgH13PtC19N7O
_chemical_formula_sum   'Mg2 H26 Pt2 C38 N14 O2'
_cell_volume   1035.00358575
_cell_formula_units_Z   2
loop_
 _symmetry_equiv_pos_site_id
 _symmetry_equiv_pos_as_xyz
  1  'x, y, z'
loop_
 _atom_site_type_symbol
 _atom_site_label
 _atom_site_symmetry_multiplicity
 _atom_site_fract_x
 _atom_site_fract_y
 _atom_site_fract_z
 _atom_site_occupancy
  Mg  Mg0  1  0.73119000  0.26881000  0.75000000  1.0
  Mg  Mg1  1  0.26881000  0.73119000  0.25000000  1.0
  H  H2  1  0.56073000  0.54277000  0.72777000  1.0
  H  H3  1  0.45723000  0.43927000  0.77223000  1.0
  H  H4  1  0.43927000  0.45723000  0.27223000  1.0
  H  H5  1  0.54277000  0.56073000  0.22777000  1.0
  H  H6  1  0.13239000  0.33672000  0.31088000  1.0
  H  H7  1  0.66328000  0.86762000  0.18912000  1.0
  H  H8  1  0.86762000  0.66328000  0.68912000  1.0
  H  H9  1  0.33673000  0.13238000  0.81088000  1.0
  H  H10  1  0.19420000  0.12470000  0.45924000  1.0
  H  H11  1  0.87530000  0.80580000  0.04076000  1.0
  H  H12  1  0.80580000  0.87530000  0.54076000  1.0
  H  H13  1  0.12470000  0.19420000  0.95924000  1.0
  H  H14  1  0.25026000  0.74974000  0.75000000  1.0
  H  H15  1  0.74974000  0.25026000  0.25000000  1.0
  H  H16  1  0.22654000  0.94192000  0.58366000  1.0
  H  H17  1  0.05808000  0.77346000  0.91634000  1.0
  H  H18  1  0.77346000  0.05808000  0.41634000  1.0
  H  H19  1  0.94192000  0.22654000  0.08366000  1.0
  H  H20  1  0.88831000  0.52013000  0.33639000  1.0
  H  H21  1  0.47987000  0.11169000  0.16361000  1.0
  H  H22  1  0.11169000  0.47987000  0.66361000  1.0
  H  H23  1  0.52013000  0.88831000  0.83639000  1.0
  H  H24  1  0.72200000  0.48610000  0.51484000  1.0
  H  H25  1  0.51390000  0.27800000  0.98516000  1.0
  H  H26  1  0.27800000  0.51390000  0.48516000  1.0
  H  H27  1  0.48610000  0.72200000  0.01484000  1.0
  Pt  Pt28  1  0.50000000  0.00000000  0.50000000  1.0
  Pt  Pt29  1  0.00000000  0.50000000  1.00000000  1.0
  C  C30  1  0.57114000  0.09498000  0.61060000  1.0
  C  C31  1  0.90502000  0.42885000  0.88940000  1.0
  C  C32  1  0.42886000  0.90502000  0.38940000  1.0
  C  C33  1  0.09498000  0.57115000  0.11060000  1.0
  C  C34  1  0.54040000  0.81824000  0.60525000  1.0
  C  C35  1  0.18176000  0.45960000  0.89475000  1.0
  C  C36  1  0.45960000  0.18176000  0.39475000  1.0
  C  C37  1  0.81824000  0.54040000  0.10525000  1.0
  C  C38  1  0.05488000  0.32426000  0.38550000  1.0
  C  C39  1  0.67574000  0.94512000  0.11450000  1.0
  C  C40  1  0.94512000  0.67574000  0.61450000  1.0
  C  C41  1  0.32426000  0.05488000  0.88550000  1.0
  C  C42  1  0.99081000  0.19377000  0.56585000  1.0
  C  C43  1  0.80624000  0.00919000  0.93415000  1.0
  C  C44  1  0.00919000  0.80623000  0.43415000  1.0
  C  C45  1  0.19376000  0.99081000  0.06585000  1.0
  C  C46  1  0.08990000  0.20573000  0.46891000  1.0
  C  C47  1  0.79427000  0.91010000  0.03109000  1.0
  C  C48  1  0.91010000  0.79427000  0.53109000  1.0
  C  C49  1  0.20573000  0.08990000  0.96891000  1.0
  C  C50  1  0.01993000  0.07170000  0.65937000  1.0
  C  C51  1  0.92830000  0.98007000  0.84063000  1.0
  C  C52  1  0.98007000  0.92830000  0.34063000  1.0
  C  C53  1  0.07170000  0.01993000  0.15937000  1.0
  C  C54  1  0.15584000  0.84416000  0.75000000  1.0
  C  C55  1  0.84416000  0.15584000  0.25000000  1.0
  C  C56  1  0.14269000  0.95178000  0.65664000  1.0
  C  C57  1  0.04822000  0.85731000  0.84336000  1.0
  C  C58  1  0.85730000  0.04822000  0.34336000  1.0
  C  C59  1  0.95178000  0.14270000  0.15664000  1.0
  C  C60  1  0.92080000  0.42686000  0.40002000  1.0
  C  C61  1  0.57314000  0.07920000  0.09998000  1.0
  C  C62  1  0.07920000  0.57314000  0.59998000  1.0
  C  C63  1  0.42686000  0.92080000  0.90002000  1.0
  C  C64  1  0.82749000  0.40773000  0.49891000  1.0
  C  C65  1  0.59227000  0.17251000  0.00108000  1.0
  C  C66  1  0.17251000  0.59227000  0.50108000  1.0
  C  C67  1  0.40773000  0.82749000  0.99892000  1.0
  N  N68  1  0.61827000  0.15149000  0.67258000  1.0
  N  N69  1  0.84851000  0.38173000  0.82742000  1.0
  N  N70  1  0.38173000  0.84851000  0.32742000  1.0
  N  N71  1  0.15149000  0.61827000  0.17258000  1.0
  N  N72  1  0.56381000  0.71156000  0.66850000  1.0
  N  N73  1  0.28844000  0.43619000  0.83150000  1.0
  N  N74  1  0.43619000  0.28844000  0.33150000  1.0
  N  N75  1  0.71156000  0.56381000  0.16850000  1.0
  N  N76  1  0.91722000  0.08278000  0.75000000  1.0
  N  N77  1  0.08278000  0.91722000  0.25000000  1.0
  N  N78  1  0.86125000  0.29507000  0.58050000  1.0
  N  N79  1  0.70493000  0.13875000  0.91950000  1.0
  N  N80  1  0.13875000  0.70493000  0.41950000  1.0
  N  N81  1  0.29507000  0.86125000  0.08050000  1.0
  O  O82  1  0.55924000  0.44075000  0.75000000  1.0
  O  O83  1  0.44075000  0.55925000  0.25000000  1.0
