# generated using pymatgen
data_Ni2H84C61(NO)12
_symmetry_space_group_name_H-M   'P 1'
_cell_length_a   9.03213000
_cell_length_b   18.90070000
_cell_length_c   23.16510000
_cell_angle_alpha   89.50990000
_cell_angle_beta   79.28900000
_cell_angle_gamma   76.59690000
_symmetry_Int_Tables_number   1
_chemical_formula_structural   Ni2H84C61(NO)12
_chemical_formula_sum   'Ni4 H168 C122 N24 O24'
_cell_volume   3777.39629140
_cell_formula_units_Z   2
loop_
 _symmetry_equiv_pos_site_id
 _symmetry_equiv_pos_as_xyz
  1  'x, y, z'
loop_
 _atom_site_type_symbol
 _atom_site_label
 _atom_site_symmetry_multiplicity
 _atom_site_fract_x
 _atom_site_fract_y
 _atom_site_fract_z
 _atom_site_occupancy
  Ni  Ni0  1  0.00000000  0.50000000  0.50000000  1.0
  Ni  Ni1  1  0.50000000  0.00000000  0.00000000  1.0
  Ni  Ni2  1  0.50000000  0.00000000  0.50000000  1.0
  Ni  Ni3  1  0.49999000  0.50000000  0.00000000  1.0
  H  H4  1  0.50894000  0.88351000  0.44870000  1.0
  H  H5  1  0.08191000  0.40467000  0.57040000  1.0
  H  H6  1  0.66981000  0.63403000  0.72859000  1.0
  H  H7  1  0.50104000  0.67142000  0.78301000  1.0
  H  H8  1  0.84992000  0.70719000  0.68798000  1.0
  H  H9  1  0.70170000  0.76423000  0.65547000  1.0
  H  H10  1  0.30237000  0.73103000  0.62636000  1.0
  H  H11  1  0.16996000  0.64824000  0.58303000  1.0
  H  H12  1  0.34170000  0.47821000  0.69361000  1.0
  H  H13  1  0.48348000  0.55863000  0.73533000  1.0
  H  H14  1  0.93112000  0.75202000  0.59693000  1.0
  H  H15  1  0.15594000  0.78021000  0.52795000  1.0
  H  H16  1  0.18485000  0.94265000  0.65061000  1.0
  H  H17  1  0.96914000  0.91082000  0.72268000  1.0
  H  H18  1  0.84894000  0.36795000  0.61056000  1.0
  H  H19  1  0.77443000  0.40101000  0.54697000  1.0
  H  H20  1  0.12094000  0.50709000  0.36682000  1.0
  H  H21  1  0.31833000  0.50950000  0.36465000  1.0
  H  H22  1  0.36862000  0.49751000  0.47986000  1.0
  H  H23  1  0.45669000  0.43529000  0.41922000  1.0
  H  H24  1  0.51249000  0.37171000  0.50493000  1.0
  H  H25  1  0.32133000  0.40108000  0.54478000  1.0
  H  H26  1  0.09194000  0.39651000  0.39801000  1.0
  H  H27  1  0.29991000  0.36666000  0.37878000  1.0
  H  H28  1  0.08019000  0.28707000  0.52758000  1.0
  H  H29  1  0.96666000  0.33638000  0.47841000  1.0
  H  H30  1  0.44064000  0.28994000  0.44152000  1.0
  H  H31  1  0.34842000  0.27562000  0.51314000  1.0
  H  H32  1  0.50211000  0.91701000  0.60844000  1.0
  H  H33  1  0.68439000  0.90614000  0.63247000  1.0
  H  H34  1  0.75222000  0.00824000  0.67028000  1.0
  H  H35  1  0.64102000  0.09720000  0.66241000  1.0
  H  H36  1  0.89721000  0.05553000  0.58618000  1.0
  H  H37  1  0.72972000  0.09030000  0.55652000  1.0
  H  H38  1  0.87075000  0.98017000  0.49984000  1.0
  H  H39  1  0.90311000  0.93167000  0.56427000  1.0
  H  H40  1  0.63441000  0.84240000  0.53096000  1.0
  H  H41  1  0.83472000  0.84026000  0.52476000  1.0
  H  H42  1  0.81993000  0.91290000  0.43162000  1.0
  H  H43  1  0.77937000  0.82564000  0.42636000  1.0
  H  H44  1  0.68262000  0.96919000  0.36518000  1.0
  H  H45  1  0.61671000  0.89252000  0.34452000  1.0
  H  H46  1  0.34521000  0.61610000  0.05117000  1.0
  H  H47  1  0.56372000  0.09141000  0.93092000  1.0
  H  H48  1  0.53802000  0.86623000  0.76968000  1.0
  H  H49  1  0.45852000  0.82907000  0.71479000  1.0
  H  H50  1  0.74773000  0.79260000  0.81143000  1.0
  H  H51  1  0.62267000  0.73562000  0.84307000  1.0
  H  H52  1  0.16330000  0.76813000  0.86863000  1.0
  H  H53  1  0.90791000  0.85095000  0.91114000  1.0
  H  H54  1  0.02471000  0.02200000  0.80294000  1.0
  H  H55  1  0.28574000  0.94186000  0.76248000  1.0
  H  H56  1  0.78398000  0.74759000  0.90246000  1.0
  H  H57  1  0.96986000  0.71972000  0.97165000  1.0
  H  H58  1  0.27529000  0.55780000  0.84905000  1.0
  H  H59  1  0.09816000  0.58947000  0.77668000  1.0
  H  H60  1  0.33979000  0.13042000  0.88821000  1.0
  H  H61  1  0.22949000  0.09745000  0.95014000  1.0
  H  H62  1  0.48935000  0.99477000  0.13327000  1.0
  H  H63  1  0.68601000  0.99407000  0.13677000  1.0
  H  H64  1  0.83895000  0.00226000  0.02008000  1.0
  H  H65  1  0.80805000  0.06403000  0.08129000  1.0
  H  H66  1  0.88805000  0.12752000  0.99617000  1.0
  H  H67  1  0.76444000  0.09915000  0.95532000  1.0
  H  H68  1  0.38567000  0.10405000  0.10073000  1.0
  H  H69  1  0.54667000  0.13269000  0.12147000  1.0
  H  H70  1  0.40055000  0.20940000  0.96991000  1.0
  H  H71  1  0.28668000  0.16083000  0.01968000  1.0
  H  H72  1  0.67633000  0.20971000  0.05932000  1.0
  H  H73  1  0.63987000  0.22486000  0.98760000  1.0
  H  H74  1  0.52640000  0.58307000  0.89157000  1.0
  H  H75  1  0.72085000  0.59442000  0.86811000  1.0
  H  H76  1  0.92491000  0.49280000  0.83047000  1.0
  H  H77  1  0.89367000  0.40360000  0.83804000  1.0
  H  H78  1  0.03483000  0.44584000  0.91470000  1.0
  H  H79  1  0.87367000  0.41026000  0.94396000  1.0
  H  H80  1  0.85087000  0.52046000  0.00103000  1.0
  H  H81  1  0.89787000  0.56929000  0.93680000  1.0
  H  H82  1  0.51022000  0.65761000  0.96935000  1.0
  H  H83  1  0.70179000  0.66024000  0.97625000  1.0
  H  H84  1  0.66760000  0.58721000  0.06918000  1.0
  H  H85  1  0.53682000  0.67435000  0.07428000  1.0
  H  H86  1  0.52086000  0.53099000  0.13536000  1.0
  H  H87  1  0.36007000  0.60742000  0.15547000  1.0
  H  H88  1  0.49106000  0.11649000  0.55130000  1.0
  H  H89  1  0.91809000  0.59533000  0.42959000  1.0
  H  H90  1  0.33019000  0.36596000  0.27141000  1.0
  H  H91  1  0.49896000  0.32858000  0.21699000  1.0
  H  H92  1  0.15009000  0.29281000  0.31202000  1.0
  H  H93  1  0.29829000  0.23576000  0.34453000  1.0
  H  H94  1  0.69765000  0.26897000  0.37363000  1.0
  H  H95  1  0.83005000  0.35176000  0.41697000  1.0
  H  H96  1  0.65828000  0.52179000  0.30639000  1.0
  H  H97  1  0.51650000  0.44137000  0.26467000  1.0
  H  H98  1  0.06888000  0.24797000  0.40307000  1.0
  H  H99  1  0.84407000  0.21979000  0.47205000  1.0
  H  H100  1  0.81513000  0.05735000  0.34939000  1.0
  H  H101  1  0.03084000  0.08918000  0.27732000  1.0
  H  H102  1  0.15106000  0.63205000  0.38944000  1.0
  H  H103  1  0.22557000  0.59899000  0.45303000  1.0
  H  H104  1  0.87906000  0.49291000  0.63318000  1.0
  H  H105  1  0.68167000  0.49050000  0.63535000  1.0
  H  H106  1  0.63137000  0.50248000  0.52015000  1.0
  H  H107  1  0.54331000  0.56470000  0.58078000  1.0
  H  H108  1  0.48750000  0.62828000  0.49507000  1.0
  H  H109  1  0.67867000  0.59892000  0.45522000  1.0
  H  H110  1  0.90805000  0.60349000  0.60199000  1.0
  H  H111  1  0.70009000  0.63334000  0.62122000  1.0
  H  H112  1  0.91980000  0.71293000  0.47242000  1.0
  H  H113  1  0.03333000  0.66362000  0.52159000  1.0
  H  H114  1  0.55935000  0.71006000  0.55848000  1.0
  H  H115  1  0.65157000  0.72438000  0.48686000  1.0
  H  H116  1  0.49789000  0.08299000  0.39156000  1.0
  H  H117  1  0.31560000  0.09386000  0.36754000  1.0
  H  H118  1  0.24778000  0.99177000  0.32972000  1.0
  H  H119  1  0.35898000  0.90281000  0.33759000  1.0
  H  H120  1  0.10279000  0.94447000  0.41382000  1.0
  H  H121  1  0.27028000  0.90971000  0.44348000  1.0
  H  H122  1  0.12925000  0.01983000  0.50016000  1.0
  H  H123  1  0.09689000  0.06834000  0.43573000  1.0
  H  H124  1  0.36559000  0.15760000  0.46904000  1.0
  H  H125  1  0.16528000  0.15974000  0.47524000  1.0
  H  H126  1  0.18007000  0.08710000  0.56838000  1.0
  H  H127  1  0.22063000  0.17436000  0.57365000  1.0
  H  H128  1  0.31738000  0.03081000  0.63482000  1.0
  H  H129  1  0.38329000  0.10748000  0.65548000  1.0
  H  H130  1  0.65479000  0.38390000  0.94883000  1.0
  H  H131  1  0.43628000  0.90859000  0.06908000  1.0
  H  H132  1  0.46198000  0.13377000  0.23032000  1.0
  H  H133  1  0.54148000  0.17093000  0.28521000  1.0
  H  H134  1  0.25228000  0.20740000  0.18857000  1.0
  H  H135  1  0.37734000  0.26437000  0.15693000  1.0
  H  H136  1  0.83670000  0.23187000  0.13137000  1.0
  H  H137  1  0.09210000  0.14906000  0.08886000  1.0
  H  H138  1  0.97530000  0.97800000  0.19705000  1.0
  H  H139  1  0.71427000  0.05813000  0.23752000  1.0
  H  H140  1  0.21603000  0.25242000  0.09753000  1.0
  H  H141  1  0.03015000  0.28029000  0.02834000  1.0
  H  H142  1  0.72471000  0.44220000  0.15095000  1.0
  H  H143  1  0.90184000  0.41052000  0.22332000  1.0
  H  H144  1  0.66022000  0.86958000  0.11179000  1.0
  H  H145  1  0.77052000  0.90255000  0.04986000  1.0
  H  H146  1  0.51066000  0.00522000  0.86673000  1.0
  H  H147  1  0.31400000  0.00593000  0.86323000  1.0
  H  H148  1  0.16106000  0.99775000  0.97992000  1.0
  H  H149  1  0.19196000  0.93597000  0.91871000  1.0
  H  H150  1  0.11195000  0.87249000  0.00383000  1.0
  H  H151  1  0.23556000  0.90085000  0.04468000  1.0
  H  H152  1  0.61433000  0.89595000  0.89927000  1.0
  H  H153  1  0.45334000  0.86731000  0.87853000  1.0
  H  H154  1  0.59946000  0.79060000  0.03009000  1.0
  H  H155  1  0.71332000  0.83916000  0.98032000  1.0
  H  H156  1  0.32366000  0.79029000  0.94068000  1.0
  H  H157  1  0.36013000  0.77514000  0.01240000  1.0
  H  H158  1  0.47360000  0.41693000  0.10844000  1.0
  H  H159  1  0.27915000  0.40558000  0.13190000  1.0
  H  H160  1  0.07509000  0.50720000  0.16953000  1.0
  H  H161  1  0.10633000  0.59640000  0.16197000  1.0
  H  H162  1  0.96517000  0.55416000  0.08531000  1.0
  H  H163  1  0.12633000  0.58973000  0.05604000  1.0
  H  H164  1  0.14913000  0.47954000  0.99898000  1.0
  H  H165  1  0.10213000  0.43071000  0.06320000  1.0
  H  H166  1  0.48978000  0.34239000  0.03065000  1.0
  H  H167  1  0.29821000  0.33976000  0.02376000  1.0
  H  H168  1  0.33239000  0.41279000  0.93083000  1.0
  H  H169  1  0.46318000  0.32565000  0.92573000  1.0
  H  H170  1  0.47913000  0.46901000  0.86464000  1.0
  H  H171  1  0.63993000  0.39258000  0.84453000  1.0
  C  C172  1  0.57318000  0.68205000  0.74155000  1.0
  C  C173  1  0.75542000  0.75674000  0.69478000  1.0
  C  C174  1  0.40336000  0.64950000  0.68189000  1.0
  C  C175  1  0.31100000  0.67533000  0.64039000  1.0
  C  C176  1  0.23684000  0.62945000  0.61696000  1.0
  C  C177  1  0.24837000  0.55771000  0.63520000  1.0
  C  C178  1  0.33450000  0.53372000  0.67898000  1.0
  C  C179  1  0.41352000  0.57885000  0.70242000  1.0
  C  C180  1  0.93764000  0.82978000  0.66417000  1.0
  C  C181  1  0.98858000  0.79264000  0.60941000  1.0
  C  C182  1  0.11269000  0.80908000  0.57053000  1.0
  C  C183  1  0.18429000  0.86308000  0.58463000  1.0
  C  C184  1  0.31488000  0.88097000  0.54118000  1.0
  C  C185  1  0.12995000  0.90029000  0.63951000  1.0
  C  C186  1  0.00921000  0.88348000  0.67943000  1.0
  C  C187  1  0.17299000  0.50853000  0.60585000  1.0
  C  C188  1  0.85146000  0.40936000  0.57664000  1.0
  C  C189  1  0.20449000  0.51473000  0.39379000  1.0
  C  C190  1  0.36390000  0.44665000  0.45864000  1.0
  C  C191  1  0.38967000  0.38430000  0.50084000  1.0
  C  C192  1  0.20015000  0.38695000  0.41479000  1.0
  C  C193  1  0.06222000  0.33670000  0.50162000  1.0
  C  C194  1  0.35052000  0.31600000  0.47885000  1.0
  C  C195  1  0.60140000  0.94090000  0.60853000  1.0
  C  C196  1  0.68379000  0.04257000  0.64125000  1.0
  C  C197  1  0.78537000  0.04509000  0.58083000  1.0
  C  C198  1  0.81909000  0.97323000  0.54564000  1.0
  C  C199  1  0.72420000  0.87211000  0.51493000  1.0
  C  C200  1  0.73639000  0.88007000  0.44863000  1.0
  C  C201  1  0.58791000  0.94079000  0.37472000  1.0
  C  C202  1  0.50038000  0.81830000  0.75646000  1.0
  C  C203  1  0.70782000  0.74317000  0.80415000  1.0
  C  C204  1  0.24055000  0.85053000  0.81476000  1.0
  C  C205  1  0.13201000  0.82407000  0.85500000  1.0
  C  C206  1  0.99040000  0.86978000  0.87781000  1.0
  C  C207  1  0.95057000  0.94187000  0.86014000  1.0
  C  C208  1  0.05661000  0.96633000  0.81735000  1.0
  C  C209  1  0.20271000  0.92140000  0.79463000  1.0
  C  C210  1  0.93111000  0.67011000  0.83522000  1.0
  C  C211  1  0.89303000  0.70717000  0.89004000  1.0
  C  C212  1  0.99575000  0.69094000  0.92903000  1.0
  C  C213  1  0.13344000  0.63707000  0.91500000  1.0
  C  C214  1  0.23892000  0.61895000  0.95877000  1.0
  C  C215  1  0.16837000  0.59998000  0.86005000  1.0
  C  C216  1  0.06983000  0.61668000  0.81999000  1.0
  C  C217  1  0.79942000  0.99020000  0.89087000  1.0
  C  C218  1  0.34478000  0.08851000  0.92174000  1.0
  C  C219  1  0.60722000  0.98708000  0.10729000  1.0
  C  C220  1  0.76538000  0.05310000  0.04143000  1.0
  C  C221  1  0.77307000  0.11558000  0.99961000  1.0
  C  C222  1  0.50127000  0.11355000  0.08494000  1.0
  C  C223  1  0.40521000  0.16130000  0.99753000  1.0
  C  C224  1  0.64750000  0.18415000  0.02166000  1.0
  C  C225  1  0.64890000  0.55943000  0.89178000  1.0
  C  C226  1  0.86229000  0.45821000  0.85928000  1.0
  C  C227  1  0.90786000  0.45576000  0.91984000  1.0
  C  C228  1  0.83681000  0.52746000  0.95516000  1.0
  C  C229  1  0.61325000  0.62809000  0.98566000  1.0
  C  C230  1  0.56877000  0.61995000  0.05191000  1.0
  C  C231  1  0.40798000  0.55910000  0.12540000  1.0
  C  C232  1  0.42681000  0.31794000  0.25845000  1.0
  C  C233  1  0.24458000  0.24326000  0.30522000  1.0
  C  C234  1  0.59664000  0.35050000  0.31811000  1.0
  C  C235  1  0.68900000  0.32467000  0.35961000  1.0
  C  C236  1  0.76316000  0.37054000  0.38303000  1.0
  C  C237  1  0.75164000  0.44229000  0.36480000  1.0
  C  C238  1  0.66550000  0.46628000  0.32102000  1.0
  C  C239  1  0.58647000  0.42115000  0.29758000  1.0
  C  C240  1  0.06236000  0.17022000  0.33583000  1.0
  C  C241  1  0.01141000  0.20736000  0.39059000  1.0
  C  C242  1  0.88731000  0.19092000  0.42948000  1.0
  C  C243  1  0.81571000  0.13692000  0.41537000  1.0
  C  C244  1  0.68511000  0.11903000  0.45882000  1.0
  C  C245  1  0.87004000  0.09972000  0.36049000  1.0
  C  C246  1  0.99079000  0.11652000  0.32057000  1.0
  C  C247  1  0.82701000  0.49147000  0.39415000  1.0
  C  C248  1  0.14854000  0.59064000  0.42336000  1.0
  C  C249  1  0.79550000  0.48527000  0.60621000  1.0
  C  C250  1  0.63610000  0.55335000  0.54136000  1.0
  C  C251  1  0.61033000  0.61570000  0.49916000  1.0
  C  C252  1  0.79985000  0.61305000  0.58521000  1.0
  C  C253  1  0.93777000  0.66330000  0.49838000  1.0
  C  C254  1  0.64947000  0.68400000  0.52115000  1.0
  C  C255  1  0.39860000  0.05910000  0.39147000  1.0
  C  C256  1  0.31621000  0.95744000  0.35875000  1.0
  C  C257  1  0.21463000  0.95491000  0.41917000  1.0
  C  C258  1  0.18091000  0.02677000  0.45436000  1.0
  C  C259  1  0.27580000  0.12789000  0.48507000  1.0
  C  C260  1  0.26361000  0.11993000  0.55137000  1.0
  C  C261  1  0.41209000  0.05922000  0.62528000  1.0
  C  C262  1  0.49963000  0.18170000  0.24354000  1.0
  C  C263  1  0.29219000  0.25682000  0.19585000  1.0
  C  C264  1  0.75946000  0.14947000  0.18523000  1.0
  C  C265  1  0.86799000  0.17593000  0.14500000  1.0
  C  C266  1  0.00961000  0.13022000  0.12219000  1.0
  C  C267  1  0.04943000  0.05813000  0.13985000  1.0
  C  C268  1  0.94339000  0.03367000  0.18265000  1.0
  C  C269  1  0.79730000  0.07860000  0.20536000  1.0
  C  C270  1  0.06889000  0.32989000  0.16478000  1.0
  C  C271  1  0.10698000  0.29283000  0.10996000  1.0
  C  C272  1  0.00426000  0.30906000  0.07096000  1.0
  C  C273  1  0.86656000  0.36293000  0.08499000  1.0
  C  C274  1  0.76108000  0.38104000  0.04123000  1.0
  C  C275  1  0.83163000  0.40002000  0.13994000  1.0
  C  C276  1  0.93017000  0.38331000  0.18001000  1.0
  C  C277  1  0.20060000  0.00980000  0.10913000  1.0
  C  C278  1  0.65523000  0.91149000  0.07826000  1.0
  C  C279  1  0.39279000  0.01292000  0.89271000  1.0
  C  C280  1  0.23463000  0.94690000  0.95857000  1.0
  C  C281  1  0.22694000  0.88442000  0.00039000  1.0
  C  C282  1  0.49874000  0.88645000  0.91506000  1.0
  C  C283  1  0.59479000  0.83869000  0.00247000  1.0
  C  C284  1  0.35251000  0.81585000  0.97834000  1.0
  C  C285  1  0.35110000  0.44057000  0.10823000  1.0
  C  C286  1  0.13771000  0.54179000  0.14072000  1.0
  C  C287  1  0.09214000  0.54424000  0.08016000  1.0
  C  C288  1  0.16319000  0.47254000  0.04484000  1.0
  C  C289  1  0.38675000  0.37191000  0.01434000  1.0
  C  C290  1  0.43123000  0.38005000  0.94809000  1.0
  C  C291  1  0.59201000  0.44090000  0.87461000  1.0
  C  C292  1  0.63485000  0.75009000  0.74919000  1.0
  C  C293  1  0.36516000  0.24990000  0.25080000  1.0
  N  N294  1  0.55097000  0.01150000  0.63800000  1.0
  N  N295  1  0.67879000  0.94437000  0.54588000  1.0
  N  N296  1  0.58388000  0.91756000  0.43649000  1.0
  N  N297  1  0.20208000  0.33210000  0.45844000  1.0
  N  N298  1  0.00800000  0.40252000  0.54136000  1.0
  N  N299  1  0.21288000  0.45810000  0.43850000  1.0
  N  N300  1  0.69622000  0.48889000  0.86225000  1.0
  N  N301  1  0.66882000  0.55594000  0.95458000  1.0
  N  N302  1  0.44143000  0.58222000  0.06364000  1.0
  N  N303  1  0.49449000  0.16848000  0.04152000  1.0
  N  N304  1  0.45803000  0.09390000  0.95903000  1.0
  N  N305  1  0.60500000  0.04211000  0.06111000  1.0
  N  N306  1  0.44903000  0.98850000  0.36201000  1.0
  N  N307  1  0.32121000  0.05563000  0.45412000  1.0
  N  N308  1  0.41612000  0.08244000  0.56351000  1.0
  N  N309  1  0.79792000  0.66790000  0.54156000  1.0
  N  N310  1  0.99200000  0.59748000  0.45864000  1.0
  N  N311  1  0.78711000  0.54190000  0.56149000  1.0
  N  N312  1  0.30378000  0.51112000  0.13776000  1.0
  N  N313  1  0.33118000  0.44406000  0.04543000  1.0
  N  N314  1  0.55857000  0.41778000  0.93636000  1.0
  N  N315  1  0.50551000  0.83152000  0.95848000  1.0
  N  N316  1  0.54198000  0.90609000  0.04097000  1.0
  N  N317  1  0.39501000  0.95789000  0.93889000  1.0
  O  O318  1  0.33903000  0.94455000  0.54837000  1.0
  O  O319  1  0.38884000  0.83406000  0.50118000  1.0
  O  O320  1  0.15964000  0.44857000  0.62814000  1.0
  O  O321  1  0.12848000  0.53329000  0.55823000  1.0
  O  O322  1  0.48177000  0.69799000  0.69696000  1.0
  O  O323  1  0.81650000  0.81812000  0.70514000  1.0
  O  O324  1  0.33249000  0.55562000  0.95132000  1.0
  O  O325  1  0.22745000  0.66547000  0.99933000  1.0
  O  O326  1  0.74531000  0.05066000  0.86965000  1.0
  O  O327  1  0.73746000  0.96472000  0.93843000  1.0
  O  O328  1  0.38117000  0.80236000  0.80064000  1.0
  O  O329  1  0.83809000  0.68165000  0.79417000  1.0
  O  O330  1  0.66096000  0.05545000  0.45163000  1.0
  O  O331  1  0.61114000  0.16595000  0.49883000  1.0
  O  O332  1  0.84036000  0.55143000  0.37186000  1.0
  O  O333  1  0.87151000  0.46671000  0.44176000  1.0
  O  O334  1  0.51823000  0.30201000  0.30304000  1.0
  O  O335  1  0.18350000  0.18188000  0.29486000  1.0
  O  O336  1  0.66750000  0.44438000  0.04868000  1.0
  O  O337  1  0.77255000  0.33454000  0.00067000  1.0
  O  O338  1  0.25469000  0.94934000  0.13034000  1.0
  O  O339  1  0.26256000  0.03528000  0.06156000  1.0
  O  O340  1  0.61884000  0.19764000  0.19936000  1.0
  O  O341  1  0.16191000  0.31835000  0.20583000  1.0
