# generated using pymatgen
data_CdH6C6(NO3)2
_symmetry_space_group_name_H-M   'P 1'
_cell_length_a   7.81163000
_cell_length_b   7.86174000
_cell_length_c   14.47230000
_cell_angle_alpha   89.99990000
_cell_angle_beta   90.00000000
_cell_angle_gamma   107.44100000
_symmetry_Int_Tables_number   1
_chemical_formula_structural   CdH6C6(NO3)2
_chemical_formula_sum   'Cd4 H24 C24 N8 O24'
_cell_volume   847.92639008
_cell_formula_units_Z   4
loop_
 _symmetry_equiv_pos_site_id
 _symmetry_equiv_pos_as_xyz
  1  'x, y, z'
loop_
 _atom_site_type_symbol
 _atom_site_label
 _atom_site_symmetry_multiplicity
 _atom_site_fract_x
 _atom_site_fract_y
 _atom_site_fract_z
 _atom_site_occupancy
  Cd  Cd0  1  0.28136000  0.94785000  0.65938000  1.0
  Cd  Cd1  1  0.71864000  0.55215000  0.15938000  1.0
  Cd  Cd2  1  0.71864000  0.05215000  0.34062000  1.0
  Cd  Cd3  1  0.28136000  0.44785000  0.84062000  1.0
  H  H4  1  0.65134000  0.41302000  0.62789000  1.0
  H  H5  1  0.34865000  0.08698000  0.12789000  1.0
  H  H6  1  0.34865000  0.58698000  0.37211000  1.0
  H  H7  1  0.65135000  0.91302000  0.87211000  1.0
  H  H8  1  0.90876000  0.63268000  0.71250000  1.0
  H  H9  1  0.09124000  0.86731000  0.21250000  1.0
  H  H10  1  0.09124000  0.36732000  0.28750000  1.0
  H  H11  1  0.90876000  0.13268000  0.78750000  1.0
  H  H12  1  0.40086000  0.66549000  0.57110000  1.0
  H  H13  1  0.59914000  0.83451000  0.07110000  1.0
  H  H14  1  0.59914000  0.33451000  0.42890000  1.0
  H  H15  1  0.40086000  0.16549000  0.92890000  1.0
  H  H16  1  0.56102000  0.84978000  0.57104000  1.0
  H  H17  1  0.43899000  0.65022000  0.07104000  1.0
  H  H18  1  0.43898000  0.15022000  0.42896000  1.0
  H  H19  1  0.56102000  0.34978000  0.92896000  1.0
  H  H20  1  0.65827000  0.10730000  0.70252000  1.0
  H  H21  1  0.34173000  0.39270000  0.20252000  1.0
  H  H22  1  0.34173000  0.89270000  0.29748000  1.0
  H  H23  1  0.65827000  0.60731000  0.79748000  1.0
  H  H24  1  0.53842000  0.17495000  0.78084000  1.0
  H  H25  1  0.46158000  0.32505000  0.28084000  1.0
  H  H26  1  0.46158000  0.82505000  0.21916000  1.0
  H  H27  1  0.53842000  0.67495000  0.71916000  1.0
  C  C28  1  0.00933000  0.76533000  0.49859000  1.0
  C  C29  1  0.99068000  0.73467000  0.99859000  1.0
  C  C30  1  0.99068000  0.23467000  0.50141000  1.0
  C  C31  1  0.00933000  0.26533000  0.00141000  1.0
  C  C32  1  0.86224000  0.64925000  0.45242000  1.0
  C  C33  1  0.13775000  0.85074000  0.95242000  1.0
  C  C34  1  0.13776000  0.35074000  0.54758000  1.0
  C  C35  1  0.86225000  0.14926000  0.04758000  1.0
  C  C36  1  0.75355000  0.51526000  0.59069000  1.0
  C  C37  1  0.24645000  0.98474000  0.09070000  1.0
  C  C38  1  0.24645000  0.48474000  0.40930000  1.0
  C  C39  1  0.75355000  0.01527000  0.90931000  1.0
  C  C40  1  0.89498000  0.63591000  0.63784000  1.0
  C  C41  1  0.10502000  0.86408000  0.13785000  1.0
  C  C42  1  0.10502000  0.36409000  0.36215000  1.0
  C  C43  1  0.89498000  0.13592000  0.86216000  1.0
  C  C44  1  0.16206000  0.89473000  0.44694000  1.0
  C  C45  1  0.83794000  0.60527000  0.94694000  1.0
  C  C46  1  0.83794000  0.10527000  0.55306000  1.0
  C  C47  1  0.16206000  0.39472000  0.05307000  1.0
  C  C48  1  0.82357000  0.65843000  0.35071000  1.0
  C  C49  1  0.17642000  0.84157000  0.85071000  1.0
  C  C50  1  0.17643000  0.34156000  0.64929000  1.0
  C  C51  1  0.82357000  0.15844000  0.14929000  1.0
  N  N52  1  0.02193000  0.75694000  0.59093000  1.0
  N  N53  1  0.97807000  0.74306000  0.09093000  1.0
  N  N54  1  0.97807000  0.24306000  0.40907000  1.0
  N  N55  1  0.02193000  0.25695000  0.90907000  1.0
  N  N56  1  0.73822000  0.52104000  0.49878000  1.0
  N  N57  1  0.26178000  0.97895000  0.99878000  1.0
  N  N58  1  0.26178000  0.47896000  0.50122000  1.0
  N  N59  1  0.73822000  0.02105000  0.00122000  1.0
  O  O60  1  0.28407000  0.00431000  0.49465000  1.0
  O  O61  1  0.71593000  0.49569000  0.99465000  1.0
  O  O62  1  0.71593000  0.99568000  0.50535000  1.0
  O  O63  1  0.28408000  0.50432000  0.00535000  1.0
  O  O64  1  0.46588000  0.76861000  0.61109000  1.0
  O  O65  1  0.53412000  0.73139000  0.11109000  1.0
  O  O66  1  0.53412000  0.23139000  0.38891000  1.0
  O  O67  1  0.46588000  0.26861000  0.88891000  1.0
  O  O68  1  0.15861000  0.88172000  0.36022000  1.0
  O  O69  1  0.84139000  0.61828000  0.86022000  1.0
  O  O70  1  0.84139000  0.11828000  0.63978000  1.0
  O  O71  1  0.15861000  0.38172000  0.13978000  1.0
  O  O72  1  0.54218000  0.08075000  0.73643000  1.0
  O  O73  1  0.45782000  0.41925000  0.23643000  1.0
  O  O74  1  0.45782000  0.91925000  0.26357000  1.0
  O  O75  1  0.54218000  0.58075000  0.76357000  1.0
  O  O76  1  0.86720000  0.55033000  0.29770000  1.0
  O  O77  1  0.13280000  0.94967000  0.79770000  1.0
  O  O78  1  0.13280000  0.44967000  0.70230000  1.0
  O  O79  1  0.86720000  0.05033000  0.20230000  1.0
  O  O80  1  0.73264000  0.75952000  0.32689000  1.0
  O  O81  1  0.26736000  0.74047000  0.82689000  1.0
  O  O82  1  0.26736000  0.24048000  0.67311000  1.0
  O  O83  1  0.73264000  0.25952000  0.17311000  1.0
