# generated using pymatgen
data_ErH6C7SO8
_symmetry_space_group_name_H-M   'P 1'
_cell_length_a   9.76019000
_cell_length_b   10.83230000
_cell_length_c   12.23270000
_cell_angle_alpha   76.60300000
_cell_angle_beta   89.99650000
_cell_angle_gamma   63.27600000
_symmetry_Int_Tables_number   1
_chemical_formula_structural   ErH6C7SO8
_chemical_formula_sum   'Er4 H24 C28 S4 O32'
_cell_volume   1115.62560269
_cell_formula_units_Z   4
loop_
 _symmetry_equiv_pos_site_id
 _symmetry_equiv_pos_as_xyz
  1  'x, y, z'
loop_
 _atom_site_type_symbol
 _atom_site_label
 _atom_site_symmetry_multiplicity
 _atom_site_fract_x
 _atom_site_fract_y
 _atom_site_fract_z
 _atom_site_occupancy
  Er  Er0  1  0.51360000  0.99991000  0.75001000  1.0
  Er  Er1  1  0.48640000  0.00007000  0.25000000  1.0
  Er  Er2  1  0.01915000  0.00016000  0.74989000  1.0
  Er  Er3  1  0.98086000  0.99985000  0.25010000  1.0
  H  H4  1  0.91129000  0.94086000  0.99761000  1.0
  H  H5  1  0.85217000  0.05919000  0.50219000  1.0
  H  H6  1  0.08870000  0.05913000  0.00239000  1.0
  H  H7  1  0.14782000  0.94082000  0.49780000  1.0
  H  H8  1  0.77308000  0.04317000  0.90282000  1.0
  H  H9  1  0.81603000  0.95710000  0.59720000  1.0
  H  H10  1  0.22691000  0.95682000  0.09718000  1.0
  H  H11  1  0.18394000  0.04292000  0.40279000  1.0
  H  H12  1  0.17783000  0.85102000  0.97692000  1.0
  H  H13  1  0.02906000  0.14901000  0.52280000  1.0
  H  H14  1  0.82216000  0.14899000  0.02308000  1.0
  H  H15  1  0.97093000  0.85100000  0.47720000  1.0
  H  H16  1  0.31053000  0.83861000  0.90629000  1.0
  H  H17  1  0.14936000  0.16151000  0.59337000  1.0
  H  H18  1  0.68948000  0.16137000  0.09371000  1.0
  H  H19  1  0.85065000  0.83849000  0.40663000  1.0
  H  H20  1  0.32725000  0.40718000  0.58919000  1.0
  H  H21  1  0.73459000  0.59199000  0.91059000  1.0
  H  H22  1  0.67278000  0.59281000  0.41079000  1.0
  H  H23  1  0.26541000  0.40804000  0.08942000  1.0
  H  H24  1  0.18778000  0.68019000  0.59245000  1.0
  H  H25  1  0.86864000  0.31902000  0.90706000  1.0
  H  H26  1  0.81222000  0.31981000  0.40752000  1.0
  H  H27  1  0.13135000  0.68099000  0.09296000  1.0
  C  C28  1  0.53897000  0.39644000  0.65778000  1.0
  C  C29  1  0.93540000  0.60345000  0.84231000  1.0
  C  C30  1  0.46105000  0.60357000  0.34221000  1.0
  C  C31  1  0.06461000  0.39655000  0.15770000  1.0
  C  C32  1  0.38368000  0.46393000  0.61569000  1.0
  C  C33  1  0.84781000  0.53552000  0.88419000  1.0
  C  C34  1  0.61634000  0.53607000  0.38428000  1.0
  C  C35  1  0.15219000  0.46449000  0.11582000  1.0
  C  C36  1  0.31038000  0.60872000  0.61702000  1.0
  C  C37  1  0.91958000  0.39078000  0.88272000  1.0
  C  C38  1  0.68963000  0.39128000  0.38295000  1.0
  C  C39  1  0.08042000  0.60923000  0.11730000  1.0
  C  C40  1  0.41029000  0.65003000  0.66019000  1.0
  C  C41  1  0.06084000  0.34990000  0.83972000  1.0
  C  C42  1  0.58970000  0.34999000  0.33978000  1.0
  C  C43  1  0.93916000  0.65009000  0.16031000  1.0
  C  C44  1  0.64539000  0.24246000  0.67961000  1.0
  C  C45  1  0.88751000  0.75757000  0.82043000  1.0
  C  C46  1  0.35461000  0.75756000  0.32040000  1.0
  C  C47  1  0.11250000  0.24244000  0.17956000  1.0
  C  C48  1  0.36695000  0.78853000  0.68515000  1.0
  C  C49  1  0.15615000  0.21154000  0.81471000  1.0
  C  C50  1  0.63304000  0.21148000  0.31483000  1.0
  C  C51  1  0.84385000  0.78845000  0.18531000  1.0
  C  C52  1  0.53624000  0.05192000  0.99220000  1.0
  C  C53  1  0.58804000  0.94800000  0.50781000  1.0
  C  C54  1  0.46377000  0.94806000  0.00780000  1.0
  C  C55  1  0.41195000  0.05202000  0.49220000  1.0
  S  S56  1  0.59531000  0.51142000  0.69619000  1.0
  S  S57  1  0.10691000  0.48888000  0.80402000  1.0
  S  S58  1  0.40470000  0.48858000  0.30380000  1.0
  S  S59  1  0.89310000  0.51111000  0.19599000  1.0
  O  O60  1  0.58886000  0.16187000  0.66327000  1.0
  O  O61  1  0.75042000  0.83778000  0.83677000  1.0
  O  O62  1  0.41115000  0.83813000  0.33675000  1.0
  O  O63  1  0.24959000  0.16222000  0.16323000  1.0
  O  O64  1  0.78631000  0.19790000  0.71559000  1.0
  O  O65  1  0.98364000  0.80251000  0.78440000  1.0
  O  O66  1  0.21369000  0.80210000  0.28441000  1.0
  O  O67  1  0.01636000  0.19750000  0.21558000  1.0
  O  O68  1  0.22293000  0.88105000  0.66072000  1.0
  O  O69  1  0.10468000  0.11884000  0.83889000  1.0
  O  O70  1  0.77705000  0.11896000  0.33927000  1.0
  O  O71  1  0.89530000  0.88115000  0.16112000  1.0
  O  O72  1  0.46859000  0.81051000  0.72933000  1.0
  O  O73  1  0.27987000  0.18966000  0.77077000  1.0
  O  O74  1  0.53140000  0.18949000  0.27068000  1.0
  O  O75  1  0.72014000  0.81031000  0.22926000  1.0
  O  O76  1  0.57494000  0.08635000  0.89573000  1.0
  O  O77  1  0.66112000  0.91339000  0.60431000  1.0
  O  O78  1  0.42507000  0.91362000  0.10427000  1.0
  O  O79  1  0.33886000  0.08663000  0.39570000  1.0
  O  O80  1  0.55307000  0.09290000  0.07773000  1.0
  O  O81  1  0.64578000  0.90701000  0.42228000  1.0
  O  O82  1  0.44696000  0.90707000  0.92228000  1.0
  O  O83  1  0.35423000  0.09299000  0.57772000  1.0
  O  O84  1  0.88371000  0.01366000  0.92461000  1.0
  O  O85  1  0.89716000  0.98662000  0.57533000  1.0
  O  O86  1  0.11628000  0.98633000  0.07539000  1.0
  O  O87  1  0.10282000  0.01339000  0.42466000  1.0
  O  O88  1  0.21589000  0.82580000  0.90672000  1.0
  O  O89  1  0.04193000  0.17435000  0.59294000  1.0
  O  O90  1  0.78409000  0.17420000  0.09328000  1.0
  O  O91  1  0.95807000  0.82565000  0.40706000  1.0
