# generated using pymatgen
data_LiH9C15N4O3
_symmetry_space_group_name_H-M   'P 1'
_cell_length_a   9.83430000
_cell_length_b   10.00450000
_cell_length_c   15.23310000
_cell_angle_alpha   90.00040000
_cell_angle_beta   90.00040000
_cell_angle_gamma   74.82300000
_symmetry_Int_Tables_number   1
_chemical_formula_structural   LiH9C15N4O3
_chemical_formula_sum   'Li4 H36 C60 N16 O12'
_cell_volume   1446.46922958
_cell_formula_units_Z   4
loop_
 _symmetry_equiv_pos_site_id
 _symmetry_equiv_pos_as_xyz
  1  'x, y, z'
loop_
 _atom_site_type_symbol
 _atom_site_label
 _atom_site_symmetry_multiplicity
 _atom_site_fract_x
 _atom_site_fract_y
 _atom_site_fract_z
 _atom_site_occupancy
  Li  Li0  1  0.27452000  0.31429000  0.15564000  1.0
  Li  Li1  1  0.72548000  0.18571000  0.65564000  1.0
  Li  Li2  1  0.72548000  0.68570000  0.84436000  1.0
  Li  Li3  1  0.27451000  0.81429000  0.34436000  1.0
  H  H4  1  0.39462000  0.28475000  0.52919000  1.0
  H  H5  1  0.60538000  0.21525000  0.02919000  1.0
  H  H6  1  0.60538000  0.71525000  0.47081000  1.0
  H  H7  1  0.39462000  0.78474000  0.97081000  1.0
  H  H8  1  0.23844000  0.32427000  0.65830000  1.0
  H  H9  1  0.76155000  0.17574000  0.15830000  1.0
  H  H10  1  0.76155000  0.67574000  0.34170000  1.0
  H  H11  1  0.23845000  0.82426000  0.84170000  1.0
  H  H12  1  0.87973000  0.33932000  0.49094000  1.0
  H  H13  1  0.12027000  0.16068000  0.99095000  1.0
  H  H14  1  0.12027000  0.66068000  0.50906000  1.0
  H  H15  1  0.87973000  0.83932000  0.00905000  1.0
  H  H16  1  0.03610000  0.30501000  0.36018000  1.0
  H  H17  1  0.96389000  0.19499000  0.86019000  1.0
  H  H18  1  0.96390000  0.69499000  0.63982000  1.0
  H  H19  1  0.03611000  0.80501000  0.13981000  1.0
  H  H20  1  0.07413000  0.30195000  0.76037000  1.0
  H  H21  1  0.92587000  0.19805000  0.26037000  1.0
  H  H22  1  0.92587000  0.69806000  0.23963000  1.0
  H  H23  1  0.07413000  0.80194000  0.73963000  1.0
  H  H24  1  0.90340000  0.42012000  0.77304000  1.0
  H  H25  1  0.09659000  0.07988000  0.27304000  1.0
  H  H26  1  0.09660000  0.57988000  0.22696000  1.0
  H  H27  1  0.90341000  0.92012000  0.72696000  1.0
  H  H28  1  0.04671000  0.48090000  0.72988000  1.0
  H  H29  1  0.95329000  0.01910000  0.22988000  1.0
  H  H30  1  0.95329000  0.51910000  0.27012000  1.0
  H  H31  1  0.04671000  0.98090000  0.77012000  1.0
  H  H32  1  0.01858000  0.46061000  0.09688000  1.0
  H  H33  1  0.98141000  0.03939000  0.59687000  1.0
  H  H34  1  0.98141000  0.53939000  0.90312000  1.0
  H  H35  1  0.01858000  0.96061000  0.40312000  1.0
  H  H36  1  0.14058000  0.45116000  0.02937000  1.0
  H  H37  1  0.85942000  0.04884000  0.52936000  1.0
  H  H38  1  0.85942000  0.54884000  0.97063000  1.0
  H  H39  1  0.14058000  0.95116000  0.47063000  1.0
  C  C40  1  0.31163000  0.28154000  0.35767000  1.0
  C  C41  1  0.68837000  0.21846000  0.85767000  1.0
  C  C42  1  0.68837000  0.71847000  0.64233000  1.0
  C  C43  1  0.31163000  0.78153000  0.14233000  1.0
  C  C44  1  0.47074000  0.25721000  0.36620000  1.0
  C  C45  1  0.52926000  0.24279000  0.86620000  1.0
  C  C46  1  0.52926000  0.74280000  0.63381000  1.0
  C  C47  1  0.47075000  0.75721000  0.13381000  1.0
  C  C48  1  0.52330000  0.37437000  0.36526000  1.0
  C  C49  1  0.47670000  0.12564000  0.86526000  1.0
  C  C50  1  0.47671000  0.62564000  0.63474000  1.0
  C  C51  1  0.52330000  0.87436000  0.13474000  1.0
  C  C52  1  0.55098000  0.11797000  0.36945000  1.0
  C  C53  1  0.44902000  0.38202000  0.86945000  1.0
  C  C54  1  0.44902000  0.88203000  0.63055000  1.0
  C  C55  1  0.55098000  0.61797000  0.13055000  1.0
  C  C56  1  0.43452000  0.50846000  0.37832000  1.0
  C  C57  1  0.56548000  0.99154000  0.87832000  1.0
  C  C58  1  0.56547000  0.49154000  0.62169000  1.0
  C  C59  1  0.43453000  0.00846000  0.12169000  1.0
  C  C60  1  0.66397000  0.37225000  0.34465000  1.0
  C  C61  1  0.33603000  0.12774000  0.84465000  1.0
  C  C62  1  0.33603000  0.62775000  0.65535000  1.0
  C  C63  1  0.66398000  0.87225000  0.15535000  1.0
  C  C64  1  0.69667000  0.07642000  0.38669000  1.0
  C  C65  1  0.30332000  0.42358000  0.88670000  1.0
  C  C66  1  0.30333000  0.92358000  0.61331000  1.0
  C  C67  1  0.69667000  0.57642000  0.11331000  1.0
  C  C68  1  0.48241000  0.01062000  0.36443000  1.0
  C  C69  1  0.51759000  0.48938000  0.86443000  1.0
  C  C70  1  0.51759000  0.98938000  0.63556000  1.0
  C  C71  1  0.48241000  0.51062000  0.13557000  1.0
  C  C72  1  0.22578000  0.29333000  0.43538000  1.0
  C  C73  1  0.77421000  0.20667000  0.93538000  1.0
  C  C74  1  0.77421000  0.70667000  0.56462000  1.0
  C  C75  1  0.22579000  0.79333000  0.06462000  1.0
  C  C76  1  0.28183000  0.29708000  0.52035000  1.0
  C  C77  1  0.71816000  0.20293000  0.02035000  1.0
  C  C78  1  0.71816000  0.70293000  0.47965000  1.0
  C  C79  1  0.28184000  0.79707000  0.97964000  1.0
  C  C80  1  0.19460000  0.31891000  0.59332000  1.0
  C  C81  1  0.80540000  0.18109000  0.09332000  1.0
  C  C82  1  0.80540000  0.68109000  0.40668000  1.0
  C  C83  1  0.19460000  0.81891000  0.90668000  1.0
  C  C84  1  0.04872000  0.33604000  0.58190000  1.0
  C  C85  1  0.95127000  0.16396000  0.08191000  1.0
  C  C86  1  0.95127000  0.66396000  0.41810000  1.0
  C  C87  1  0.04873000  0.83604000  0.91810000  1.0
  C  C88  1  0.99261000  0.32653000  0.49750000  1.0
  C  C89  1  0.00738000  0.17347000  0.99750000  1.0
  C  C90  1  0.00738000  0.67347000  0.50250000  1.0
  C  C91  1  0.99262000  0.82653000  0.00249000  1.0
  C  C92  1  0.07960000  0.30728000  0.42555000  1.0
  C  C93  1  0.92039000  0.19273000  0.92555000  1.0
  C  C94  1  0.92040000  0.69273000  0.57445000  1.0
  C  C95  1  0.07961000  0.80727000  0.07444000  1.0
  C  C96  1  0.99885000  0.39337000  0.73300000  1.0
  C  C97  1  0.00115000  0.10662000  0.23301000  1.0
  C  C98  1  0.00115000  0.60663000  0.26699000  1.0
  C  C99  1  0.99885000  0.89337000  0.76699000  1.0
  N  N100  1  0.42368000  0.92318000  0.36051000  1.0
  N  N101  1  0.57632000  0.57682000  0.86051000  1.0
  N  N102  1  0.57631000  0.07682000  0.63949000  1.0
  N  N103  1  0.42369000  0.42318000  0.13950000  1.0
  N  N104  1  0.81630000  0.03802000  0.40523000  1.0
  N  N105  1  0.18371000  0.46198000  0.90523000  1.0
  N  N106  1  0.18371000  0.96198000  0.59477000  1.0
  N  N107  1  0.81630000  0.53802000  0.09477000  1.0
  N  N108  1  0.77624000  0.37851000  0.32267000  1.0
  N  N109  1  0.22375000  0.12149000  0.82267000  1.0
  N  N110  1  0.22375000  0.62150000  0.67733000  1.0
  N  N111  1  0.77625000  0.87851000  0.17733000  1.0
  N  N112  1  0.36778000  0.62224000  0.38999000  1.0
  N  N113  1  0.63222000  0.87775000  0.88999000  1.0
  N  N114  1  0.63222000  0.37776000  0.61001000  1.0
  N  N115  1  0.36778000  0.12224000  0.11001000  1.0
  O  O116  1  0.26393000  0.29016000  0.28144000  1.0
  O  O117  1  0.73607000  0.20985000  0.78144000  1.0
  O  O118  1  0.73607000  0.70985000  0.71856000  1.0
  O  O119  1  0.26393000  0.79015000  0.21856000  1.0
  O  O120  1  0.95335000  0.36376000  0.64699000  1.0
  O  O121  1  0.04665000  0.13624000  0.14699000  1.0
  O  O122  1  0.04665000  0.63624000  0.35301000  1.0
  O  O123  1  0.95336000  0.86375000  0.85301000  1.0
  O  O124  1  0.12162000  0.43192000  0.09071000  1.0
  O  O125  1  0.87838000  0.06808000  0.59071000  1.0
  O  O126  1  0.87838000  0.56808000  0.90929000  1.0
  O  O127  1  0.12162000  0.93192000  0.40929000  1.0
