# generated using pymatgen
data_Cu2H24C12S3Br2
_symmetry_space_group_name_H-M   'P 1'
_cell_length_a   9.89488000
_cell_length_b   9.89491000
_cell_length_c   10.02890000
_cell_angle_alpha   101.26400000
_cell_angle_beta   101.26400000
_cell_angle_gamma   109.57200000
_symmetry_Int_Tables_number   1
_chemical_formula_structural   Cu2H24C12S3Br2
_chemical_formula_sum   'Cu4 H48 C24 S6 Br4'
_cell_volume   870.48713178
_cell_formula_units_Z   2
loop_
 _symmetry_equiv_pos_site_id
 _symmetry_equiv_pos_as_xyz
  1  'x, y, z'
loop_
 _atom_site_type_symbol
 _atom_site_label
 _atom_site_symmetry_multiplicity
 _atom_site_fract_x
 _atom_site_fract_y
 _atom_site_fract_z
 _atom_site_occupancy
  Cu  Cu0  1  0.97535000  0.39758000  0.37610000  1.0
  Cu  Cu1  1  0.60242000  0.02465000  0.12390000  1.0
  Cu  Cu2  1  0.02465000  0.60242000  0.62391000  1.0
  Cu  Cu3  1  0.39758000  0.97535000  0.87609000  1.0
  H  H4  1  0.77936000  0.47975000  0.15379000  1.0
  H  H5  1  0.52025000  0.22064000  0.34622000  1.0
  H  H6  1  0.22064000  0.52025000  0.84622000  1.0
  H  H7  1  0.47975000  0.77936000  0.65379000  1.0
  H  H8  1  0.65226000  0.30852000  0.02175000  1.0
  H  H9  1  0.69147000  0.34775000  0.47825000  1.0
  H  H10  1  0.34775000  0.69148000  0.97825000  1.0
  H  H11  1  0.30852000  0.65225000  0.52175000  1.0
  H  H12  1  0.54099000  0.50668000  0.13112000  1.0
  H  H13  1  0.49331000  0.45902000  0.36888000  1.0
  H  H14  1  0.45902000  0.49332000  0.86888000  1.0
  H  H15  1  0.50668000  0.54099000  0.63112000  1.0
  H  H16  1  0.44579000  0.31407000  0.12002000  1.0
  H  H17  1  0.68593000  0.55421000  0.37998000  1.0
  H  H18  1  0.55421000  0.68593000  0.87998000  1.0
  H  H19  1  0.31407000  0.44579000  0.62002000  1.0
  H  H20  1  0.15031000  0.11922000  0.19213000  1.0
  H  H21  1  0.88078000  0.84969000  0.30787000  1.0
  H  H22  1  0.84969000  0.88078000  0.80787000  1.0
  H  H23  1  0.11922000  0.15032000  0.69213000  1.0
  H  H24  1  0.96757000  0.12476000  0.16683000  1.0
  H  H25  1  0.87524000  0.03243000  0.33317000  1.0
  H  H26  1  0.03243000  0.87524000  0.83316000  1.0
  H  H27  1  0.12476000  0.96758000  0.66684000  1.0
  H  H28  1  0.19090000  0.21775000  0.99766000  1.0
  H  H29  1  0.78225000  0.80910000  0.50234000  1.0
  H  H30  1  0.80910000  0.78225000  0.00234000  1.0
  H  H31  1  0.21775000  0.19090000  0.49766000  1.0
  H  H32  1  0.99426000  0.11421000  0.93380000  1.0
  H  H33  1  0.88579000  0.00574000  0.56620000  1.0
  H  H34  1  0.00574000  0.88579000  0.06620000  1.0
  H  H35  1  0.11421000  0.99426000  0.43380000  1.0
  H  H36  1  0.07370000  0.38955000  0.92600000  1.0
  H  H37  1  0.61045000  0.92630000  0.57400000  1.0
  H  H38  1  0.92630000  0.61045000  0.07400000  1.0
  H  H39  1  0.38955000  0.07370000  0.42600000  1.0
  H  H40  1  0.94555000  0.33763000  0.02643000  1.0
  H  H41  1  0.66237000  0.05446000  0.47357000  1.0
  H  H42  1  0.05445000  0.66237000  0.97357000  1.0
  H  H43  1  0.33763000  0.94554000  0.52643000  1.0
  H  H44  1  0.28712000  0.50249000  0.14517000  1.0
  H  H45  1  0.49751000  0.71288000  0.35483000  1.0
  H  H46  1  0.71288000  0.49751000  0.85483000  1.0
  H  H47  1  0.50249000  0.28711000  0.64517000  1.0
  H  H48  1  0.14869000  0.56707000  0.19189000  1.0
  H  H49  1  0.43294000  0.85131000  0.30811000  1.0
  H  H50  1  0.85130000  0.43294000  0.80811000  1.0
  H  H51  1  0.56706000  0.14869000  0.69189000  1.0
  C  C52  1  0.67958000  0.37753000  0.13065000  1.0
  C  C53  1  0.62247000  0.32043000  0.36936000  1.0
  C  C54  1  0.32043000  0.62247000  0.86936000  1.0
  C  C55  1  0.37753000  0.67957000  0.63065000  1.0
  C  C56  1  0.55110000  0.41253000  0.16928000  1.0
  C  C57  1  0.58746000  0.44890000  0.33072000  1.0
  C  C58  1  0.44890000  0.58747000  0.83072000  1.0
  C  C59  1  0.41253000  0.55110000  0.66928000  1.0
  C  C60  1  0.08193000  0.18169000  0.16242000  1.0
  C  C61  1  0.81831000  0.91807000  0.33758000  1.0
  C  C62  1  0.91807000  0.81831000  0.83758000  1.0
  C  C63  1  0.18169000  0.08193000  0.66242000  1.0
  C  C64  1  0.08300000  0.20835000  0.01750000  1.0
  C  C65  1  0.79166000  0.91700000  0.48250000  1.0
  C  C66  1  0.91700000  0.79165000  0.98250000  1.0
  C  C67  1  0.20835000  0.08300000  0.51750000  1.0
  C  C68  1  0.05985000  0.35373000  0.02121000  1.0
  C  C69  1  0.64627000  0.94015000  0.47879000  1.0
  C  C70  1  0.94015000  0.64627000  0.97879000  1.0
  C  C71  1  0.35373000  0.05984000  0.52121000  1.0
  C  C72  1  0.17287000  0.46798000  0.15562000  1.0
  C  C73  1  0.53201000  0.82713000  0.34438000  1.0
  C  C74  1  0.82713000  0.53202000  0.84438000  1.0
  C  C75  1  0.46799000  0.17287000  0.65562000  1.0
  S  S76  1  0.72886000  0.27114000  0.25000000  1.0
  S  S77  1  0.27114000  0.72886000  0.75000000  1.0
  S  S78  1  0.16191000  0.36830000  0.29201000  1.0
  S  S79  1  0.63170000  0.83809000  0.20799000  1.0
  S  S80  1  0.83809000  0.63170000  0.70799000  1.0
  S  S81  1  0.36830000  0.16191000  0.79200000  1.0
  Br  Br82  1  0.02145000  0.66941000  0.39757000  1.0
  Br  Br83  1  0.33059000  0.97855000  0.10243000  1.0
  Br  Br84  1  0.97855000  0.33059000  0.60243000  1.0
  Br  Br85  1  0.66941000  0.02145000  0.89757000  1.0
