# generated using pymatgen
data_Cu2H3C3NCl2
_symmetry_space_group_name_H-M   'P 1'
_cell_length_a   6.86956000
_cell_length_b   7.16473000
_cell_length_c   11.99780000
_cell_angle_alpha   89.99970000
_cell_angle_beta   89.99720000
_cell_angle_gamma   89.99580000
_symmetry_Int_Tables_number   1
_chemical_formula_structural   Cu2H3C3NCl2
_chemical_formula_sum   'Cu8 H12 C12 N4 Cl8'
_cell_volume   590.51422833
_cell_formula_units_Z   4
loop_
 _symmetry_equiv_pos_site_id
 _symmetry_equiv_pos_as_xyz
  1  'x, y, z'
loop_
 _atom_site_type_symbol
 _atom_site_label
 _atom_site_symmetry_multiplicity
 _atom_site_fract_x
 _atom_site_fract_y
 _atom_site_fract_z
 _atom_site_occupancy
  Cu  Cu0  1  0.06544000  0.16105000  0.73529000  1.0
  Cu  Cu1  1  0.43456000  0.16107000  0.23527000  1.0
  Cu  Cu2  1  0.56543000  0.83894000  0.73528000  1.0
  Cu  Cu3  1  0.93457000  0.83894000  0.23527000  1.0
  Cu  Cu4  1  0.72803000  0.19402000  0.49522000  1.0
  Cu  Cu5  1  0.77196000  0.19402000  0.99522000  1.0
  Cu  Cu6  1  0.22803000  0.80597000  0.49521000  1.0
  Cu  Cu7  1  0.27195000  0.80597000  0.99523000  1.0
  H  H8  1  0.76668000  0.72964000  0.90247000  1.0
  H  H9  1  0.73335000  0.72962000  0.40248000  1.0
  H  H10  1  0.26666000  0.27039000  0.90247000  1.0
  H  H11  1  0.23333000  0.27035000  0.40250000  1.0
  H  H12  1  0.60150000  0.53962000  0.85437000  1.0
  H  H13  1  0.89851000  0.53963000  0.35438000  1.0
  H  H14  1  0.10154000  0.46034000  0.85436000  1.0
  H  H15  1  0.39853000  0.46038000  0.35440000  1.0
  H  H16  1  0.92385000  0.74229000  0.71480000  1.0
  H  H17  1  0.57617000  0.74224000  0.21484000  1.0
  H  H18  1  0.42381000  0.25773000  0.71481000  1.0
  H  H19  1  0.07613000  0.25776000  0.21484000  1.0
  C  C20  1  0.70359000  0.65072000  0.83355000  1.0
  C  C21  1  0.79641000  0.65071000  0.33357000  1.0
  C  C22  1  0.20360000  0.34931000  0.83355000  1.0
  C  C23  1  0.29642000  0.34928000  0.33357000  1.0
  C  C24  1  0.79411000  0.65666000  0.72891000  1.0
  C  C25  1  0.70589000  0.65664000  0.22893000  1.0
  C  C26  1  0.29413000  0.34332000  0.72892000  1.0
  C  C27  1  0.20589000  0.34336000  0.22893000  1.0
  C  C28  1  0.75116000  0.52611000  0.64397000  1.0
  C  C29  1  0.74883000  0.52613000  0.14399000  1.0
  C  C30  1  0.25120000  0.47384000  0.64399000  1.0
  C  C31  1  0.24884000  0.47389000  0.14398000  1.0
  N  N32  1  0.71839000  0.41622000  0.57403000  1.0
  N  N33  1  0.78157000  0.41625000  0.07403000  1.0
  N  N34  1  0.21842000  0.58373000  0.57405000  1.0
  N  N35  1  0.28158000  0.58379000  0.07404000  1.0
  Cl  Cl36  1  0.02735000  0.05415000  0.55839000  1.0
  Cl  Cl37  1  0.47263000  0.05417000  0.05837000  1.0
  Cl  Cl38  1  0.52735000  0.94585000  0.55838000  1.0
  Cl  Cl39  1  0.97263000  0.94585000  0.05838000  1.0
  Cl  Cl40  1  0.73668000  0.13064000  0.30902000  1.0
  Cl  Cl41  1  0.76331000  0.13064000  0.80904000  1.0
  Cl  Cl42  1  0.23669000  0.86937000  0.30903000  1.0
  Cl  Cl43  1  0.26330000  0.86936000  0.80904000  1.0
