# generated using pymatgen
data_UH12C17S(NO3)2
_symmetry_space_group_name_H-M   'P 1'
_cell_length_a   8.40573000
_cell_length_b   9.49623000
_cell_length_c   11.09850000
_cell_angle_alpha   106.43600000
_cell_angle_beta   97.51460000
_cell_angle_gamma   98.74920000
_symmetry_Int_Tables_number   1
_chemical_formula_structural   UH12C17S(NO3)2
_chemical_formula_sum   'U2 H24 C34 S2 N4 O12'
_cell_volume   825.58565350
_cell_formula_units_Z   2
loop_
 _symmetry_equiv_pos_site_id
 _symmetry_equiv_pos_as_xyz
  1  'x, y, z'
loop_
 _atom_site_type_symbol
 _atom_site_label
 _atom_site_symmetry_multiplicity
 _atom_site_fract_x
 _atom_site_fract_y
 _atom_site_fract_z
 _atom_site_occupancy
  U  U0  1  0.19594000  0.62372000  0.48565000  1.0
  U  U1  1  0.80406000  0.37628000  0.51434000  1.0
  H  H2  1  0.98061000  0.38045000  0.29350000  1.0
  H  H3  1  0.01939000  0.61955000  0.70650000  1.0
  H  H4  1  0.05849000  0.39933000  0.94097000  1.0
  H  H5  1  0.94151000  0.60066000  0.05902000  1.0
  H  H6  1  0.15479000  0.46746000  0.75767000  1.0
  H  H7  1  0.84521000  0.53254000  0.24233000  1.0
  H  H8  1  0.44587000  0.55090000  0.76320000  1.0
  H  H9  1  0.55413000  0.44910000  0.23681000  1.0
  H  H10  1  0.05278000  0.84785000  0.73997000  1.0
  H  H11  1  0.94722000  0.15216000  0.26003000  1.0
  H  H12  1  0.14817000  0.04590000  0.95157000  1.0
  H  H13  1  0.85183000  0.95410000  0.04843000  1.0
  H  H14  1  0.44075000  0.17532000  0.01323000  1.0
  H  H15  1  0.55926000  0.82468000  0.98678000  1.0
  H  H16  1  0.89765000  0.14814000  0.79255000  1.0
  H  H17  1  0.10236000  0.85186000  0.20745000  1.0
  H  H18  1  0.71782000  0.21662000  0.95141000  1.0
  H  H19  1  0.28218000  0.78338000  0.04859000  1.0
  H  H20  1  0.93464000  0.99055000  0.58050000  1.0
  H  H21  1  0.06536000  0.00945000  0.41950000  1.0
  H  H22  1  0.80867000  0.79682000  0.36947000  1.0
  H  H23  1  0.19133000  0.20317000  0.63053000  1.0
  H  H24  1  0.51173000  0.68245000  0.33013000  1.0
  H  H25  1  0.48827000  0.31755000  0.66987000  1.0
  C  C26  1  0.30075000  0.43612000  0.04676000  1.0
  C  C27  1  0.69924000  0.56388000  0.95324000  1.0
  C  C28  1  0.18871000  0.43281000  0.94289000  1.0
  C  C29  1  0.81128000  0.56719000  0.05711000  1.0
  C  C30  1  0.24356000  0.47324000  0.84034000  1.0
  C  C31  1  0.75643000  0.52676000  0.15966000  1.0
  C  C32  1  0.40802000  0.51804000  0.84295000  1.0
  C  C33  1  0.59198000  0.48196000  0.15705000  1.0
  C  C34  1  0.52686000  0.52103000  0.94738000  1.0
  C  C35  1  0.47314000  0.47897000  0.05262000  1.0
  C  C36  1  0.17969000  0.90746000  0.76801000  1.0
  C  C37  1  0.82031000  0.09254000  0.23199000  1.0
  C  C38  1  0.23327000  0.01933000  0.88640000  1.0
  C  C39  1  0.76673000  0.98067000  0.11360000  1.0
  C  C40  1  0.39561000  0.09161000  0.92008000  1.0
  C  C41  1  0.60438000  0.90839000  0.07992000  1.0
  C  C42  1  0.50256000  0.05550000  0.83326000  1.0
  C  C43  1  0.49744000  0.94450000  0.16674000  1.0
  C  C44  1  0.43792000  0.94062000  0.71537000  1.0
  C  C45  1  0.56208000  0.05938000  0.28463000  1.0
  C  C46  1  0.54172000  0.90315000  0.62307000  1.0
  C  C47  1  0.45828000  0.09685000  0.37693000  1.0
  C  C48  1  0.70813000  0.97798000  0.65269000  1.0
  C  C49  1  0.29187000  0.02201000  0.34731000  1.0
  C  C50  1  0.77001000  0.09109000  0.77316000  1.0
  C  C51  1  0.23000000  0.90891000  0.22684000  1.0
  C  C52  1  0.67086000  0.12926000  0.86015000  1.0
  C  C53  1  0.32914000  0.87074000  0.13985000  1.0
  C  C54  1  0.80583000  0.93707000  0.55941000  1.0
  C  C55  1  0.19417000  0.06293000  0.44059000  1.0
  C  C56  1  0.73644000  0.83195000  0.44303000  1.0
  C  C57  1  0.26356000  0.16804000  0.55697000  1.0
  C  C58  1  0.57003000  0.76586000  0.42078000  1.0
  C  C59  1  0.42997000  0.23414000  0.57922000  1.0
  S  S60  1  0.22427000  0.37673000  0.17096000  1.0
  S  S61  1  0.77573000  0.62327000  0.82904000  1.0
  N  N62  1  0.27904000  0.86596000  0.68541000  1.0
  N  N63  1  0.72097000  0.13404000  0.31459000  1.0
  N  N64  1  0.47517000  0.79823000  0.50824000  1.0
  N  N65  1  0.52483000  0.20177000  0.49176000  1.0
  O  O66  1  0.07953000  0.72838000  0.40604000  1.0
  O  O67  1  0.92047000  0.27162000  0.59396000  1.0
  O  O68  1  0.32248000  0.53049000  0.56881000  1.0
  O  O69  1  0.67752000  0.46950000  0.43119000  1.0
  O  O70  1  0.27641000  0.51304000  0.28757000  1.0
  O  O71  1  0.72359000  0.48696000  0.71243000  1.0
  O  O72  1  0.04496000  0.33922000  0.13487000  1.0
  O  O73  1  0.95505000  0.66078000  0.86513000  1.0
  O  O74  1  0.30112000  0.25412000  0.18562000  1.0
  O  O75  1  0.69888000  0.74589000  0.81438000  1.0
  O  O76  1  0.99688000  0.40487000  0.38753000  1.0
  O  O77  1  0.00312000  0.59513000  0.61247000  1.0
