# generated using pymatgen
data_Cd5H28C34(N21O)2
_symmetry_space_group_name_H-M   'P 1'
_cell_length_a   8.95313000
_cell_length_b   12.04330000
_cell_length_c   14.05490000
_cell_angle_alpha   85.14050000
_cell_angle_beta   81.73860000
_cell_angle_gamma   75.66200000
_symmetry_Int_Tables_number   1
_chemical_formula_structural   Cd5H28C34(N21O)2
_chemical_formula_sum   'Cd5 H28 C34 N42 O2'
_cell_volume   1451.12316962
_cell_formula_units_Z   1
loop_
 _symmetry_equiv_pos_site_id
 _symmetry_equiv_pos_as_xyz
  1  'x, y, z'
loop_
 _atom_site_type_symbol
 _atom_site_label
 _atom_site_symmetry_multiplicity
 _atom_site_fract_x
 _atom_site_fract_y
 _atom_site_fract_z
 _atom_site_occupancy
  Cd  Cd0  1  0.50000000  0.50000000  0.00000000  1.0
  Cd  Cd1  1  0.65173000  0.56973000  0.45418000  1.0
  Cd  Cd2  1  0.34827000  0.43027000  0.54583000  1.0
  Cd  Cd3  1  0.05787000  0.40673000  0.39242000  1.0
  Cd  Cd4  1  0.94213000  0.59327000  0.60758000  1.0
  H  H5  1  0.58655000  0.72017000  0.02566000  1.0
  H  H6  1  0.41345000  0.27983000  0.97434000  1.0
  H  H7  1  0.71351000  0.62026000  0.06765000  1.0
  H  H8  1  0.28649000  0.37974000  0.93235000  1.0
  H  H9  1  0.13946000  0.23604000  0.22732000  1.0
  H  H10  1  0.86054000  0.76396000  0.77268000  1.0
  H  H11  1  0.85677000  0.21730000  0.48620000  1.0
  H  H12  1  0.14323000  0.78270000  0.51380000  1.0
  H  H13  1  0.83533000  0.01971000  0.45785000  1.0
  H  H14  1  0.16467000  0.98029000  0.54215000  1.0
  H  H15  1  0.97693000  0.92668000  0.30671000  1.0
  H  H16  1  0.02306000  0.07332000  0.69328000  1.0
  H  H17  1  0.33386000  0.99286000  0.32844000  1.0
  H  H18  1  0.66615000  0.00715000  0.67156000  1.0
  H  H19  1  0.46594000  0.85112000  0.44293000  1.0
  H  H20  1  0.53406000  0.14888000  0.55708000  1.0
  H  H21  1  0.51470000  0.58365000  0.26329000  1.0
  H  H22  1  0.48531000  0.41635000  0.73671000  1.0
  H  H23  1  0.37893000  0.71484000  0.14096000  1.0
  H  H24  1  0.62108000  0.28516000  0.85904000  1.0
  H  H25  1  0.81123000  0.13014000  0.17848000  1.0
  H  H26  1  0.18877000  0.86986000  0.82153000  1.0
  H  H27  1  0.59814000  0.29257000  0.14187000  1.0
  H  H28  1  0.40187000  0.70743000  0.85813000  1.0
  H  H29  1  0.86217000  0.39793000  0.89927000  1.0
  H  H30  1  0.13783000  0.60207000  0.10073000  1.0
  H  H31  1  0.09068000  0.23944000  0.92677000  1.0
  H  H32  1  0.90931000  0.76056000  0.07323000  1.0
  C  C33  1  0.07270000  0.18553000  0.27643000  1.0
  C  C34  1  0.92729000  0.81447000  0.72356000  1.0
  C  C35  1  0.91591000  0.17479000  0.42108000  1.0
  C  C36  1  0.08409000  0.82521000  0.57893000  1.0
  C  C37  1  0.90511000  0.06449000  0.40555000  1.0
  C  C38  1  0.09489000  0.93551000  0.59444000  1.0
  C  C39  1  0.98154000  0.01322000  0.32117000  1.0
  C  C40  1  0.01846000  0.98678000  0.67882000  1.0
  C  C41  1  0.06465000  0.07631000  0.25546000  1.0
  C  C42  1  0.93535000  0.92369000  0.74454000  1.0
  C  C43  1  0.37091000  0.90354000  0.30947000  1.0
  C  C44  1  0.62909000  0.09646000  0.69053000  1.0
  C  C45  1  0.44658000  0.82358000  0.37479000  1.0
  C  C46  1  0.55342000  0.17641000  0.62521000  1.0
  C  C47  1  0.47595000  0.67533000  0.27424000  1.0
  C  C48  1  0.52405000  0.32467000  0.72576000  1.0
  C  C49  1  0.40082000  0.74908000  0.20536000  1.0
  C  C50  1  0.59918000  0.25093000  0.79464000  1.0
  C  C51  1  0.34700000  0.86602000  0.22225000  1.0
  C  C52  1  0.65301000  0.13398000  0.77775000  1.0
  C  C53  1  0.26784000  0.94160000  0.14853000  1.0
  C  C54  1  0.73217000  0.05840000  0.85147000  1.0
  C  C55  1  0.10587000  0.07713000  0.07465000  1.0
  C  C56  1  0.89414000  0.92287000  0.92534000  1.0
  C  C57  1  0.97273000  0.17124000  0.05633000  1.0
  C  C58  1  0.02727000  0.82876000  0.94367000  1.0
  C  C59  1  0.83067000  0.18721000  0.11637000  1.0
  C  C60  1  0.16934000  0.81279000  0.88363000  1.0
  C  C61  1  0.70838000  0.27772000  0.09518000  1.0
  C  C62  1  0.29162000  0.72228000  0.90482000  1.0
  C  C63  1  0.85532000  0.33634000  0.96013000  1.0
  C  C64  1  0.14467000  0.66366000  0.03987000  1.0
  C  C65  1  0.98333000  0.24748000  0.97579000  1.0
  C  C66  1  0.01667000  0.75253000  0.02421000  1.0
  N  N67  1  0.99941000  0.23363000  0.35827000  1.0
  N  N68  1  0.00059000  0.76638000  0.64173000  1.0
  N  N69  1  0.49909000  0.71130000  0.35773000  1.0
  N  N70  1  0.50090000  0.28870000  0.64227000  1.0
  N  N71  1  0.30729000  0.93181000  0.05412000  1.0
  N  N72  1  0.69272000  0.06819000  0.94587000  1.0
  N  N73  1  0.20697000  0.01687000  0.00807000  1.0
  N  N74  1  0.79304000  0.98313000  0.99192000  1.0
  N  N75  1  0.14059000  0.03268000  0.16516000  1.0
  N  N76  1  0.85942000  0.96731000  0.83484000  1.0
  N  N77  1  0.71969000  0.35193000  0.01894000  1.0
  N  N78  1  0.28031000  0.64806000  0.98107000  1.0
  N  N79  1  0.20848000  0.40310000  0.24298000  1.0
  N  N80  1  0.79151000  0.59690000  0.75702000  1.0
  N  N81  1  0.31151000  0.44176000  0.20378000  1.0
  N  N82  1  0.68849000  0.55824000  0.79622000  1.0
  N  N83  1  0.41557000  0.47950000  0.16425000  1.0
  N  N84  1  0.58443000  0.52050000  0.83575000  1.0
  N  N85  1  0.83785000  0.57440000  0.16089000  1.0
  N  N86  1  0.16214000  0.42561000  0.83912000  1.0
  N  N87  1  0.84417000  0.55144000  0.24276000  1.0
  N  N88  1  0.15582000  0.44857000  0.75724000  1.0
  N  N89  1  0.85196000  0.52842000  0.32693000  1.0
  N  N90  1  0.14803000  0.47157000  0.67307000  1.0
  N  N91  1  0.75885000  0.70190000  0.51631000  1.0
  N  N92  1  0.24115000  0.29810000  0.48369000  1.0
  N  N93  1  0.72033000  0.80468000  0.52186000  1.0
  N  N94  1  0.27967000  0.19532000  0.47815000  1.0
  N  N95  1  0.68549000  0.90399000  0.52763000  1.0
  N  N96  1  0.31451000  0.09601000  0.47237000  1.0
  N  N97  1  0.53525000  0.42922000  0.41471000  1.0
  N  N98  1  0.46474000  0.57078000  0.58529000  1.0
  N  N99  1  0.57651000  0.34601000  0.36625000  1.0
  N  N100  1  0.42348000  0.65399000  0.63375000  1.0
  N  N101  1  0.61345000  0.26583000  0.31991000  1.0
  N  N102  1  0.38655000  0.73417000  0.68009000  1.0
  N  N103  1  0.86799000  0.44020000  0.54001000  1.0
  N  N104  1  0.13200000  0.55980000  0.45999000  1.0
  N  N105  1  0.88066000  0.35767000  0.59710000  1.0
  N  N106  1  0.11934000  0.64232000  0.40290000  1.0
  N  N107  1  0.89617000  0.27848000  0.65118000  1.0
  N  N108  1  0.10383000  0.72151000  0.34882000  1.0
  O  O109  1  0.64723000  0.64209000  0.01490000  1.0
  O  O110  1  0.35277000  0.35791000  0.98510000  1.0
