# generated using pymatgen
data_CdH23C32S2(N4O3)2
_symmetry_space_group_name_H-M   'P 1'
_cell_length_a   10.77730000
_cell_length_b   12.53660000
_cell_length_c   15.76600000
_cell_angle_alpha   111.79900000
_cell_angle_beta   98.29290000
_cell_angle_gamma   106.02800000
_symmetry_Int_Tables_number   1
_chemical_formula_structural   CdH23C32S2(N4O3)2
_chemical_formula_sum   'Cd2 H46 C64 S4 N16 O12'
_cell_volume   1826.82664696
_cell_formula_units_Z   2
loop_
 _symmetry_equiv_pos_site_id
 _symmetry_equiv_pos_as_xyz
  1  'x, y, z'
loop_
 _atom_site_type_symbol
 _atom_site_label
 _atom_site_symmetry_multiplicity
 _atom_site_fract_x
 _atom_site_fract_y
 _atom_site_fract_z
 _atom_site_occupancy
  Cd  Cd0  1  0.69033000  0.53497000  0.71584000  1.0
  Cd  Cd1  1  0.30967000  0.46503000  0.28416000  1.0
  H  H2  1  0.55241000  0.65166000  0.59499000  1.0
  H  H3  1  0.44759000  0.34835000  0.40501000  1.0
  H  H4  1  0.61298000  0.79342000  0.51661000  1.0
  H  H5  1  0.38702000  0.20658000  0.48339000  1.0
  H  H6  1  0.02878000  0.84133000  0.61745000  1.0
  H  H7  1  0.97122000  0.15867000  0.38255000  1.0
  H  H8  1  0.95250000  0.69640000  0.68807000  1.0
  H  H9  1  0.04750000  0.30360000  0.31193000  1.0
  H  H10  1  0.78631000  0.92621000  0.47425000  1.0
  H  H11  1  0.21369000  0.07378000  0.52576000  1.0
  H  H12  1  0.61598000  0.24420000  0.63036000  1.0
  H  H13  1  0.38402000  0.75580000  0.36964000  1.0
  H  H14  1  0.61213000  0.06093000  0.49051000  1.0
  H  H15  1  0.38787000  0.93907000  0.50950000  1.0
  H  H16  1  0.76649000  0.30590000  0.36567000  1.0
  H  H17  1  0.23351000  0.69410000  0.63433000  1.0
  H  H18  1  0.75970000  0.47782000  0.50850000  1.0
  H  H19  1  0.24031000  0.52218000  0.49150000  1.0
  H  H20  1  0.62522000  0.97034000  0.32181000  1.0
  H  H21  1  0.37478000  0.02966000  0.67819000  1.0
  H  H22  1  0.79936000  0.09035000  0.13320000  1.0
  H  H23  1  0.20064000  0.90964000  0.86679000  1.0
  H  H24  1  0.59760000  0.75122000  0.05751000  1.0
  H  H25  1  0.40240000  0.24877000  0.94249000  1.0
  H  H26  1  0.56319000  0.58789000  0.89486000  1.0
  H  H27  1  0.43681000  0.41211000  0.10514000  1.0
  H  H28  1  0.82680000  0.83454000  0.82803000  1.0
  H  H29  1  0.17320000  0.16545000  0.17197000  1.0
  H  H30  1  0.86335000  0.01073000  0.98412000  1.0
  H  H31  1  0.13665000  0.98926000  0.01588000  1.0
  H  H32  1  0.12047000  0.45930000  0.60278000  1.0
  H  H33  1  0.87953000  0.54070000  0.39722000  1.0
  H  H34  1  0.91065000  0.32391000  0.61396000  1.0
  H  H35  1  0.08935000  0.67609000  0.38604000  1.0
  H  H36  1  0.91969000  0.18318000  0.68810000  1.0
  H  H37  1  0.08031000  0.81681000  0.31190000  1.0
  H  H38  1  0.14071000  0.17036000  0.75135000  1.0
  H  H39  1  0.85929000  0.82964000  0.24865000  1.0
  H  H40  1  0.92062000  0.29136000  0.89710000  1.0
  H  H41  1  0.07937000  0.70864000  0.10290000  1.0
  H  H42  1  0.14774000  0.32516000  0.98979000  1.0
  H  H43  1  0.85226000  0.67485000  0.01021000  1.0
  H  H44  1  0.34625000  0.50555000  0.01784000  1.0
  H  H45  1  0.65375000  0.49446000  0.98216000  1.0
  H  H46  1  0.32111000  0.65595000  0.95503000  1.0
  H  H47  1  0.67889000  0.34406000  0.04497000  1.0
  C  C48  1  0.65631000  0.69627000  0.59773000  1.0
  C  C49  1  0.34369000  0.30373000  0.40228000  1.0
  C  C50  1  0.69114000  0.77565000  0.55533000  1.0
  C  C51  1  0.30885000  0.22434000  0.44467000  1.0
  C  C52  1  0.82664000  0.82990000  0.56145000  1.0
  C  C53  1  0.17336000  0.17009000  0.43855000  1.0
  C  C54  1  0.92248000  0.80145000  0.61073000  1.0
  C  C55  1  0.07752000  0.19855000  0.38927000  1.0
  C  C56  1  0.87987000  0.72106000  0.65052000  1.0
  C  C57  1  0.12012000  0.27893000  0.34948000  1.0
  C  C58  1  0.86527000  0.91142000  0.51609000  1.0
  C  C59  1  0.13473000  0.08858000  0.48391000  1.0
  C  C60  1  0.64837000  0.25348000  0.57024000  1.0
  C  C61  1  0.35163000  0.74652000  0.42976000  1.0
  C  C62  1  0.64708000  0.15252000  0.49261000  1.0
  C  C63  1  0.35292000  0.84748000  0.50739000  1.0
  C  C64  1  0.69134000  0.16939000  0.41737000  1.0
  C  C65  1  0.30866000  0.83061000  0.58263000  1.0
  C  C66  1  0.73530000  0.28935000  0.42384000  1.0
  C  C67  1  0.26470000  0.71065000  0.57616000  1.0
  C  C68  1  0.73158000  0.38476000  0.50328000  1.0
  C  C69  1  0.26842000  0.61524000  0.49672000  1.0
  C  C70  1  0.68545000  0.06367000  0.33373000  1.0
  C  C71  1  0.31455000  0.93633000  0.66627000  1.0
  C  C72  1  0.75761000  0.99558000  0.12537000  1.0
  C  C73  1  0.24239000  0.00442000  0.87463000  1.0
  C  C74  1  0.73433000  0.89421000  0.03349000  1.0
  C  C75  1  0.26567000  0.10579000  0.96651000  1.0
  C  C76  1  0.64819000  0.77338000  0.00776000  1.0
  C  C77  1  0.35181000  0.22661000  0.99224000  1.0
  C  C78  1  0.62971000  0.68275000  0.91805000  1.0
  C  C79  1  0.37028000  0.31724000  0.08195000  1.0
  C  C80  1  0.77599000  0.82035000  0.88010000  1.0
  C  C81  1  0.22401000  0.17965000  0.11990000  1.0
  C  C82  1  0.79762000  0.91770000  0.96708000  1.0
  C  C83  1  0.20238000  0.08229000  0.03291000  1.0
  C  C84  1  0.38278000  0.45843000  0.66942000  1.0
  C  C85  1  0.61722000  0.54157000  0.33058000  1.0
  C  C86  1  0.24580000  0.38867000  0.66928000  1.0
  C  C87  1  0.75420000  0.61133000  0.33072000  1.0
  C  C88  1  0.12375000  0.39523000  0.63368000  1.0
  C  C89  1  0.87625000  0.60477000  0.36632000  1.0
  C  C90  1  0.00706000  0.31943000  0.64048000  1.0
  C  C91  1  0.99294000  0.68056000  0.35952000  1.0
  C  C92  1  0.01252000  0.23983000  0.68278000  1.0
  C  C93  1  0.98748000  0.76017000  0.31722000  1.0
  C  C94  1  0.13486000  0.23256000  0.71888000  1.0
  C  C95  1  0.86514000  0.76744000  0.28112000  1.0
  C  C96  1  0.24912000  0.30796000  0.71052000  1.0
  C  C97  1  0.75088000  0.69204000  0.28949000  1.0
  C  C98  1  0.87093000  0.45165000  0.81717000  1.0
  C  C99  1  0.12907000  0.54835000  0.18283000  1.0
  C  C100  1  0.99527000  0.45330000  0.87386000  1.0
  C  C101  1  0.00474000  0.54670000  0.12615000  1.0
  C  C102  1  0.00852000  0.36923000  0.90895000  1.0
  C  C103  1  0.99148000  0.63078000  0.09105000  1.0
  C  C104  1  0.13604000  0.38907000  0.96054000  1.0
  C  C105  1  0.86396000  0.61093000  0.03946000  1.0
  C  C106  1  0.24791000  0.49042000  0.97633000  1.0
  C  C107  1  0.75209000  0.50958000  0.02367000  1.0
  C  C108  1  0.23477000  0.57592000  0.94175000  1.0
  C  C109  1  0.76523000  0.42409000  0.05825000  1.0
  C  C110  1  0.10711000  0.55497000  0.89123000  1.0
  C  C111  1  0.89289000  0.44504000  0.10877000  1.0
  S  S112  1  0.41858000  0.32065000  0.74551000  1.0
  S  S113  1  0.58142000  0.67935000  0.25449000  1.0
  S  S114  1  0.05138000  0.64599000  0.84221000  1.0
  S  S115  1  0.94862000  0.35401000  0.15779000  1.0
  N  N116  1  0.74891000  0.66916000  0.64445000  1.0
  N  N117  1  0.25109000  0.33084000  0.35555000  1.0
  N  N118  1  0.99089000  0.96353000  0.52412000  1.0
  N  N119  1  0.00910000  0.03647000  0.47588000  1.0
  N  N120  1  0.68891000  0.36806000  0.57523000  1.0
  N  N121  1  0.31109000  0.63194000  0.42477000  1.0
  N  N122  1  0.74962000  0.08183000  0.27410000  1.0
  N  N123  1  0.25038000  0.91817000  0.72590000  1.0
  N  N124  1  0.72766000  0.97386000  0.19546000  1.0
  N  N125  1  0.27234000  0.02614000  0.80454000  1.0
  N  N126  1  0.69326000  0.70502000  0.85535000  1.0
  N  N127  1  0.30674000  0.29497000  0.14465000  1.0
  N  N128  1  0.48025000  0.42858000  0.71115000  1.0
  N  N129  1  0.51974000  0.57142000  0.28885000  1.0
  N  N130  1  0.89430000  0.55179000  0.79710000  1.0
  N  N131  1  0.10570000  0.44821000  0.20290000  1.0
  O  O132  1  0.40700000  0.53415000  0.63508000  1.0
  O  O133  1  0.59300000  0.46585000  0.36491000  1.0
  O  O134  1  0.46584000  0.36572000  0.84773000  1.0
  O  O135  1  0.53416000  0.63428000  0.15227000  1.0
  O  O136  1  0.43479000  0.20725000  0.68652000  1.0
  O  O137  1  0.56521000  0.79275000  0.31348000  1.0
  O  O138  1  0.75805000  0.36997000  0.78945000  1.0
  O  O139  1  0.24195000  0.63003000  0.21055000  1.0
  O  O140  1  0.11246000  0.65536000  0.76751000  1.0
  O  O141  1  0.88755000  0.34464000  0.23249000  1.0
  O  O142  1  0.06372000  0.76280000  0.91747000  1.0
  O  O143  1  0.93629000  0.23721000  0.08253000  1.0
