# generated using pymatgen
data_MgH6C6SO6
_symmetry_space_group_name_H-M   'P 1'
_cell_length_a   6.70463000
_cell_length_b   7.24903000
_cell_length_c   17.73790000
_cell_angle_alpha   90.00080000
_cell_angle_beta   90.00070000
_cell_angle_gamma   89.99950000
_symmetry_Int_Tables_number   1
_chemical_formula_structural   MgH6C6SO6
_chemical_formula_sum   'Mg4 H24 C24 S4 O24'
_cell_volume   862.09855100
_cell_formula_units_Z   4
loop_
 _symmetry_equiv_pos_site_id
 _symmetry_equiv_pos_as_xyz
  1  'x, y, z'
loop_
 _atom_site_type_symbol
 _atom_site_label
 _atom_site_symmetry_multiplicity
 _atom_site_fract_x
 _atom_site_fract_y
 _atom_site_fract_z
 _atom_site_occupancy
  Mg  Mg0  1  0.00000000  0.50000000  0.00000000  1.0
  Mg  Mg1  1  0.50000000  0.00000000  0.00000000  1.0
  Mg  Mg2  1  0.50000000  0.00000000  0.50000000  1.0
  Mg  Mg3  1  0.00000000  0.50000000  0.50000000  1.0
  H  H4  1  0.63710000  0.40501000  0.94008000  1.0
  H  H5  1  0.13710000  0.09498000  0.05991000  1.0
  H  H6  1  0.86289000  0.90502000  0.55991000  1.0
  H  H7  1  0.36289000  0.59498000  0.44008000  1.0
  H  H8  1  0.36289000  0.59498000  0.05992000  1.0
  H  H9  1  0.86289000  0.90501000  0.94008000  1.0
  H  H10  1  0.13710000  0.09499000  0.44009000  1.0
  H  H11  1  0.63711000  0.40501000  0.55992000  1.0
  H  H12  1  0.65008000  0.60632000  0.97304000  1.0
  H  H13  1  0.15008000  0.89367000  0.02696000  1.0
  H  H14  1  0.84991000  0.10632000  0.52695000  1.0
  H  H15  1  0.34992000  0.39367000  0.47304000  1.0
  H  H16  1  0.34992000  0.39367000  0.02695000  1.0
  H  H17  1  0.84992000  0.10632000  0.97304000  1.0
  H  H18  1  0.15008000  0.89367000  0.47305000  1.0
  H  H19  1  0.65008000  0.60632000  0.52696000  1.0
  H  H20  1  0.16866000  0.32151000  0.17499000  1.0
  H  H21  1  0.66863000  0.17847000  0.82501000  1.0
  H  H22  1  0.33137000  0.82150000  0.32502000  1.0
  H  H23  1  0.83136000  0.67849000  0.67498000  1.0
  H  H24  1  0.83135000  0.67849000  0.82502000  1.0
  H  H25  1  0.33138000  0.82152000  0.17499000  1.0
  H  H26  1  0.66865000  0.17850000  0.67498000  1.0
  H  H27  1  0.16864000  0.32152000  0.32502000  1.0
  C  C28  1  0.79716000  0.20891000  0.10198000  1.0
  C  C29  1  0.29715000  0.29107000  0.89801000  1.0
  C  C30  1  0.70288000  0.70889000  0.39802000  1.0
  C  C31  1  0.20286000  0.79109000  0.60199000  1.0
  C  C32  1  0.20283000  0.79110000  0.89802000  1.0
  C  C33  1  0.70285000  0.70892000  0.10199000  1.0
  C  C34  1  0.29715000  0.29111000  0.60198000  1.0
  C  C35  1  0.79713000  0.20892000  0.39801000  1.0
  C  C36  1  0.04169000  0.28511000  0.21032000  1.0
  C  C37  1  0.54168000  0.21488000  0.78968000  1.0
  C  C38  1  0.45833000  0.78511000  0.28969000  1.0
  C  C39  1  0.95831000  0.71490000  0.71032000  1.0
  C  C40  1  0.95830000  0.71490000  0.78968000  1.0
  C  C41  1  0.45833000  0.78511000  0.21032000  1.0
  C  C42  1  0.54169000  0.21490000  0.71031000  1.0
  C  C43  1  0.04168000  0.28511000  0.28969000  1.0
  C  C44  1  0.85632000  0.23645000  0.18088000  1.0
  C  C45  1  0.35630000  0.26356000  0.81911000  1.0
  C  C46  1  0.64370000  0.73643000  0.31912000  1.0
  C  C47  1  0.14369000  0.76356000  0.68089000  1.0
  C  C48  1  0.14368000  0.76356000  0.81912000  1.0
  C  C49  1  0.64371000  0.73644000  0.18089000  1.0
  C  C50  1  0.35632000  0.26357000  0.68088000  1.0
  C  C51  1  0.85630000  0.23645000  0.31911000  1.0
  S  S52  1  0.68379000  0.19244000  0.24999000  1.0
  S  S53  1  0.18379000  0.30758000  0.74999000  1.0
  S  S54  1  0.81622000  0.69243000  0.25001000  1.0
  S  S55  1  0.31620000  0.80758000  0.75000000  1.0
  O  O56  1  0.92690000  0.24479000  0.04955000  1.0
  O  O57  1  0.42687000  0.25520000  0.95044000  1.0
  O  O58  1  0.57312000  0.74479000  0.45046000  1.0
  O  O59  1  0.07312000  0.75522000  0.54955000  1.0
  O  O60  1  0.07310000  0.75520000  0.95045000  1.0
  O  O61  1  0.57313000  0.74479000  0.04956000  1.0
  O  O62  1  0.42688000  0.25521000  0.54954000  1.0
  O  O63  1  0.92687000  0.24479000  0.45045000  1.0
  O  O64  1  0.62519000  0.14529000  0.08869000  1.0
  O  O65  1  0.12513000  0.35471000  0.91131000  1.0
  O  O66  1  0.87483000  0.64528000  0.41131000  1.0
  O  O67  1  0.37483000  0.85471000  0.58869000  1.0
  O  O68  1  0.37481000  0.85471000  0.91132000  1.0
  O  O69  1  0.87486000  0.64527000  0.08869000  1.0
  O  O70  1  0.12518000  0.35472000  0.58869000  1.0
  O  O71  1  0.62515000  0.14530000  0.41131000  1.0
  O  O72  1  0.72697000  0.51278000  0.94397000  1.0
  O  O73  1  0.22697000  0.98721000  0.05603000  1.0
  O  O74  1  0.77302000  0.01279000  0.55603000  1.0
  O  O75  1  0.27303000  0.48721000  0.44397000  1.0
  O  O76  1  0.27302000  0.48721000  0.05603000  1.0
  O  O77  1  0.77303000  0.01279000  0.94397000  1.0
  O  O78  1  0.22697000  0.98721000  0.44397000  1.0
  O  O79  1  0.72697000  0.51279000  0.55603000  1.0
