# generated using pymatgen
data_AgH5C2N5ClO4
_symmetry_space_group_name_H-M   'P 1'
_cell_length_a   6.49415000
_cell_length_b   7.19496000
_cell_length_c   18.16080000
_cell_angle_alpha   89.99990000
_cell_angle_beta   97.58210000
_cell_angle_gamma   89.99990000
_symmetry_Int_Tables_number   1
_chemical_formula_structural   AgH5C2N5ClO4
_chemical_formula_sum   'Ag4 H20 C8 N20 Cl4 O16'
_cell_volume   841.14692068
_cell_formula_units_Z   4
loop_
 _symmetry_equiv_pos_site_id
 _symmetry_equiv_pos_as_xyz
  1  'x, y, z'
loop_
 _atom_site_type_symbol
 _atom_site_label
 _atom_site_symmetry_multiplicity
 _atom_site_fract_x
 _atom_site_fract_y
 _atom_site_fract_z
 _atom_site_occupancy
  Ag  Ag0  1  0.95934000  0.21510000  0.83785000  1.0
  Ag  Ag1  1  0.04067000  0.71510000  0.66215000  1.0
  Ag  Ag2  1  0.04066000  0.78490000  0.16215000  1.0
  Ag  Ag3  1  0.95933000  0.28490000  0.33785000  1.0
  H  H4  1  0.55094000  0.15893000  0.71339000  1.0
  H  H5  1  0.44906000  0.65893000  0.78661000  1.0
  H  H6  1  0.44906000  0.84107000  0.28661000  1.0
  H  H7  1  0.55094000  0.34107000  0.21339000  1.0
  H  H8  1  0.28541000  0.13749000  0.71345000  1.0
  H  H9  1  0.71460000  0.63749000  0.78655000  1.0
  H  H10  1  0.71459000  0.86251000  0.28655000  1.0
  H  H11  1  0.28541000  0.36251000  0.21345000  1.0
  H  H12  1  0.42229000  0.30148000  0.03713000  1.0
  H  H13  1  0.57771000  0.80148000  0.46287000  1.0
  H  H14  1  0.57771000  0.69852000  0.96286000  1.0
  H  H15  1  0.42229000  0.19852000  0.53714000  1.0
  H  H16  1  0.20042000  0.16668000  0.99846000  1.0
  H  H17  1  0.79959000  0.66666667  0.50154000  1.0
  H  H18  1  0.79959000  0.83332000  0.00154000  1.0
  H  H19  1  0.20041000  0.33333333  0.49846000  1.0
  H  H20  1  0.20603000  0.41264000  0.98221000  1.0
  H  H21  1  0.79397000  0.91264000  0.51779000  1.0
  H  H22  1  0.79397000  0.58736000  0.01779000  1.0
  H  H23  1  0.20603000  0.08736000  0.48221000  1.0
  C  C24  1  0.29972000  0.28583000  0.99013000  1.0
  C  C25  1  0.70028000  0.78583000  0.50987000  1.0
  C  C26  1  0.70028000  0.71417000  0.00987000  1.0
  C  C27  1  0.29972000  0.21417000  0.49013000  1.0
  C  C28  1  0.45280000  0.19176000  0.81496000  1.0
  C  C29  1  0.54720000  0.69175000  0.68505000  1.0
  C  C30  1  0.54720000  0.80824000  0.18504000  1.0
  C  C31  1  0.45280000  0.30825000  0.31495000  1.0
  N  N32  1  0.29857000  0.21575000  0.85724000  1.0
  N  N33  1  0.70143000  0.71575000  0.64276000  1.0
  N  N34  1  0.70143000  0.78425000  0.14276000  1.0
  N  N35  1  0.29857000  0.28425000  0.35724000  1.0
  N  N36  1  0.64054000  0.21737000  0.85795000  1.0
  N  N37  1  0.35946000  0.71737000  0.64205000  1.0
  N  N38  1  0.35946000  0.78263000  0.14205000  1.0
  N  N39  1  0.64054000  0.28263000  0.35795000  1.0
  N  N40  1  0.60336000  0.25619000  0.92672000  1.0
  N  N41  1  0.39664000  0.75619000  0.57328000  1.0
  N  N42  1  0.39664000  0.74381000  0.07328000  1.0
  N  N43  1  0.60336000  0.24381000  0.42672000  1.0
  N  N44  1  0.42951000  0.14370000  0.74330000  1.0
  N  N45  1  0.57049000  0.64371000  0.75670000  1.0
  N  N46  1  0.57049000  0.85629000  0.25670000  1.0
  N  N47  1  0.42951000  0.35629000  0.24330000  1.0
  N  N48  1  0.40212000  0.25330000  0.92498000  1.0
  N  N49  1  0.59788000  0.75330000  0.57502000  1.0
  N  N50  1  0.59788000  0.74670000  0.07502000  1.0
  N  N51  1  0.40212000  0.24670000  0.42498000  1.0
  Cl  Cl52  1  0.91135000  0.24965000  0.63202000  1.0
  Cl  Cl53  1  0.08865000  0.74965000  0.86798000  1.0
  Cl  Cl54  1  0.08865000  0.75035000  0.36798000  1.0
  Cl  Cl55  1  0.91135000  0.25036000  0.13202000  1.0
  O  O56  1  0.91982000  0.37843000  0.57119000  1.0
  O  O57  1  0.08018000  0.87843000  0.92881000  1.0
  O  O58  1  0.08018000  0.62157000  0.42881000  1.0
  O  O59  1  0.91982000  0.12157000  0.07119000  1.0
  O  O60  1  0.70202000  0.17156000  0.62898000  1.0
  O  O61  1  0.29798000  0.67156000  0.87102000  1.0
  O  O62  1  0.29798000  0.82844000  0.37102000  1.0
  O  O63  1  0.70202000  0.32844000  0.12898000  1.0
  O  O64  1  0.96512000  0.34693000  0.70353000  1.0
  O  O65  1  0.03488000  0.84693000  0.79647000  1.0
  O  O66  1  0.03488000  0.65307000  0.29647000  1.0
  O  O67  1  0.96512000  0.15307000  0.20353000  1.0
  O  O68  1  0.06113000  0.09836000  0.62758000  1.0
  O  O69  1  0.93887000  0.59836000  0.87242000  1.0
  O  O70  1  0.93887000  0.90164000  0.37242000  1.0
  O  O71  1  0.06113000  0.40164000  0.12758000  1.0
