# generated using pymatgen
data_NiH30C29N4O5
_symmetry_space_group_name_H-M   'P 1'
_cell_length_a   10.20300000
_cell_length_b   11.10510000
_cell_length_c   13.09360000
_cell_angle_alpha   88.03010000
_cell_angle_beta   72.19150000
_cell_angle_gamma   65.27150000
_symmetry_Int_Tables_number   1
_chemical_formula_structural   NiH30C29N4O5
_chemical_formula_sum   'Ni2 H60 C58 N8 O10'
_cell_volume   1275.43190185
_cell_formula_units_Z   2
loop_
 _symmetry_equiv_pos_site_id
 _symmetry_equiv_pos_as_xyz
  1  'x, y, z'
loop_
 _atom_site_type_symbol
 _atom_site_label
 _atom_site_symmetry_multiplicity
 _atom_site_fract_x
 _atom_site_fract_y
 _atom_site_fract_z
 _atom_site_occupancy
  Ni  Ni0  1  0.63599000  0.88836000  0.64164000  1.0
  Ni  Ni1  1  0.36403000  0.11163000  0.35834000  1.0
  H  H2  1  0.70187000  0.00542000  0.44937000  1.0
  H  H3  1  0.29807000  0.99459000  0.55070000  1.0
  H  H4  1  0.81701000  0.96694000  0.52401000  1.0
  H  H5  1  0.18297000  0.03306000  0.47606000  1.0
  H  H6  1  0.27696000  0.79261000  0.91407000  1.0
  H  H7  1  0.72309000  0.20737000  0.08594000  1.0
  H  H8  1  0.85359000  0.82124000  0.88615000  1.0
  H  H9  1  0.14644000  0.17875000  0.11389000  1.0
  H  H10  1  0.15455000  0.91962000  0.62920000  1.0
  H  H11  1  0.84547000  0.08038000  0.37083000  1.0
  H  H12  1  0.07048000  0.56031000  0.97336000  1.0
  H  H13  1  0.92952000  0.43969000  0.02667000  1.0
  H  H14  1  0.06610000  0.57960000  0.10901000  1.0
  H  H15  1  0.93390000  0.42040000  0.89101000  1.0
  H  H16  1  0.22219000  0.57753000  0.00086000  1.0
  H  H17  1  0.77782000  0.42246000  0.99916000  1.0
  H  H18  1  0.02380000  0.81152000  0.18898000  1.0
  H  H19  1  0.97620000  0.18850000  0.81104000  1.0
  H  H20  1  0.01846000  0.93803000  0.10179000  1.0
  H  H21  1  0.98153000  0.06198000  0.89822000  1.0
  H  H22  1  0.18967000  0.79187000  0.08189000  1.0
  H  H23  1  0.81033000  0.20815000  0.91813000  1.0
  H  H24  1  0.80166000  0.75395000  0.03910000  1.0
  H  H25  1  0.19836000  0.24603000  0.96090000  1.0
  H  H26  1  0.77828000  0.91520000  0.07893000  1.0
  H  H27  1  0.22172000  0.08479000  0.92106000  1.0
  H  H28  1  0.81579000  0.78790000  0.16546000  1.0
  H  H29  1  0.18421000  0.21210000  0.83455000  1.0
  H  H30  1  0.68510000  0.62576000  0.78416000  1.0
  H  H31  1  0.31492000  0.37425000  0.21582000  1.0
  H  H32  1  0.74619000  0.38610000  0.81314000  1.0
  H  H33  1  0.25382000  0.61391000  0.18685000  1.0
  H  H34  1  0.85249000  0.21251000  0.65845000  1.0
  H  H35  1  0.14750000  0.78749000  0.34155000  1.0
  H  H36  1  0.90248000  0.27052000  0.47108000  1.0
  H  H37  1  0.09751000  0.72947000  0.52892000  1.0
  H  H38  1  0.78870000  0.75239000  0.40803000  1.0
  H  H39  1  0.21127000  0.24760000  0.59194000  1.0
  H  H40  1  0.97148000  0.40648000  0.29501000  1.0
  H  H41  1  0.02850000  0.59351000  0.70497000  1.0
  H  H42  1  0.87619000  0.57349000  0.26940000  1.0
  H  H43  1  0.12382000  0.42650000  0.73058000  1.0
  H  H44  1  0.73802000  0.37583000  0.35142000  1.0
  H  H45  1  0.26194000  0.62419000  0.64858000  1.0
  H  H46  1  0.75485000  0.44040000  0.22680000  1.0
  H  H47  1  0.24513000  0.55960000  0.77319000  1.0
  H  H48  1  0.48905000  0.53816000  0.35882000  1.0
  H  H49  1  0.51092000  0.46186000  0.64117000  1.0
  H  H50  1  0.55008000  0.59940000  0.44978000  1.0
  H  H51  1  0.44990000  0.40061000  0.55020000  1.0
  H  H52  1  0.49892000  0.83347000  0.44763000  1.0
  H  H53  1  0.50103000  0.16655000  0.55236000  1.0
  H  H54  1  0.40970000  0.02081000  0.10796000  1.0
  H  H55  1  0.59032000  0.97920000  0.89202000  1.0
  H  H56  1  0.44954000  0.86545000  0.95428000  1.0
  H  H57  1  0.55049000  0.13457000  0.04569000  1.0
  H  H58  1  0.52926000  0.62594000  0.96951000  1.0
  H  H59  1  0.47075000  0.37407000  0.03047000  1.0
  H  H60  1  0.57352000  0.52859000  0.13771000  1.0
  H  H61  1  0.42646000  0.47143000  0.86228000  1.0
  C  C62  1  0.38018000  0.86609000  0.71978000  1.0
  C  C63  1  0.61983000  0.13388000  0.28020000  1.0
  C  C64  1  0.23404000  0.85288000  0.76620000  1.0
  C  C65  1  0.76597000  0.14711000  0.23383000  1.0
  C  C66  1  0.19648000  0.81290000  0.86989000  1.0
  C  C67  1  0.80356000  0.18709000  0.13012000  1.0
  C  C68  1  0.05827000  0.80297000  0.91692000  1.0
  C  C69  1  0.94176000  0.19703000  0.08311000  1.0
  C  C70  1  0.96089000  0.82966000  0.85491000  1.0
  C  C71  1  0.03913000  0.17033000  0.14512000  1.0
  C  C72  1  0.99603000  0.87136000  0.75198000  1.0
  C  C73  1  0.00398000  0.12863000  0.24805000  1.0
  C  C74  1  0.13180000  0.88410000  0.70814000  1.0
  C  C75  1  0.86820000  0.11590000  0.29188000  1.0
  C  C76  1  0.88957000  0.90269000  0.68687000  1.0
  C  C77  1  0.11048000  0.09726000  0.31315000  1.0
  C  C78  1  0.01583000  0.76398000  0.03182000  1.0
  C  C79  1  0.98419000  0.23601000  0.96820000  1.0
  C  C80  1  0.09827000  0.61148000  0.02825000  1.0
  C  C81  1  0.90174000  0.38852000  0.97177000  1.0
  C  C82  1  0.06532000  0.83003000  0.10491000  1.0
  C  C83  1  0.93468000  0.16998000  0.89511000  1.0
  C  C84  1  0.84322000  0.80785000  0.08051000  1.0
  C  C85  1  0.15680000  0.19215000  0.91949000  1.0
  C  C86  1  0.75805000  0.58201000  0.61099000  1.0
  C  C87  1  0.24195000  0.41799000  0.38900000  1.0
  C  C88  1  0.73146000  0.54879000  0.71708000  1.0
  C  C89  1  0.26855000  0.45121000  0.28290000  1.0
  C  C90  1  0.76607000  0.41537000  0.73169000  1.0
  C  C91  1  0.23393000  0.58464000  0.26830000  1.0
  C  C92  1  0.82597000  0.31629000  0.64418000  1.0
  C  C93  1  0.17402000  0.68371000  0.35582000  1.0
  C  C94  1  0.85341000  0.34799000  0.53811000  1.0
  C  C95  1  0.14658000  0.65200000  0.46188000  1.0
  C  C96  1  0.81877000  0.48177000  0.52317000  1.0
  C  C97  1  0.18122000  0.51822000  0.47681000  1.0
  C  C98  1  0.78517000  0.67826000  0.46345000  1.0
  C  C99  1  0.21482000  0.32173000  0.53654000  1.0
  C  C100  1  0.86298000  0.49659000  0.32113000  1.0
  C  C101  1  0.13701000  0.50340000  0.67886000  1.0
  C  C102  1  0.73335000  0.46604000  0.31242000  1.0
  C  C103  1  0.26662000  0.53397000  0.68756000  1.0
  C  C104  1  0.57200000  0.57493000  0.36379000  1.0
  C  C105  1  0.42797000  0.42509000  0.63619000  1.0
  C  C106  1  0.50007000  0.82142000  0.36527000  1.0
  C  C107  1  0.49990000  0.17859000  0.63471000  1.0
  C  C108  1  0.47436000  0.86000000  0.20666000  1.0
  C  C109  1  0.52564000  0.14002000  0.79332000  1.0
  C  C110  1  0.44714000  0.91434000  0.11319000  1.0
  C  C111  1  0.55287000  0.08567000  0.88679000  1.0
  C  C112  1  0.46870000  0.82766000  0.02891000  1.0
  C  C113  1  0.53131000  0.17235000  0.97106000  1.0
  C  C114  1  0.51453000  0.69003000  0.03737000  1.0
  C  C115  1  0.48547000  0.30999000  0.96261000  1.0
  C  C116  1  0.54097000  0.63435000  0.13015000  1.0
  C  C117  1  0.45902000  0.36567000  0.86984000  1.0
  C  C118  1  0.52167000  0.72127000  0.21363000  1.0
  C  C119  1  0.47832000  0.27875000  0.78636000  1.0
  N  N120  1  0.73759000  0.70371000  0.57005000  1.0
  N  N121  1  0.26242000  0.29628000  0.42993000  1.0
  N  N122  1  0.83426000  0.54732000  0.43077000  1.0
  N  N123  1  0.16573000  0.45267000  0.56922000  1.0
  N  N124  1  0.46191000  0.91939000  0.30346000  1.0
  N  N125  1  0.53808000  0.08062000  0.69652000  1.0
  N  N126  1  0.53787000  0.70022000  0.31513000  1.0
  N  N127  1  0.46211000  0.29980000  0.68486000  1.0
  O  O128  1  0.46868000  0.84289000  0.77547000  1.0
  O  O129  1  0.53136000  0.15713000  0.22450000  1.0
  O  O130  1  0.41439000  0.90082000  0.62367000  1.0
  O  O131  1  0.58562000  0.09909000  0.37630000  1.0
  O  O132  1  0.79757000  0.84702000  0.71274000  1.0
  O  O133  1  0.20245000  0.15294000  0.28731000  1.0
  O  O134  1  0.90025000  0.97640000  0.61213000  1.0
  O  O135  1  0.09981000  0.02352000  0.38786000  1.0
  O  O136  1  0.76084000  0.93555000  0.48785000  1.0
  O  O137  1  0.23911000  0.06447000  0.51220000  1.0
