# generated using pymatgen
data_NaH7C2(N2O)2
_symmetry_space_group_name_H-M   'P 1'
_cell_length_a   6.86094000
_cell_length_b   6.93749000
_cell_length_c   11.99340000
_cell_angle_alpha   89.99990000
_cell_angle_beta   90.00010000
_cell_angle_gamma   90.00000000
_symmetry_Int_Tables_number   1
_chemical_formula_structural   NaH7C2(N2O)2
_chemical_formula_sum   'Na4 H28 C8 N16 O8'
_cell_volume   570.85828685
_cell_formula_units_Z   4
loop_
 _symmetry_equiv_pos_site_id
 _symmetry_equiv_pos_as_xyz
  1  'x, y, z'
loop_
 _atom_site_type_symbol
 _atom_site_label
 _atom_site_symmetry_multiplicity
 _atom_site_fract_x
 _atom_site_fract_y
 _atom_site_fract_z
 _atom_site_occupancy
  Na  Na0  1  0.75000000  0.86010000  0.27589000  1.0
  Na  Na1  1  0.25000000  0.63990000  0.77588000  1.0
  Na  Na2  1  0.25000000  0.13991000  0.72412000  1.0
  Na  Na3  1  0.75000000  0.36010000  0.22412000  1.0
  H  H4  1  0.07927000  0.07193000  0.22354000  1.0
  H  H5  1  0.92072000  0.42807000  0.72354000  1.0
  H  H6  1  0.57927000  0.92807000  0.77646000  1.0
  H  H7  1  0.42072000  0.57194000  0.27647000  1.0
  H  H8  1  0.92072000  0.92806000  0.77646000  1.0
  H  H9  1  0.07928000  0.57193000  0.27647000  1.0
  H  H10  1  0.42072000  0.07194000  0.22354000  1.0
  H  H11  1  0.57927000  0.42806000  0.72354000  1.0
  H  H12  1  0.07558000  0.17315000  0.34022000  1.0
  H  H13  1  0.92442000  0.32684000  0.84022000  1.0
  H  H14  1  0.57558000  0.82684000  0.65978000  1.0
  H  H15  1  0.42441000  0.67316000  0.15978000  1.0
  H  H16  1  0.92441000  0.82684000  0.65977000  1.0
  H  H17  1  0.07558000  0.67315000  0.15978000  1.0
  H  H18  1  0.42441000  0.17316000  0.34022000  1.0
  H  H19  1  0.57558000  0.32684000  0.84022000  1.0
  H  H20  1  0.75000000  0.62922000  0.87674000  1.0
  H  H21  1  0.25000000  0.87077000  0.37673000  1.0
  H  H22  1  0.25001000  0.37078000  0.12326000  1.0
  H  H23  1  0.75000000  0.12922000  0.62326000  1.0
  H  H24  1  0.87885000  0.60467000  0.00439000  1.0
  H  H25  1  0.12116000  0.89533000  0.50438000  1.0
  H  H26  1  0.37886000  0.39533000  0.99561000  1.0
  H  H27  1  0.62115000  0.10467000  0.49561000  1.0
  H  H28  1  0.12116000  0.39533000  0.99561000  1.0
  H  H29  1  0.87885000  0.10467000  0.49561000  1.0
  H  H30  1  0.62115000  0.60467000  0.00439000  1.0
  H  H31  1  0.37886000  0.89533000  0.50438000  1.0
  C  C32  1  0.75000000  0.88089000  0.97629000  1.0
  C  C33  1  0.25000000  0.61910000  0.47628000  1.0
  C  C34  1  0.25001000  0.11910000  0.02371000  1.0
  C  C35  1  0.75000000  0.38090000  0.52371000  1.0
  C  C36  1  0.75000000  0.66830000  0.96497000  1.0
  C  C37  1  0.25001000  0.83170000  0.46496000  1.0
  C  C38  1  0.25001000  0.33171000  0.03503000  1.0
  C  C39  1  0.75000000  0.16829000  0.53503000  1.0
  N  N40  1  0.75000000  0.98081000  0.07253000  1.0
  N  N41  1  0.25000000  0.51920000  0.57253000  1.0
  N  N42  1  0.25000000  0.01920000  0.92747000  1.0
  N  N43  1  0.75000000  0.48081000  0.42747000  1.0
  N  N44  1  0.75000000  0.16791000  0.04276000  1.0
  N  N45  1  0.25000000  0.33209000  0.54275000  1.0
  N  N46  1  0.25000000  0.83209000  0.95725000  1.0
  N  N47  1  0.75000000  0.66791000  0.45725000  1.0
  N  N48  1  0.75000000  0.18121000  0.93278000  1.0
  N  N49  1  0.24999000  0.31879000  0.43278000  1.0
  N  N50  1  0.25000000  0.81880000  0.06722000  1.0
  N  N51  1  0.75000000  0.68121000  0.56722000  1.0
  N  N52  1  0.75000000  0.00184000  0.88862000  1.0
  N  N53  1  0.25000000  0.49815000  0.38862000  1.0
  N  N54  1  0.25000000  0.99815000  0.11138000  1.0
  N  N55  1  0.75000000  0.50184000  0.61138000  1.0
  O  O56  1  0.98902000  0.11997000  0.28201000  1.0
  O  O57  1  0.01097000  0.38002000  0.78201000  1.0
  O  O58  1  0.48903000  0.88002000  0.71799000  1.0
  O  O59  1  0.51097000  0.61998000  0.21800000  1.0
  O  O60  1  0.01097000  0.88003000  0.71799000  1.0
  O  O61  1  0.98903000  0.61998000  0.21799000  1.0
  O  O62  1  0.51097000  0.11998000  0.28201000  1.0
  O  O63  1  0.48903000  0.38003000  0.78201000  1.0
