# generated using pymatgen
data_Lu2P2H16C14N2O19
_symmetry_space_group_name_H-M   'P 1'
_cell_length_a   11.24570000
_cell_length_b   14.74660000
_cell_length_c   16.11590000
_cell_angle_alpha   90.00030000
_cell_angle_beta   89.99880000
_cell_angle_gamma   89.99960000
_symmetry_Int_Tables_number   1
_chemical_formula_structural   Lu2P2H16C14N2O19
_chemical_formula_sum   'Lu8 P8 H64 C56 N8 O76'
_cell_volume   2672.59380704
_cell_formula_units_Z   4
loop_
 _symmetry_equiv_pos_site_id
 _symmetry_equiv_pos_as_xyz
  1  'x, y, z'
loop_
 _atom_site_type_symbol
 _atom_site_label
 _atom_site_symmetry_multiplicity
 _atom_site_fract_x
 _atom_site_fract_y
 _atom_site_fract_z
 _atom_site_occupancy
  Lu  Lu0  1  0.27168000  0.25203000  0.43319000  1.0
  Lu  Lu1  1  0.22830000  0.74798000  0.93315000  1.0
  Lu  Lu2  1  0.72831000  0.75203000  0.06683000  1.0
  Lu  Lu3  1  0.77170000  0.24797000  0.56683000  1.0
  Lu  Lu4  1  0.24610000  0.19884000  0.05326000  1.0
  Lu  Lu5  1  0.25389000  0.80117000  0.55326000  1.0
  Lu  Lu6  1  0.75389000  0.69882000  0.44671000  1.0
  Lu  Lu7  1  0.74611000  0.30118000  0.94673000  1.0
  P  P8  1  0.26957000  0.18273000  0.82733000  1.0
  P  P9  1  0.23043000  0.81727000  0.32732000  1.0
  P  P10  1  0.73044000  0.68272000  0.67266000  1.0
  P  P11  1  0.76957000  0.31728000  0.17267000  1.0
  P  P12  1  0.31511000  0.04338000  0.54215000  1.0
  P  P13  1  0.18491000  0.95660000  0.04214000  1.0
  P  P14  1  0.68489000  0.54340000  0.95785000  1.0
  P  P15  1  0.81510000  0.45660000  0.45786000  1.0
  H  H16  1  0.41736000  0.24018000  0.75416000  1.0
  H  H17  1  0.08262000  0.75982000  0.25417000  1.0
  H  H18  1  0.58264000  0.74019000  0.74583000  1.0
  H  H19  1  0.91739000  0.25982000  0.24584000  1.0
  H  H20  1  0.46945000  0.95958000  0.53639000  1.0
  H  H21  1  0.03055000  0.04041000  0.03638000  1.0
  H  H22  1  0.53054000  0.45960000  0.96360000  1.0
  H  H23  1  0.96946000  0.54039000  0.46361000  1.0
  H  H24  1  0.26981000  0.46054000  0.47489000  1.0
  H  H25  1  0.23020000  0.53948000  0.97489000  1.0
  H  H26  1  0.73023000  0.96054000  0.02511000  1.0
  H  H27  1  0.76977000  0.03946000  0.52513000  1.0
  H  H28  1  0.26988000  0.43145000  0.38004000  1.0
  H  H29  1  0.23012000  0.56856000  0.88002000  1.0
  H  H30  1  0.73013000  0.93145000  0.11998000  1.0
  H  H31  1  0.76987000  0.06856000  0.61999000  1.0
  H  H32  1  0.23414000  0.97561000  0.69633000  1.0
  H  H33  1  0.26584000  0.02439000  0.19633000  1.0
  H  H34  1  0.76586000  0.47561000  0.80367000  1.0
  H  H35  1  0.73416000  0.52439000  0.30368000  1.0
  H  H36  1  0.85570000  0.83460000  0.73837000  1.0
  H  H37  1  0.64430000  0.16541000  0.23837000  1.0
  H  H38  1  0.14429000  0.33460000  0.76163000  1.0
  H  H39  1  0.35571000  0.66541000  0.26163000  1.0
  H  H40  1  0.34103000  0.02875000  0.80704000  1.0
  H  H41  1  0.15897000  0.97125000  0.30704000  1.0
  H  H42  1  0.65898000  0.52874000  0.69296000  1.0
  H  H43  1  0.84103000  0.47127000  0.19297000  1.0
  H  H44  1  0.18937000  0.03092000  0.83254000  1.0
  H  H45  1  0.31062000  0.96909000  0.33254000  1.0
  H  H46  1  0.81064000  0.53091000  0.66746000  1.0
  H  H47  1  0.68938000  0.46909000  0.16747000  1.0
  H  H48  1  0.40467000  0.07900000  0.67560000  1.0
  H  H49  1  0.09534000  0.92099000  0.17559000  1.0
  H  H50  1  0.59534000  0.57900000  0.82439000  1.0
  H  H51  1  0.90466000  0.42098000  0.32440000  1.0
  H  H52  1  0.29960000  0.16381000  0.64530000  1.0
  H  H53  1  0.20042000  0.83619000  0.14531000  1.0
  H  H54  1  0.70041000  0.66382000  0.85469000  1.0
  H  H55  1  0.79959000  0.33617000  0.35469000  1.0
  H  H56  1  0.09219000  0.05390000  0.61563000  1.0
  H  H57  1  0.40781000  0.94611000  0.11563000  1.0
  H  H58  1  0.90780000  0.55391000  0.88437000  1.0
  H  H59  1  0.59218000  0.44610000  0.38437000  1.0
  H  H60  1  0.09504000  0.14840000  0.68603000  1.0
  H  H61  1  0.40497000  0.85161000  0.18603000  1.0
  H  H62  1  0.90497000  0.64841000  0.81396000  1.0
  H  H63  1  0.59503000  0.35159000  0.31397000  1.0
  H  H64  1  0.99575000  0.13396000  0.82515000  1.0
  H  H65  1  0.50426000  0.86605000  0.32515000  1.0
  H  H66  1  0.00426000  0.63396000  0.67485000  1.0
  H  H67  1  0.49575000  0.36605000  0.17484000  1.0
  H  H68  1  0.84607000  0.05168000  0.90992000  1.0
  H  H69  1  0.65394000  0.94834000  0.40991000  1.0
  H  H70  1  0.15392000  0.55166000  0.59008000  1.0
  H  H71  1  0.34609000  0.44834000  0.09007000  1.0
  H  H72  1  0.78062000  0.89325000  0.86145000  1.0
  H  H73  1  0.71940000  0.10677000  0.36144000  1.0
  H  H74  1  0.21937000  0.39323000  0.63855000  1.0
  H  H75  1  0.28064000  0.60677000  0.13855000  1.0
  H  H76  1  0.99472000  0.90923000  0.65235000  1.0
  H  H77  1  0.50526000  0.09078000  0.15236000  1.0
  H  H78  1  0.00528000  0.40923000  0.84766000  1.0
  H  H79  1  0.49473000  0.59077000  0.34765000  1.0
  C  C80  1  0.25713000  0.06421000  0.79431000  1.0
  C  C81  1  0.24286000  0.93579000  0.29430000  1.0
  C  C82  1  0.74287000  0.56421000  0.70569000  1.0
  C  C83  1  0.75715000  0.43579000  0.20570000  1.0
  C  C84  1  0.31648000  0.09056000  0.64855000  1.0
  C  C85  1  0.18353000  0.90943000  0.14855000  1.0
  C  C86  1  0.68352000  0.59057000  0.85144000  1.0
  C  C87  1  0.81648000  0.40942000  0.35145000  1.0
  C  C88  1  0.10177000  0.07462000  0.68065000  1.0
  C  C89  1  0.39823000  0.92539000  0.18065000  1.0
  C  C90  1  0.89823000  0.57463000  0.81935000  1.0
  C  C91  1  0.60177000  0.42538000  0.31935000  1.0
  C  C92  1  0.01035000  0.02799000  0.73342000  1.0
  C  C93  1  0.48965000  0.97202000  0.23342000  1.0
  C  C94  1  0.98965000  0.52799000  0.76659000  1.0
  C  C95  1  0.51035000  0.47201000  0.26659000  1.0
  C  C96  1  0.96537000  0.06676000  0.80628000  1.0
  C  C97  1  0.53463000  0.93325000  0.30628000  1.0
  C  C98  1  0.03463000  0.56675000  0.69372000  1.0
  C  C99  1  0.46538000  0.43325000  0.19371000  1.0
  C  C100  1  0.88145000  0.02055000  0.85397000  1.0
  C  C101  1  0.61855000  0.97946000  0.35396000  1.0
  C  C102  1  0.11853000  0.52054000  0.64603000  1.0
  C  C103  1  0.38147000  0.47946000  0.14603000  1.0
  C  C104  1  0.84313000  0.93599000  0.82778000  1.0
  C  C105  1  0.65687000  0.06402000  0.32778000  1.0
  C  C106  1  0.15685000  0.43598000  0.67222000  1.0
  C  C107  1  0.34315000  0.56402000  0.17222000  1.0
  C  C108  1  0.96679000  0.94367000  0.70937000  1.0
  C  C109  1  0.53321000  0.05635000  0.20937000  1.0
  C  C110  1  0.03321000  0.44367000  0.79064000  1.0
  C  C111  1  0.46679000  0.55634000  0.29064000  1.0
  C  C112  1  0.49710000  0.26161000  0.54752000  1.0
  C  C113  1  0.00290000  0.73839000  0.04751000  1.0
  C  C114  1  0.50289000  0.76163000  0.95247000  1.0
  C  C115  1  0.99710000  0.23837000  0.45249000  1.0
  C  C116  1  0.54317000  0.23807000  0.45969000  1.0
  C  C117  1  0.95684000  0.76192000  0.95967000  1.0
  C  C118  1  0.45683000  0.73808000  0.04031000  1.0
  C  C119  1  0.04316000  0.26192000  0.54033000  1.0
  C  C120  1  0.25857000  0.17844000  0.25091000  1.0
  C  C121  1  0.24142000  0.82155000  0.75089000  1.0
  C  C122  1  0.74140000  0.67843000  0.24910000  1.0
  C  C123  1  0.75857000  0.32156000  0.74911000  1.0
  C  C124  1  0.25377000  0.28136000  0.23658000  1.0
  C  C125  1  0.24626000  0.71863000  0.73657000  1.0
  C  C126  1  0.74622000  0.78135000  0.26342000  1.0
  C  C127  1  0.75373000  0.21864000  0.76343000  1.0
  C  C128  1  0.47144000  0.30217000  0.98691000  1.0
  C  C129  1  0.02855000  0.69782000  0.48691000  1.0
  C  C130  1  0.52854000  0.80216000  0.51309000  1.0
  C  C131  1  0.97146000  0.19784000  0.01310000  1.0
  C  C132  1  0.51675000  0.20834000  0.01482000  1.0
  C  C133  1  0.98325000  0.79166000  0.51482000  1.0
  C  C134  1  0.48324000  0.70833000  0.48518000  1.0
  C  C135  1  0.01675000  0.29166000  0.98520000  1.0
  N  N136  1  0.22715000  0.04791000  0.70500000  1.0
  N  N137  1  0.27285000  0.95209000  0.20500000  1.0
  N  N138  1  0.77285000  0.54791000  0.79500000  1.0
  N  N139  1  0.72715000  0.45209000  0.29501000  1.0
  N  N140  1  0.88592000  0.90095000  0.75661000  1.0
  N  N141  1  0.61408000  0.09907000  0.25662000  1.0
  N  N142  1  0.11407000  0.40095000  0.74339000  1.0
  N  N143  1  0.38593000  0.59906000  0.24339000  1.0
  O  O144  1  0.18229000  0.23821000  0.77786000  1.0
  O  O145  1  0.31772000  0.76180000  0.27784000  1.0
  O  O146  1  0.81772000  0.73821000  0.72214000  1.0
  O  O147  1  0.68229000  0.26180000  0.22216000  1.0
  O  O148  1  0.25755000  0.17787000  0.91988000  1.0
  O  O149  1  0.24244000  0.82213000  0.41987000  1.0
  O  O150  1  0.74243000  0.67785000  0.58011000  1.0
  O  O151  1  0.75757000  0.32215000  0.08012000  1.0
  O  O152  1  0.40513000  0.21277000  0.80868000  1.0
  O  O153  1  0.09487000  0.78723000  0.30868000  1.0
  O  O154  1  0.59488000  0.71276000  0.69132000  1.0
  O  O155  1  0.90513000  0.28724000  0.19132000  1.0
  O  O156  1  0.24561000  0.95611000  0.54282000  1.0
  O  O157  1  0.25439000  0.04388000  0.04282000  1.0
  O  O158  1  0.75438000  0.45612000  0.95718000  1.0
  O  O159  1  0.74561000  0.54388000  0.45718000  1.0
  O  O160  1  0.27020000  0.11770000  0.48622000  1.0
  O  O161  1  0.22983000  0.88229000  0.98621000  1.0
  O  O162  1  0.72979000  0.61772000  0.01378000  1.0
  O  O163  1  0.77019000  0.38228000  0.51379000  1.0
  O  O164  1  0.45241000  0.02582000  0.52326000  1.0
  O  O165  1  0.04761000  0.97417000  0.02325000  1.0
  O  O166  1  0.54759000  0.52584000  0.97673000  1.0
  O  O167  1  0.95239000  0.47416000  0.47674000  1.0
  O  O168  1  0.38749000  0.27917000  0.55368000  1.0
  O  O169  1  0.11249000  0.72082000  0.05367000  1.0
  O  O170  1  0.61250000  0.77920000  0.94632000  1.0
  O  O171  1  0.88751000  0.22080000  0.44634000  1.0
  O  O172  1  0.57309000  0.26020000  0.60574000  1.0
  O  O173  1  0.92689000  0.73980000  0.10572000  1.0
  O  O174  1  0.42690000  0.76022000  0.89426000  1.0
  O  O175  1  0.07311000  0.23978000  0.39428000  1.0
  O  O176  1  0.65231000  0.21890000  0.45384000  1.0
  O  O177  1  0.84769000  0.78109000  0.95381000  1.0
  O  O178  1  0.34769000  0.71891000  0.04617000  1.0
  O  O179  1  0.15230000  0.28109000  0.54618000  1.0
  O  O180  1  0.46856000  0.24041000  0.40073000  1.0
  O  O181  1  0.03146000  0.75959000  0.90072000  1.0
  O  O182  1  0.53145000  0.74042000  0.09926000  1.0
  O  O183  1  0.96855000  0.25958000  0.59928000  1.0
  O  O184  1  0.27384000  0.14879000  0.32277000  1.0
  O  O185  1  0.22614000  0.85120000  0.82275000  1.0
  O  O186  1  0.72613000  0.64879000  0.17723000  1.0
  O  O187  1  0.77385000  0.35120000  0.67725000  1.0
  O  O188  1  0.24803000  0.13030000  0.18511000  1.0
  O  O189  1  0.25195000  0.86969000  0.68509000  1.0
  O  O190  1  0.75195000  0.63029000  0.31489000  1.0
  O  O191  1  0.74806000  0.36970000  0.81490000  1.0
  O  O192  1  0.24472000  0.30651000  0.16194000  1.0
  O  O193  1  0.25532000  0.69348000  0.66193000  1.0
  O  O194  1  0.75528000  0.80649000  0.33805000  1.0
  O  O195  1  0.74466000  0.19350000  0.83807000  1.0
  O  O196  1  0.26189000  0.32986000  0.30129000  1.0
  O  O197  1  0.23815000  0.67013000  0.80129000  1.0
  O  O198  1  0.73811000  0.82986000  0.19871000  1.0
  O  O199  1  0.76187000  0.17013000  0.69872000  1.0
  O  O200  1  0.54747000  0.35191000  0.94894000  1.0
  O  O201  1  0.95252000  0.64809000  0.44894000  1.0
  O  O202  1  0.45250000  0.85190000  0.55106000  1.0
  O  O203  1  0.04748000  0.14810000  0.05107000  1.0
  O  O204  1  0.36717000  0.32381000  0.00601000  1.0
  O  O205  1  0.13282000  0.67618000  0.50601000  1.0
  O  O206  1  0.63280000  0.82379000  0.49400000  1.0
  O  O207  1  0.86719000  0.17621000  0.99400000  1.0
  O  O208  1  0.44379000  0.16238000  0.05811000  1.0
  O  O209  1  0.05619000  0.83762000  0.55811000  1.0
  O  O210  1  0.55618000  0.66236000  0.44189000  1.0
  O  O211  1  0.94382000  0.33763000  0.94190000  1.0
  O  O212  1  0.62109000  0.18673000  0.99519000  1.0
  O  O213  1  0.87891000  0.81327000  0.49515000  1.0
  O  O214  1  0.37890000  0.68671000  0.50482000  1.0
  O  O215  1  0.12110000  0.31329000  0.00485000  1.0
  O  O216  1  0.29092000  0.41252000  0.43637000  1.0
  O  O217  1  0.20909000  0.58748000  0.93635000  1.0
  O  O218  1  0.70911000  0.91253000  0.06363000  1.0
  O  O219  1  0.79089000  0.08748000  0.56365000  1.0
