# generated using pymatgen
data_ZnH9C13NO5
_symmetry_space_group_name_H-M   'P 1'
_cell_length_a   7.11973000
_cell_length_b   9.65266000
_cell_length_c   18.87540000
_cell_angle_alpha   89.99930000
_cell_angle_beta   91.64120000
_cell_angle_gamma   89.99980000
_symmetry_Int_Tables_number   1
_chemical_formula_structural   ZnH9C13NO5
_chemical_formula_sum   'Zn4 H36 C52 N4 O20'
_cell_volume   1296.66713606
_cell_formula_units_Z   4
loop_
 _symmetry_equiv_pos_site_id
 _symmetry_equiv_pos_as_xyz
  1  'x, y, z'
loop_
 _atom_site_type_symbol
 _atom_site_label
 _atom_site_symmetry_multiplicity
 _atom_site_fract_x
 _atom_site_fract_y
 _atom_site_fract_z
 _atom_site_occupancy
  Zn  Zn0  1  0.23065000  0.93158000  0.22526000  1.0
  Zn  Zn1  1  0.76936000  0.43158000  0.27474000  1.0
  Zn  Zn2  1  0.76934000  0.06842000  0.77475000  1.0
  Zn  Zn3  1  0.23066000  0.56842000  0.72525000  1.0
  H  H4  1  0.42369000  0.25979000  0.00923000  1.0
  H  H5  1  0.57631000  0.75978000  0.49077000  1.0
  H  H6  1  0.57629000  0.74022000  0.99077000  1.0
  H  H7  1  0.42370000  0.24022000  0.50923000  1.0
  H  H8  1  0.45658000  0.68679000  0.07911000  1.0
  H  H9  1  0.54341000  0.18679000  0.42089000  1.0
  H  H10  1  0.54340000  0.31322000  0.92089000  1.0
  H  H11  1  0.45660000  0.81322000  0.57911000  1.0
  H  H12  1  0.28440000  0.36919000  0.22131000  1.0
  H  H13  1  0.71561000  0.86919000  0.27869000  1.0
  H  H14  1  0.71559000  0.63081000  0.77869000  1.0
  H  H15  1  0.28440000  0.13081000  0.72131000  1.0
  H  H16  1  0.04008000  0.21174000  0.43577000  1.0
  H  H17  1  0.95991000  0.71174000  0.06423000  1.0
  H  H18  1  0.95991000  0.78825000  0.56423000  1.0
  H  H19  1  0.04009000  0.28825000  0.93577000  1.0
  H  H20  1  0.15667000  0.17168000  0.31651000  1.0
  H  H21  1  0.84333000  0.67168000  0.18349000  1.0
  H  H22  1  0.84332000  0.82831000  0.68350000  1.0
  H  H23  1  0.15667000  0.32831000  0.81650000  1.0
  H  H24  1  0.06433000  0.76655000  0.46872000  1.0
  H  H25  1  0.93568000  0.26655000  0.03128000  1.0
  H  H26  1  0.93567000  0.23344000  0.53129000  1.0
  H  H27  1  0.06431000  0.73344000  0.96871000  1.0
  H  H28  1  0.18230000  0.74702000  0.34690000  1.0
  H  H29  1  0.81770000  0.24702000  0.15310000  1.0
  H  H30  1  0.81770000  0.25298000  0.65310000  1.0
  H  H31  1  0.18230000  0.75298000  0.84690000  1.0
  H  H32  1  0.02969000  0.98972000  0.12764000  1.0
  H  H33  1  0.97030000  0.48972000  0.37237000  1.0
  H  H34  1  0.97030000  0.01028000  0.87236000  1.0
  H  H35  1  0.02969000  0.51027000  0.62763000  1.0
  H  H36  1  0.89037000  0.99726000  0.19366000  1.0
  H  H37  1  0.10964000  0.49725000  0.30635000  1.0
  H  H38  1  0.10963000  0.00274000  0.80634000  1.0
  H  H39  1  0.89037000  0.50274000  0.69365000  1.0
  C  C40  1  0.36524000  0.53934000  0.15420000  1.0
  C  C41  1  0.63477000  0.03934000  0.34580000  1.0
  C  C42  1  0.63475000  0.46067000  0.84580000  1.0
  C  C43  1  0.36524000  0.96066000  0.65420000  1.0
  C  C44  1  0.28806000  0.15576000  0.13101000  1.0
  C  C45  1  0.71196000  0.65575000  0.36899000  1.0
  C  C46  1  0.71194000  0.84425000  0.86899000  1.0
  C  C47  1  0.28805000  0.34425000  0.63100000  1.0
  C  C48  1  0.03785000  0.99165000  0.46424000  1.0
  C  C49  1  0.96215000  0.49164000  0.03576000  1.0
  C  C50  1  0.96215000  0.00834000  0.53576000  1.0
  C  C51  1  0.03785000  0.50835000  0.96424000  1.0
  C  C52  1  0.41515000  0.34001000  0.04959000  1.0
  C  C53  1  0.58485000  0.84000000  0.45041000  1.0
  C  C54  1  0.58483000  0.66000000  0.95041000  1.0
  C  C55  1  0.41516000  0.16000000  0.54959000  1.0
  C  C56  1  0.43288000  0.57699000  0.08805000  1.0
  C  C57  1  0.56712000  0.07699000  0.41195000  1.0
  C  C58  1  0.56710000  0.42302000  0.91195000  1.0
  C  C59  1  0.43289000  0.92301000  0.58804000  1.0
  C  C60  1  0.31227000  0.65002000  0.20549000  1.0
  C  C61  1  0.68774000  0.15003000  0.29452000  1.0
  C  C62  1  0.68772000  0.34997000  0.79452000  1.0
  C  C63  1  0.31228000  0.84997000  0.70548000  1.0
  C  C64  1  0.33262000  0.40013000  0.16943000  1.0
  C  C65  1  0.66739000  0.90013000  0.33057000  1.0
  C  C66  1  0.66737000  0.59987000  0.83058000  1.0
  C  C67  1  0.33263000  0.09987000  0.66942000  1.0
  C  C68  1  0.35282000  0.30080000  0.11621000  1.0
  C  C69  1  0.64718000  0.80080000  0.38379000  1.0
  C  C70  1  0.64716000  0.69920000  0.88379000  1.0
  C  C71  1  0.35283000  0.19920000  0.61621000  1.0
  C  C72  1  0.06772000  0.10572000  0.41957000  1.0
  C  C73  1  0.93227000  0.60572000  0.08044000  1.0
  C  C74  1  0.93228000  0.89427000  0.58044000  1.0
  C  C75  1  0.06773000  0.39427000  0.91956000  1.0
  C  C76  1  0.13371000  0.08492000  0.35210000  1.0
  C  C77  1  0.86629000  0.58492000  0.14790000  1.0
  C  C78  1  0.86630000  0.91508000  0.64791000  1.0
  C  C79  1  0.13371000  0.41508000  0.85210000  1.0
  C  C80  1  0.08329000  0.86050000  0.43804000  1.0
  C  C81  1  0.91672000  0.36051000  0.06196000  1.0
  C  C82  1  0.91672000  0.13949000  0.56197000  1.0
  C  C83  1  0.08328000  0.63949000  0.93803000  1.0
  C  C84  1  0.14848000  0.84709000  0.36995000  1.0
  C  C85  1  0.85152000  0.34709000  0.13005000  1.0
  C  C86  1  0.85152000  0.15291000  0.63005000  1.0
  C  C87  1  0.14848000  0.65291000  0.86995000  1.0
  C  C88  1  0.46340000  0.47867000  0.03487000  1.0
  C  C89  1  0.53660000  0.97867000  0.46513000  1.0
  C  C90  1  0.53659000  0.52135000  0.96514000  1.0
  C  C91  1  0.46341000  0.02133000  0.53486000  1.0
  N  N92  1  0.17033000  0.95701000  0.32707000  1.0
  N  N93  1  0.82967000  0.45702000  0.17294000  1.0
  N  N94  1  0.82966000  0.04299000  0.67294000  1.0
  N  N95  1  0.17034000  0.54298000  0.82706000  1.0
  O  O96  1  0.97691000  0.93451000  0.16763000  1.0
  O  O97  1  0.02309000  0.43450000  0.33237000  1.0
  O  O98  1  0.02309000  0.06549000  0.83237000  1.0
  O  O99  1  0.97691000  0.56549000  0.66763000  1.0
  O  O100  1  0.36105000  0.77403000  0.18776000  1.0
  O  O101  1  0.63894000  0.27404000  0.31224000  1.0
  O  O102  1  0.63893000  0.22597000  0.81225000  1.0
  O  O103  1  0.36107000  0.72596000  0.68775000  1.0
  O  O104  1  0.32928000  0.11126000  0.19416000  1.0
  O  O105  1  0.67074000  0.61127000  0.30583000  1.0
  O  O106  1  0.67071000  0.88875000  0.80584000  1.0
  O  O107  1  0.32928000  0.38874000  0.69416000  1.0
  O  O108  1  0.19213000  0.09164000  0.08440000  1.0
  O  O109  1  0.80785000  0.59164000  0.41560000  1.0
  O  O110  1  0.80786000  0.90836000  0.91560000  1.0
  O  O111  1  0.19214000  0.40835000  0.58440000  1.0
  O  O112  1  0.21781000  0.62132000  0.25887000  1.0
  O  O113  1  0.78223000  0.12134000  0.24114000  1.0
  O  O114  1  0.78221000  0.37867000  0.74114000  1.0
  O  O115  1  0.21778000  0.87867000  0.75886000  1.0
