# generated using pymatgen
data_Dy2H37C36N7O22
_symmetry_space_group_name_H-M   'P 1'
_cell_length_a   13.65920000
_cell_length_b   13.65920000
_cell_length_c   16.20090000
_cell_angle_alpha   67.05710000
_cell_angle_beta   67.05710000
_cell_angle_gamma   75.78670000
_symmetry_Int_Tables_number   1
_chemical_formula_structural   Dy2H37C36N7O22
_chemical_formula_sum   'Dy4 H74 C72 N14 O44'
_cell_volume   2547.70142513
_cell_formula_units_Z   2
loop_
 _symmetry_equiv_pos_site_id
 _symmetry_equiv_pos_as_xyz
  1  'x, y, z'
loop_
 _atom_site_type_symbol
 _atom_site_label
 _atom_site_symmetry_multiplicity
 _atom_site_fract_x
 _atom_site_fract_y
 _atom_site_fract_z
 _atom_site_occupancy
  Dy  Dy0  1  0.83049000  0.54807000  0.50144000  1.0
  Dy  Dy1  1  0.45193000  0.16951000  0.99856000  1.0
  Dy  Dy2  1  0.16951000  0.45193000  0.49856000  1.0
  Dy  Dy3  1  0.54807000  0.83049000  0.00144000  1.0
  H  H4  1  0.67046000  0.76973000  0.24843000  1.0
  H  H5  1  0.23027000  0.32954000  0.25157000  1.0
  H  H6  1  0.32954000  0.23027000  0.75157000  1.0
  H  H7  1  0.76973000  0.67046000  0.74843000  1.0
  H  H8  1  0.52832000  0.09522000  0.21814000  1.0
  H  H9  1  0.90478000  0.47168000  0.28186000  1.0
  H  H10  1  0.47168000  0.90477000  0.78186000  1.0
  H  H11  1  0.09523000  0.52832000  0.71814000  1.0
  H  H12  1  0.65686000  0.91422000  0.44651000  1.0
  H  H13  1  0.08577000  0.34314000  0.05349000  1.0
  H  H14  1  0.34314000  0.08577000  0.55349000  1.0
  H  H15  1  0.91423000  0.65686000  0.94651000  1.0
  H  H16  1  0.24167000  0.75833000  0.25000000  1.0
  H  H17  1  0.75833000  0.24167000  0.75000000  1.0
  H  H18  1  0.90741000  0.86664000  0.35383000  1.0
  H  H19  1  0.13336000  0.09259000  0.14617000  1.0
  H  H20  1  0.09259000  0.13336000  0.64617000  1.0
  H  H21  1  0.86664000  0.90741000  0.85383000  1.0
  H  H22  1  0.54917000  0.63888000  0.67333000  1.0
  H  H23  1  0.36112000  0.45083000  0.82667000  1.0
  H  H24  1  0.45083000  0.36112000  0.32667000  1.0
  H  H25  1  0.63888000  0.54917000  0.17333000  1.0
  H  H26  1  0.73946000  0.41237000  0.73472000  1.0
  H  H27  1  0.58763000  0.26054000  0.76528000  1.0
  H  H28  1  0.26054000  0.58763000  0.26528000  1.0
  H  H29  1  0.41237000  0.73946000  0.23472000  1.0
  H  H30  1  0.64997000  0.37451000  0.85559000  1.0
  H  H31  1  0.62549000  0.35003000  0.64441000  1.0
  H  H32  1  0.35003000  0.62549000  0.14441000  1.0
  H  H33  1  0.37451000  0.64997000  0.35559000  1.0
  H  H34  1  0.74974000  0.46187000  0.81755000  1.0
  H  H35  1  0.53813000  0.25026000  0.68245000  1.0
  H  H36  1  0.25026000  0.53813000  0.18244000  1.0
  H  H37  1  0.46187000  0.74974000  0.31755000  1.0
  H  H38  1  0.49334000  0.64143000  0.81664000  1.0
  H  H39  1  0.35857000  0.50666000  0.68336000  1.0
  H  H40  1  0.50666000  0.35857000  0.18336000  1.0
  H  H41  1  0.64143000  0.49334000  0.31664000  1.0
  H  H42  1  0.59840000  0.61308000  0.86364000  1.0
  H  H43  1  0.38692000  0.40160000  0.63636000  1.0
  H  H44  1  0.40160000  0.38692000  0.13636000  1.0
  H  H45  1  0.61308000  0.59840000  0.36364000  1.0
  H  H46  1  0.50775000  0.51504000  0.90584000  1.0
  H  H47  1  0.48496000  0.49225000  0.59416000  1.0
  H  H48  1  0.49225000  0.48496000  0.09416000  1.0
  H  H49  1  0.51504000  0.50775000  0.40584000  1.0
  H  H50  1  0.87868000  0.31068000  0.45749000  1.0
  H  H51  1  0.68933000  0.12132000  0.04251000  1.0
  H  H52  1  0.12132000  0.68933000  0.54252000  1.0
  H  H53  1  0.31068000  0.87868000  0.95749000  1.0
  H  H54  1  0.58817000  0.21500000  0.53475000  1.0
  H  H55  1  0.78500000  0.41183000  0.96525000  1.0
  H  H56  1  0.41183000  0.78500000  0.46525000  1.0
  H  H57  1  0.21500000  0.58817000  0.03475000  1.0
  H  H58  1  0.61549000  0.29256000  0.41317000  1.0
  H  H59  1  0.70744000  0.38451000  0.08683000  1.0
  H  H60  1  0.38451000  0.70744000  0.58683000  1.0
  H  H61  1  0.29256000  0.61549000  0.91317000  1.0
  H  H62  1  0.59536000  0.35615000  0.49796000  1.0
  H  H63  1  0.64385000  0.40464000  0.00203000  1.0
  H  H64  1  0.40464000  0.64385000  0.50204000  1.0
  H  H65  1  0.35615000  0.59536000  0.99796000  1.0
  H  H66  1  0.88563000  0.16738000  0.43124000  1.0
  H  H67  1  0.83262000  0.11437000  0.06876000  1.0
  H  H68  1  0.11437000  0.83262000  0.56876000  1.0
  H  H69  1  0.16738000  0.88564000  0.93124000  1.0
  H  H70  1  0.78975000  0.16590000  0.38179000  1.0
  H  H71  1  0.83410000  0.21025000  0.11821000  1.0
  H  H72  1  0.21025000  0.83410000  0.61821000  1.0
  H  H73  1  0.16590000  0.78975000  0.88179000  1.0
  H  H74  1  0.77024000  0.09674000  0.50476000  1.0
  H  H75  1  0.90326000  0.22976000  0.99524000  1.0
  H  H76  1  0.22976000  0.90326000  0.49524000  1.0
  H  H77  1  0.09674000  0.77024000  0.00476000  1.0
  C  C78  1  0.72213000  0.73098000  0.40798000  1.0
  C  C79  1  0.26902000  0.27787000  0.09202000  1.0
  C  C80  1  0.27787000  0.26902000  0.59202000  1.0
  C  C81  1  0.73098000  0.72212000  0.90798000  1.0
  C  C82  1  0.66770000  0.83086000  0.35404000  1.0
  C  C83  1  0.16914000  0.33230000  0.14596000  1.0
  C  C84  1  0.33230000  0.16914000  0.64596000  1.0
  C  C85  1  0.83086000  0.66770000  0.85404000  1.0
  C  C86  1  0.64645000  0.83777000  0.27400000  1.0
  C  C87  1  0.16223000  0.35355000  0.22600000  1.0
  C  C88  1  0.35355000  0.16223000  0.72600000  1.0
  C  C89  1  0.83777000  0.64645000  0.77400000  1.0
  C  C90  1  0.59501000  0.93217000  0.22554000  1.0
  C  C91  1  0.06782000  0.40498000  0.27446000  1.0
  C  C92  1  0.40499000  0.06782000  0.77446000  1.0
  C  C93  1  0.93218000  0.59501000  0.72554000  1.0
  C  C94  1  0.56791000  0.02144000  0.25538000  1.0
  C  C95  1  0.97856000  0.43208000  0.24463000  1.0
  C  C96  1  0.43209000  0.97856000  0.74462000  1.0
  C  C97  1  0.02144000  0.56791000  0.75538000  1.0
  C  C98  1  0.59182000  0.01325000  0.33408000  1.0
  C  C99  1  0.98674000  0.40818000  0.16592000  1.0
  C  C100  1  0.40818000  0.98674000  0.66592000  1.0
  C  C101  1  0.01326000  0.59182000  0.83408000  1.0
  C  C102  1  0.63933000  0.91920000  0.38498000  1.0
  C  C103  1  0.08080000  0.36067000  0.11502000  1.0
  C  C104  1  0.36067000  0.08080000  0.61502000  1.0
  C  C105  1  0.91920000  0.63933000  0.88498000  1.0
  C  C106  1  0.56947000  0.93919000  0.14080000  1.0
  C  C107  1  0.06081000  0.43053000  0.35920000  1.0
  C  C108  1  0.43053000  0.06081000  0.85920000  1.0
  C  C109  1  0.93919000  0.56947000  0.64080000  1.0
  C  C110  1  0.05062000  0.68892000  0.37737000  1.0
  C  C111  1  0.31108000  0.94938000  0.12263000  1.0
  C  C112  1  0.94939000  0.31108000  0.62263000  1.0
  C  C113  1  0.68892000  0.05062000  0.87737000  1.0
  C  C114  1  0.17685000  0.82316000  0.25000000  1.0
  C  C115  1  0.82316000  0.17684000  0.75000000  1.0
  C  C116  1  0.07292000  0.80101000  0.31038000  1.0
  C  C117  1  0.19899000  0.92708000  0.18962000  1.0
  C  C118  1  0.92708000  0.19899000  0.68962000  1.0
  C  C119  1  0.80101000  0.07292000  0.81038000  1.0
  C  C120  1  0.98893000  0.88358000  0.30890000  1.0
  C  C121  1  0.11642000  0.01107000  0.19110000  1.0
  C  C122  1  0.01107000  0.11642000  0.69110000  1.0
  C  C123  1  0.88358000  0.98893000  0.80890000  1.0
  C  C124  1  0.01287000  0.98713000  0.25000000  1.0
  C  C125  1  0.98713000  0.01287000  0.75000000  1.0
  C  C126  1  0.60956000  0.56904000  0.68397000  1.0
  C  C127  1  0.43096000  0.39044000  0.81603000  1.0
  C  C128  1  0.39044000  0.43096000  0.31603000  1.0
  C  C129  1  0.56904000  0.60956000  0.18397000  1.0
  C  C130  1  0.69409000  0.43865000  0.79623000  1.0
  C  C131  1  0.56135000  0.30591000  0.70377000  1.0
  C  C132  1  0.30591000  0.56135000  0.20377000  1.0
  C  C133  1  0.43865000  0.69409000  0.29623000  1.0
  C  C134  1  0.55078000  0.57764000  0.84344000  1.0
  C  C135  1  0.42236000  0.44922000  0.65656000  1.0
  C  C136  1  0.44922000  0.42235000  0.15656000  1.0
  C  C137  1  0.57764000  0.55078000  0.34344000  1.0
  C  C138  1  0.79261000  0.33533000  0.46851000  1.0
  C  C139  1  0.66467000  0.20739000  0.03149000  1.0
  C  C140  1  0.20739000  0.66467000  0.53149000  1.0
  C  C141  1  0.33533000  0.79261000  0.96851000  1.0
  C  C142  1  0.62837000  0.28369000  0.47868000  1.0
  C  C143  1  0.71631000  0.37163000  0.02132000  1.0
  C  C144  1  0.37163000  0.71631000  0.52132000  1.0
  C  C145  1  0.28369000  0.62837000  0.97868000  1.0
  C  C146  1  0.80026000  0.16819000  0.44485000  1.0
  C  C147  1  0.83181000  0.19974000  0.05515000  1.0
  C  C148  1  0.19974000  0.83181000  0.55515000  1.0
  C  C149  1  0.16819000  0.80026000  0.94485000  1.0
  N  N150  1  0.56979000  0.10779000  0.36289000  1.0
  N  N151  1  0.89221000  0.43021000  0.13711000  1.0
  N  N152  1  0.43021000  0.89221000  0.63710000  1.0
  N  N153  1  0.10779000  0.56979000  0.86290000  1.0
  N  N154  1  0.92554000  0.07446000  0.25000000  1.0
  N  N155  1  0.07446000  0.92554000  0.75000000  1.0
  N  N156  1  0.61850000  0.53077000  0.77020000  1.0
  N  N157  1  0.46923000  0.38149000  0.72980000  1.0
  N  N158  1  0.38150000  0.46923000  0.22980000  1.0
  N  N159  1  0.53077000  0.61850000  0.27020000  1.0
  N  N160  1  0.74210000  0.26489000  0.46563000  1.0
  N  N161  1  0.73512000  0.25790000  0.03437000  1.0
  N  N162  1  0.25789000  0.73512000  0.53437000  1.0
  N  N163  1  0.26489000  0.74211000  0.96563000  1.0
  O  O164  1  0.73297000  0.72848000  0.48315000  1.0
  O  O165  1  0.27152000  0.26703000  0.01685000  1.0
  O  O166  1  0.26703000  0.27152000  0.51685000  1.0
  O  O167  1  0.72848000  0.73297000  0.98315000  1.0
  O  O168  1  0.75620000  0.65147000  0.37691000  1.0
  O  O169  1  0.34853000  0.24380000  0.12309000  1.0
  O  O170  1  0.24380000  0.34853000  0.62309000  1.0
  O  O171  1  0.65147000  0.75620000  0.87691000  1.0
  O  O172  1  0.58843000  0.85483000  0.11974000  1.0
  O  O173  1  0.14517000  0.41157000  0.38026000  1.0
  O  O174  1  0.41157000  0.14517000  0.88026000  1.0
  O  O175  1  0.85483000  0.58843000  0.61974000  1.0
  O  O176  1  0.53088000  0.02995000  0.09617000  1.0
  O  O177  1  0.97005000  0.46912000  0.40383000  1.0
  O  O178  1  0.46912000  0.97005000  0.90383000  1.0
  O  O179  1  0.02995000  0.53088000  0.59617000  1.0
  O  O180  1  0.57630000  0.09555000  0.44064000  1.0
  O  O181  1  0.90445000  0.42370000  0.05936000  1.0
  O  O182  1  0.42370000  0.90445000  0.55936000  1.0
  O  O183  1  0.09555000  0.57630000  0.94064000  1.0
  O  O184  1  0.54729000  0.19602000  0.30700000  1.0
  O  O185  1  0.80398000  0.45271000  0.19300000  1.0
  O  O186  1  0.45271000  0.80398000  0.69300000  1.0
  O  O187  1  0.19602000  0.54729000  0.80700000  1.0
  O  O188  1  0.95359000  0.67149000  0.41472000  1.0
  O  O189  1  0.32851000  0.04641000  0.08528000  1.0
  O  O190  1  0.04642000  0.32851000  0.58528000  1.0
  O  O191  1  0.67149000  0.95358000  0.91472000  1.0
  O  O192  1  0.13076000  0.62276000  0.39123000  1.0
  O  O193  1  0.37724000  0.86924000  0.10877000  1.0
  O  O194  1  0.86924000  0.37724000  0.60877000  1.0
  O  O195  1  0.62276000  0.13076000  0.89123000  1.0
  O  O196  1  0.66337000  0.53028000  0.61850000  1.0
  O  O197  1  0.46972000  0.33663000  0.88150000  1.0
  O  O198  1  0.33663000  0.46972000  0.38150000  1.0
  O  O199  1  0.53028000  0.66337000  0.11850000  1.0
  O  O200  1  0.74893000  0.42222000  0.48204000  1.0
  O  O201  1  0.57778000  0.25107000  0.01795000  1.0
  O  O202  1  0.25107000  0.57778000  0.51796000  1.0
  O  O203  1  0.42222000  0.74893000  0.98205000  1.0
  O  O204  1  0.94897000  0.16803000  0.21220000  1.0
  O  O205  1  0.83197000  0.05103000  0.28780000  1.0
  O  O206  1  0.05103000  0.83197000  0.78780000  1.0
  O  O207  1  0.16803000  0.94897000  0.71220000  1.0
