# generated using pymatgen
data_CdH10C14N5O4
_symmetry_space_group_name_H-M   'P 1'
_cell_length_a   9.43093000
_cell_length_b   9.69097000
_cell_length_c   16.20090000
_cell_angle_alpha   94.71020000
_cell_angle_beta   90.00000000
_cell_angle_gamma   90.00000000
_symmetry_Int_Tables_number   1
_chemical_formula_structural   CdH10C14N5O4
_chemical_formula_sum   'Cd4 H40 C56 N20 O16'
_cell_volume   1475.67840985
_cell_formula_units_Z   4
loop_
 _symmetry_equiv_pos_site_id
 _symmetry_equiv_pos_as_xyz
  1  'x, y, z'
loop_
 _atom_site_type_symbol
 _atom_site_label
 _atom_site_symmetry_multiplicity
 _atom_site_fract_x
 _atom_site_fract_y
 _atom_site_fract_z
 _atom_site_occupancy
  Cd  Cd0  1  0.39013000  0.64320000  0.85254000  1.0
  Cd  Cd1  1  0.89013000  0.35681000  0.64747000  1.0
  Cd  Cd2  1  0.60987000  0.35681000  0.14746000  1.0
  Cd  Cd3  1  0.10987000  0.64319000  0.35254000  1.0
  H  H4  1  0.61196000  0.39535000  0.77954000  1.0
  H  H5  1  0.11196000  0.60465000  0.72046000  1.0
  H  H6  1  0.38804000  0.60465000  0.22046000  1.0
  H  H7  1  0.88804000  0.39535000  0.27954000  1.0
  H  H8  1  0.63751000  0.53732000  0.54094000  1.0
  H  H9  1  0.13751000  0.46268000  0.95906000  1.0
  H  H10  1  0.36249000  0.46268000  0.45906000  1.0
  H  H11  1  0.86249000  0.53732000  0.04094000  1.0
  H  H12  1  0.12506000  0.84894000  0.82240000  1.0
  H  H13  1  0.62506000  0.15106000  0.67760000  1.0
  H  H14  1  0.87494000  0.15106000  0.17760000  1.0
  H  H15  1  0.37494000  0.84894000  0.32240000  1.0
  H  H16  1  0.07521000  0.09874000  0.80643000  1.0
  H  H17  1  0.57521000  0.90126000  0.69357000  1.0
  H  H18  1  0.92479000  0.90126000  0.19357000  1.0
  H  H19  1  0.42479000  0.09874000  0.30643000  1.0
  H  H20  1  0.27722000  0.27048000  0.83031000  1.0
  H  H21  1  0.77722000  0.72952000  0.66969000  1.0
  H  H22  1  0.72278000  0.72952000  0.16969000  1.0
  H  H23  1  0.22278000  0.27048000  0.33031000  1.0
  H  H24  1  0.51148000  0.18630000  0.87072000  1.0
  H  H25  1  0.01148000  0.81370000  0.62928000  1.0
  H  H26  1  0.48852000  0.81370000  0.12928000  1.0
  H  H27  1  0.98852000  0.18630000  0.37072000  1.0
  H  H28  1  0.67619000  0.10821000  0.93932000  1.0
  H  H29  1  0.17620000  0.89179000  0.56068000  1.0
  H  H30  1  0.32380000  0.89179000  0.06068000  1.0
  H  H31  1  0.82381000  0.10821000  0.43932000  1.0
  H  H32  1  0.90896000  0.00388000  0.96343000  1.0
  H  H33  1  0.40896000  0.99612000  0.53657000  1.0
  H  H34  1  0.09104000  0.99612000  0.03657000  1.0
  H  H35  1  0.59104000  0.00388000  0.46343000  1.0
  H  H36  1  0.94479000  0.74676000  0.92826000  1.0
  H  H37  1  0.44479000  0.25324000  0.57174000  1.0
  H  H38  1  0.05521000  0.25324000  0.07174000  1.0
  H  H39  1  0.55521000  0.74676000  0.42826000  1.0
  H  H40  1  0.73936000  0.60893000  0.86675000  1.0
  H  H41  1  0.23936000  0.39107000  0.63325000  1.0
  H  H42  1  0.26064000  0.39107000  0.13325000  1.0
  H  H43  1  0.76064000  0.60893000  0.36675000  1.0
  C  C44  1  0.58738000  0.45152000  0.72606000  1.0
  C  C45  1  0.08738000  0.54848000  0.77394000  1.0
  C  C46  1  0.41262000  0.54848000  0.27394000  1.0
  C  C47  1  0.91262000  0.45152000  0.22606000  1.0
  C  C48  1  0.60050000  0.52483000  0.60320000  1.0
  C  C49  1  0.10050000  0.47517000  0.89680000  1.0
  C  C50  1  0.39950000  0.47517000  0.39680000  1.0
  C  C51  1  0.89950000  0.52483000  0.10320000  1.0
  C  C52  1  0.48890000  0.59004000  0.64774000  1.0
  C  C53  1  0.98890000  0.40995000  0.85226000  1.0
  C  C54  1  0.51110000  0.40996000  0.35226000  1.0
  C  C55  1  0.01110000  0.59004000  0.14774000  1.0
  C  C56  1  0.47503000  0.56332000  0.02980000  1.0
  C  C57  1  0.97503000  0.43668000  0.47021000  1.0
  C  C58  1  0.52498000  0.43668000  0.97021000  1.0
  C  C59  1  0.02497000  0.56333000  0.52979000  1.0
  C  C60  1  0.20788000  0.92709000  0.83270000  1.0
  C  C61  1  0.70788000  0.07291000  0.66730000  1.0
  C  C62  1  0.79212000  0.07291000  0.16730000  1.0
  C  C63  1  0.29212000  0.92709000  0.33270000  1.0
  C  C64  1  0.18081000  0.06637000  0.82393000  1.0
  C  C65  1  0.68081000  0.93363000  0.67607000  1.0
  C  C66  1  0.81919000  0.93363000  0.17607000  1.0
  C  C67  1  0.31919000  0.06637000  0.32393000  1.0
  C  C68  1  0.29198000  0.16054000  0.83716000  1.0
  C  C69  1  0.79198000  0.83946000  0.66284000  1.0
  C  C70  1  0.70802000  0.83946000  0.16284000  1.0
  C  C71  1  0.20802000  0.16054000  0.33716000  1.0
  C  C72  1  0.42472000  0.11299000  0.85965000  1.0
  C  C73  1  0.92472000  0.88701000  0.64035000  1.0
  C  C74  1  0.57528000  0.88701000  0.14035000  1.0
  C  C75  1  0.07528000  0.11299000  0.35965000  1.0
  C  C76  1  0.44373000  0.97117000  0.86718000  1.0
  C  C77  1  0.94373000  0.02883000  0.63282000  1.0
  C  C78  1  0.55627000  0.02883000  0.13282000  1.0
  C  C79  1  0.05627000  0.97117000  0.36718000  1.0
  C  C80  1  0.58430000  0.91379000  0.88776000  1.0
  C  C81  1  0.08430000  0.08621000  0.61224000  1.0
  C  C82  1  0.41570000  0.08621000  0.11224000  1.0
  C  C83  1  0.91570000  0.91379000  0.38776000  1.0
  C  C84  1  0.69271000  0.99807000  0.92305000  1.0
  C  C85  1  0.19271000  0.00193000  0.57695000  1.0
  C  C86  1  0.30729000  0.00193000  0.07695000  1.0
  C  C87  1  0.80729000  0.99807000  0.42305000  1.0
  C  C88  1  0.82377000  0.93831000  0.93724000  1.0
  C  C89  1  0.32378000  0.06169000  0.56276000  1.0
  C  C90  1  0.17622000  0.06169000  0.06276000  1.0
  C  C91  1  0.67622000  0.93831000  0.43724000  1.0
  C  C92  1  0.84418000  0.79699000  0.91702000  1.0
  C  C93  1  0.34418000  0.20301000  0.58298000  1.0
  C  C94  1  0.15582000  0.20301000  0.08298000  1.0
  C  C95  1  0.65582000  0.79699000  0.41702000  1.0
  C  C96  1  0.73010000  0.72004000  0.88345000  1.0
  C  C97  1  0.23011000  0.27996000  0.61655000  1.0
  C  C98  1  0.26989000  0.27996000  0.11655000  1.0
  C  C99  1  0.76989000  0.72004000  0.38345000  1.0
  N  N100  1  0.48125000  0.54303000  0.72535000  1.0
  N  N101  1  0.98125000  0.45697000  0.77465000  1.0
  N  N102  1  0.51875000  0.45697000  0.27465000  1.0
  N  N103  1  0.01875000  0.54303000  0.22535000  1.0
  N  N104  1  0.66230000  0.43738000  0.65378000  1.0
  N  N105  1  0.16230000  0.56262000  0.84622000  1.0
  N  N106  1  0.33770000  0.56262000  0.34622000  1.0
  N  N107  1  0.83770000  0.43738000  0.15378000  1.0
  N  N108  1  0.39862000  0.69540000  0.62270000  1.0
  N  N109  1  0.89862000  0.30459000  0.87730000  1.0
  N  N110  1  0.60138000  0.30459000  0.37730000  1.0
  N  N111  1  0.10138000  0.69541000  0.12270000  1.0
  N  N112  1  0.33581000  0.88070000  0.85326000  1.0
  N  N113  1  0.83582000  0.11930000  0.64673000  1.0
  N  N114  1  0.66419000  0.11930000  0.14673000  1.0
  N  N115  1  0.16418000  0.88070000  0.35326000  1.0
  N  N116  1  0.60394000  0.77682000  0.86924000  1.0
  N  N117  1  0.10394000  0.22318000  0.63075000  1.0
  N  N118  1  0.39606000  0.22319000  0.13076000  1.0
  N  N119  1  0.89606000  0.77681000  0.36924000  1.0
  O  O120  1  0.30822000  0.74623000  0.67311000  1.0
  O  O121  1  0.80822000  0.25377000  0.82689000  1.0
  O  O122  1  0.69178000  0.25377000  0.32689000  1.0
  O  O123  1  0.19178000  0.74623000  0.17311000  1.0
  O  O124  1  0.41575000  0.73476000  0.55170000  1.0
  O  O125  1  0.91575000  0.26524000  0.94830000  1.0
  O  O126  1  0.58425000  0.26524000  0.44830000  1.0
  O  O127  1  0.08425000  0.73476000  0.05170000  1.0
  O  O128  1  0.40516000  0.65832000  0.99936000  1.0
  O  O129  1  0.90516000  0.34168000  0.50064000  1.0
  O  O130  1  0.59484000  0.34169000  0.00064000  1.0
  O  O131  1  0.09484000  0.65832000  0.49936000  1.0
  O  O132  1  0.50828000  0.56247000  0.10564000  1.0
  O  O133  1  0.00828000  0.43753000  0.39436000  1.0
  O  O134  1  0.49172000  0.43753000  0.89436000  1.0
  O  O135  1  0.99172000  0.56247000  0.60564000  1.0
