# generated using pymatgen
data_MnH12C16N2O5
_symmetry_space_group_name_H-M   'P 1'
_cell_length_a   9.55109000
_cell_length_b   10.36350000
_cell_length_c   17.69480000
_cell_angle_alpha   89.99980000
_cell_angle_beta   89.99720000
_cell_angle_gamma   100.26100000
_symmetry_Int_Tables_number   1
_chemical_formula_structural   MnH12C16N2O5
_chemical_formula_sum   'Mn4 H48 C64 N8 O20'
_cell_volume   1723.46719593
_cell_formula_units_Z   4
loop_
 _symmetry_equiv_pos_site_id
 _symmetry_equiv_pos_as_xyz
  1  'x, y, z'
loop_
 _atom_site_type_symbol
 _atom_site_label
 _atom_site_symmetry_multiplicity
 _atom_site_fract_x
 _atom_site_fract_y
 _atom_site_fract_z
 _atom_site_occupancy
  Mn  Mn0  1  0.29823000  0.79968000  0.86167000  1.0
  Mn  Mn1  1  0.79825000  0.79970000  0.63833000  1.0
  Mn  Mn2  1  0.70174000  0.20030000  0.13833000  1.0
  Mn  Mn3  1  0.20173000  0.20032000  0.36168000  1.0
  H  H4  1  0.50742000  0.07645000  0.86441000  1.0
  H  H5  1  0.00741000  0.07645000  0.63558000  1.0
  H  H6  1  0.49259000  0.92354000  0.13559000  1.0
  H  H7  1  0.99260000  0.92354000  0.36442000  1.0
  H  H8  1  0.54645000  0.28190000  0.94467000  1.0
  H  H9  1  0.04642000  0.28191000  0.55531000  1.0
  H  H10  1  0.45355000  0.71809000  0.05532000  1.0
  H  H11  1  0.95358000  0.71807000  0.44468000  1.0
  H  H12  1  0.40173000  0.28866000  0.05992000  1.0
  H  H13  1  0.90167000  0.28866000  0.44007000  1.0
  H  H14  1  0.59829000  0.71135000  0.94008000  1.0
  H  H15  1  0.09832000  0.71133000  0.55992000  1.0
  H  H16  1  0.19691000  0.17411000  0.14353000  1.0
  H  H17  1  0.69687000  0.17410000  0.35647000  1.0
  H  H18  1  0.80311000  0.82590000  0.85647000  1.0
  H  H19  1  0.30313000  0.82589000  0.64353000  1.0
  H  H20  1  0.00367000  0.98664000  0.16558000  1.0
  H  H21  1  0.50366000  0.98661000  0.33443000  1.0
  H  H22  1  0.99634000  0.01337000  0.83443000  1.0
  H  H23  1  0.49633000  0.01338000  0.66557000  1.0
  H  H24  1  0.86136000  0.76839000  0.11962000  1.0
  H  H25  1  0.36138000  0.76836000  0.38038000  1.0
  H  H26  1  0.13865000  0.23161000  0.88038000  1.0
  H  H27  1  0.63862000  0.23164000  0.61962000  1.0
  H  H28  1  0.83630000  0.58716000  0.02579000  1.0
  H  H29  1  0.33632000  0.58712000  0.47421000  1.0
  H  H30  1  0.16371000  0.41285000  0.97422000  1.0
  H  H31  1  0.66369000  0.41288000  0.52578000  1.0
  H  H32  1  0.02098000  0.59288000  0.92421000  1.0
  H  H33  1  0.52099000  0.59286000  0.57580000  1.0
  H  H34  1  0.97903000  0.40711000  0.07580000  1.0
  H  H35  1  0.47900000  0.40714000  0.42420000  1.0
  H  H36  1  0.97061000  0.62126000  0.76530000  1.0
  H  H37  1  0.47062000  0.62126000  0.73470000  1.0
  H  H38  1  0.02940000  0.37874000  0.23469000  1.0
  H  H39  1  0.52939000  0.37875000  0.26530000  1.0
  H  H40  1  0.07022000  0.63913000  0.67997000  1.0
  H  H41  1  0.57020000  0.63912000  0.82002000  1.0
  H  H42  1  0.92979000  0.36089000  0.32002000  1.0
  H  H43  1  0.42979000  0.36086000  0.17997000  1.0
  H  H44  1  0.22035000  0.46052000  0.74330000  1.0
  H  H45  1  0.72037000  0.46053000  0.75669000  1.0
  H  H46  1  0.77964000  0.53948000  0.25669000  1.0
  H  H47  1  0.27965000  0.53947000  0.24330000  1.0
  H  H48  1  0.09279000  0.46069000  0.81679000  1.0
  H  H49  1  0.59279000  0.46070000  0.68321000  1.0
  H  H50  1  0.90721000  0.53932000  0.18320000  1.0
  H  H51  1  0.40720000  0.53932000  0.31678000  1.0
  C  C52  1  0.44399000  0.08492000  0.91488000  1.0
  C  C53  1  0.94397000  0.08493000  0.58511000  1.0
  C  C54  1  0.55602000  0.91506000  0.08512000  1.0
  C  C55  1  0.05603000  0.91505000  0.41489000  1.0
  C  C56  1  0.46627000  0.19797000  0.96026000  1.0
  C  C57  1  0.96623000  0.19797000  0.53974000  1.0
  C  C58  1  0.53374000  0.80202000  0.03974000  1.0
  C  C59  1  0.03377000  0.80200000  0.46026000  1.0
  C  C60  1  0.38369000  0.20192000  0.02399000  1.0
  C  C61  1  0.88365000  0.20192000  0.47600000  1.0
  C  C62  1  0.61633000  0.79808000  0.97601000  1.0
  C  C63  1  0.11636000  0.79807000  0.52399000  1.0
  C  C64  1  0.27639000  0.09377000  0.04169000  1.0
  C  C65  1  0.77634000  0.09376000  0.45832000  1.0
  C  C66  1  0.72363000  0.90623000  0.95832000  1.0
  C  C67  1  0.22366000  0.90623000  0.54168000  1.0
  C  C68  1  0.26013000  0.98465000  0.99202000  1.0
  C  C69  1  0.76010000  0.98464000  0.50799000  1.0
  C  C70  1  0.73989000  0.01535000  0.00800000  1.0
  C  C71  1  0.23988000  0.01536000  0.49201000  1.0
  C  C72  1  0.18282000  0.09037000  0.10523000  1.0
  C  C73  1  0.68279000  0.09035000  0.39477000  1.0
  C  C74  1  0.81718000  0.90964000  0.89478000  1.0
  C  C75  1  0.31720000  0.90965000  0.60523000  1.0
  C  C76  1  0.07597000  0.98608000  0.11788000  1.0
  C  C77  1  0.57594000  0.98606000  0.38213000  1.0
  C  C78  1  0.92406000  0.01391000  0.88213000  1.0
  C  C79  1  0.42406000  0.01393000  0.61787000  1.0
  C  C80  1  0.05430000  0.87619000  0.06751000  1.0
  C  C81  1  0.55430000  0.87615000  0.43250000  1.0
  C  C82  1  0.94570000  0.12382000  0.93249000  1.0
  C  C83  1  0.44568000  0.12384000  0.56751000  1.0
  C  C84  1  0.14818000  0.87412000  0.00530000  1.0
  C  C85  1  0.64817000  0.87410000  0.49470000  1.0
  C  C86  1  0.85183000  0.12589000  0.99471000  1.0
  C  C87  1  0.35182000  0.12589000  0.50530000  1.0
  C  C88  1  0.94006000  0.76974000  0.07473000  1.0
  C  C89  1  0.44006000  0.76971000  0.42527000  1.0
  C  C90  1  0.05994000  0.23027000  0.92527000  1.0
  C  C91  1  0.55993000  0.23028000  0.57472000  1.0
  C  C92  1  0.92585000  0.66837000  0.02274000  1.0
  C  C93  1  0.42586000  0.66833000  0.47727000  1.0
  C  C94  1  0.07416000  0.33164000  0.97727000  1.0
  C  C95  1  0.57413000  0.33166000  0.52272000  1.0
  C  C96  1  0.02727000  0.67283000  0.96494000  1.0
  C  C97  1  0.52727000  0.67281000  0.53507000  1.0
  C  C98  1  0.97274000  0.32717000  0.03507000  1.0
  C  C99  1  0.47271000  0.32718000  0.46493000  1.0
  C  C100  1  0.07225000  0.82039000  0.74274000  1.0
  C  C101  1  0.57224000  0.82039000  0.75726000  1.0
  C  C102  1  0.92776000  0.17960000  0.25726000  1.0
  C  C103  1  0.42775000  0.17959000  0.24276000  1.0
  C  C104  1  0.07003000  0.67267000  0.73893000  1.0
  C  C105  1  0.57003000  0.67266000  0.76107000  1.0
  C  C106  1  0.92997000  0.32735000  0.26107000  1.0
  C  C107  1  0.42997000  0.32734000  0.23893000  1.0
  C  C108  1  0.19630000  0.51198000  0.79486000  1.0
  C  C109  1  0.69632000  0.51199000  0.70513000  1.0
  C  C110  1  0.80369000  0.48801000  0.20513000  1.0
  C  C111  1  0.30369000  0.48803000  0.29486000  1.0
  C  C112  1  0.31185000  0.50836000  0.85500000  1.0
  C  C113  1  0.81186000  0.50837000  0.64498000  1.0
  C  C114  1  0.68814000  0.49164000  0.14498000  1.0
  C  C115  1  0.18815000  0.49166000  0.35500000  1.0
  N  N116  1  0.34454000  0.98073000  0.93050000  1.0
  N  N117  1  0.84453000  0.98073000  0.56949000  1.0
  N  N118  1  0.65546000  0.01927000  0.06951000  1.0
  N  N119  1  0.15545000  0.01926000  0.43050000  1.0
  N  N120  1  0.13495000  0.77251000  0.95594000  1.0
  N  N121  1  0.63495000  0.77250000  0.54408000  1.0
  N  N122  1  0.86507000  0.22749000  0.04408000  1.0
  N  N123  1  0.36503000  0.22750000  0.45593000  1.0
  O  O124  1  0.16037000  0.88729000  0.78732000  1.0
  O  O125  1  0.66037000  0.88730000  0.71269000  1.0
  O  O126  1  0.83964000  0.11271000  0.21269000  1.0
  O  O127  1  0.33961000  0.11271000  0.28732000  1.0
  O  O128  1  0.35210000  0.61542000  0.89249000  1.0
  O  O129  1  0.85212000  0.61545000  0.60751000  1.0
  O  O130  1  0.64790000  0.38456000  0.10751000  1.0
  O  O131  1  0.14787000  0.38461000  0.39248000  1.0
  O  O132  1  0.19060000  0.64627000  0.77928000  1.0
  O  O133  1  0.69060000  0.64628000  0.72072000  1.0
  O  O134  1  0.80939000  0.35372000  0.22072000  1.0
  O  O135  1  0.30939000  0.35374000  0.27929000  1.0
  O  O136  1  0.98453000  0.86735000  0.70179000  1.0
  O  O137  1  0.48451000  0.86734000  0.79821000  1.0
  O  O138  1  0.01547000  0.13266000  0.29822000  1.0
  O  O139  1  0.51551000  0.13266000  0.20181000  1.0
  O  O140  1  0.35564000  0.40308000  0.86312000  1.0
  O  O141  1  0.85562000  0.40309000  0.63686000  1.0
  O  O142  1  0.64435000  0.59692000  0.13688000  1.0
  O  O143  1  0.14437000  0.59693000  0.36311000  1.0
