# generated using pymatgen
data_CdH16(C8N9)2
_symmetry_space_group_name_H-M   'P 1'
_cell_length_a   8.63041000
_cell_length_b   8.77048000
_cell_length_c   15.00450000
_cell_angle_alpha   92.27370000
_cell_angle_beta   89.99990000
_cell_angle_gamma   90.00000000
_symmetry_Int_Tables_number   1
_chemical_formula_structural   CdH16(C8N9)2
_chemical_formula_sum   'Cd2 H32 C32 N36'
_cell_volume   1134.83904221
_cell_formula_units_Z   2
loop_
 _symmetry_equiv_pos_site_id
 _symmetry_equiv_pos_as_xyz
  1  'x, y, z'
loop_
 _atom_site_type_symbol
 _atom_site_label
 _atom_site_symmetry_multiplicity
 _atom_site_fract_x
 _atom_site_fract_y
 _atom_site_fract_z
 _atom_site_occupancy
  Cd  Cd0  1  0.00000000  0.00000000  0.00000000  1.0
  Cd  Cd1  1  0.50000000  0.50000000  0.50000000  1.0
  H  H2  1  0.06484000  0.60967000  0.04654000  1.0
  H  H3  1  0.56484000  0.89033000  0.45346000  1.0
  H  H4  1  0.93516000  0.39032000  0.95346000  1.0
  H  H5  1  0.43516000  0.10968000  0.54654000  1.0
  H  H6  1  0.26571000  0.85469000  0.84032000  1.0
  H  H7  1  0.76571000  0.64531000  0.65968000  1.0
  H  H8  1  0.73429000  0.14531000  0.15968000  1.0
  H  H9  1  0.23429000  0.35469000  0.34032000  1.0
  H  H10  1  0.61308000  0.93354000  0.06681000  1.0
  H  H11  1  0.11308000  0.56646000  0.43319000  1.0
  H  H12  1  0.38692000  0.06646000  0.93319000  1.0
  H  H13  1  0.88692000  0.43355000  0.56681000  1.0
  H  H14  1  0.83272000  0.71046000  0.84700000  1.0
  H  H15  1  0.33272000  0.78954000  0.65300000  1.0
  H  H16  1  0.16728000  0.28954000  0.15300000  1.0
  H  H17  1  0.66728000  0.21046000  0.34700000  1.0
  H  H18  1  0.42340000  0.64659000  0.76933000  1.0
  H  H19  1  0.92340000  0.85341000  0.73067000  1.0
  H  H20  1  0.57660000  0.35341000  0.23067000  1.0
  H  H21  1  0.07660000  0.14659000  0.26933000  1.0
  H  H22  1  0.36623000  0.45545000  0.78923000  1.0
  H  H23  1  0.86623000  0.04454000  0.71077000  1.0
  H  H24  1  0.63377000  0.54454000  0.21077000  1.0
  H  H25  1  0.13377000  0.95546000  0.28923000  1.0
  H  H26  1  0.54121000  0.44971000  0.92111000  1.0
  H  H27  1  0.04121000  0.05029000  0.57889000  1.0
  H  H28  1  0.45879000  0.55029000  0.07889000  1.0
  H  H29  1  0.95879000  0.94971000  0.42111000  1.0
  H  H30  1  0.64505000  0.49482000  0.82299000  1.0
  H  H31  1  0.14504000  0.00518000  0.67701000  1.0
  H  H32  1  0.35496000  0.50518000  0.17701000  1.0
  H  H33  1  0.85495000  0.99482000  0.32299000  1.0
  C  C34  1  0.13351000  0.63897000  0.98921000  1.0
  C  C35  1  0.63352000  0.86103000  0.51079000  1.0
  C  C36  1  0.86649000  0.36103000  0.01079000  1.0
  C  C37  1  0.36649000  0.13897000  0.48921000  1.0
  C  C38  1  0.23059000  0.76671000  0.88523000  1.0
  C  C39  1  0.73059000  0.73329000  0.61477000  1.0
  C  C40  1  0.76941000  0.23329000  0.11477000  1.0
  C  C41  1  0.26941000  0.26671000  0.38523000  1.0
  C  C42  1  0.63801000  0.85586000  0.01054000  1.0
  C  C43  1  0.13801000  0.64415000  0.48946000  1.0
  C  C44  1  0.36199000  0.14414000  0.98946000  1.0
  C  C45  1  0.86199000  0.35586000  0.51054000  1.0
  C  C46  1  0.75193000  0.74740000  0.89928000  1.0
  C  C47  1  0.25193000  0.75259000  0.60072000  1.0
  C  C48  1  0.24807000  0.25259000  0.10072000  1.0
  C  C49  1  0.74807000  0.24741000  0.39928000  1.0
  C  C50  1  0.40609000  0.56320000  0.82080000  1.0
  C  C51  1  0.90609000  0.93681000  0.67920000  1.0
  C  C52  1  0.59391000  0.43680000  0.17920000  1.0
  C  C53  1  0.09391000  0.06320000  0.32080000  1.0
  C  C54  1  0.55721000  0.53618000  0.87091000  1.0
  C  C55  1  0.05721000  0.96381000  0.62909000  1.0
  C  C56  1  0.44279000  0.46381000  0.12909000  1.0
  C  C57  1  0.94279000  0.03619000  0.37091000  1.0
  C  C58  1  0.06829000  0.20577000  0.81525000  1.0
  C  C59  1  0.56829000  0.29424000  0.68475000  1.0
  C  C60  1  0.93171000  0.79423000  0.18475000  1.0
  C  C61  1  0.43171000  0.70578000  0.31525000  1.0
  C  C62  1  0.01393000  0.43766000  0.75607000  1.0
  C  C63  1  0.51393000  0.06234000  0.74393000  1.0
  C  C64  1  0.98606000  0.56234000  0.24393000  1.0
  C  C65  1  0.48606000  0.93765000  0.25607000  1.0
  N  N66  1  0.28449000  0.62309000  0.87936000  1.0
  N  N67  1  0.78449000  0.87691000  0.62063000  1.0
  N  N68  1  0.71551000  0.37691000  0.12063000  1.0
  N  N69  1  0.21551000  0.12309000  0.37937000  1.0
  N  N70  1  0.22376000  0.53910000  0.94528000  1.0
  N  N71  1  0.72375000  0.96090000  0.55472000  1.0
  N  N72  1  0.77624000  0.46090000  0.05472000  1.0
  N  N73  1  0.27624000  0.03910000  0.44528000  1.0
  N  N74  1  0.13367000  0.78037000  0.95446000  1.0
  N  N75  1  0.63367000  0.71963000  0.54554000  1.0
  N  N76  1  0.86633000  0.21963000  0.04554000  1.0
  N  N77  1  0.36633000  0.28037000  0.45446000  1.0
  N  N78  1  0.61835000  0.67415000  0.91507000  1.0
  N  N79  1  0.11835000  0.82585000  0.58493000  1.0
  N  N80  1  0.38165000  0.32584000  0.08493000  1.0
  N  N81  1  0.88165000  0.17416000  0.41507000  1.0
  N  N82  1  0.54395000  0.74183000  0.98642000  1.0
  N  N83  1  0.04395000  0.75817000  0.51358000  1.0
  N  N84  1  0.45605000  0.25817000  0.01358000  1.0
  N  N85  1  0.95605000  0.24183000  0.48642000  1.0
  N  N86  1  0.76768000  0.86406000  0.95875000  1.0
  N  N87  1  0.26768000  0.63595000  0.54125000  1.0
  N  N88  1  0.23232000  0.13594000  0.04125000  1.0
  N  N89  1  0.73232000  0.36406000  0.45875000  1.0
  N  N90  1  0.09756000  0.31533000  0.76280000  1.0
  N  N91  1  0.59756000  0.18467000  0.73720000  1.0
  N  N92  1  0.90244000  0.68467000  0.23720000  1.0
  N  N93  1  0.40244000  0.81533000  0.26280000  1.0
  N  N94  1  0.05162000  0.09644000  0.85796000  1.0
  N  N95  1  0.55162000  0.40356000  0.64204000  1.0
  N  N96  1  0.94838000  0.90356000  0.14204000  1.0
  N  N97  1  0.44838000  0.59644000  0.35797000  1.0
  N  N98  1  0.94722000  0.55334000  0.74551000  1.0
  N  N99  1  0.44722000  0.94666000  0.75449000  1.0
  N  N100  1  0.05278000  0.44665000  0.25449000  1.0
  N  N101  1  0.55278000  0.05335000  0.24551000  1.0
