# generated using pymatgen
data_GdCu2H8C8N6ClO12
_symmetry_space_group_name_H-M   'P 1'
_cell_length_a   6.29434000
_cell_length_b   11.32740000
_cell_length_c   12.29490000
_cell_angle_alpha   102.27800000
_cell_angle_beta   89.99860000
_cell_angle_gamma   89.99990000
_symmetry_Int_Tables_number   1
_chemical_formula_structural   GdCu2H8C8N6ClO12
_chemical_formula_sum   'Gd2 Cu4 H16 C16 N12 Cl2 O24'
_cell_volume   856.55762049
_cell_formula_units_Z   2
loop_
 _symmetry_equiv_pos_site_id
 _symmetry_equiv_pos_as_xyz
  1  'x, y, z'
loop_
 _atom_site_type_symbol
 _atom_site_label
 _atom_site_symmetry_multiplicity
 _atom_site_fract_x
 _atom_site_fract_y
 _atom_site_fract_z
 _atom_site_occupancy
  Gd  Gd0  1  0.51794000  0.75000000  0.50000000  1.0
  Gd  Gd1  1  0.48207000  0.25000000  0.50000000  1.0
  Cu  Cu2  1  0.13210000  0.38687000  0.08009000  1.0
  Cu  Cu3  1  0.13197000  0.11312000  0.91986000  1.0
  Cu  Cu4  1  0.86791000  0.61313000  0.91990000  1.0
  Cu  Cu5  1  0.86803000  0.88688000  0.08014000  1.0
  H  H6  1  0.72213000  0.53028000  0.53914000  1.0
  H  H7  1  0.72213000  0.96973000  0.46088000  1.0
  H  H8  1  0.27788000  0.46972000  0.46085000  1.0
  H  H9  1  0.27788000  0.03027000  0.53913000  1.0
  H  H10  1  0.79163000  0.54262000  0.41865000  1.0
  H  H11  1  0.79157000  0.95738000  0.58137000  1.0
  H  H12  1  0.20838000  0.45738000  0.58135000  1.0
  H  H13  1  0.20842000  0.04261000  0.41863000  1.0
  H  H14  1  0.72635000  0.63997000  0.26910000  1.0
  H  H15  1  0.72629000  0.86004000  0.73091000  1.0
  H  H16  1  0.27365000  0.36003000  0.73090000  1.0
  H  H17  1  0.27372000  0.13997000  0.26908000  1.0
  H  H18  1  0.70085000  0.78326000  0.27657000  1.0
  H  H19  1  0.70079000  0.71675000  0.72345000  1.0
  H  H20  1  0.29915000  0.21674000  0.72343000  1.0
  H  H21  1  0.29922000  0.28325000  0.27655000  1.0
  C  C22  1  0.28713000  0.53761000  0.27696000  1.0
  C  C23  1  0.28706000  0.96237000  0.72300000  1.0
  C  C24  1  0.71288000  0.46239000  0.72304000  1.0
  C  C25  1  0.71293000  0.03763000  0.27698000  1.0
  C  C26  1  0.20174000  0.62053000  0.20902000  1.0
  C  C27  1  0.20174000  0.87946000  0.79097000  1.0
  C  C28  1  0.79826000  0.37947000  0.79098000  1.0
  C  C29  1  0.79825000  0.12054000  0.20903000  1.0
  C  C30  1  0.21335000  0.85373000  0.30496000  1.0
  C  C31  1  0.21330000  0.64627000  0.69503000  1.0
  C  C32  1  0.78665000  0.14627000  0.69504000  1.0
  C  C33  1  0.78668000  0.35373000  0.30497000  1.0
  C  C34  1  0.15843000  0.74411000  0.21849000  1.0
  C  C35  1  0.15842000  0.75588000  0.78151000  1.0
  C  C36  1  0.84157000  0.25589000  0.78151000  1.0
  C  C37  1  0.84156000  0.24412000  0.21849000  1.0
  N  N38  1  0.11576000  0.56287000  0.11095000  1.0
  N  N39  1  0.11582000  0.93712000  0.88906000  1.0
  N  N40  1  0.88424000  0.43713000  0.88905000  1.0
  N  N41  1  0.88418000  0.06288000  0.11094000  1.0
  N  N42  1  0.02198000  0.64252000  0.06379000  1.0
  N  N43  1  0.02207000  0.85747000  0.93623000  1.0
  N  N44  1  0.97802000  0.35748000  0.93621000  1.0
  N  N45  1  0.97794000  0.14252000  0.06377000  1.0
  N  N46  1  0.04565000  0.75279000  0.12678000  1.0
  N  N47  1  0.04571000  0.74720000  0.87324000  1.0
  N  N48  1  0.95434000  0.24721000  0.87322000  1.0
  N  N49  1  0.95429000  0.25280000  0.12676000  1.0
  Cl  Cl50  1  0.41152000  0.24999000  0.99999000  1.0
  Cl  Cl51  1  0.58848000  0.75001000  0.00001000  1.0
  O  O52  1  0.28543000  0.42482000  0.22706000  1.0
  O  O53  1  0.28532000  0.07517000  0.77289000  1.0
  O  O54  1  0.71458000  0.57517000  0.77293000  1.0
  O  O55  1  0.71466000  0.92484000  0.22711000  1.0
  O  O56  1  0.34876000  0.57275000  0.37577000  1.0
  O  O57  1  0.34871000  0.92723000  0.62420000  1.0
  O  O58  1  0.65126000  0.42724000  0.62422000  1.0
  O  O59  1  0.65128000  0.07277000  0.37580000  1.0
  O  O60  1  0.17243000  0.95656000  0.28646000  1.0
  O  O61  1  0.17235000  0.54343000  0.71351000  1.0
  O  O62  1  0.82756000  0.04344000  0.71355000  1.0
  O  O63  1  0.82765000  0.45657000  0.28648000  1.0
  O  O64  1  0.29785000  0.83473000  0.39368000  1.0
  O  O65  1  0.29783000  0.66526000  0.60631000  1.0
  O  O66  1  0.70215000  0.16526000  0.60632000  1.0
  O  O67  1  0.70217000  0.33474000  0.39369000  1.0
  O  O68  1  0.75945000  0.59105000  0.49492000  1.0
  O  O69  1  0.75944000  0.90896000  0.50510000  1.0
  O  O70  1  0.24055000  0.40895000  0.50508000  1.0
  O  O71  1  0.24056000  0.09105000  0.49490000  1.0
  O  O72  1  0.69608000  0.71767000  0.31809000  1.0
  O  O73  1  0.69603000  0.78234000  0.68193000  1.0
  O  O74  1  0.30392000  0.28233000  0.68191000  1.0
  O  O75  1  0.30398000  0.21767000  0.31807000  1.0
