# generated using pymatgen
data_Al2CdH60C60N6(ClO6)2
_symmetry_space_group_name_H-M   'P 1'
_cell_length_a   15.15510000
_cell_length_b   15.29490000
_cell_length_c   21.00939908
_cell_angle_alpha   79.81717117
_cell_angle_beta   68.90379565
_cell_angle_gamma   60.31650000
_symmetry_Int_Tables_number   1
_chemical_formula_structural   Al2CdH60C60N6(ClO6)2
_chemical_formula_sum   'Al4 Cd2 H120 C120 N12 Cl4 O24'
_cell_volume   3947.26597774
_cell_formula_units_Z   2
loop_
 _symmetry_equiv_pos_site_id
 _symmetry_equiv_pos_as_xyz
  1  'x, y, z'
loop_
 _atom_site_type_symbol
 _atom_site_label
 _atom_site_symmetry_multiplicity
 _atom_site_fract_x
 _atom_site_fract_y
 _atom_site_fract_z
 _atom_site_occupancy
  Al  Al0  1  0.23001000  0.52150000  0.00599000  1.0
  Al  Al1  1  0.75771000  0.97830000  0.49404000  1.0
  Al  Al2  1  0.76999000  0.47850000  0.99401000  1.0
  Al  Al3  1  0.24229000  0.02170000  0.50596000  1.0
  Cd  Cd4  1  0.50000000  0.00000000  0.00000000  1.0
  Cd  Cd5  1  0.50000000  0.50000000  0.50000000  1.0
  H  H6  1  0.23064000  0.87165000  0.98403000  1.0
  H  H7  1  0.08653000  0.62842000  0.51587000  1.0
  H  H8  1  0.76936000  0.12835000  0.01597000  1.0
  H  H9  1  0.91347000  0.37158000  0.48413000  1.0
  H  H10  1  0.29613000  0.99394000  0.98492000  1.0
  H  H11  1  0.27511000  0.50616000  0.51505000  1.0
  H  H12  1  0.70385000  0.00607000  0.01509000  1.0
  H  H13  1  0.72489000  0.49384000  0.48495000  1.0
  H  H14  1  0.50801000  0.63882000  0.03642000  1.0
  H  H15  1  0.18338000  0.86130000  0.46344000  1.0
  H  H16  1  0.49200000  0.36119000  0.96357000  1.0
  H  H17  1  0.81661000  0.13870000  0.53656000  1.0
  H  H18  1  0.53263000  0.54315000  0.63388000  1.0
  H  H19  1  0.70905000  0.95746000  0.86646000  1.0
  H  H20  1  0.46737000  0.45685000  0.36612000  1.0
  H  H21  1  0.29096000  0.04254000  0.13354000  1.0
  H  H22  1  0.55148000  0.57565000  0.93575000  1.0
  H  H23  1  0.06309000  0.92429000  0.56436000  1.0
  H  H24  1  0.44852000  0.42435000  0.06425000  1.0
  H  H25  1  0.93692000  0.07571000  0.43563000  1.0
  H  H26  1  0.48225000  0.63384000  0.87636000  1.0
  H  H27  1  0.99270000  0.86606000  0.62370000  1.0
  H  H28  1  0.51776000  0.36616000  0.12363000  1.0
  H  H29  1  0.00730000  0.13394000  0.37629000  1.0
  H  H30  1  0.53585000  0.50079000  0.88841000  1.0
  H  H31  1  0.92536000  0.99911000  0.61166000  1.0
  H  H32  1  0.46415000  0.49921000  0.11159000  1.0
  H  H33  1  0.07463000  0.00089000  0.38834000  1.0
  H  H34  1  0.34705000  0.21882000  0.10934000  1.0
  H  H35  1  0.67552000  0.28100000  0.39063000  1.0
  H  H36  1  0.65294000  0.78118000  0.89067000  1.0
  H  H37  1  0.32448000  0.71900000  0.60937000  1.0
  H  H38  1  0.25810000  0.26229000  0.19239000  1.0
  H  H39  1  0.71289000  0.23750000  0.30759000  1.0
  H  H40  1  0.74190000  0.73770000  0.80762000  1.0
  H  H41  1  0.28711000  0.76250000  0.69241000  1.0
  H  H42  1  0.36306000  0.29718000  0.15317000  1.0
  H  H43  1  0.81355000  0.20249000  0.34684000  1.0
  H  H44  1  0.63694000  0.70282000  0.84683000  1.0
  H  H45  1  0.18645000  0.79751000  0.65316000  1.0
  H  H46  1  0.45891000  0.54938000  0.76206000  1.0
  H  H47  1  0.76984000  0.95135000  0.73827000  1.0
  H  H48  1  0.54109000  0.45062000  0.23794000  1.0
  H  H49  1  0.23016000  0.04865000  0.26173000  1.0
  H  H50  1  0.10633000  0.82940000  0.09796000  1.0
  H  H51  1  0.03351000  0.67058000  0.40200000  1.0
  H  H52  1  0.89368000  0.17059000  0.90204000  1.0
  H  H53  1  0.96649000  0.32942000  0.59800000  1.0
  H  H54  1  0.21684000  0.78332000  0.12836000  1.0
  H  H55  1  0.12838000  0.71657000  0.37158000  1.0
  H  H56  1  0.78316000  0.21668000  0.87164000  1.0
  H  H57  1  0.87160000  0.28343000  0.62843000  1.0
  H  H58  1  0.12267000  0.73414000  0.16102000  1.0
  H  H59  1  0.01761000  0.76584000  0.33894000  1.0
  H  H60  1  0.87734000  0.26586000  0.83898000  1.0
  H  H61  1  0.98239000  0.23415000  0.66106000  1.0
  H  H62  1  0.89784000  0.58478000  0.10174000  1.0
  H  H63  1  0.58444000  0.91498000  0.39813000  1.0
  H  H64  1  0.10216000  0.41522000  0.89826000  1.0
  H  H65  1  0.41556000  0.08503000  0.60186000  1.0
  H  H66  1  0.91276000  0.47139000  0.14999000  1.0
  H  H67  1  0.53421000  0.02844000  0.34991000  1.0
  H  H68  1  0.08724000  0.52861000  0.85001000  1.0
  H  H69  1  0.46578000  0.97157000  0.65009000  1.0
  H  H70  1  0.94263000  0.47279000  0.06004000  1.0
  H  H71  1  0.47567000  0.02697000  0.43984000  1.0
  H  H72  1  0.05737000  0.52721000  0.93996000  1.0
  H  H73  1  0.52434000  0.97303000  0.56015000  1.0
  H  H74  1  0.45800000  0.29561000  0.82819000  1.0
  H  H75  1  0.58178000  0.20444000  0.67181000  1.0
  H  H76  1  0.54200000  0.70438000  0.17181000  1.0
  H  H77  1  0.41822000  0.79556000  0.32820000  1.0
  H  H78  1  0.35201000  0.32237000  0.79851000  1.0
  H  H79  1  0.47304000  0.17752000  0.70132000  1.0
  H  H80  1  0.64799000  0.67763000  0.20149000  1.0
  H  H81  1  0.52697000  0.82249000  0.29868000  1.0
  H  H82  1  0.35404000  0.26648000  0.88141000  1.0
  H  H83  1  0.50212000  0.23334000  0.61841000  1.0
  H  H84  1  0.64597000  0.73352000  0.11858000  1.0
  H  H85  1  0.49787000  0.76666000  0.38160000  1.0
  H  H86  1  0.56655000  0.76769000  0.02780000  1.0
  H  H87  1  0.36218000  0.73243000  0.47210000  1.0
  H  H88  1  0.43344000  0.23232000  0.97220000  1.0
  H  H89  1  0.63782000  0.26758000  0.52790000  1.0
  H  H90  1  0.12629000  0.76436000  0.86387000  1.0
  H  H91  1  0.75454000  0.73553000  0.63620000  1.0
  H  H92  1  0.87371000  0.23564000  0.13613000  1.0
  H  H93  1  0.24546000  0.26447000  0.36380000  1.0
  H  H94  1  0.18551000  0.69520000  0.78581000  1.0
  H  H95  1  0.66665000  0.80467000  0.71425000  1.0
  H  H96  1  0.81449000  0.30480000  0.21419000  1.0
  H  H97  1  0.33335000  0.19533000  0.28575000  1.0
  H  H98  1  0.26423000  0.72199000  0.81647000  1.0
  H  H99  1  0.80278000  0.77783000  0.68368000  1.0
  H  H100  1  0.73578000  0.27801000  0.18353000  1.0
  H  H101  1  0.19721000  0.22217000  0.31632000  1.0
  H  H102  1  0.32305000  0.45504000  0.61992000  1.0
  H  H103  1  0.39787000  0.04476000  0.87994000  1.0
  H  H104  1  0.67695000  0.54496000  0.38008000  1.0
  H  H105  1  0.60213000  0.95525000  0.12007000  1.0
  H  H106  1  0.23314000  0.46680000  0.74674000  1.0
  H  H107  1  0.44674000  0.03294000  0.75309000  1.0
  H  H108  1  0.76686000  0.53320000  0.25326000  1.0
  H  H109  1  0.55326000  0.96707000  0.24691000  1.0
  H  H110  1  0.00228000  0.44707000  0.26024000  1.0
  H  H111  1  0.70960000  0.05294000  0.23957000  1.0
  H  H112  1  0.99772000  0.55293000  0.73976000  1.0
  H  H113  1  0.29041000  0.94706000  0.76042000  1.0
  H  H114  1  0.13938000  0.21670000  0.11039000  1.0
  H  H115  1  0.46659000  0.28289000  0.38964000  1.0
  H  H116  1  0.86063000  0.78330000  0.88961000  1.0
  H  H117  1  0.53341000  0.71711000  0.61036000  1.0
  H  H118  1  0.05550000  0.12478000  0.20063000  1.0
  H  H119  1  0.38104000  0.37504000  0.29937000  1.0
  H  H120  1  0.94451000  0.87521000  0.79936000  1.0
  H  H121  1  0.61896000  0.62496000  0.70063000  1.0
  H  H122  1  0.92453000  0.34572000  0.34422000  1.0
  H  H123  1  0.61446000  0.15449000  0.15558000  1.0
  H  H124  1  0.07546000  0.65428000  0.65578000  1.0
  H  H125  1  0.38554000  0.84551000  0.84442000  1.0
  C  C126  1  0.30484000  0.84564000  0.99510000  1.0
  C  C127  1  0.14576000  0.65445000  0.50481000  1.0
  C  C128  1  0.69516000  0.15436000  0.00490000  1.0
  C  C129  1  0.85423000  0.34555000  0.49519000  1.0
  C  C130  1  0.06042000  0.47714000  0.08977000  1.0
  C  C131  1  0.62747000  0.02257000  0.41019000  1.0
  C  C132  1  0.93958000  0.52286000  0.91023000  1.0
  C  C133  1  0.37253000  0.97743000  0.58981000  1.0
  C  C134  1  0.22642000  0.60749000  0.87380000  1.0
  C  C135  1  0.70780000  0.89241000  0.62630000  1.0
  C  C136  1  0.77358000  0.39251000  0.12620000  1.0
  C  C137  1  0.29220000  0.10759000  0.37370000  1.0
  C  C138  1  0.36396000  0.74395000  0.01021000  1.0
  C  C139  1  0.11831000  0.75615000  0.48968000  1.0
  C  C140  1  0.63604000  0.25605000  0.98979000  1.0
  C  C141  1  0.88169000  0.24385000  0.51032000  1.0
  C  C142  1  0.23374000  0.37212000  0.11106000  1.0
  C  C143  1  0.71698000  0.12768000  0.38893000  1.0
  C  C144  1  0.76626000  0.62788000  0.88894000  1.0
  C  C145  1  0.28302000  0.87232000  0.61108000  1.0
  C  C146  1  0.29285000  0.51234000  0.84092000  1.0
  C  C147  1  0.64612000  0.98760000  0.65915000  1.0
  C  C148  1  0.70716000  0.48766000  0.15908000  1.0
  C  C149  1  0.35387000  0.01240000  0.34085000  1.0
  C  C150  1  0.34109000  0.91354000  0.99433000  1.0
  C  C151  1  0.24913000  0.58655000  0.50557000  1.0
  C  C152  1  0.65890000  0.08646000  0.00567000  1.0
  C  C153  1  0.75087000  0.41345000  0.49443000  1.0
  C  C154  1  0.22913000  0.68094000  0.06152000  1.0
  C  C155  1  0.97168000  0.81903000  0.43844000  1.0
  C  C156  1  0.77088000  0.31905000  0.93848000  1.0
  C  C157  1  0.02832000  0.18097000  0.56156000  1.0
  C  C158  1  0.12450000  0.39873000  0.12560000  1.0
  C  C159  1  0.64895000  0.10098000  0.37434000  1.0
  C  C160  1  0.87550000  0.60127000  0.87441000  1.0
  C  C161  1  0.35105000  0.89902000  0.62566000  1.0
  C  C162  1  0.39285000  0.58591000  0.96715000  1.0
  C  C163  1  0.94615000  0.91403000  0.53286000  1.0
  C  C164  1  0.60716000  0.41409000  0.03284000  1.0
  C  C165  1  0.05385000  0.08597000  0.46714000  1.0
  C  C166  1  0.32725000  0.66962000  0.01234000  1.0
  C  C167  1  0.00944000  0.83047000  0.48755000  1.0
  C  C168  1  0.67275000  0.33038000  0.98766000  1.0
  C  C169  1  0.99057000  0.16953000  0.51244000  1.0
  C  C170  1  0.31130000  0.42181000  0.87862000  1.0
  C  C171  1  0.61193000  0.07807000  0.62136000  1.0
  C  C172  1  0.68870000  0.57819000  0.12138000  1.0
  C  C173  1  0.38807000  0.92193000  0.37864000  1.0
  C  C174  1  0.45855000  0.71620000  0.02378000  1.0
  C  C175  1  0.19871000  0.78391000  0.47610000  1.0
  C  C176  1  0.54145000  0.28380000  0.97622000  1.0
  C  C177  1  0.80130000  0.21610000  0.52389000  1.0
  C  C178  1  0.46764000  0.52469000  0.66157000  1.0
  C  C179  1  0.65340000  0.97580000  0.83868000  1.0
  C  C180  1  0.53236000  0.47531000  0.33843000  1.0
  C  C181  1  0.34659000  0.02420000  0.16133000  1.0
  C  C182  1  0.49660000  0.57291000  0.91449000  1.0
  C  C183  1  0.98425000  0.92700000  0.58558000  1.0
  C  C184  1  0.50340000  0.42709000  0.08551000  1.0
  C  C185  1  0.01574000  0.07300000  0.41442000  1.0
  C  C186  1  0.30388000  0.28317000  0.14456000  1.0
  C  C187  1  0.73176000  0.21660000  0.35542000  1.0
  C  C188  1  0.69612000  0.71683000  0.85544000  1.0
  C  C189  1  0.26824000  0.78340000  0.64458000  1.0
  C  C190  1  0.33959000  0.50802000  0.76543000  1.0
  C  C191  1  0.61287000  0.99213000  0.73464000  1.0
  C  C192  1  0.66041000  0.49198000  0.23457000  1.0
  C  C193  1  0.38714000  0.00787000  0.26536000  1.0
  C  C194  1  0.42553000  0.52914000  0.73242000  1.0
  C  C195  1  0.68669000  0.97135000  0.76780000  1.0
  C  C196  1  0.57448000  0.47086000  0.26757000  1.0
  C  C197  1  0.31332000  0.02865000  0.23220000  1.0
  C  C198  1  0.16627000  0.76159000  0.11563000  1.0
  C  C199  1  0.04339000  0.73835000  0.38432000  1.0
  C  C200  1  0.83373000  0.23840000  0.88437000  1.0
  C  C201  1  0.95661000  0.26165000  0.61568000  1.0
  C  C202  1  0.94652000  0.50268000  0.10245000  1.0
  C  C203  1  0.55175000  0.99708000  0.39745000  1.0
  C  C204  1  0.05348000  0.49733000  0.89755000  1.0
  C  C205  1  0.44825000  0.00293000  0.60254000  1.0
  C  C206  1  0.37126000  0.32076000  0.84434000  1.0
  C  C207  1  0.53648000  0.17917000  0.65556000  1.0
  C  C208  1  0.62874000  0.67925000  0.15566000  1.0
  C  C209  1  0.46352000  0.82083000  0.34444000  1.0
  C  C210  1  0.07718000  0.34051000  0.17769000  1.0
  C  C211  1  0.59543000  0.15924000  0.32224000  1.0
  C  C212  1  0.92282000  0.65949000  0.82231000  1.0
  C  C213  1  0.40459000  0.84076000  0.67775000  1.0
  C  C214  1  0.49116000  0.78783000  0.02008000  1.0
  C  C215  1  0.29923000  0.71228000  0.47982000  1.0
  C  C216  1  0.50883000  0.21217000  0.97992000  1.0
  C  C217  1  0.70076000  0.28772000  0.52018000  1.0
  C  C218  1  0.19825000  0.70272000  0.83232000  1.0
  C  C219  1  0.73339000  0.79716000  0.66778000  1.0
  C  C220  1  0.80175000  0.29728000  0.16768000  1.0
  C  C221  1  0.26661000  0.20284000  0.33222000  1.0
  C  C222  1  0.34872000  0.47772000  0.65365000  1.0
  C  C223  1  0.47987000  0.02232000  0.84630000  1.0
  C  C224  1  0.65128000  0.52228000  0.34635000  1.0
  C  C225  1  0.52013000  0.97769000  0.15371000  1.0
  C  C226  1  0.30080000  0.48253000  0.72402000  1.0
  C  C227  1  0.50727000  0.01741000  0.77591000  1.0
  C  C228  1  0.69920000  0.51748000  0.27598000  1.0
  C  C229  1  0.49273000  0.98259000  0.22409000  1.0
  C  C230  1  0.01591000  0.37575000  0.24482000  1.0
  C  C231  1  0.63648000  0.12418000  0.25505000  1.0
  C  C232  1  0.98410000  0.62425000  0.75518000  1.0
  C  C233  1  0.36352000  0.87582000  0.74495000  1.0
  C  C234  1  0.09142000  0.24817000  0.16169000  1.0
  C  C235  1  0.50135000  0.25157000  0.33828000  1.0
  C  C236  1  0.90858000  0.75183000  0.83831000  1.0
  C  C237  1  0.49865000  0.74843000  0.66172000  1.0
  C  C238  1  0.04522000  0.19692000  0.21227000  1.0
  C  C239  1  0.45448000  0.30293000  0.28768000  1.0
  C  C240  1  0.95478000  0.80308000  0.78773000  1.0
  C  C241  1  0.54553000  0.69707000  0.71231000  1.0
  C  C242  1  0.97261000  0.31914000  0.29174000  1.0
  C  C243  1  0.58349000  0.18091000  0.20811000  1.0
  C  C244  1  0.02739000  0.68086000  0.70826000  1.0
  C  C245  1  0.41651000  0.81908000  0.79189000  1.0
  N  N246  1  0.43344000  0.88506000  0.00588000  1.0
  N  N247  1  0.32451000  0.61506000  0.49403000  1.0
  N  N248  1  0.56655000  0.11495000  0.99412000  1.0
  N  N249  1  0.67548000  0.38494000  0.50597000  1.0
  N  N250  1  0.43036000  0.49902000  0.62277000  1.0
  N  N251  1  0.55174000  0.00125000  0.87733000  1.0
  N  N252  1  0.56964000  0.50098000  0.37723000  1.0
  N  N253  1  0.44826000  0.99875000  0.12267000  1.0
  N  N254  1  0.98651000  0.23049000  0.27656000  1.0
  N  N255  1  0.49358000  0.26951000  0.22335000  1.0
  N  N256  1  0.01350000  0.76951000  0.72343000  1.0
  N  N257  1  0.50641000  0.73049000  0.77665000  1.0
  Cl  Cl258  1  0.68982000  0.85280000  0.99758000  1.0
  Cl  Cl259  1  0.54028000  0.64717000  0.50241000  1.0
  Cl  Cl260  1  0.31017000  0.14720000  0.00243000  1.0
  Cl  Cl261  1  0.45972000  0.35283000  0.49759000  1.0
  O  O262  1  0.18753000  0.62400000  0.06541000  1.0
  O  O263  1  0.87699000  0.87582000  0.43461000  1.0
  O  O264  1  0.81248000  0.37599000  0.93459000  1.0
  O  O265  1  0.12300000  0.12418000  0.56540000  1.0
  O  O266  1  0.36680000  0.51749000  0.96763000  1.0
  O  O267  1  0.85212000  0.98236000  0.53244000  1.0
  O  O268  1  0.63321000  0.48251000  0.03237000  1.0
  O  O269  1  0.14787000  0.01764000  0.46756000  1.0
  O  O270  1  0.09441000  0.52984000  0.04268000  1.0
  O  O271  1  0.66707000  0.96991000  0.45733000  1.0
  O  O272  1  0.90560000  0.47015000  0.95732000  1.0
  O  O273  1  0.33292000  0.03009000  0.54267000  1.0
  O  O274  1  0.18477000  0.61926000  0.93874000  1.0
  O  O275  1  0.74297000  0.88059000  0.56136000  1.0
  O  O276  1  0.81524000  0.38074000  0.06126000  1.0
  O  O277  1  0.25702000  0.11941000  0.43865000  1.0
  O  O278  1  0.28019000  0.41973000  0.06830000  1.0
  O  O279  1  0.76828000  0.08007000  0.43175000  1.0
  O  O280  1  0.71982000  0.58026000  0.93170000  1.0
  O  O281  1  0.23172000  0.91993000  0.56825000  1.0
  O  O282  1  0.27996000  0.41907000  0.94393000  1.0
  O  O283  1  0.64332000  0.08073000  0.55604000  1.0
  O  O284  1  0.72004000  0.58093000  0.05607000  1.0
  O  O285  1  0.35668000  0.91927000  0.44396000  1.0
