# generated using pymatgen
data_Zr3H14C25NO18
_symmetry_space_group_name_H-M   'P 1'
_cell_length_a   14.75480000
_cell_length_b   14.75685928
_cell_length_c   14.75778629
_cell_angle_alpha   60.65595089
_cell_angle_beta   60.03007128
_cell_angle_gamma   60.02004391
_symmetry_Int_Tables_number   1
_chemical_formula_structural   Zr3H14C25NO18
_chemical_formula_sum   'Zr6 H28 C50 N2 O36'
_cell_volume   2284.05364912
_cell_formula_units_Z   2
loop_
 _symmetry_equiv_pos_site_id
 _symmetry_equiv_pos_as_xyz
  1  'x, y, z'
loop_
 _atom_site_type_symbol
 _atom_site_label
 _atom_site_symmetry_multiplicity
 _atom_site_fract_x
 _atom_site_fract_y
 _atom_site_fract_z
 _atom_site_occupancy
  Zr  Zr0  1  0.38038000  0.11797000  0.38185000  1.0
  Zr  Zr1  1  0.62047000  0.88138000  0.61863000  1.0
  Zr  Zr2  1  0.62045000  0.11740000  0.38246000  1.0
  Zr  Zr3  1  0.38044000  0.88062000  0.61919000  1.0
  Zr  Zr4  1  0.37922000  0.11983000  0.62095000  1.0
  Zr  Zr5  1  0.62025000  0.87887000  0.38019000  1.0
  H  H6  1  0.40459000  0.28110000  0.40969000  1.0
  H  H7  1  0.40462000  0.90854000  0.78221000  1.0
  H  H8  1  0.78330000  0.90453000  0.40557000  1.0
  H  H9  1  0.40662000  0.90421000  0.40562000  1.0
  H  H10  1  0.90894000  0.58295000  0.64873000  1.0
  H  H11  1  0.08245000  0.40738000  0.35949000  1.0
  H  H12  1  0.07873000  0.41236000  0.64994000  1.0
  H  H13  1  0.91263000  0.57872000  0.35786000  1.0
  H  H14  1  0.64721000  0.85751000  0.91032000  1.0
  H  H15  1  0.35900000  0.14923000  0.08366000  1.0
  H  H16  1  0.64837000  0.85667000  0.08045000  1.0
  H  H17  1  0.35861000  0.15102000  0.91231000  1.0
  H  H18  1  0.91323000  0.85631000  0.08033000  1.0
  H  H19  1  0.07668000  0.15087000  0.91192000  1.0
  H  H20  1  0.08313000  0.85800000  0.90911000  1.0
  H  H21  1  0.90664000  0.14981000  0.08226000  1.0
  H  H22  1  0.35780000  0.41187000  0.65111000  1.0
  H  H23  1  0.64960000  0.57806000  0.35891000  1.0
  H  H24  1  0.35806000  0.58331000  0.64927000  1.0
  H  H25  1  0.64859000  0.40780000  0.35981000  1.0
  H  H26  1  0.33820000  0.36907000  0.03901000  1.0
  H  H27  1  0.25349000  0.45435000  0.12537000  1.0
  H  H28  1  0.25348000  0.62478000  0.95632000  1.0
  H  H29  1  0.33724000  0.53974000  0.86976000  1.0
  H  H30  1  0.91017000  0.14833000  0.36108000  1.0
  H  H31  1  0.08126000  0.85972000  0.64892000  1.0
  H  H32  1  0.08074000  0.14839000  0.36124000  1.0
  H  H33  1  0.91059000  0.85969000  0.64899000  1.0
  C  C34  1  0.19176000  0.30002000  0.50446000  1.0
  C  C35  1  0.50247000  0.00492000  0.80073000  1.0
  C  C36  1  0.80132000  0.69236000  0.50193000  1.0
  C  C37  1  0.50393000  0.00216000  0.19288000  1.0
  C  C38  1  0.50453000  0.29821000  0.19550000  1.0
  C  C39  1  0.19229000  0.00304000  0.50425000  1.0
  C  C40  1  0.50542000  0.69385000  0.79888000  1.0
  C  C41  1  0.80110000  0.00302000  0.50411000  1.0
  C  C42  1  0.50269000  0.29935000  0.50604000  1.0
  C  C43  1  0.80095000  0.00113000  0.19324000  1.0
  C  C44  1  0.50388000  0.69160000  0.50335000  1.0
  C  C45  1  0.19158000  0.00357000  0.80113000  1.0
  C  C46  1  0.90176000  0.59055000  0.50288000  1.0
  C  C47  1  0.09026000  0.40071000  0.50451000  1.0
  C  C48  1  0.94803000  0.54429000  0.58548000  1.0
  C  C49  1  0.04384000  0.44701000  0.42195000  1.0
  C  C50  1  0.04182000  0.44969000  0.58629000  1.0
  C  C51  1  0.95002000  0.54151000  0.42112000  1.0
  C  C52  1  0.50353000  0.00508000  0.90127000  1.0
  C  C53  1  0.50436000  0.00352000  0.09087000  1.0
  C  C54  1  0.58543000  0.92165000  0.94818000  1.0
  C  C55  1  0.42222000  0.08665000  0.04410000  1.0
  C  C56  1  0.58578000  0.92099000  0.04255000  1.0
  C  C57  1  0.42184000  0.08751000  0.94968000  1.0
  C  C58  1  0.90101000  0.00254000  0.09109000  1.0
  C  C59  1  0.08969000  0.00410000  0.90145000  1.0
  C  C60  1  0.94999000  0.92016000  0.04265000  1.0
  C  C61  1  0.04032000  0.08672000  0.94965000  1.0
  C  C62  1  0.04387000  0.92098000  0.94827000  1.0
  C  C63  1  0.94638000  0.08599000  0.04411000  1.0
  C  C64  1  0.50377000  0.39983000  0.50627000  1.0
  C  C65  1  0.50445000  0.58955000  0.50461000  1.0
  C  C66  1  0.42145000  0.44886000  0.58806000  1.0
  C  C67  1  0.58658000  0.54055000  0.42278000  1.0
  C  C68  1  0.42174000  0.54334000  0.58714000  1.0
  C  C69  1  0.58630000  0.44611000  0.42349000  1.0
  C  C70  1  0.50653000  0.39858000  0.09532000  1.0
  C  C71  1  0.50792000  0.59300000  0.89861000  1.0
  C  C72  1  0.42814000  0.44897000  0.04372000  1.0
  C  C73  1  0.58795000  0.54268000  0.95037000  1.0
  C  C74  1  0.42841000  0.54258000  0.94981000  1.0
  C  C75  1  0.58660000  0.45018000  0.04532000  1.0
  C  C76  1  0.32516000  0.44344000  0.05030000  1.0
  C  C77  1  0.32503000  0.54985000  0.94443000  1.0
  C  C78  1  0.90116000  0.00405000  0.50508000  1.0
  C  C79  1  0.09024000  0.00408000  0.50512000  1.0
  C  C80  1  0.94837000  0.08584000  0.42368000  1.0
  C  C81  1  0.04280000  0.92248000  0.58661000  1.0
  C  C82  1  0.04255000  0.08583000  0.42376000  1.0
  C  C83  1  0.94862000  0.92243000  0.58665000  1.0
  N  N84  1  0.67828000  0.58741000  0.90544000  1.0
  N  N85  1  0.67298000  0.40882000  0.09394000  1.0
  O  O86  1  0.23313000  0.26051000  0.42643000  1.0
  O  O87  1  0.57930000  0.92784000  0.76043000  1.0
  O  O88  1  0.76193000  0.73383000  0.57786000  1.0
  O  O89  1  0.42648000  0.07891000  0.23377000  1.0
  O  O90  1  0.58106000  0.25785000  0.23510000  1.0
  O  O91  1  0.23277000  0.92598000  0.57971000  1.0
  O  O92  1  0.42664000  0.73079000  0.76328000  1.0
  O  O93  1  0.76228000  0.07829000  0.42698000  1.0
  O  O94  1  0.42439000  0.26162000  0.58181000  1.0
  O  O95  1  0.76242000  0.92361000  0.23280000  1.0
  O  O96  1  0.57974000  0.73161000  0.42549000  1.0
  O  O97  1  0.23107000  0.08010000  0.76233000  1.0
  O  O98  1  0.76186000  0.07682000  0.23493000  1.0
  O  O99  1  0.42623000  0.73265000  0.57992000  1.0
  O  O100  1  0.23331000  0.92507000  0.76211000  1.0
  O  O101  1  0.57938000  0.25906000  0.42893000  1.0
  O  O102  1  0.42551000  0.26290000  0.23256000  1.0
  O  O103  1  0.76215000  0.92603000  0.57951000  1.0
  O  O104  1  0.58072000  0.73461000  0.75993000  1.0
  O  O105  1  0.23291000  0.07835000  0.42706000  1.0
  O  O106  1  0.57959000  0.92405000  0.23304000  1.0
  O  O107  1  0.23132000  0.26139000  0.58091000  1.0
  O  O108  1  0.42414000  0.08067000  0.76298000  1.0
  O  O109  1  0.76265000  0.73184000  0.42452000  1.0
  O  O110  1  0.43286000  0.93143000  0.43275000  1.0
  O  O111  1  0.70274000  0.93159000  0.43273000  1.0
  O  O112  1  0.43236000  0.93289000  0.70219000  1.0
  O  O113  1  0.43241000  0.20105000  0.43393000  1.0
  O  O114  1  0.54915000  0.04942000  0.55059000  1.0
  O  O115  1  0.35068000  0.04912000  0.55032000  1.0
  O  O116  1  0.54989000  0.85092000  0.54935000  1.0
  O  O117  1  0.54981000  0.04799000  0.35225000  1.0
  O  O118  1  0.76463000  0.55096000  0.83571000  1.0
  O  O119  1  0.66081000  0.65352000  0.94536000  1.0
  O  O120  1  0.64663000  0.44463000  0.16685000  1.0
  O  O121  1  0.76491000  0.34631000  0.05392000  1.0
