# generated using pymatgen
data_Zn4H6C24S6Cl2O19
_symmetry_space_group_name_H-M   'P 1'
_cell_length_a   19.62650000
_cell_length_b   19.63960000
_cell_length_c   33.36890000
_cell_angle_alpha   78.98950000
_cell_angle_beta   79.07690000
_cell_angle_gamma   63.95160000
_symmetry_Int_Tables_number   1
_chemical_formula_structural   Zn4H6C24S6Cl2O19
_chemical_formula_sum   'Zn16 H24 C96 S24 Cl8 O76'
_cell_volume   11261.39289181
_cell_formula_units_Z   4
loop_
 _symmetry_equiv_pos_site_id
 _symmetry_equiv_pos_as_xyz
  1  'x, y, z'
loop_
 _atom_site_type_symbol
 _atom_site_label
 _atom_site_symmetry_multiplicity
 _atom_site_fract_x
 _atom_site_fract_y
 _atom_site_fract_z
 _atom_site_occupancy
  Zn  Zn0  1  0.05666000  0.40181000  0.47669000  1.0
  Zn  Zn1  1  0.98478000  0.48445000  0.56059000  1.0
  Zn  Zn2  1  0.05847000  0.56150000  0.48168000  1.0
  Zn  Zn3  1  0.89833000  0.55239000  0.48133000  1.0
  Zn  Zn4  1  0.69806000  0.34929000  0.27146000  1.0
  Zn  Zn5  1  0.68992000  0.19026000  0.26573000  1.0
  Zn  Zn6  1  0.77067000  0.26607000  0.18980000  1.0
  Zn  Zn7  1  0.84829000  0.19161000  0.27373000  1.0
  Zn  Zn8  1  0.26540000  0.76617000  0.68901000  1.0
  Zn  Zn9  1  0.34800000  0.69806000  0.77163000  1.0
  Zn  Zn10  1  0.19137000  0.84875000  0.77029000  1.0
  Zn  Zn11  1  0.19311000  0.68460000  0.76683000  1.0
  Zn  Zn12  1  0.56252000  0.05866000  0.98399000  1.0
  Zn  Zn13  1  0.40151000  0.05415000  0.97719000  1.0
  Zn  Zn14  1  0.55622000  0.90077000  0.97776000  1.0
  Zn  Zn15  1  0.48245000  0.98206000  0.05947000  1.0
  H  H16  1  0.75149000  0.44913000  0.34884000  1.0
  H  H17  1  0.00264000  0.30123000  0.39981000  1.0
  H  H18  1  0.20094000  0.70053000  0.60104000  1.0
  H  H19  1  0.04191000  0.55678000  0.64709000  1.0
  H  H20  1  0.46428000  0.24229000  0.33976000  1.0
  H  H21  1  0.48191000  0.69992000  0.60098000  1.0
  H  H22  1  0.20669000  0.98002000  0.60073000  1.0
  H  H23  1  0.94953000  0.96204000  0.34300000  1.0
  H  H24  1  0.65264000  0.14371000  0.04952000  1.0
  H  H25  1  0.59892000  0.10584000  0.20050000  1.0
  H  H26  1  0.54872000  0.76996000  0.14774000  1.0
  H  H27  1  0.15933000  0.14496000  0.04137000  1.0
  H  H28  1  0.30100000  0.00116000  0.90079000  1.0
  H  H29  1  0.44113000  0.74908000  0.85078000  1.0
  H  H30  1  0.30352000  0.28043000  0.90212000  1.0
  H  H31  1  0.78746000  0.00951000  0.90527000  1.0
  H  H32  1  0.24140000  0.62540000  0.36476000  1.0
  H  H33  1  0.86600000  0.42843000  0.66014000  1.0
  H  H34  1  0.09598000  0.31975000  0.68791000  1.0
  H  H35  1  0.75852000  0.73065000  0.35827000  1.0
  H  H36  1  0.82733000  0.44570000  0.06640000  1.0
  H  H37  1  0.13011000  0.15735000  0.25172000  1.0
  H  H38  1  0.56526000  0.43590000  0.80600000  1.0
  H  H39  1  0.92091000  0.69637000  0.79436000  1.0
  C  C40  1  0.06852000  0.31705000  0.55902000  1.0
  C  C41  1  0.06740000  0.57379000  0.56681000  1.0
  C  C42  1  0.18281000  0.44112000  0.43640000  1.0
  C  C43  1  0.93347000  0.68081000  0.43847000  1.0
  C  C44  1  0.92988000  0.42913000  0.43269000  1.0
  C  C45  1  0.81920000  0.55727000  0.56527000  1.0
  C  C46  1  0.56910000  0.31158000  0.31185000  1.0
  C  C47  1  0.68194000  0.18366000  0.17943000  1.0
  C  C48  1  0.69418000  0.43311000  0.18896000  1.0
  C  C49  1  0.93635000  0.18543000  0.19182000  1.0
  C  C50  1  0.82051000  0.31722000  0.31979000  1.0
  C  C51  1  0.80931000  0.06383000  0.31085000  1.0
  C  C52  1  0.43217000  0.69569000  0.68798000  1.0
  C  C53  1  0.31229000  0.82354000  0.81911000  1.0
  C  C54  1  0.18392000  0.93412000  0.68728000  1.0
  C  C55  1  0.06582000  0.80692000  0.80913000  1.0
  C  C56  1  0.18272000  0.67642000  0.68129000  1.0
  C  C57  1  0.31424000  0.56736000  0.81237000  1.0
  C  C58  1  0.43956000  0.18411000  0.93996000  1.0
  C  C59  1  0.43292000  0.92962000  0.92949000  1.0
  C  C60  1  0.68698000  0.93679000  0.94035000  1.0
  C  C61  1  0.55876000  0.81544000  0.06078000  1.0
  C  C62  1  0.56773000  0.06778000  0.07050000  1.0
  C  C63  1  0.31467000  0.05859000  0.05975000  1.0
  C  C64  1  0.90015000  0.40428000  0.40255000  1.0
  C  C65  1  0.85250000  0.34448000  0.34761000  1.0
  C  C66  1  0.82885000  0.44704000  0.38734000  1.0
  C  C67  1  0.92487000  0.30285000  0.36175000  1.0
  C  C68  1  0.80652000  0.41647000  0.36048000  1.0
  C  C69  1  0.94700000  0.33321000  0.38879000  1.0
  C  C70  1  0.09635000  0.60378000  0.59479000  1.0
  C  C71  1  0.14980000  0.65034000  0.65336000  1.0
  C  C72  1  0.14097000  0.64594000  0.58169000  1.0
  C  C73  1  0.10365000  0.60976000  0.66643000  1.0
  C  C74  1  0.16650000  0.66815000  0.61103000  1.0
  C  C75  1  0.07789000  0.58762000  0.63716000  1.0
  C  C76  1  0.30662000  0.45632000  0.40154000  1.0
  C  C77  1  0.44830000  0.29834000  0.34856000  1.0
  C  C78  1  0.25969000  0.41753000  0.41303000  1.0
  C  C79  1  0.49434000  0.33729000  0.33724000  1.0
  C  C80  1  0.38031000  0.34167000  0.37228000  1.0
  C  C81  1  0.37594000  0.41289000  0.37831000  1.0
  C  C82  1  0.72729000  0.58243000  0.63376000  1.0
  C  C83  1  0.52538000  0.67548000  0.62186000  1.0
  C  C84  1  0.74514000  0.58617000  0.59114000  1.0
  C  C85  1  0.50834000  0.67076000  0.66419000  1.0
  C  C86  1  0.60526000  0.64414000  0.61084000  1.0
  C  C87  1  0.64713000  0.61593000  0.64507000  1.0
  C  C88  1  0.07483000  0.22778000  0.62790000  1.0
  C  C89  1  0.17484000  0.02477000  0.62051000  1.0
  C  C90  1  0.08933000  0.24307000  0.58536000  1.0
  C  C91  1  0.15986000  0.00977000  0.66260000  1.0
  C  C92  1  0.14330000  0.10422000  0.60816000  1.0
  C  C93  1  0.10533000  0.14809000  0.64120000  1.0
  C  C94  1  0.83463000  0.80134000  0.39963000  1.0
  C  C95  1  0.90256000  0.94477000  0.34990000  1.0
  C  C96  1  0.90528000  0.75660000  0.41396000  1.0
  C  C97  1  0.83221000  0.98894000  0.33600000  1.0
  C  C98  1  0.90293000  0.87668000  0.37323000  1.0
  C  C99  1  0.83294000  0.87043000  0.37638000  1.0
  C  C100  1  0.65466000  0.15484000  0.14995000  1.0
  C  C101  1  0.59578000  0.09584000  0.10002000  1.0
  C  C102  1  0.67030000  0.16513000  0.10663000  1.0
  C  C103  1  0.58076000  0.08505000  0.14335000  1.0
  C  C104  1  0.64071000  0.13572000  0.08286000  1.0
  C  C105  1  0.61024000  0.11441000  0.16715000  1.0
  C  C106  1  0.67420000  0.52226000  0.11962000  1.0
  C  C107  1  0.57618000  0.72513000  0.12776000  1.0
  C  C108  1  0.66675000  0.50671000  0.16239000  1.0
  C  C109  1  0.58398000  0.73992000  0.08534000  1.0
  C  C110  1  0.60849000  0.64571000  0.14007000  1.0
  C  C111  1  0.64057000  0.60192000  0.10669000  1.0
  C  C112  1  0.08497000  0.11538000  0.17979000  1.0
  C  C113  1  0.16876000  0.12468000  0.07337000  1.0
  C  C114  1  0.01228000  0.15765000  0.16748000  1.0
  C  C115  1  0.24059000  0.08262000  0.08577000  1.0
  C  C116  1  0.11229000  0.13621000  0.10775000  1.0
  C  C117  1  0.14253000  0.10278000  0.14558000  1.0
  C  C118  1  0.33935000  0.85299000  0.84839000  1.0
  C  C119  1  0.40412000  0.89859000  0.90192000  1.0
  C  C120  1  0.29903000  0.92473000  0.86324000  1.0
  C  C121  1  0.44375000  0.82607000  0.88781000  1.0
  C  C122  1  0.33194000  0.94587000  0.88940000  1.0
  C  C123  1  0.41083000  0.80499000  0.86157000  1.0
  C  C124  1  0.40865000  0.45238000  0.85640000  1.0
  C  C125  1  0.34755000  0.30120000  0.89884000  1.0
  C  C126  1  0.34062000  0.49362000  0.83890000  1.0
  C  C127  1  0.41535000  0.26012000  0.91585000  1.0
  C  C128  1  0.34520000  0.37133000  0.87743000  1.0
  C  C129  1  0.41147000  0.38210000  0.87858000  1.0
  C  C130  1  0.94773000  0.78795000  0.85083000  1.0
  C  C131  1  0.80503000  0.95108000  0.89963000  1.0
  C  C132  1  0.99186000  0.82882000  0.83534000  1.0
  C  C133  1  0.76161000  0.91024000  0.91502000  1.0
  C  C134  1  0.87284000  0.90613000  0.87641000  1.0
  C  C135  1  0.87938000  0.83210000  0.87451000  1.0
  S  S136  1  0.30024000  0.32867000  0.39581000  1.0
  S  S137  1  0.45637000  0.42575000  0.35529000  1.0
  S  S138  1  0.66478000  0.63147000  0.56525000  1.0
  S  S139  1  0.58808000  0.62934000  0.69082000  1.0
  S  S140  1  0.13941000  0.16101000  0.56176000  1.0
  S  S141  1  0.10763000  0.09103000  0.68746000  1.0
  S  S142  1  0.96881000  0.79874000  0.39939000  1.0
  S  S143  1  0.76637000  0.94903000  0.35092000  1.0
  S  S144  1  0.61863000  0.58860000  0.18652000  1.0
  S  S145  1  0.62953000  0.65870000  0.06011000  1.0
  S  S146  1  0.01420000  0.18127000  0.11469000  1.0
  S  S147  1  0.24058000  0.05653000  0.13865000  1.0
  S  S148  1  0.28029000  0.44768000  0.84985000  1.0
  S  S149  1  0.47618000  0.30605000  0.90650000  1.0
  S  S150  1  0.95065000  0.91993000  0.84975000  1.0
  S  S151  1  0.80210000  0.81778000  0.90172000  1.0
  S  S152  1  0.29100000  0.54567000  0.41508000  1.0
  S  S153  1  0.79041000  0.54511000  0.67240000  1.0
  S  S154  1  0.01918000  0.29448000  0.66298000  1.0
  S  S155  1  0.75161000  0.78320000  0.40988000  1.0
  S  S156  1  0.71376000  0.45606000  0.08288000  1.0
  S  S157  1  0.10897000  0.07410000  0.23020000  1.0
  S  S158  1  0.48283000  0.48117000  0.85628000  1.0
  S  S159  1  0.97106000  0.69109000  0.84671000  1.0
  Cl  Cl160  1  0.76720000  0.53770000  0.39878000  1.0
  Cl  Cl161  1  0.99061000  0.21628000  0.34630000  1.0
  Cl  Cl162  1  0.16595000  0.67364000  0.53100000  1.0
  Cl  Cl163  1  0.07444000  0.58695000  0.71730000  1.0
  Cl  Cl164  1  0.72520000  0.21154000  0.08032000  1.0
  Cl  Cl165  1  0.52797000  0.03618000  0.16999000  1.0
  Cl  Cl166  1  0.20906000  0.98960000  0.85174000  1.0
  Cl  Cl167  1  0.53129000  0.75926000  0.90145000  1.0
  O  O168  1  0.00041000  0.49877000  0.49996000  1.0
  O  O169  1  0.07425000  0.31433000  0.52044000  1.0
  O  O170  1  0.01963000  0.54586000  0.58385000  1.0
  O  O171  1  0.14735000  0.51082000  0.44232000  1.0
  O  O172  1  0.04810000  0.37562000  0.57699000  1.0
  O  O173  1  0.15880000  0.38859000  0.44803000  1.0
  O  O174  1  0.09289000  0.57723000  0.52885000  1.0
  O  O175  1  0.99614000  0.66108000  0.45313000  1.0
  O  O176  1  0.88220000  0.48255000  0.45317000  1.0
  O  O177  1  0.89443000  0.64222000  0.44222000  1.0
  O  O178  1  0.00142000  0.39312000  0.43576000  1.0
  O  O179  1  0.87746000  0.50779000  0.58212000  1.0
  O  O180  1  0.81756000  0.58425000  0.52716000  1.0
  O  O181  1  0.75112000  0.24995000  0.25016000  1.0
  O  O182  1  0.60411000  0.35483000  0.30718000  1.0
  O  O183  1  0.67069000  0.16021000  0.21754000  1.0
  O  O184  1  0.74255000  0.37508000  0.17198000  1.0
  O  O185  1  0.59173000  0.24906000  0.29681000  1.0
  O  O186  1  0.66714000  0.43520000  0.22701000  1.0
  O  O187  1  0.71326000  0.22904000  0.16470000  1.0
  O  O188  1  0.87975000  0.21127000  0.17098000  1.0
  O  O189  1  0.85143000  0.24636000  0.31625000  1.0
  O  O190  1  0.93396000  0.18227000  0.23043000  1.0
  O  O191  1  0.76329000  0.36785000  0.30233000  1.0
  O  O192  1  0.74082000  0.09529000  0.30159000  1.0
  O  O193  1  0.85973000  0.09045000  0.30061000  1.0
  O  O194  1  0.24901000  0.74964000  0.74932000  1.0
  O  O195  1  0.37451000  0.72169000  0.66796000  1.0
  O  O196  1  0.35284000  0.75417000  0.81280000  1.0
  O  O197  1  0.16171000  0.93415000  0.72586000  1.0
  O  O198  1  0.43095000  0.68861000  0.72701000  1.0
  O  O199  1  0.22451000  0.87626000  0.66810000  1.0
  O  O200  1  0.25251000  0.86926000  0.80258000  1.0
  O  O201  1  0.09760000  0.85285000  0.80553000  1.0
  O  O202  1  0.18317000  0.64733000  0.71874000  1.0
  O  O203  1  0.09040000  0.74624000  0.79240000  1.0
  O  O204  1  0.20896000  0.72574000  0.66468000  1.0
  O  O205  1  0.36272000  0.59509000  0.79818000  1.0
  O  O206  1  0.24435000  0.59556000  0.80568000  1.0
  O  O207  1  0.50025000  0.99983000  0.99932000  1.0
  O  O208  1  0.50401000  0.15803000  0.95384000  1.0
  O  O209  1  0.38508000  0.99177000  0.94355000  1.0
  O  O210  1  0.65835000  0.88782000  0.95147000  1.0
  O  O211  1  0.39451000  0.15124000  0.94472000  1.0
  O  O212  1  0.65760000  0.00540000  0.94889000  1.0
  O  O213  1  0.50208000  0.89291000  0.93653000  1.0
  O  O214  1  0.56845000  0.81571000  0.02176000  1.0
  O  O215  1  0.52124000  0.03767000  0.08514000  1.0
  O  O216  1  0.53004000  0.87341000  0.08053000  1.0
  O  O217  1  0.59298000  0.07685000  0.03256000  1.0
  O  O218  1  0.31420000  0.07929000  0.02113000  1.0
  O  O219  1  0.37310000  0.01868000  0.07894000  1.0
  O  O220  1  0.21983000  0.60649000  0.39106000  1.0
  O  O221  1  0.26585000  0.54925000  0.45798000  1.0
  O  O222  1  0.35730000  0.55883000  0.39587000  1.0
  O  O223  1  0.81533000  0.45586000  0.67574000  1.0
  O  O224  1  0.85564000  0.56268000  0.65980000  1.0
  O  O225  1  0.74166000  0.56831000  0.70989000  1.0
  O  O226  1  0.06750000  0.34226000  0.66401000  1.0
  O  O227  1  0.95030000  0.34812000  0.64609000  1.0
  O  O228  1  0.01652000  0.25107000  0.70280000  1.0
  O  O229  1  0.77457000  0.71074000  0.38579000  1.0
  O  O230  1  0.73818000  0.75841000  0.45254000  1.0
  O  O231  1  0.69397000  0.84802000  0.38887000  1.0
  O  O232  1  0.80420000  0.41701000  0.08717000  1.0
  O  O233  1  0.68788000  0.39672000  0.09436000  1.0
  O  O234  1  0.70406000  0.50175000  0.04323000  1.0
  O  O235  1  0.08508000  0.14664000  0.25437000  1.0
  O  O236  1  0.06179000  0.03615000  0.25027000  1.0
  O  O237  1  0.19130000  0.03497000  0.22601000  1.0
  O  O238  1  0.51952000  0.48383000  0.80875000  1.0
  O  O239  1  0.45130000  0.55733000  0.86658000  1.0
  O  O240  1  0.53916000  0.41843000  0.87914000  1.0
  O  O241  1  0.97157000  0.69021000  0.79842000  1.0
  O  O242  1  0.04717000  0.64349000  0.85607000  1.0
  O  O243  1  0.90667000  0.67693000  0.86845000  1.0
