# generated using pymatgen
data_CuH12C16(NO2)2
_symmetry_space_group_name_H-M   'P 1'
_cell_length_a   7.06801000
_cell_length_b   9.01632000
_cell_length_c   11.80620000
_cell_angle_alpha   89.99890000
_cell_angle_beta   89.99970000
_cell_angle_gamma   72.29200000
_symmetry_Int_Tables_number   1
_chemical_formula_structural   CuH12C16(NO2)2
_chemical_formula_sum   'Cu2 H24 C32 N4 O8'
_cell_volume   716.73045213
_cell_formula_units_Z   2
loop_
 _symmetry_equiv_pos_site_id
 _symmetry_equiv_pos_as_xyz
  1  'x, y, z'
loop_
 _atom_site_type_symbol
 _atom_site_label
 _atom_site_symmetry_multiplicity
 _atom_site_fract_x
 _atom_site_fract_y
 _atom_site_fract_z
 _atom_site_occupancy
  Cu  Cu0  1  0.50000000  0.50000000  0.50000000  1.0
  Cu  Cu1  1  0.50000000  0.00000000  1.00000000  1.0
  H  H2  1  0.45243000  0.98346000  0.30079000  1.0
  H  H3  1  0.54754000  0.51656000  0.80080000  1.0
  H  H4  1  0.54755000  0.01655000  0.69921000  1.0
  H  H5  1  0.45245000  0.48345000  0.19920000  1.0
  H  H6  1  0.85793000  0.79651000  0.40001000  1.0
  H  H7  1  0.14201000  0.70348000  0.90000000  1.0
  H  H8  1  0.14206000  0.20349000  0.59998000  1.0
  H  H9  1  0.85797000  0.29652000  0.10000000  1.0
  H  H10  1  0.50283000  0.18471000  0.42733000  1.0
  H  H11  1  0.49721000  0.31529000  0.92732000  1.0
  H  H12  1  0.49718000  0.81529000  0.57268000  1.0
  H  H13  1  0.50279000  0.68472000  0.07268000  1.0
  H  H14  1  0.90563000  0.43422000  0.41245000  1.0
  H  H15  1  0.09444000  0.06576000  0.91245000  1.0
  H  H16  1  0.09438000  0.56578000  0.58753000  1.0
  H  H17  1  0.90557000  0.93423000  0.08756000  1.0
  H  H18  1  0.17550000  0.20139000  0.34250000  1.0
  H  H19  1  0.82453000  0.29857000  0.84249000  1.0
  H  H20  1  0.82450000  0.79860000  0.65749000  1.0
  H  H21  1  0.17547000  0.70142000  0.15751000  1.0
  H  H22  1  0.10456000  0.94484000  0.32454000  1.0
  H  H23  1  0.89546000  0.55514000  0.82452000  1.0
  H  H24  1  0.89545000  0.05515000  0.67546000  1.0
  H  H25  1  0.10454000  0.44486000  0.17548000  1.0
  C  C26  1  0.51158000  0.74131000  0.35743000  1.0
  C  C27  1  0.48841000  0.75868000  0.85743000  1.0
  C  C28  1  0.48842000  0.25869000  0.64257000  1.0
  C  C29  1  0.51158000  0.24132000  0.14257000  1.0
  C  C30  1  0.56595000  0.88660000  0.33991000  1.0
  C  C31  1  0.43403000  0.61343000  0.83992000  1.0
  C  C32  1  0.43404000  0.11340000  0.66009000  1.0
  C  C33  1  0.56596000  0.38658000  0.16008000  1.0
  C  C34  1  0.74347000  0.90025000  0.37004000  1.0
  C  C35  1  0.25651000  0.59977000  0.87004000  1.0
  C  C36  1  0.25652000  0.09975000  0.62996000  1.0
  C  C37  1  0.74347000  0.40024000  0.12997000  1.0
  C  C38  1  0.79508000  0.04543000  0.37142000  1.0
  C  C39  1  0.20492000  0.45456000  0.87142000  1.0
  C  C40  1  0.20492000  0.95457000  0.62858000  1.0
  C  C41  1  0.79508000  0.54544000  0.12858000  1.0
  C  C42  1  0.65325000  0.18342000  0.40656000  1.0
  C  C43  1  0.34677000  0.31658000  0.90656000  1.0
  C  C44  1  0.34676000  0.81659000  0.59344000  1.0
  C  C45  1  0.65323000  0.68342000  0.09345000  1.0
  C  C46  1  0.88089000  0.32189000  0.40013000  1.0
  C  C47  1  0.11914000  0.17809000  0.90013000  1.0
  C  C48  1  0.11912000  0.67811000  0.59985000  1.0
  C  C49  1  0.88085000  0.82190000  0.09987000  1.0
  C  C50  1  0.02952000  0.19130000  0.36234000  1.0
  C  C51  1  0.97052000  0.30867000  0.86234000  1.0
  C  C52  1  0.97048000  0.80870000  0.63765000  1.0
  C  C53  1  0.02948000  0.69132000  0.13766000  1.0
  C  C54  1  0.98837000  0.05057000  0.34997000  1.0
  C  C55  1  0.01166000  0.44941000  0.84996000  1.0
  C  C56  1  0.01164000  0.94943000  0.65003000  1.0
  C  C57  1  0.98835000  0.55058000  0.15005000  1.0
  N  N58  1  0.69617000  0.31684000  0.42330000  1.0
  N  N59  1  0.30388000  0.18315000  0.92330000  1.0
  N  N60  1  0.30385000  0.68316000  0.57670000  1.0
  N  N61  1  0.69613000  0.81685000  0.07671000  1.0
  O  O62  1  0.62676000  0.63989000  0.42618000  1.0
  O  O63  1  0.37324000  0.86012000  0.92618000  1.0
  O  O64  1  0.37324000  0.36011000  0.57382000  1.0
  O  O65  1  0.62676000  0.13988000  0.07383000  1.0
  O  O66  1  0.35712000  0.72642000  0.31301000  1.0
  O  O67  1  0.64287000  0.77358000  0.81301000  1.0
  O  O68  1  0.64289000  0.27358000  0.68700000  1.0
  O  O69  1  0.35711000  0.22643000  0.18698000  1.0
