# generated using pymatgen
data_CaH6(CO)6
_symmetry_space_group_name_H-M   'P 1'
_cell_length_a   7.30458000
_cell_length_b   7.96934000
_cell_length_c   8.76733000
_cell_angle_alpha   74.75060000
_cell_angle_beta   89.99610000
_cell_angle_gamma   62.74170000
_symmetry_Int_Tables_number   1
_chemical_formula_structural   CaH6(CO)6
_chemical_formula_sum   'Ca2 H12 C12 O12'
_cell_volume   433.38474363
_cell_formula_units_Z   2
loop_
 _symmetry_equiv_pos_site_id
 _symmetry_equiv_pos_as_xyz
  1  'x, y, z'
loop_
 _atom_site_type_symbol
 _atom_site_label
 _atom_site_symmetry_multiplicity
 _atom_site_fract_x
 _atom_site_fract_y
 _atom_site_fract_z
 _atom_site_occupancy
  Ca  Ca0  1  0.22448000  0.55108000  0.08734000  1.0
  Ca  Ca1  1  0.77554000  0.44893000  0.91267000  1.0
  H  H2  1  0.14473000  0.71090000  0.37552000  1.0
  H  H3  1  0.85526000  0.28910000  0.62448000  1.0
  H  H4  1  0.04192000  0.91578000  0.24164000  1.0
  H  H5  1  0.95808000  0.08421000  0.75836000  1.0
  H  H6  1  0.15343000  0.99946000  0.99986000  1.0
  H  H7  1  0.84657000  0.00054000  0.00014000  1.0
  H  H8  1  0.84755000  0.00066000  0.50034000  1.0
  H  H9  1  0.15245000  0.99934000  0.49966000  1.0
  H  H10  1  0.23212000  0.75610000  0.76644000  1.0
  H  H11  1  0.98805000  0.24370000  0.23349000  1.0
  H  H12  1  0.76787000  0.24390000  0.23356000  1.0
  H  H13  1  0.01195000  0.75631000  0.76652000  1.0
  C  C14  1  0.30630000  0.17769000  0.97608000  1.0
  C  C15  1  0.48454000  0.82207000  0.02391000  1.0
  C  C16  1  0.69370000  0.82230000  0.02392000  1.0
  C  C17  1  0.51546000  0.17793000  0.97609000  1.0
  C  C18  1  0.30170000  0.99975000  0.99992000  1.0
  C  C19  1  0.69830000  0.00025000  0.00008000  1.0
  C  C20  1  0.69852000  0.00035000  0.50026000  1.0
  C  C21  1  0.30148000  0.99964000  0.49975000  1.0
  C  C22  1  0.52528000  0.15889000  0.39606000  1.0
  C  C23  1  0.68411000  0.84146000  0.60413000  1.0
  C  C24  1  0.47471000  0.84111000  0.60394000  1.0
  C  C25  1  0.31589000  0.15854000  0.39587000  1.0
  O  O26  1  0.09968000  0.80110000  0.81463000  1.0
  O  O27  1  0.90031000  0.19891000  0.18537000  1.0
  O  O28  1  0.14621000  0.34501000  0.95570000  1.0
  O  O29  1  0.49194000  0.65462000  0.04435000  1.0
  O  O30  1  0.85380000  0.65499000  0.04430000  1.0
  O  O31  1  0.50805000  0.34537000  0.95565000  1.0
  O  O32  1  0.11460000  0.77060000  0.26054000  1.0
  O  O33  1  0.88541000  0.22940000  0.73946000  1.0
  O  O34  1  0.52826000  0.30659000  0.29666000  1.0
  O  O35  1  0.83471000  0.69405000  0.70362000  1.0
  O  O36  1  0.47174000  0.69342000  0.70334000  1.0
  O  O37  1  0.16528000  0.30595000  0.29638000  1.0
