# generated using pymatgen
data_Eu2H20C28N2O17
_symmetry_space_group_name_H-M   'P 1'
_cell_length_a   10.24670000
_cell_length_b   12.04610000
_cell_length_c   12.94880000
_cell_angle_alpha   74.75100000
_cell_angle_beta   75.85590000
_cell_angle_gamma   72.03270000
_symmetry_Int_Tables_number   1
_chemical_formula_structural   Eu2H20C28N2O17
_chemical_formula_sum   'Eu4 H40 C56 N4 O34'
_cell_volume   1443.44512666
_cell_formula_units_Z   2
loop_
 _symmetry_equiv_pos_site_id
 _symmetry_equiv_pos_as_xyz
  1  'x, y, z'
loop_
 _atom_site_type_symbol
 _atom_site_label
 _atom_site_symmetry_multiplicity
 _atom_site_fract_x
 _atom_site_fract_y
 _atom_site_fract_z
 _atom_site_occupancy
  Eu  Eu0  1  0.20170000  0.71751000  0.60293000  1.0
  Eu  Eu1  1  0.79830000  0.28249000  0.39707000  1.0
  Eu  Eu2  1  0.80838000  0.78230000  0.45004000  1.0
  Eu  Eu3  1  0.19162000  0.21770000  0.54996000  1.0
  H  H4  1  0.12443000  0.52951000  0.53810000  1.0
  H  H5  1  0.87557000  0.47049000  0.46190000  1.0
  H  H6  1  0.28310000  0.48424000  0.53164000  1.0
  H  H7  1  0.71689000  0.51576000  0.46836000  1.0
  H  H8  1  0.69283000  0.03752000  0.35642000  1.0
  H  H9  1  0.30717000  0.96248000  0.64358000  1.0
  H  H10  1  0.68479000  0.96672000  0.26910000  1.0
  H  H11  1  0.31521000  0.03328000  0.73090000  1.0
  H  H12  1  0.73357000  0.98920000  0.56879000  1.0
  H  H13  1  0.26643000  0.01081000  0.43120000  1.0
  H  H14  1  0.88893000  0.92256000  0.57717000  1.0
  H  H15  1  0.11107000  0.07744000  0.42283000  1.0
  H  H16  1  0.99491000  0.12829000  0.06736000  1.0
  H  H17  1  0.00510000  0.87170000  0.93264000  1.0
  H  H18  1  0.17429000  0.00866000  0.93969000  1.0
  H  H19  1  0.82571000  0.99134000  0.06031000  1.0
  H  H20  1  0.34131000  0.82330000  0.01771000  1.0
  H  H21  1  0.65869000  0.17670000  0.98229000  1.0
  H  H22  1  0.41121000  0.44318000  0.32377000  1.0
  H  H23  1  0.58879000  0.55682000  0.67623000  1.0
  H  H24  1  0.22499000  0.62526000  0.28602000  1.0
  H  H25  1  0.77501000  0.37474000  0.71398000  1.0
  H  H26  1  0.50862000  0.83547000  0.17043000  1.0
  H  H27  1  0.49138000  0.16453000  0.82957000  1.0
  H  H28  1  0.70786000  0.66035000  0.20344000  1.0
  H  H29  1  0.29214000  0.33965000  0.79656000  1.0
  H  H30  1  0.02911000  0.25050000  0.91764000  1.0
  H  H31  1  0.97089000  0.74950000  0.08235000  1.0
  H  H32  1  0.87374000  0.32611000  0.08251000  1.0
  H  H33  1  0.12626000  0.67389000  0.91749000  1.0
  H  H34  1  0.71272000  0.53083000  0.05489000  1.0
  H  H35  1  0.28728000  0.46917000  0.94511000  1.0
  H  H36  1  0.66140000  0.96647000  0.87553000  1.0
  H  H37  1  0.33860000  0.03353000  0.12447000  1.0
  H  H38  1  0.82452000  0.76305000  0.90002000  1.0
  H  H39  1  0.17548000  0.23695000  0.09998000  1.0
  H  H40  1  0.54190000  0.61534000  0.83750000  1.0
  H  H41  1  0.45810000  0.38466000  0.16251000  1.0
  H  H42  1  0.36830000  0.81189000  0.80561000  1.0
  H  H43  1  0.63170000  0.18811000  0.19439000  1.0
  C  C44  1  0.13818000  0.85032000  0.37514000  1.0
  C  C45  1  0.86183000  0.14968000  0.62486000  1.0
  C  C46  1  0.96272000  0.09746000  0.27867000  1.0
  C  C47  1  0.03728000  0.90254000  0.72133000  1.0
  C  C48  1  0.14824000  0.90230000  0.25527000  1.0
  C  C49  1  0.85176000  0.09770000  0.74473000  1.0
  C  C50  1  0.05819000  0.01004000  0.21105000  1.0
  C  C51  1  0.94181000  0.98996000  0.78895000  1.0
  C  C52  1  0.06732000  0.04546000  0.09810000  1.0
  C  C53  1  0.93268000  0.95454000  0.90190000  1.0
  C  C54  1  0.16630000  0.97894000  0.02755000  1.0
  C  C55  1  0.83370000  0.02106000  0.97245000  1.0
  C  C56  1  0.26010000  0.87572000  0.07066000  1.0
  C  C57  1  0.73990000  0.12428000  0.92934000  1.0
  C  C58  1  0.25184000  0.83888000  0.18311000  1.0
  C  C59  1  0.74816000  0.16112000  0.81689000  1.0
  C  C60  1  0.43964000  0.52648000  0.28653000  1.0
  C  C61  1  0.56036000  0.47352000  0.71347000  1.0
  C  C62  1  0.33376000  0.62709000  0.26630000  1.0
  C  C63  1  0.66624000  0.37291000  0.73370000  1.0
  C  C64  1  0.49419000  0.74556000  0.19935000  1.0
  C  C65  1  0.50581000  0.25444000  0.80065000  1.0
  C  C66  1  0.60361000  0.64767000  0.21837000  1.0
  C  C67  1  0.39639000  0.35233000  0.78163000  1.0
  C  C68  1  0.58241000  0.53080000  0.26095000  1.0
  C  C69  1  0.41759000  0.46920000  0.73905000  1.0
  C  C70  1  0.52368000  0.70023000  0.49274000  1.0
  C  C71  1  0.47632000  0.29977000  0.50726000  1.0
  C  C72  1  0.48261000  0.80889000  0.54738000  1.0
  C  C73  1  0.51739000  0.19111000  0.45262000  1.0
  C  C74  1  0.88810000  0.61803000  0.68402000  1.0
  C  C75  1  0.11190000  0.38197000  0.31598000  1.0
  C  C76  1  0.04928000  0.35476000  0.71267000  1.0
  C  C77  1  0.95072000  0.64524000  0.28733000  1.0
  C  C78  1  0.87715000  0.52937000  0.79091000  1.0
  C  C79  1  0.12285000  0.47063000  0.20909000  1.0
  C  C80  1  0.96298000  0.41198000  0.80581000  1.0
  C  C81  1  0.03702000  0.58802000  0.19419000  1.0
  C  C82  1  0.96084000  0.34061000  0.91064000  1.0
  C  C83  1  0.03917000  0.65939000  0.08936000  1.0
  C  C84  1  0.87405000  0.38216000  0.00117000  1.0
  C  C85  1  0.12595000  0.61784000  0.99883000  1.0
  C  C86  1  0.78387000  0.49630000  0.98617000  1.0
  C  C87  1  0.21613000  0.50370000  0.01383000  1.0
  C  C88  1  0.78563000  0.56750000  0.88208000  1.0
  C  C89  1  0.21437000  0.43250000  0.11792000  1.0
  C  C90  1  0.63193000  0.89159000  0.86480000  1.0
  C  C91  1  0.36807000  0.10841000  0.13520000  1.0
  C  C92  1  0.72212000  0.78090000  0.87951000  1.0
  C  C93  1  0.27788000  0.21910000  0.12049000  1.0
  C  C94  1  0.56155000  0.69715000  0.84302000  1.0
  C  C95  1  0.43845000  0.30285000  0.15698000  1.0
  C  C96  1  0.46773000  0.80589000  0.82595000  1.0
  C  C97  1  0.53227000  0.19411000  0.17405000  1.0
  C  C98  1  0.49970000  0.91189000  0.83337000  1.0
  C  C99  1  0.50030000  0.08811000  0.16663000  1.0
  N  N100  1  0.35985000  0.73568000  0.22074000  1.0
  N  N101  1  0.64015000  0.26432000  0.77927000  1.0
  N  N102  1  0.68861000  0.68395000  0.86794000  1.0
  N  N103  1  0.31139000  0.31605000  0.13206000  1.0
  O  O104  1  0.03894000  0.80223000  0.42329000  1.0
  O  O105  1  0.96106000  0.19777000  0.57671000  1.0
  O  O106  1  0.23538000  0.84657000  0.42116000  1.0
  O  O107  1  0.76463000  0.15343000  0.57884000  1.0
  O  O108  1  0.96751000  0.07992000  0.37986000  1.0
  O  O109  1  0.03249000  0.92008000  0.62014000  1.0
  O  O110  1  0.88321000  0.19189000  0.23260000  1.0
  O  O111  1  0.11679000  0.80811000  0.76740000  1.0
  O  O112  1  0.68513000  0.43739000  0.27384000  1.0
  O  O113  1  0.31487000  0.56261000  0.72616000  1.0
  O  O114  1  0.43359000  0.64551000  0.50332000  1.0
  O  O115  1  0.56641000  0.35449000  0.49667000  1.0
  O  O116  1  0.64966000  0.67282000  0.44335000  1.0
  O  O117  1  0.35034000  0.32718000  0.55665000  1.0
  O  O118  1  0.35784000  0.83458000  0.59957000  1.0
  O  O119  1  0.64216000  0.16542000  0.40044000  1.0
  O  O120  1  0.57403000  0.86153000  0.53884000  1.0
  O  O121  1  0.42597000  0.13847000  0.46116000  1.0
  O  O122  1  0.98650000  0.66763000  0.66575000  1.0
  O  O123  1  0.01350000  0.33237000  0.33425000  1.0
  O  O124  1  0.79840000  0.64174000  0.62417000  1.0
  O  O125  1  0.20160000  0.35826000  0.37583000  1.0
  O  O126  1  0.03783000  0.40757000  0.61421000  1.0
  O  O127  1  0.96217000  0.59243000  0.38579000  1.0
  O  O128  1  0.12728000  0.24963000  0.73514000  1.0
  O  O129  1  0.87272000  0.75037000  0.26485000  1.0
  O  O130  1  0.41726000  0.01576000  0.81539000  1.0
  O  O131  1  0.58274000  0.98424000  0.18461000  1.0
  O  O132  1  0.20828000  0.55932000  0.52021000  1.0
  O  O133  1  0.79172000  0.44068000  0.47979000  1.0
  O  O134  1  0.73555000  0.96185000  0.32891000  1.0
  O  O135  1  0.26445000  0.03815000  0.67109000  1.0
  O  O136  1  0.80186000  0.91291000  0.56375000  1.0
  O  O137  1  0.19814000  0.08709000  0.43625000  1.0
