# generated using pymatgen
data_CdH14C14(NO2)4
_symmetry_space_group_name_H-M   'P 1'
_cell_length_a   8.01839000
_cell_length_b   8.01841000
_cell_length_c   13.44960000
_cell_angle_alpha   90.94180000
_cell_angle_beta   90.94170000
_cell_angle_gamma   112.51200000
_symmetry_Int_Tables_number   1
_chemical_formula_structural   CdH14C14(NO2)4
_chemical_formula_sum   'Cd2 H28 C28 N8 O16'
_cell_volume   798.49512817
_cell_formula_units_Z   2
loop_
 _symmetry_equiv_pos_site_id
 _symmetry_equiv_pos_as_xyz
  1  'x, y, z'
loop_
 _atom_site_type_symbol
 _atom_site_label
 _atom_site_symmetry_multiplicity
 _atom_site_fract_x
 _atom_site_fract_y
 _atom_site_fract_z
 _atom_site_occupancy
  Cd  Cd0  1  0.70597000  0.29403000  0.25000000  1.0
  Cd  Cd1  1  0.29403000  0.70597000  0.75000000  1.0
  H  H2  1  0.66483000  0.41383000  0.88910000  1.0
  H  H3  1  0.58617000  0.33518000  0.61090000  1.0
  H  H4  1  0.33518000  0.58617000  0.11090000  1.0
  H  H5  1  0.41383000  0.66482000  0.38910000  1.0
  H  H6  1  0.82542000  0.43415000  0.98727000  1.0
  H  H7  1  0.56585000  0.17458000  0.51273000  1.0
  H  H8  1  0.17458000  0.56585000  0.01273000  1.0
  H  H9  1  0.43415000  0.82542000  0.48727000  1.0
  H  H10  1  0.90202000  0.52299000  0.86710000  1.0
  H  H11  1  0.47701000  0.09798000  0.63290000  1.0
  H  H12  1  0.09797000  0.47701000  0.13290000  1.0
  H  H13  1  0.52299000  0.90202000  0.36710000  1.0
  H  H14  1  0.81378000  0.79564000  0.81044000  1.0
  H  H15  1  0.20436000  0.18623000  0.68956000  1.0
  H  H16  1  0.18623000  0.20436000  0.18956000  1.0
  H  H17  1  0.79564000  0.81377000  0.31044000  1.0
  H  H18  1  0.87920000  0.20231000  0.89772000  1.0
  H  H19  1  0.79769000  0.12080000  0.60228000  1.0
  H  H20  1  0.12080000  0.79769000  0.10228000  1.0
  H  H21  1  0.20231000  0.87920000  0.39772000  1.0
  H  H22  1  0.64652000  0.11982000  0.93093000  1.0
  H  H23  1  0.88018000  0.35348000  0.56907000  1.0
  H  H24  1  0.35348000  0.88018000  0.06907000  1.0
  H  H25  1  0.11982000  0.64653000  0.43093000  1.0
  H  H26  1  0.71054000  0.04820000  0.81563000  1.0
  H  H27  1  0.95179000  0.28946000  0.68437000  1.0
  H  H28  1  0.28946000  0.95180000  0.18437000  1.0
  H  H29  1  0.04821000  0.71054000  0.31563000  1.0
  C  C30  1  0.74338000  0.88477000  0.04180000  1.0
  C  C31  1  0.11523000  0.25662000  0.45820000  1.0
  C  C32  1  0.25662000  0.11523000  0.95820000  1.0
  C  C33  1  0.88477000  0.74338000  0.54180000  1.0
  C  C34  1  0.75556000  0.71754000  0.04739000  1.0
  C  C35  1  0.28245000  0.24444000  0.45261000  1.0
  C  C36  1  0.24444000  0.28246000  0.95261000  1.0
  C  C37  1  0.71755000  0.75556000  0.54739000  1.0
  C  C38  1  0.79678000  0.49912000  0.92199000  1.0
  C  C39  1  0.50088000  0.20322000  0.57801000  1.0
  C  C40  1  0.20322000  0.50088000  0.07801000  1.0
  C  C41  1  0.49912000  0.79678000  0.42199000  1.0
  C  C42  1  0.79330000  0.80067000  0.89001000  1.0
  C  C43  1  0.19932000  0.20670000  0.60999000  1.0
  C  C44  1  0.20670000  0.19933000  0.10999000  1.0
  C  C45  1  0.80068000  0.79330000  0.39001000  1.0
  C  C46  1  0.74987000  0.08662000  0.89356000  1.0
  C  C47  1  0.91337000  0.25013000  0.60644000  1.0
  C  C48  1  0.25013000  0.91337000  0.10644000  1.0
  C  C49  1  0.08663000  0.74987000  0.39356000  1.0
  C  C50  1  0.71921000  0.99785000  0.12462000  1.0
  C  C51  1  0.00215000  0.28079000  0.37538000  1.0
  C  C52  1  0.28080000  0.00216000  0.87537000  1.0
  C  C53  1  0.99785000  0.71921000  0.62462000  1.0
  C  C54  1  0.72999000  0.58412000  0.12907000  1.0
  C  C55  1  0.41588000  0.27001000  0.37093000  1.0
  C  C56  1  0.27001000  0.41588000  0.87093000  1.0
  C  C57  1  0.58412000  0.72999000  0.62907000  1.0
  N  N58  1  0.76564000  0.93100000  0.94145000  1.0
  N  N59  1  0.06900000  0.23437000  0.55855000  1.0
  N  N60  1  0.23437000  0.06900000  0.05855000  1.0
  N  N61  1  0.93100000  0.76563000  0.44145000  1.0
  N  N62  1  0.78948000  0.67107000  0.95289000  1.0
  N  N63  1  0.32893000  0.21053000  0.54711000  1.0
  N  N64  1  0.21053000  0.32893000  0.04711000  1.0
  N  N65  1  0.67107000  0.78947000  0.45289000  1.0
  O  O66  1  0.73505000  0.15955000  0.10450000  1.0
  O  O67  1  0.84045000  0.26495000  0.39550000  1.0
  O  O68  1  0.26496000  0.84045000  0.89550000  1.0
  O  O69  1  0.15955000  0.73505000  0.60450000  1.0
  O  O70  1  0.68595000  0.92831000  0.20879000  1.0
  O  O71  1  0.07168000  0.31404000  0.29121000  1.0
  O  O72  1  0.31405000  0.07169000  0.79121000  1.0
  O  O73  1  0.92832000  0.68596000  0.70879000  1.0
  O  O74  1  0.86716000  0.59756000  0.18279000  1.0
  O  O75  1  0.40243000  0.13284000  0.31721000  1.0
  O  O76  1  0.13284000  0.40243000  0.81721000  1.0
  O  O77  1  0.59757000  0.86716000  0.68279000  1.0
  O  O78  1  0.57682000  0.45816000  0.13238000  1.0
  O  O79  1  0.54183000  0.42318000  0.36761000  1.0
  O  O80  1  0.42317000  0.54184000  0.86761000  1.0
  O  O81  1  0.45816000  0.57682000  0.63238000  1.0
