# generated using pymatgen
data_CdH12C8(IN)2
_symmetry_space_group_name_H-M   'P 1'
_cell_length_a   7.76524000
_cell_length_b   9.15198000
_cell_length_c   9.15201000
_cell_angle_alpha   74.47920000
_cell_angle_beta   85.24940000
_cell_angle_gamma   85.24930000
_symmetry_Int_Tables_number   1
_chemical_formula_structural   CdH12C8(IN)2
_chemical_formula_sum   'Cd2 H24 C16 I4 N4'
_cell_volume   623.29029580
_cell_formula_units_Z   2
loop_
 _symmetry_equiv_pos_site_id
 _symmetry_equiv_pos_as_xyz
  1  'x, y, z'
loop_
 _atom_site_type_symbol
 _atom_site_label
 _atom_site_symmetry_multiplicity
 _atom_site_fract_x
 _atom_site_fract_y
 _atom_site_fract_z
 _atom_site_occupancy
  Cd  Cd0  1  0.25000000  0.93548000  0.06452000  1.0
  Cd  Cd1  1  0.75000000  0.06452000  0.93548000  1.0
  H  H2  1  0.11026000  0.69175000  0.04056000  1.0
  H  H3  1  0.38974000  0.95945000  0.30826000  1.0
  H  H4  1  0.88974000  0.30825000  0.95944000  1.0
  H  H5  1  0.61026000  0.04056000  0.69174000  1.0
  H  H6  1  0.96919000  0.55779000  0.15455000  1.0
  H  H7  1  0.53081000  0.84546000  0.44222000  1.0
  H  H8  1  0.03081000  0.44221000  0.84545000  1.0
  H  H9  1  0.46919000  0.15454000  0.55778000  1.0
  H  H10  1  0.17333000  0.49422000  0.08419000  1.0
  H  H11  1  0.32666000  0.91581000  0.50578000  1.0
  H  H12  1  0.82667000  0.50578000  0.91581000  1.0
  H  H13  1  0.67333000  0.08419000  0.49422000  1.0
  H  H14  1  0.13341000  0.23444000  0.50279000  1.0
  H  H15  1  0.36660000  0.49721000  0.76557000  1.0
  H  H16  1  0.86659000  0.76556000  0.49721000  1.0
  H  H17  1  0.63341000  0.50279000  0.23443000  1.0
  H  H18  1  0.20884000  0.26980000  0.30676000  1.0
  H  H19  1  0.29116000  0.69324000  0.73020000  1.0
  H  H20  1  0.79115000  0.73019000  0.69324000  1.0
  H  H21  1  0.70884000  0.30676000  0.26980000  1.0
  H  H22  1  0.99534000  0.32774000  0.35423000  1.0
  H  H23  1  0.50466000  0.64577000  0.67228000  1.0
  H  H24  1  0.00465000  0.67227000  0.64577000  1.0
  H  H25  1  0.49535000  0.35423000  0.32772000  1.0
  C  C26  1  0.10575000  0.58463000  0.12980000  1.0
  C  C27  1  0.39424000  0.87021000  0.41538000  1.0
  C  C28  1  0.89425000  0.41536000  0.87020000  1.0
  C  C29  1  0.60575000  0.12979000  0.58463000  1.0
  C  C30  1  0.18840000  0.46474000  0.39781000  1.0
  C  C31  1  0.31161000  0.60220000  0.53527000  1.0
  C  C32  1  0.81160000  0.53526000  0.60219000  1.0
  C  C33  1  0.68840000  0.39781000  0.46473000  1.0
  C  C34  1  0.18339000  0.59255000  0.27095000  1.0
  C  C35  1  0.31660000  0.72905000  0.40746000  1.0
  C  C36  1  0.81660000  0.40745000  0.72904000  1.0
  C  C37  1  0.68340000  0.27095000  0.59254000  1.0
  C  C38  1  0.12799000  0.31595000  0.39083000  1.0
  C  C39  1  0.37201000  0.60917000  0.68405000  1.0
  C  C40  1  0.87201000  0.68405000  0.60918000  1.0
  C  C41  1  0.62799000  0.39083000  0.31594000  1.0
  I  I42  1  0.08977000  0.97249000  0.78559000  1.0
  I  I43  1  0.41023000  0.21441000  0.02751000  1.0
  I  I44  1  0.91023000  0.02751000  0.21441000  1.0
  I  I45  1  0.58977000  0.78558000  0.97249000  1.0
  N  N46  1  0.25000000  0.72192000  0.27808000  1.0
  N  N47  1  0.75000000  0.27808000  0.72192000  1.0
  N  N48  1  0.25000000  0.47195000  0.52804000  1.0
  N  N49  1  0.75000000  0.52804000  0.47195000  1.0
