# generated using pymatgen
data_Ni3P6H44(C12O11)2
_symmetry_space_group_name_H-M   'P 1'
_cell_length_a   7.94217000
_cell_length_b   10.16650000
_cell_length_c   12.94388907
_cell_angle_alpha   67.17339788
_cell_angle_beta   81.06218613
_cell_angle_gamma   72.72390000
_symmetry_Int_Tables_number   1
_chemical_formula_structural   Ni3P6H44(C12O11)2
_chemical_formula_sum   'Ni3 P6 H44 C24 O22'
_cell_volume   918.87320639
_cell_formula_units_Z   1
loop_
 _symmetry_equiv_pos_site_id
 _symmetry_equiv_pos_as_xyz
  1  'x, y, z'
loop_
 _atom_site_type_symbol
 _atom_site_label
 _atom_site_symmetry_multiplicity
 _atom_site_fract_x
 _atom_site_fract_y
 _atom_site_fract_z
 _atom_site_occupancy
  Ni  Ni0  1  0.00002000  0.00000000  0.49998000  1.0
  Ni  Ni1  1  0.47019000  0.97148000  0.39262000  1.0
  Ni  Ni2  1  0.53002000  0.02842000  0.60739000  1.0
  P  P3  1  0.55966000  0.89725000  0.88768000  1.0
  P  P4  1  0.44034000  0.10270000  0.11231000  1.0
  P  P5  1  0.90707000  0.87774000  0.31446000  1.0
  P  P6  1  0.09304000  0.12232000  0.68548000  1.0
  P  P7  1  0.65368000  0.24198000  0.36525000  1.0
  P  P8  1  0.34627000  0.75811000  0.63475000  1.0
  H  H9  1  0.41354000  0.82745000  0.28576000  1.0
  H  H10  1  0.58672000  0.17235000  0.71434000  1.0
  H  H11  1  0.24950000  0.84705000  0.36785000  1.0
  H  H12  1  0.75061000  0.15306000  0.63213000  1.0
  H  H13  1  0.15487000  0.18943000  0.36463000  1.0
  H  H14  1  0.84561000  0.81032000  0.63534000  1.0
  H  H15  1  0.22952000  0.13203000  0.48959000  1.0
  H  H16  1  0.77074000  0.86766000  0.51045000  1.0
  H  H17  1  0.64150000  0.04819000  0.94354000  1.0
  H  H18  1  0.35848000  0.95177000  0.05647000  1.0
  H  H19  1  0.77556000  0.01742000  0.14663000  1.0
  H  H20  1  0.22439000  0.98250000  0.85330000  1.0
  H  H21  1  0.57873000  0.20094000  0.22843000  1.0
  H  H22  1  0.42129000  0.79909000  0.77155000  1.0
  H  H23  1  0.65229000  0.63862000  0.95102000  1.0
  H  H24  1  0.34765000  0.36134000  0.04903000  1.0
  H  H25  1  0.83247000  0.71668000  0.92043000  1.0
  H  H26  1  0.16751000  0.28323000  0.07959000  1.0
  H  H27  1  0.92725000  0.85536000  0.96089000  1.0
  H  H28  1  0.07285000  0.14447000  0.03909000  1.0
  H  H29  1  0.10320000  0.71293000  0.03444000  1.0
  H  H30  1  0.89684000  0.28708000  0.96572000  1.0
  H  H31  1  0.01203000  0.87017000  0.07166000  1.0
  H  H32  1  0.98778000  0.12997000  0.92827000  1.0
  H  H33  1  0.11698000  0.72707000  0.22782000  1.0
  H  H34  1  0.88312000  0.27278000  0.77215000  1.0
  H  H35  1  0.05850000  0.62181000  0.36625000  1.0
  H  H36  1  0.94146000  0.37821000  0.63375000  1.0
  H  H37  1  0.73357000  0.43001000  0.49407000  1.0
  H  H38  1  0.26635000  0.57002000  0.50591000  1.0
  H  H39  1  0.79602000  0.59203000  0.47544000  1.0
  H  H40  1  0.20380000  0.40803000  0.52462000  1.0
  H  H41  1  0.95139000  0.43857000  0.45179000  1.0
  H  H42  1  0.04850000  0.56155000  0.54819000  1.0
  H  H43  1  0.40698000  0.44971000  0.33770000  1.0
  H  H44  1  0.59291000  0.55039000  0.66232000  1.0
  H  H45  1  0.53086000  0.42377000  0.44853000  1.0
  H  H46  1  0.46903000  0.57633000  0.55148000  1.0
  H  H47  1  0.35354000  0.54494000  0.18662000  1.0
  H  H48  1  0.64638000  0.45509000  0.81339000  1.0
  H  H49  1  0.50476000  0.48508000  0.08929000  1.0
  H  H50  1  0.49520000  0.51499000  0.91071000  1.0
  H  H51  1  0.39232000  0.67573000  0.05410000  1.0
  H  H52  1  0.60756000  0.32433000  0.94590000  1.0
  C  C53  1  0.71846000  0.67917000  0.08937000  1.0
  C  C54  1  0.28145000  0.32090000  0.91063000  1.0
  C  C55  1  0.85253000  0.71241000  0.12686000  1.0
  C  C56  1  0.14744000  0.28762000  0.87311000  1.0
  C  C57  1  0.87292000  0.66265000  0.24327000  1.0
  C  C58  1  0.12697000  0.33743000  0.75671000  1.0
  C  C59  1  0.77160000  0.57037000  0.32006000  1.0
  C  C60  1  0.22829000  0.42970000  0.67995000  1.0
  C  C61  1  0.63791000  0.53792000  0.28155000  1.0
  C  C62  1  0.36193000  0.46221000  0.71848000  1.0
  C  C63  1  0.60483000  0.59921000  0.16609000  1.0
  C  C64  1  0.39510000  0.40085000  0.83392000  1.0
  C  C65  1  0.70294000  0.71930000  0.96539000  1.0
  C  C66  1  0.29703000  0.28066000  0.03464000  1.0
  C  C67  1  0.97846000  0.79208000  0.04446000  1.0
  C  C68  1  0.02151000  0.20793000  0.95555000  1.0
  C  C69  1  0.00486000  0.70656000  0.28751000  1.0
  C  C70  1  0.99518000  0.29344000  0.71245000  1.0
  C  C71  1  0.81350000  0.50454000  0.44186000  1.0
  C  C72  1  0.18638000  0.49553000  0.55815000  1.0
  C  C73  1  0.54173000  0.42764000  0.36217000  1.0
  C  C74  1  0.45816000  0.57245000  0.63784000  1.0
  C  C75  1  0.45609000  0.57542000  0.12175000  1.0
  C  C76  1  0.54382000  0.42463000  0.87826000  1.0
  O  O77  1  0.38349000  0.81468000  0.36495000  1.0
  O  O78  1  0.61663000  0.18530000  0.63511000  1.0
  O  O79  1  0.37689000  0.92467000  0.94649000  1.0
  O  O80  1  0.62309000  0.07527000  0.05346000  1.0
  O  O81  1  0.20575000  0.10128000  0.42781000  1.0
  O  O82  1  0.79441000  0.89847000  0.57224000  1.0
  O  O83  1  0.65051000  0.02410000  0.87164000  1.0
  O  O84  1  0.34945000  0.97586000  0.12835000  1.0
  O  O85  1  0.55264000  0.89160000  0.77162000  1.0
  O  O86  1  0.44745000  0.10832000  0.22837000  1.0
  O  O87  1  0.04127000  0.90867000  0.36908000  1.0
  O  O88  1  0.95887000  0.09149000  0.63077000  1.0
  O  O89  1  0.87240000  0.00281000  0.19530000  1.0
  O  O90  1  0.12754000  0.99722000  0.80462000  1.0
  O  O91  1  0.73856000  0.86337000  0.39097000  1.0
  O  O92  1  0.26162000  0.13657000  0.60906000  1.0
  O  O93  1  0.83856000  0.19771000  0.40584000  1.0
  O  O94  1  0.16140000  0.80239000  0.59415000  1.0
  O  O95  1  0.53606000  0.13594000  0.43461000  1.0
  O  O96  1  0.46397000  0.86405000  0.56543000  1.0
  O  O97  1  0.65747000  0.25633000  0.23896000  1.0
  O  O98  1  0.34244000  0.74376000  0.76103000  1.0
