# generated using pymatgen
data_Cu3H2C2I2N3
_symmetry_space_group_name_H-M   'P 1'
_cell_length_a   4.02551000
_cell_length_b   9.49024000
_cell_length_c   20.76950000
_cell_angle_alpha   81.10770000
_cell_angle_beta   89.99910000
_cell_angle_gamma   89.99960000
_symmetry_Int_Tables_number   1
_chemical_formula_structural   Cu3H2C2I2N3
_chemical_formula_sum   'Cu12 H8 C8 I8 N12'
_cell_volume   783.92151682
_cell_formula_units_Z   4
loop_
 _symmetry_equiv_pos_site_id
 _symmetry_equiv_pos_as_xyz
  1  'x, y, z'
loop_
 _atom_site_type_symbol
 _atom_site_label
 _atom_site_symmetry_multiplicity
 _atom_site_fract_x
 _atom_site_fract_y
 _atom_site_fract_z
 _atom_site_occupancy
  Cu  Cu0  1  0.00001000  0.50000000  0.50000000  1.0
  Cu  Cu1  1  0.99998000  0.00000000  0.00000000  1.0
  Cu  Cu2  1  0.49830000  0.25000000  0.75000000  1.0
  Cu  Cu3  1  0.50172000  0.75000000  0.25000000  1.0
  Cu  Cu4  1  0.64722000  0.96185000  0.67115000  1.0
  Cu  Cu5  1  0.64720000  0.53815000  0.82885000  1.0
  Cu  Cu6  1  0.35278000  0.03816000  0.32885000  1.0
  Cu  Cu7  1  0.35280000  0.46184000  0.17114000  1.0
  Cu  Cu8  1  0.15228000  0.79020000  0.66232000  1.0
  Cu  Cu9  1  0.15226000  0.70980000  0.83769000  1.0
  Cu  Cu10  1  0.84772000  0.20981000  0.33768000  1.0
  Cu  Cu11  1  0.84774000  0.29020000  0.16231000  1.0
  H  H12  1  0.92244000  0.15993000  0.53793000  1.0
  H  H13  1  0.92239000  0.34007000  0.96207000  1.0
  H  H14  1  0.07760000  0.84007000  0.46207000  1.0
  H  H15  1  0.07756000  0.65993000  0.03793000  1.0
  H  H16  1  0.61548000  0.50306000  0.63039000  1.0
  H  H17  1  0.61551000  0.99694000  0.86961000  1.0
  H  H18  1  0.38451000  0.49694000  0.36961000  1.0
  H  H19  1  0.38450000  0.00306000  0.13039000  1.0
  C  C20  1  0.81976000  0.22202000  0.57283000  1.0
  C  C21  1  0.81974000  0.27797000  0.92717000  1.0
  C  C22  1  0.18025000  0.77798000  0.42717000  1.0
  C  C23  1  0.18023000  0.72203000  0.07284000  1.0
  C  C24  1  0.66370000  0.39628000  0.62005000  1.0
  C  C25  1  0.66370000  0.10372000  0.87995000  1.0
  C  C26  1  0.33631000  0.60373000  0.37995000  1.0
  C  C27  1  0.33629000  0.89628000  0.12005000  1.0
  I  I28  1  0.15559000  0.95565000  0.75594000  1.0
  I  I29  1  0.15559000  0.54435000  0.74406000  1.0
  I  I30  1  0.84442000  0.04435000  0.24406000  1.0
  I  I31  1  0.84440000  0.45565000  0.25594000  1.0
  I  I32  1  0.65649000  0.80078000  0.58073000  1.0
  I  I33  1  0.65648000  0.69922000  0.91928000  1.0
  I  I34  1  0.34350000  0.19923000  0.41927000  1.0
  I  I35  1  0.34352000  0.30076000  0.08073000  1.0
  N  N36  1  0.81354000  0.36729000  0.56502000  1.0
  N  N37  1  0.81352000  0.13270000  0.93499000  1.0
  N  N38  1  0.18647000  0.63271000  0.43498000  1.0
  N  N39  1  0.18646000  0.86730000  0.06501000  1.0
  N  N40  1  0.58500000  0.27673000  0.65970000  1.0
  N  N41  1  0.58498000  0.22326000  0.84031000  1.0
  N  N42  1  0.41502000  0.72327000  0.34030000  1.0
  N  N43  1  0.41501000  0.77673000  0.15969000  1.0
  N  N44  1  0.68327000  0.16472000  0.62901000  1.0
  N  N45  1  0.68327000  0.33527000  0.87099000  1.0
  N  N46  1  0.31674000  0.83528000  0.37099000  1.0
  N  N47  1  0.31673000  0.66472000  0.12900000  1.0
