# generated using pymatgen
data_CoH24C24S2(NO)6
_symmetry_space_group_name_H-M   'P 1'
_cell_length_a   8.22091000
_cell_length_b   8.55358000
_cell_length_c   9.31659000
_cell_angle_alpha   98.54830000
_cell_angle_beta   109.39100000
_cell_angle_gamma   93.02120000
_symmetry_Int_Tables_number   1
_chemical_formula_structural   CoH24C24S2(NO)6
_chemical_formula_sum   'Co1 H24 C24 S2 N6 O6'
_cell_volume   607.43020979
_cell_formula_units_Z   1
loop_
 _symmetry_equiv_pos_site_id
 _symmetry_equiv_pos_as_xyz
  1  'x, y, z'
loop_
 _atom_site_type_symbol
 _atom_site_label
 _atom_site_symmetry_multiplicity
 _atom_site_fract_x
 _atom_site_fract_y
 _atom_site_fract_z
 _atom_site_occupancy
  Co  Co0  1  0.50000000  0.50000000  0.50000000  1.0
  H  H1  1  0.80545000  0.71183000  0.51330000  1.0
  H  H2  1  0.19456000  0.28818000  0.48670000  1.0
  H  H3  1  0.85028000  0.95256000  0.40864000  1.0
  H  H4  1  0.14973000  0.04744000  0.59136000  1.0
  H  H5  1  0.59281000  0.07166000  0.25154000  1.0
  H  H6  1  0.40719000  0.92835000  0.74845000  1.0
  H  H7  1  0.26870000  0.70803000  0.33554000  1.0
  H  H8  1  0.73131000  0.29197000  0.66446000  1.0
  H  H9  1  0.26772000  0.09119000  0.20247000  1.0
  H  H10  1  0.73227000  0.90881000  0.79754000  1.0
  H  H11  1  0.13557000  0.92966000  0.21777000  1.0
  H  H12  1  0.86444000  0.07033000  0.78223000  1.0
  H  H13  1  0.14203000  0.62329000  0.86386000  1.0
  H  H14  1  0.85796000  0.37672000  0.13614000  1.0
  H  H15  1  0.17396000  0.64561000  0.06438000  1.0
  H  H16  1  0.82604000  0.35438000  0.93561000  1.0
  H  H17  1  0.90474000  0.74753000  0.14807000  1.0
  H  H18  1  0.09526000  0.25246000  0.85194000  1.0
  H  H19  1  0.58006000  0.71759000  0.05416000  1.0
  H  H20  1  0.41994000  0.28240000  0.94584000  1.0
  H  H21  1  0.41449000  0.61505000  0.77381000  1.0
  H  H22  1  0.58551000  0.38493000  0.22619000  1.0
  H  H23  1  0.86985000  0.57832000  0.67815000  1.0
  H  H24  1  0.13015000  0.42169000  0.32185000  1.0
  C  C25  1  0.69454000  0.76645000  0.44897000  1.0
  C  C26  1  0.30547000  0.23355000  0.55103000  1.0
  C  C27  1  0.71893000  0.90185000  0.38886000  1.0
  C  C28  1  0.28107000  0.09815000  0.61114000  1.0
  C  C29  1  0.57557000  0.96809000  0.30281000  1.0
  C  C30  1  0.42443000  0.03192000  0.69719000  1.0
  C  C31  1  0.40910000  0.89832000  0.28147000  1.0
  C  C32  1  0.59090000  0.10169000  0.71854000  1.0
  C  C33  1  0.39553000  0.76404000  0.34705000  1.0
  C  C34  1  0.60447000  0.23596000  0.65295000  1.0
  C  C35  1  0.24898000  0.96113000  0.18657000  1.0
  C  C36  1  0.75102000  0.03887000  0.81343000  1.0
  C  C37  1  0.10783000  0.69019000  0.95770000  1.0
  C  C38  1  0.89217000  0.30982000  0.04230000  1.0
  C  C39  1  0.91425000  0.67197000  0.91780000  1.0
  C  C40  1  0.08575000  0.32803000  0.08220000  1.0
  C  C41  1  0.83091000  0.70821000  0.02576000  1.0
  C  C42  1  0.16909000  0.29178000  0.97424000  1.0
  C  C43  1  0.65005000  0.68860000  0.97459000  1.0
  C  C44  1  0.34995000  0.31139000  0.02541000  1.0
  C  C45  1  0.55573000  0.63190000  0.81945000  1.0
  C  C46  1  0.44427000  0.36809000  0.18054000  1.0
  C  C47  1  0.81039000  0.61426000  0.76421000  1.0
  C  C48  1  0.18961000  0.38575000  0.23580000  1.0
  S  S49  1  0.19983000  0.89501000  0.97954000  1.0
  S  S50  1  0.80017000  0.10499000  0.02046000  1.0
  N  N51  1  0.53519000  0.69741000  0.42820000  1.0
  N  N52  1  0.46482000  0.30259000  0.57180000  1.0
  N  N53  1  0.63514000  0.59410000  0.71466000  1.0
  N  N54  1  0.36487000  0.40590000  0.28534000  1.0
  N  N55  1  0.87379000  0.32371000  0.47736000  1.0
  N  N56  1  0.12621000  0.67629000  0.52263000  1.0
  O  O57  1  0.76183000  0.42490000  0.44981000  1.0
  O  O58  1  0.23816000  0.57511000  0.55019000  1.0
  O  O59  1  0.95575000  0.31008000  0.61539000  1.0
  O  O60  1  0.04425000  0.68992000  0.38460000  1.0
  O  O61  1  0.90073000  0.24059000  0.36583000  1.0
  O  O62  1  0.09927000  0.75942000  0.63416000  1.0
