# generated using pymatgen
data_HgH8C7N2Cl2O
_symmetry_space_group_name_H-M   'P 1'
_cell_length_a   7.39430000
_cell_length_b   11.32690000
_cell_length_c   12.21880000
_cell_angle_alpha   90.00100000
_cell_angle_beta   90.00190000
_cell_angle_gamma   80.37860000
_symmetry_Int_Tables_number   1
_chemical_formula_structural   HgH8C7N2Cl2O
_chemical_formula_sum   'Hg4 H32 C28 N8 Cl8 O4'
_cell_volume   1008.98426064
_cell_formula_units_Z   4
loop_
 _symmetry_equiv_pos_site_id
 _symmetry_equiv_pos_as_xyz
  1  'x, y, z'
loop_
 _atom_site_type_symbol
 _atom_site_label
 _atom_site_symmetry_multiplicity
 _atom_site_fract_x
 _atom_site_fract_y
 _atom_site_fract_z
 _atom_site_occupancy
  Hg  Hg0  1  0.44565000  0.05146000  0.66676000  1.0
  Hg  Hg1  1  0.05435000  0.94855000  0.16676000  1.0
  Hg  Hg2  1  0.55436000  0.94855000  0.33325000  1.0
  Hg  Hg3  1  0.94563000  0.05146000  0.83324000  1.0
  H  H4  1  0.51686000  0.39903000  0.96982000  1.0
  H  H5  1  0.98312000  0.60097000  0.46980000  1.0
  H  H6  1  0.48312000  0.60097000  0.03019000  1.0
  H  H7  1  0.01689000  0.39902000  0.53019000  1.0
  H  H8  1  0.60042000  0.35330000  0.66352000  1.0
  H  H9  1  0.89962000  0.64668000  0.16350000  1.0
  H  H10  1  0.39962000  0.64670000  0.33649000  1.0
  H  H11  1  0.10037000  0.35332000  0.83650000  1.0
  H  H12  1  0.67428000  0.52019000  0.54557000  1.0
  H  H13  1  0.82578000  0.47975000  0.04556000  1.0
  H  H14  1  0.32573000  0.47980000  0.45443000  1.0
  H  H15  1  0.17420000  0.52025000  0.95443000  1.0
  H  H16  1  0.74895000  0.70547000  0.63799000  1.0
  H  H17  1  0.75108000  0.29450000  0.13799000  1.0
  H  H18  1  0.25103000  0.29454000  0.36201000  1.0
  H  H19  1  0.24893000  0.70550000  0.86201000  1.0
  H  H20  1  0.74690000  0.71538000  0.84058000  1.0
  H  H21  1  0.75307000  0.28463000  0.34058000  1.0
  H  H22  1  0.25308000  0.28464000  0.15942000  1.0
  H  H23  1  0.24691000  0.71537000  0.65942000  1.0
  H  H24  1  0.56548000  0.09998000  0.96513000  1.0
  H  H25  1  0.93451000  0.90002000  0.46511000  1.0
  H  H26  1  0.43450000  0.90003000  0.03488000  1.0
  H  H27  1  0.06555000  0.09997000  0.53488000  1.0
  H  H28  1  0.44395000  0.23477000  0.02570000  1.0
  H  H29  1  0.05604000  0.76523000  0.52568000  1.0
  H  H30  1  0.55602000  0.76524000  0.97431000  1.0
  H  H31  1  0.94401000  0.23475000  0.47430000  1.0
  H  H32  1  0.34307000  0.16431000  0.91514000  1.0
  H  H33  1  0.15693000  0.83568000  0.41513000  1.0
  H  H34  1  0.65692000  0.83570000  0.08486000  1.0
  H  H35  1  0.84310000  0.16429000  0.58484000  1.0
  C  C36  1  0.56583000  0.36647000  0.88932000  1.0
  C  C37  1  0.93415000  0.63352000  0.38931000  1.0
  C  C38  1  0.43416000  0.63353000  0.11069000  1.0
  C  C39  1  0.06585000  0.36647000  0.61069000  1.0
  C  C40  1  0.62671000  0.45033000  0.81367000  1.0
  C  C41  1  0.87330000  0.54966000  0.31365000  1.0
  C  C42  1  0.37330000  0.54968000  0.18635000  1.0
  C  C43  1  0.12671000  0.45033000  0.68635000  1.0
  C  C44  1  0.63171000  0.43539000  0.69940000  1.0
  C  C45  1  0.86829000  0.56459000  0.19938000  1.0
  C  C46  1  0.36831000  0.56462000  0.30061000  1.0
  C  C47  1  0.13168000  0.43540000  0.80062000  1.0
  C  C48  1  0.67228000  0.52868000  0.63459000  1.0
  C  C49  1  0.82776000  0.47128000  0.13459000  1.0
  C  C50  1  0.32774000  0.47132000  0.36542000  1.0
  C  C51  1  0.17222000  0.52870000  0.86542000  1.0
  C  C52  1  0.71492000  0.63074000  0.68518000  1.0
  C  C53  1  0.78508000  0.36923000  0.18518000  1.0
  C  C54  1  0.28507000  0.36927000  0.31482000  1.0
  C  C55  1  0.21490000  0.63076000  0.81481000  1.0
  C  C56  1  0.71143000  0.63672000  0.79941000  1.0
  C  C57  1  0.78856000  0.36328000  0.29941000  1.0
  C  C58  1  0.28856000  0.36330000  0.20059000  1.0
  C  C59  1  0.21144000  0.63671000  0.70058000  1.0
  C  C60  1  0.47155000  0.18382000  0.94996000  1.0
  C  C61  1  0.02844000  0.81617000  0.44993000  1.0
  C  C62  1  0.52843000  0.81618000  0.05005000  1.0
  C  C63  1  0.97161000  0.18382000  0.55005000  1.0
  N  N64  1  0.55611000  0.25394000  0.86986000  1.0
  N  N65  1  0.94389000  0.74605000  0.36984000  1.0
  N  N66  1  0.44389000  0.74606000  0.13015000  1.0
  N  N67  1  0.05611000  0.25393000  0.63015000  1.0
  N  N68  1  0.66448000  0.55090000  0.86320000  1.0
  N  N69  1  0.83549000  0.44910000  0.36320000  1.0
  N  N70  1  0.33550000  0.44912000  0.13679000  1.0
  N  N71  1  0.16450000  0.55090000  0.63679000  1.0
  Cl  Cl72  1  0.49398000  0.16839000  0.51303000  1.0
  Cl  Cl73  1  0.00603000  0.83162000  0.01302000  1.0
  Cl  Cl74  1  0.50604000  0.83162000  0.48698000  1.0
  Cl  Cl75  1  0.99397000  0.16838000  0.98698000  1.0
  Cl  Cl76  1  0.35182000  0.92352000  0.79940000  1.0
  Cl  Cl77  1  0.14818000  0.07649000  0.29940000  1.0
  Cl  Cl78  1  0.64819000  0.07649000  0.20060000  1.0
  Cl  Cl79  1  0.85181000  0.92352000  0.70058000  1.0
  O  O80  1  0.61795000  0.19666000  0.78081000  1.0
  O  O81  1  0.88205000  0.80332000  0.28079000  1.0
  O  O82  1  0.38205000  0.80334000  0.21920000  1.0
  O  O83  1  0.11794000  0.19668000  0.71921000  1.0
