# generated using pymatgen
data_Ca2H2C7O10
_symmetry_space_group_name_H-M   'P 1'
_cell_length_a   7.27187000
_cell_length_b   9.36288000
_cell_length_c   15.04920000
_cell_angle_alpha   90.00000000
_cell_angle_beta   90.00010000
_cell_angle_gamma   90.00000000
_symmetry_Int_Tables_number   1
_chemical_formula_structural   Ca2H2C7O10
_chemical_formula_sum   'Ca8 H8 C28 O40'
_cell_volume   1024.63450657
_cell_formula_units_Z   4
loop_
 _symmetry_equiv_pos_site_id
 _symmetry_equiv_pos_as_xyz
  1  'x, y, z'
loop_
 _atom_site_type_symbol
 _atom_site_label
 _atom_site_symmetry_multiplicity
 _atom_site_fract_x
 _atom_site_fract_y
 _atom_site_fract_z
 _atom_site_occupancy
  Ca  Ca0  1  0.75000000  0.49469000  0.68475000  1.0
  Ca  Ca1  1  0.25000000  0.99468000  0.81526000  1.0
  Ca  Ca2  1  0.75000000  0.00531000  0.18474000  1.0
  Ca  Ca3  1  0.25000000  0.50532000  0.31526000  1.0
  Ca  Ca4  1  0.75000000  0.87417000  0.76687000  1.0
  Ca  Ca5  1  0.25000000  0.37417000  0.73313000  1.0
  Ca  Ca6  1  0.75000000  0.62582000  0.26687000  1.0
  Ca  Ca7  1  0.25000000  0.12583000  0.23313000  1.0
  H  H8  1  0.75000000  0.47497000  0.49350000  1.0
  H  H9  1  0.25000000  0.97497000  0.00650000  1.0
  H  H10  1  0.75000000  0.02503000  0.99350000  1.0
  H  H11  1  0.25000000  0.52503000  0.50650000  1.0
  H  H12  1  0.75000000  0.30635000  0.51205000  1.0
  H  H13  1  0.25000000  0.80635000  0.98795000  1.0
  H  H14  1  0.75000000  0.19365000  0.01205000  1.0
  H  H15  1  0.25000000  0.69365000  0.48795000  1.0
  C  C16  1  0.75000000  0.96124000  0.55754000  1.0
  C  C17  1  0.25000000  0.46124000  0.94246000  1.0
  C  C18  1  0.75000000  0.53876000  0.05754000  1.0
  C  C19  1  0.25000000  0.03876000  0.44246000  1.0
  C  C20  1  0.75000000  0.80458000  0.55424000  1.0
  C  C21  1  0.25000000  0.30458000  0.94576000  1.0
  C  C22  1  0.75000000  0.69542000  0.05424000  1.0
  C  C23  1  0.25000000  0.19542000  0.44576000  1.0
  C  C24  1  0.75000000  0.76085000  0.46161000  1.0
  C  C25  1  0.25000000  0.26085000  0.03839000  1.0
  C  C26  1  0.75000000  0.73915000  0.96161000  1.0
  C  C27  1  0.25000000  0.23915000  0.53839000  1.0
  C  C28  1  0.75000000  0.89065000  0.40708000  1.0
  C  C29  1  0.25000000  0.39065000  0.09292000  1.0
  C  C30  1  0.75000000  0.60935000  0.90709000  1.0
  C  C31  1  0.25000000  0.10936000  0.59292000  1.0
  C  C32  1  0.75000000  0.01832000  0.46546000  1.0
  C  C33  1  0.25000000  0.51832000  0.03454000  1.0
  C  C34  1  0.75000000  0.48168000  0.96546000  1.0
  C  C35  1  0.25000000  0.98168000  0.53454000  1.0
  C  C36  1  0.14309000  0.69506000  0.72522000  1.0
  C  C37  1  0.85691000  0.19506000  0.77478000  1.0
  C  C38  1  0.35691000  0.80494000  0.22522000  1.0
  C  C39  1  0.64309000  0.30494000  0.27478000  1.0
  C  C40  1  0.85691000  0.30494000  0.27478000  1.0
  C  C41  1  0.14309000  0.80494000  0.22521000  1.0
  C  C42  1  0.64309000  0.19506000  0.77479000  1.0
  C  C43  1  0.35691000  0.69506000  0.72522000  1.0
  O  O44  1  0.75000000  0.02969000  0.62897000  1.0
  O  O45  1  0.25000000  0.52969000  0.87103000  1.0
  O  O46  1  0.75000000  0.47031000  0.12897000  1.0
  O  O47  1  0.25000000  0.97031000  0.37103000  1.0
  O  O48  1  0.75000000  0.72883000  0.62364000  1.0
  O  O49  1  0.25000000  0.22883000  0.87636000  1.0
  O  O50  1  0.75000000  0.77117000  0.12364000  1.0
  O  O51  1  0.25000000  0.27117000  0.37636000  1.0
  O  O52  1  0.75000000  0.63656000  0.42872000  1.0
  O  O53  1  0.25000000  0.13656000  0.07128000  1.0
  O  O54  1  0.75000000  0.86344000  0.92872000  1.0
  O  O55  1  0.25000000  0.36345000  0.57128000  1.0
  O  O56  1  0.75000000  0.88488000  0.32343000  1.0
  O  O57  1  0.25000000  0.38488000  0.17657000  1.0
  O  O58  1  0.75000000  0.61512000  0.82343000  1.0
  O  O59  1  0.25000000  0.11512000  0.67657000  1.0
  O  O60  1  0.75000000  0.14650000  0.44282000  1.0
  O  O61  1  0.25000000  0.64650000  0.05718000  1.0
  O  O62  1  0.75000000  0.35350000  0.94282000  1.0
  O  O63  1  0.25000000  0.85350000  0.55718000  1.0
  O  O64  1  0.06494000  0.58248000  0.69847000  1.0
  O  O65  1  0.93506000  0.08248000  0.80153000  1.0
  O  O66  1  0.43506000  0.91752000  0.19847000  1.0
  O  O67  1  0.56494000  0.41752000  0.30153000  1.0
  O  O68  1  0.93506000  0.41752000  0.30153000  1.0
  O  O69  1  0.06494000  0.91752000  0.19847000  1.0
  O  O70  1  0.56494000  0.08248000  0.80153000  1.0
  O  O71  1  0.43506000  0.58248000  0.69847000  1.0
  O  O72  1  0.06472000  0.80675000  0.75412000  1.0
  O  O73  1  0.93528000  0.30675000  0.74588000  1.0
  O  O74  1  0.43528000  0.69325000  0.25412000  1.0
  O  O75  1  0.56472000  0.19325000  0.24588000  1.0
  O  O76  1  0.93528000  0.19325000  0.24588000  1.0
  O  O77  1  0.06472000  0.69325000  0.25412000  1.0
  O  O78  1  0.56472000  0.30675000  0.74588000  1.0
  O  O79  1  0.43528000  0.80675000  0.75412000  1.0
  O  O80  1  0.75000000  0.40145000  0.54090000  1.0
  O  O81  1  0.25000000  0.90144000  0.95910000  1.0
  O  O82  1  0.75000000  0.09856000  0.04090000  1.0
  O  O83  1  0.25000000  0.59856000  0.45910000  1.0
