# generated using pymatgen
data_YH16C15N2O7
_symmetry_space_group_name_H-M   'P 1'
_cell_length_a   9.67884000
_cell_length_b   13.86930000
_cell_length_c   16.30450000
_cell_angle_alpha   89.99960000
_cell_angle_beta   89.99990000
_cell_angle_gamma   74.47700000
_symmetry_Int_Tables_number   1
_chemical_formula_structural   YH16C15N2O7
_chemical_formula_sum   'Y4 H64 C60 N8 O28'
_cell_volume   2108.85863741
_cell_formula_units_Z   4
loop_
 _symmetry_equiv_pos_site_id
 _symmetry_equiv_pos_as_xyz
  1  'x, y, z'
loop_
 _atom_site_type_symbol
 _atom_site_label
 _atom_site_symmetry_multiplicity
 _atom_site_fract_x
 _atom_site_fract_y
 _atom_site_fract_z
 _atom_site_occupancy
  Y  Y0  1  0.17376000  0.55321000  0.98231000  1.0
  Y  Y1  1  0.32623000  0.94679000  0.48231000  1.0
  Y  Y2  1  0.82624000  0.44679000  0.01769000  1.0
  Y  Y3  1  0.67375000  0.05321000  0.51769000  1.0
  H  H4  1  0.69611000  0.62284000  0.18462000  1.0
  H  H5  1  0.80388000  0.87716000  0.68461000  1.0
  H  H6  1  0.30389000  0.37716000  0.81538000  1.0
  H  H7  1  0.19612000  0.12284000  0.31539000  1.0
  H  H8  1  0.56914000  0.72301000  0.30482000  1.0
  H  H9  1  0.93086000  0.77699000  0.80481000  1.0
  H  H10  1  0.43086000  0.27699000  0.69518000  1.0
  H  H11  1  0.06914000  0.22301000  0.19519000  1.0
  H  H12  1  0.89781000  0.87614000  0.32168000  1.0
  H  H13  1  0.60221000  0.62386000  0.82168000  1.0
  H  H14  1  0.10221000  0.12385000  0.67832000  1.0
  H  H15  1  0.39780000  0.37614000  0.17832000  1.0
  H  H16  1  0.02330000  0.77856000  0.20061000  1.0
  H  H17  1  0.47671000  0.72143000  0.70061000  1.0
  H  H18  1  0.97672000  0.22143000  0.79940000  1.0
  H  H19  1  0.52329000  0.27856000  0.29939000  1.0
  H  H20  1  0.99297000  0.93530000  0.82427000  1.0
  H  H21  1  0.50702000  0.56470000  0.32427000  1.0
  H  H22  1  0.00702000  0.06470000  0.17573000  1.0
  H  H23  1  0.49298000  0.43530000  0.67573000  1.0
  H  H24  1  0.12563000  0.98860000  0.86553000  1.0
  H  H25  1  0.37436000  0.51140000  0.36553000  1.0
  H  H26  1  0.87436000  0.01140000  0.13447000  1.0
  H  H27  1  0.62564000  0.48860000  0.63446000  1.0
  H  H28  1  0.14611000  0.96412000  0.70980000  1.0
  H  H29  1  0.35388000  0.53588000  0.20981000  1.0
  H  H30  1  0.85388000  0.03588000  0.29019000  1.0
  H  H31  1  0.64613000  0.46412000  0.79019000  1.0
  H  H32  1  0.30345000  0.90244000  0.76420000  1.0
  H  H33  1  0.19655000  0.59756000  0.26421000  1.0
  H  H34  1  0.69655000  0.09756000  0.23580000  1.0
  H  H35  1  0.80346000  0.40244000  0.73579000  1.0
  H  H36  1  0.25443000  0.78722000  0.66380000  1.0
  H  H37  1  0.24556000  0.71278000  0.16379000  1.0
  H  H38  1  0.74556000  0.21278000  0.33621000  1.0
  H  H39  1  0.75445000  0.28722000  0.83620000  1.0
  H  H40  1  0.07334000  0.81065000  0.69341000  1.0
  H  H41  1  0.42666000  0.68935000  0.19341000  1.0
  H  H42  1  0.92666000  0.18935000  0.30659000  1.0
  H  H43  1  0.57335000  0.31065000  0.80659000  1.0
  H  H44  1  0.12664000  0.92795000  0.99190000  1.0
  H  H45  1  0.37336000  0.57205000  0.49190000  1.0
  H  H46  1  0.87336000  0.07205000  0.00810000  1.0
  H  H47  1  0.62665000  0.42795000  0.50809000  1.0
  H  H48  1  0.22783000  0.80199000  0.01107000  1.0
  H  H49  1  0.27217000  0.69801000  0.51107000  1.0
  H  H50  1  0.77218000  0.19801000  0.98893000  1.0
  H  H51  1  0.72783000  0.30199000  0.48892000  1.0
  H  H52  1  0.03956000  0.82909000  0.99583000  1.0
  H  H53  1  0.46044000  0.67091000  0.49583000  1.0
  H  H54  1  0.96044000  0.17091000  0.00417000  1.0
  H  H55  1  0.53957000  0.32909000  0.50417000  1.0
  H  H56  1  0.31535000  0.57111000  0.79357000  1.0
  H  H57  1  0.18465000  0.92889000  0.29357000  1.0
  H  H58  1  0.68464000  0.42889000  0.20643000  1.0
  H  H59  1  0.81536000  0.07110000  0.70643000  1.0
  H  H60  1  0.33437000  0.61782000  0.69316000  1.0
  H  H61  1  0.16563000  0.88219000  0.19316000  1.0
  H  H62  1  0.66562000  0.38218000  0.30684000  1.0
  H  H63  1  0.83437000  0.11781000  0.80684000  1.0
  H  H64  1  0.16546000  0.60211000  0.72505000  1.0
  H  H65  1  0.33454000  0.89789000  0.22505000  1.0
  H  H66  1  0.83453000  0.39789000  0.27495000  1.0
  H  H67  1  0.66546000  0.10211000  0.77495000  1.0
  C  C68  1  0.86824000  0.69448000  0.18626000  1.0
  C  C69  1  0.63176000  0.80552000  0.68626000  1.0
  C  C70  1  0.13177000  0.30552000  0.81374000  1.0
  C  C71  1  0.36823000  0.19448000  0.31374000  1.0
  C  C72  1  0.74025000  0.67773000  0.21550000  1.0
  C  C73  1  0.75975000  0.82227000  0.71549000  1.0
  C  C74  1  0.25976000  0.32226000  0.78450000  1.0
  C  C75  1  0.24025000  0.17773000  0.28451000  1.0
  C  C76  1  0.66956000  0.73343000  0.28150000  1.0
  C  C77  1  0.83044000  0.76657000  0.78150000  1.0
  C  C78  1  0.33044000  0.26656000  0.71850000  1.0
  C  C79  1  0.16956000  0.23344000  0.21850000  1.0
  C  C80  1  0.72556000  0.80542000  0.31952000  1.0
  C  C81  1  0.77445000  0.69458000  0.81952000  1.0
  C  C82  1  0.27445000  0.19457000  0.68048000  1.0
  C  C83  1  0.22555000  0.30543000  0.18048000  1.0
  C  C84  1  0.85442000  0.82101000  0.29081000  1.0
  C  C85  1  0.64559000  0.67898000  0.79081000  1.0
  C  C86  1  0.14559000  0.17897000  0.70920000  1.0
  C  C87  1  0.35441000  0.32102000  0.20919000  1.0
  C  C88  1  0.92419000  0.76658000  0.22429000  1.0
  C  C89  1  0.57581000  0.73343000  0.72429000  1.0
  C  C90  1  0.07582000  0.23342000  0.77572000  1.0
  C  C91  1  0.42419000  0.26658000  0.27571000  1.0
  C  C92  1  0.94669000  0.63611000  0.11548000  1.0
  C  C93  1  0.55330000  0.86389000  0.61548000  1.0
  C  C94  1  0.05332000  0.36389000  0.88452000  1.0
  C  C95  1  0.44669000  0.13611000  0.38452000  1.0
  C  C96  1  0.64641000  0.86808000  0.38864000  1.0
  C  C97  1  0.85360000  0.63192000  0.88864000  1.0
  C  C98  1  0.35360000  0.13191000  0.61136000  1.0
  C  C99  1  0.14640000  0.36808000  0.11136000  1.0
  C  C100  1  0.49195000  0.53539000  0.03780000  1.0
  C  C101  1  0.00804000  0.96461000  0.53779000  1.0
  C  C102  1  0.50804000  0.46461000  0.96221000  1.0
  C  C103  1  0.99194000  0.03539000  0.46220000  1.0
  C  C104  1  0.21320000  0.74122000  0.85944000  1.0
  C  C105  1  0.28679000  0.75878000  0.35944000  1.0
  C  C106  1  0.78680000  0.25878000  0.14056000  1.0
  C  C107  1  0.71321000  0.24122000  0.64056000  1.0
  C  C108  1  0.10968000  0.92198000  0.83446000  1.0
  C  C109  1  0.39032000  0.57802000  0.33446000  1.0
  C  C110  1  0.89032000  0.07802000  0.16554000  1.0
  C  C111  1  0.60969000  0.42198000  0.66554000  1.0
  C  C112  1  0.19053000  0.90412000  0.75367000  1.0
  C  C113  1  0.30947000  0.59588000  0.25368000  1.0
  C  C114  1  0.80947000  0.09589000  0.24633000  1.0
  C  C115  1  0.69054000  0.40412000  0.74632000  1.0
  C  C116  1  0.18203000  0.80553000  0.71670000  1.0
  C  C117  1  0.31796000  0.69447000  0.21670000  1.0
  C  C118  1  0.81796000  0.19447000  0.28330000  1.0
  C  C119  1  0.68205000  0.30553000  0.78330000  1.0
  C  C120  1  0.13743000  0.84923000  0.97669000  1.0
  C  C121  1  0.36257000  0.65077000  0.47669000  1.0
  C  C122  1  0.86257000  0.15077000  0.02331000  1.0
  C  C123  1  0.63744000  0.34922000  0.52331000  1.0
  C  C124  1  0.26174000  0.62330000  0.74585000  1.0
  C  C125  1  0.23825000  0.87671000  0.24585000  1.0
  C  C126  1  0.73825000  0.37671000  0.25415000  1.0
  C  C127  1  0.76175000  0.12329000  0.75415000  1.0
  N  N128  1  0.16298000  0.83620000  0.88877000  1.0
  N  N129  1  0.33702000  0.66380000  0.38877000  1.0
  N  N130  1  0.83702000  0.16380000  0.11124000  1.0
  N  N131  1  0.66299000  0.33620000  0.61123000  1.0
  N  N132  1  0.22508000  0.72505000  0.77714000  1.0
  N  N133  1  0.27491000  0.77495000  0.27714000  1.0
  N  N134  1  0.77491000  0.27495000  0.22285000  1.0
  N  N135  1  0.72510000  0.22505000  0.72285000  1.0
  O  O136  1  0.05579000  0.65972000  0.08697000  1.0
  O  O137  1  0.44420000  0.84027000  0.58697000  1.0
  O  O138  1  0.94421000  0.34027000  0.91304000  1.0
  O  O139  1  0.55579000  0.15973000  0.41303000  1.0
  O  O140  1  0.90332000  0.56379000  0.08672000  1.0
  O  O141  1  0.59667000  0.93621000  0.58672000  1.0
  O  O142  1  0.09669000  0.43621000  0.91328000  1.0
  O  O143  1  0.40332000  0.06379000  0.41328000  1.0
  O  O144  1  0.70323000  0.93287000  0.41872000  1.0
  O  O145  1  0.79677000  0.56714000  0.91872000  1.0
  O  O146  1  0.29677000  0.06714000  0.58128000  1.0
  O  O147  1  0.20322000  0.43287000  0.08128000  1.0
  O  O148  1  0.52776000  0.85341000  0.41127000  1.0
  O  O149  1  0.97224000  0.64660000  0.91127000  1.0
  O  O150  1  0.47224000  0.14659000  0.58873000  1.0
  O  O151  1  0.02775000  0.35341000  0.08874000  1.0
  O  O152  1  0.60685000  0.54298000  0.07148000  1.0
  O  O153  1  0.89314000  0.95701000  0.57148000  1.0
  O  O154  1  0.39315000  0.45702000  0.92853000  1.0
  O  O155  1  0.10684000  0.04298000  0.42852000  1.0
  O  O156  1  0.36590000  0.57942000  0.05987000  1.0
  O  O157  1  0.13408000  0.92059000  0.55987000  1.0
  O  O158  1  0.63410000  0.42059000  0.94014000  1.0
  O  O159  1  0.86589000  0.07941000  0.44013000  1.0
  O  O160  1  0.25139000  0.66889000  0.90946000  1.0
  O  O161  1  0.24861000  0.83111000  0.40947000  1.0
  O  O162  1  0.74860000  0.33111000  0.09053000  1.0
  O  O163  1  0.75139000  0.16889000  0.59053000  1.0
