# generated using pymatgen
data_Mn2H32C37S4N6O11
_symmetry_space_group_name_H-M   'P 1'
_cell_length_a   12.55680000
_cell_length_b   15.89300000
_cell_length_c   22.13250000
_cell_angle_alpha   71.69100000
_cell_angle_beta   89.99950000
_cell_angle_gamma   89.99940000
_symmetry_Int_Tables_number   1
_chemical_formula_structural   Mn2H32C37S4N6O11
_chemical_formula_sum   'Mn8 H128 C148 S16 N24 O44'
_cell_volume   4193.27792532
_cell_formula_units_Z   4
loop_
 _symmetry_equiv_pos_site_id
 _symmetry_equiv_pos_as_xyz
  1  'x, y, z'
loop_
 _atom_site_type_symbol
 _atom_site_label
 _atom_site_symmetry_multiplicity
 _atom_site_fract_x
 _atom_site_fract_y
 _atom_site_fract_z
 _atom_site_occupancy
  Mn  Mn0  1  0.86327000  0.79086000  0.64426000  1.0
  Mn  Mn1  1  0.36327000  0.20916000  0.85573000  1.0
  Mn  Mn2  1  0.13672000  0.20914000  0.35574000  1.0
  Mn  Mn3  1  0.63673000  0.79085000  0.14427000  1.0
  Mn  Mn4  1  0.93064000  0.56258000  0.72779000  1.0
  Mn  Mn5  1  0.43066000  0.43743000  0.77221000  1.0
  Mn  Mn6  1  0.06935000  0.43742000  0.27222000  1.0
  Mn  Mn7  1  0.56935000  0.56257000  0.22778000  1.0
  H  H8  1  0.78777000  0.71897000  0.40926000  1.0
  H  H9  1  0.28776000  0.28101000  0.09075000  1.0
  H  H10  1  0.21226000  0.28103000  0.59075000  1.0
  H  H11  1  0.71223000  0.71899000  0.90925000  1.0
  H  H12  1  0.78435000  0.82024000  0.29551000  1.0
  H  H13  1  0.28435000  0.17974000  0.20448000  1.0
  H  H14  1  0.21569000  0.17975000  0.70449000  1.0
  H  H15  1  0.71566000  0.82026000  0.79551000  1.0
  H  H16  1  0.41613000  0.09028000  0.31080000  1.0
  H  H17  1  0.91614000  0.90972000  0.18915000  1.0
  H  H18  1  0.58387000  0.90973000  0.68918000  1.0
  H  H19  1  0.08387000  0.09028000  0.81082000  1.0
  H  H20  1  0.59380000  0.02948000  0.29738000  1.0
  H  H21  1  0.09381000  0.97052000  0.20257000  1.0
  H  H22  1  0.40620000  0.97052000  0.70260000  1.0
  H  H23  1  0.90620000  0.02949000  0.79740000  1.0
  H  H24  1  0.55264000  0.35201000  0.24407000  1.0
  H  H25  1  0.05262000  0.64798000  0.25595000  1.0
  H  H26  1  0.44738000  0.64799000  0.75594000  1.0
  H  H27  1  0.94737000  0.35202000  0.74406000  1.0
  H  H28  1  0.15914000  0.87222000  0.59734000  1.0
  H  H29  1  0.65912000  0.12778000  0.90268000  1.0
  H  H30  1  0.84088000  0.12776000  0.40267000  1.0
  H  H31  1  0.34087000  0.87223000  0.09733000  1.0
  H  H32  1  0.34828000  0.91812000  0.56859000  1.0
  H  H33  1  0.84827000  0.08187000  0.93142000  1.0
  H  H34  1  0.65173000  0.08185000  0.43140000  1.0
  H  H35  1  0.15173000  0.91814000  0.06858000  1.0
  H  H36  1  0.53773000  0.63099000  0.40956000  1.0
  H  H37  1  0.03774000  0.36900000  0.09044000  1.0
  H  H38  1  0.46227000  0.36900000  0.59043000  1.0
  H  H39  1  0.96225000  0.63101000  0.90956000  1.0
  H  H40  1  0.52297000  0.70356000  0.49604000  1.0
  H  H41  1  0.02297000  0.29643000  0.00396000  1.0
  H  H42  1  0.47702000  0.29642000  0.50395000  1.0
  H  H43  1  0.97702000  0.70358000  0.99604000  1.0
  H  H44  1  0.71067000  0.94132000  0.58193000  1.0
  H  H45  1  0.21065000  0.05870000  0.91806000  1.0
  H  H46  1  0.28935000  0.05869000  0.41806000  1.0
  H  H47  1  0.78936000  0.94131000  0.08194000  1.0
  H  H48  1  0.69171000  0.10465000  0.55681000  1.0
  H  H49  1  0.19169000  0.89537000  0.94318000  1.0
  H  H50  1  0.30830000  0.89536000  0.44319000  1.0
  H  H51  1  0.80831000  0.10464000  0.05682000  1.0
  H  H52  1  0.99991000  0.10558000  0.64329000  1.0
  H  H53  1  0.49990000  0.89443000  0.85671000  1.0
  H  H54  1  0.00011000  0.89441000  0.35672000  1.0
  H  H55  1  0.50011000  0.10558000  0.14329000  1.0
  H  H56  1  0.00739000  0.94271000  0.66344000  1.0
  H  H57  1  0.50738000  0.05730000  0.83655000  1.0
  H  H58  1  0.99263000  0.05729000  0.33655000  1.0
  H  H59  1  0.49264000  0.94270000  0.16345000  1.0
  H  H60  1  0.83934000  0.24010000  0.62167000  1.0
  H  H61  1  0.33934000  0.75991000  0.87833000  1.0
  H  H62  1  0.16068000  0.75989000  0.37836000  1.0
  H  H63  1  0.66068000  0.24009000  0.12166000  1.0
  H  H64  1  0.76696000  0.24309000  0.55253000  1.0
  H  H65  1  0.26695000  0.75692000  0.94747000  1.0
  H  H66  1  0.23304000  0.75691000  0.44750000  1.0
  H  H67  1  0.73305000  0.24308000  0.05251000  1.0
  H  H68  1  0.94626000  0.23154000  0.49837000  1.0
  H  H69  1  0.44627000  0.76849000  0.00162000  1.0
  H  H70  1  0.05373000  0.76847000  0.50164000  1.0
  H  H71  1  0.55373000  0.23152000  0.99838000  1.0
  H  H72  1  0.01089000  0.24152000  0.56624000  1.0
  H  H73  1  0.51088000  0.75849000  0.93376000  1.0
  H  H74  1  0.98912000  0.75849000  0.43377000  1.0
  H  H75  1  0.48912000  0.24150000  0.06624000  1.0
  H  H76  1  0.00473000  0.38145000  0.47812000  1.0
  H  H77  1  0.50473000  0.61857000  0.02188000  1.0
  H  H78  1  0.99527000  0.61856000  0.52190000  1.0
  H  H79  1  0.49526000  0.38142000  0.97812000  1.0
  H  H80  1  0.86293000  0.38054000  0.47890000  1.0
  H  H81  1  0.36294000  0.61948000  0.02110000  1.0
  H  H82  1  0.13706000  0.61946000  0.52111000  1.0
  H  H83  1  0.63705000  0.38053000  0.97889000  1.0
  H  H84  1  0.76298000  0.41538000  0.56591000  1.0
  H  H85  1  0.26300000  0.58463000  0.93409000  1.0
  H  H86  1  0.23697000  0.58460000  0.43410000  1.0
  H  H87  1  0.73698000  0.41538000  0.06591000  1.0
  H  H88  1  0.77101000  0.48328000  0.65266000  1.0
  H  H89  1  0.27104000  0.51674000  0.84734000  1.0
  H  H90  1  0.22893000  0.51672000  0.34736000  1.0
  H  H91  1  0.72895000  0.48327000  0.15265000  1.0
  H  H92  1  0.10111000  0.48136000  0.65245000  1.0
  H  H93  1  0.60113000  0.51865000  0.84757000  1.0
  H  H94  1  0.89883000  0.51865000  0.34758000  1.0
  H  H95  1  0.39885000  0.48136000  0.15243000  1.0
  H  H96  1  0.10646000  0.41032000  0.56687000  1.0
  H  H97  1  0.60648000  0.58968000  0.93315000  1.0
  H  H98  1  0.89349000  0.58969000  0.43316000  1.0
  H  H99  1  0.39350000  0.41031000  0.06685000  1.0
  H  H100  1  0.80307000  0.95067000  0.46940000  1.0
  H  H101  1  0.30306000  0.04932000  0.03059000  1.0
  H  H102  1  0.19695000  0.04933000  0.53060000  1.0
  H  H103  1  0.69693000  0.95068000  0.96940000  1.0
  H  H104  1  0.25932000  0.60143000  0.63275000  1.0
  H  H105  1  0.75931000  0.39856000  0.86726000  1.0
  H  H106  1  0.74068000  0.39854000  0.36725000  1.0
  H  H107  1  0.24068000  0.60146000  0.13275000  1.0
  H  H108  1  0.53879000  0.89133000  0.27220000  1.0
  H  H109  1  0.03879000  0.10866000  0.22780000  1.0
  H  H110  1  0.46123000  0.10867000  0.72780000  1.0
  H  H111  1  0.96123000  0.89134000  0.77219000  1.0
  H  H112  1  0.81465000  0.65569000  0.60596000  1.0
  H  H113  1  0.31465000  0.34432000  0.89404000  1.0
  H  H114  1  0.18534000  0.34431000  0.39404000  1.0
  H  H115  1  0.68535000  0.65569000  0.10595000  1.0
  H  H116  1  0.74491000  0.64630000  0.67124000  1.0
  H  H117  1  0.24491000  0.35371000  0.82876000  1.0
  H  H118  1  0.25509000  0.35370000  0.32876000  1.0
  H  H119  1  0.75509000  0.64629000  0.17123000  1.0
  H  H120  1  0.04806000  0.41129000  0.79711000  1.0
  H  H121  1  0.54807000  0.58871000  0.70289000  1.0
  H  H122  1  0.95193000  0.58870000  0.20289000  1.0
  H  H123  1  0.45194000  0.41129000  0.29711000  1.0
  H  H124  1  0.95463000  0.41690000  0.84224000  1.0
  H  H125  1  0.45465000  0.58310000  0.65775000  1.0
  H  H126  1  0.04535000  0.58309000  0.15776000  1.0
  H  H127  1  0.54536000  0.41690000  0.34224000  1.0
  H  H128  1  0.71491000  0.56074000  0.75800000  1.0
  H  H129  1  0.21491000  0.43927000  0.74200000  1.0
  H  H130  1  0.28509000  0.43927000  0.24200000  1.0
  H  H131  1  0.78509000  0.56073000  0.25801000  1.0
  H  H132  1  0.71460000  0.45725000  0.77288000  1.0
  H  H133  1  0.21461000  0.54275000  0.72712000  1.0
  H  H134  1  0.28540000  0.54276000  0.22712000  1.0
  H  H135  1  0.78540000  0.45724000  0.27288000  1.0
  C  C136  1  0.79741000  0.77231000  0.51649000  1.0
  C  C137  1  0.29741000  0.22770000  0.98350000  1.0
  C  C138  1  0.20258000  0.22770000  0.48350000  1.0
  C  C139  1  0.70259000  0.77230000  0.01650000  1.0
  C  C140  1  0.79581000  0.82763000  0.44795000  1.0
  C  C141  1  0.29581000  0.17236000  0.05205000  1.0
  C  C142  1  0.20420000  0.17238000  0.55206000  1.0
  C  C143  1  0.70419000  0.82764000  0.94795000  1.0
  C  C144  1  0.79117000  0.79075000  0.39820000  1.0
  C  C145  1  0.29117000  0.20924000  0.10181000  1.0
  C  C146  1  0.20885000  0.20926000  0.60182000  1.0
  C  C147  1  0.70883000  0.79076000  0.89819000  1.0
  C  C148  1  0.78967000  0.84615000  0.33560000  1.0
  C  C149  1  0.28967000  0.15384000  0.16440000  1.0
  C  C150  1  0.21036000  0.15386000  0.66441000  1.0
  C  C151  1  0.71034000  0.84615000  0.83559000  1.0
  C  C152  1  0.79216000  0.93813000  0.32517000  1.0
  C  C153  1  0.29215000  0.06185000  0.17481000  1.0
  C  C154  1  0.20788000  0.06187000  0.67482000  1.0
  C  C155  1  0.70786000  0.93814000  0.82518000  1.0
  C  C156  1  0.36439000  0.26444000  0.28653000  1.0
  C  C157  1  0.86440000  0.73556000  0.21346000  1.0
  C  C158  1  0.63562000  0.73557000  0.71346000  1.0
  C  C159  1  0.13561000  0.26444000  0.78653000  1.0
  C  C160  1  0.46901000  0.22665000  0.27653000  1.0
  C  C161  1  0.96901000  0.77334000  0.22346000  1.0
  C  C162  1  0.53100000  0.77335000  0.72347000  1.0
  C  C163  1  0.03099000  0.22666000  0.77653000  1.0
  C  C164  1  0.48251000  0.13469000  0.29148000  1.0
  C  C165  1  0.98252000  0.86530000  0.20849000  1.0
  C  C166  1  0.51749000  0.86531000  0.70851000  1.0
  C  C167  1  0.01749000  0.13471000  0.79149000  1.0
  C  C168  1  0.58132000  0.10074000  0.28344000  1.0
  C  C169  1  0.08133000  0.89925000  0.21653000  1.0
  C  C170  1  0.41868000  0.89926000  0.71655000  1.0
  C  C171  1  0.91868000  0.10075000  0.78345000  1.0
  C  C172  1  0.66384000  0.16137000  0.25934000  1.0
  C  C173  1  0.16384000  0.83861000  0.24066000  1.0
  C  C174  1  0.33617000  0.83863000  0.74066000  1.0
  C  C175  1  0.83616000  0.16138000  0.75934000  1.0
  C  C176  1  0.55824000  0.28056000  0.25467000  1.0
  C  C177  1  0.05822000  0.71942000  0.24534000  1.0
  C  C178  1  0.44178000  0.71943000  0.74534000  1.0
  C  C179  1  0.94177000  0.28058000  0.75466000  1.0
  C  C180  1  0.08400000  0.70176000  0.63811000  1.0
  C  C181  1  0.58400000  0.29823000  0.86190000  1.0
  C  C182  1  0.91600000  0.29822000  0.36190000  1.0
  C  C183  1  0.41600000  0.70178000  0.13811000  1.0
  C  C184  1  0.19480000  0.73267000  0.61779000  1.0
  C  C185  1  0.69479000  0.26733000  0.88222000  1.0
  C  C186  1  0.80521000  0.26731000  0.38221000  1.0
  C  C187  1  0.30521000  0.73269000  0.11779000  1.0
  C  C188  1  0.22006000  0.82310000  0.59800000  1.0
  C  C189  1  0.72004000  0.17690000  0.90201000  1.0
  C  C190  1  0.77996000  0.17688000  0.40201000  1.0
  C  C191  1  0.27995000  0.82312000  0.09799000  1.0
  C  C192  1  0.32483000  0.84864000  0.58218000  1.0
  C  C193  1  0.82482000  0.15135000  0.91783000  1.0
  C  C194  1  0.67518000  0.15133000  0.41782000  1.0
  C  C195  1  0.17518000  0.84867000  0.08217000  1.0
  C  C196  1  0.40072000  0.78275000  0.58532000  1.0
  C  C197  1  0.90072000  0.21725000  0.91469000  1.0
  C  C198  1  0.59928000  0.21722000  0.41468000  1.0
  C  C199  1  0.09928000  0.78277000  0.08531000  1.0
  C  C200  1  0.55634000  0.71946000  0.28067000  1.0
  C  C201  1  0.05634000  0.28053000  0.21934000  1.0
  C  C202  1  0.44368000  0.28054000  0.71933000  1.0
  C  C203  1  0.94366000  0.71947000  0.78066000  1.0
  C  C204  1  0.54078000  0.75599000  0.33450000  1.0
  C  C205  1  0.04080000  0.24400000  0.16551000  1.0
  C  C206  1  0.45923000  0.24400000  0.66551000  1.0
  C  C207  1  0.95921000  0.75600000  0.83449000  1.0
  C  C208  1  0.53457000  0.70288000  0.39819000  1.0
  C  C209  1  0.03458000  0.29710000  0.10182000  1.0
  C  C210  1  0.46544000  0.29710000  0.60181000  1.0
  C  C211  1  0.96542000  0.70290000  0.89819000  1.0
  C  C212  1  0.52649000  0.74258000  0.44587000  1.0
  C  C213  1  0.02650000  0.25741000  0.05413000  1.0
  C  C214  1  0.47350000  0.25740000  0.55413000  1.0
  C  C215  1  0.97350000  0.74259000  0.94586000  1.0
  C  C216  1  0.52684000  0.83539000  0.42710000  1.0
  C  C217  1  0.02685000  0.16460000  0.07290000  1.0
  C  C218  1  0.47316000  0.16459000  0.57290000  1.0
  C  C219  1  0.97315000  0.83541000  0.92709000  1.0
  C  C220  1  0.77302000  0.98046000  0.59465000  1.0
  C  C221  1  0.27300000  0.01956000  0.90534000  1.0
  C  C222  1  0.22699000  0.01955000  0.40534000  1.0
  C  C223  1  0.72700000  0.98044000  0.09465000  1.0
  C  C224  1  0.76319000  0.07160000  0.58079000  1.0
  C  C225  1  0.26316000  0.92842000  0.91920000  1.0
  C  C226  1  0.23683000  0.92841000  0.41921000  1.0
  C  C227  1  0.73684000  0.07159000  0.08079000  1.0
  C  C228  1  0.84516000  0.12004000  0.59715000  1.0
  C  C229  1  0.34515000  0.87997000  0.90285000  1.0
  C  C230  1  0.15486000  0.87996000  0.40287000  1.0
  C  C231  1  0.65486000  0.12003000  0.09714000  1.0
  C  C232  1  0.93371000  0.07219000  0.62857000  1.0
  C  C233  1  0.43370000  0.92782000  0.87143000  1.0
  C  C234  1  0.06630000  0.92780000  0.37144000  1.0
  C  C235  1  0.56630000  0.07219000  0.12857000  1.0
  C  C236  1  0.93827000  0.98111000  0.64033000  1.0
  C  C237  1  0.43825000  0.01890000  0.85967000  1.0
  C  C238  1  0.06175000  0.01889000  0.35967000  1.0
  C  C239  1  0.56175000  0.98111000  0.14033000  1.0
  C  C240  1  0.84133000  0.21926000  0.57866000  1.0
  C  C241  1  0.34133000  0.78075000  0.92134000  1.0
  C  C242  1  0.15867000  0.78074000  0.42136000  1.0
  C  C243  1  0.65868000  0.21925000  0.07866000  1.0
  C  C244  1  0.93816000  0.25980000  0.53755000  1.0
  C  C245  1  0.43817000  0.74022000  0.96244000  1.0
  C  C246  1  0.06183000  0.74021000  0.46247000  1.0
  C  C247  1  0.56183000  0.25978000  0.03755000  1.0
  C  C248  1  0.93448000  0.36106000  0.50879000  1.0
  C  C249  1  0.43449000  0.63896000  0.99121000  1.0
  C  C250  1  0.06549000  0.63895000  0.49122000  1.0
  C  C251  1  0.56550000  0.36104000  0.00879000  1.0
  C  C252  1  0.93468000  0.40602000  0.55906000  1.0
  C  C253  1  0.43469000  0.59400000  0.94095000  1.0
  C  C254  1  0.06529000  0.59398000  0.44096000  1.0
  C  C255  1  0.56529000  0.40601000  0.05904000  1.0
  C  C256  1  0.84010000  0.42806000  0.58402000  1.0
  C  C257  1  0.34011000  0.57195000  0.91599000  1.0
  C  C258  1  0.15986000  0.57193000  0.41600000  1.0
  C  C259  1  0.65987000  0.42806000  0.08400000  1.0
  C  C260  1  0.84397000  0.46625000  0.63247000  1.0
  C  C261  1  0.34400000  0.53376000  0.86753000  1.0
  C  C262  1  0.15597000  0.53374000  0.36754000  1.0
  C  C263  1  0.65598000  0.46625000  0.13246000  1.0
  C  C264  1  0.02757000  0.46437000  0.63279000  1.0
  C  C265  1  0.52759000  0.53564000  0.86723000  1.0
  C  C266  1  0.97238000  0.53564000  0.36724000  1.0
  C  C267  1  0.47240000  0.46437000  0.13277000  1.0
  C  C268  1  0.03020000  0.42480000  0.58506000  1.0
  C  C269  1  0.53022000  0.57520000  0.91495000  1.0
  C  C270  1  0.96975000  0.57520000  0.41496000  1.0
  C  C271  1  0.46977000  0.42480000  0.08505000  1.0
  C  C272  1  0.79880000  0.92018000  0.43162000  1.0
  C  C273  1  0.29879000  0.07982000  0.06837000  1.0
  C  C274  1  0.20122000  0.07983000  0.56838000  1.0
  C  C275  1  0.70121000  0.92018000  0.93162000  1.0
  C  C276  1  0.27608000  0.67229000  0.61866000  1.0
  C  C277  1  0.77607000  0.32771000  0.88135000  1.0
  C  C278  1  0.72392000  0.32769000  0.38134000  1.0
  C  C279  1  0.22392000  0.67231000  0.11866000  1.0
  C  C280  1  0.53533000  0.84814000  0.32144000  1.0
  C  C281  1  0.03534000  0.15185000  0.17857000  1.0
  C  C282  1  0.46469000  0.15185000  0.67856000  1.0
  C  C283  1  0.96468000  0.84815000  0.82143000  1.0
  S  S284  1  0.78518000  0.00604000  0.24423000  1.0
  S  S285  1  0.28517000  0.99395000  0.25577000  1.0
  S  S286  1  0.21484000  0.99396000  0.75578000  1.0
  S  S287  1  0.71485000  0.00605000  0.74423000  1.0
  S  S288  1  0.79582000  0.13244000  0.24599000  1.0
  S  S289  1  0.29581000  0.86755000  0.25402000  1.0
  S  S290  1  0.20419000  0.86756000  0.75401000  1.0
  S  S291  1  0.70418000  0.13245000  0.74598000  1.0
  S  S292  1  0.53766000  0.81050000  0.56802000  1.0
  S  S293  1  0.03765000  0.18949000  0.93198000  1.0
  S  S294  1  0.46235000  0.18946000  0.43198000  1.0
  S  S295  1  0.96234000  0.81053000  0.06802000  1.0
  S  S296  1  0.52781000  0.90048000  0.47937000  1.0
  S  S297  1  0.02781000  0.09952000  0.02064000  1.0
  S  S298  1  0.47219000  0.09950000  0.52064000  1.0
  S  S299  1  0.97219000  0.90050000  0.97936000  1.0
  N  N300  1  0.79673000  0.97494000  0.37161000  1.0
  N  N301  1  0.29672000  0.02504000  0.12839000  1.0
  N  N302  1  0.20330000  0.02506000  0.62839000  1.0
  N  N303  1  0.70328000  0.97496000  0.87161000  1.0
  N  N304  1  0.37753000  0.69580000  0.60281000  1.0
  N  N305  1  0.87751000  0.30420000  0.89720000  1.0
  N  N306  1  0.62247000  0.30418000  0.39719000  1.0
  N  N307  1  0.12247000  0.69582000  0.10280000  1.0
  N  N308  1  0.52884000  0.88759000  0.36639000  1.0
  N  N309  1  0.02884000  0.11240000  0.13361000  1.0
  N  N310  1  0.47117000  0.11240000  0.63361000  1.0
  N  N311  1  0.97116000  0.88761000  0.86638000  1.0
  N  N312  1  0.85967000  0.93541000  0.62339000  1.0
  N  N313  1  0.35965000  0.06460000  0.87661000  1.0
  N  N314  1  0.14035000  0.06459000  0.37660000  1.0
  N  N315  1  0.64036000  0.93540000  0.12339000  1.0
  N  N316  1  0.93602000  0.48497000  0.65684000  1.0
  N  N317  1  0.43605000  0.51505000  0.84317000  1.0
  N  N318  1  0.06393000  0.51504000  0.34318000  1.0
  N  N319  1  0.56394000  0.48496000  0.15682000  1.0
  N  N320  1  0.65369000  0.24945000  0.24535000  1.0
  N  N321  1  0.15368000  0.75054000  0.25466000  1.0
  N  N322  1  0.34632000  0.75055000  0.75466000  1.0
  N  N323  1  0.84631000  0.24946000  0.74534000  1.0
  O  O324  1  0.80862000  0.68886000  0.53130000  1.0
  O  O325  1  0.30863000  0.31115000  0.96870000  1.0
  O  O326  1  0.19137000  0.31116000  0.46870000  1.0
  O  O327  1  0.69138000  0.68885000  0.03130000  1.0
  O  O328  1  0.78714000  0.81529000  0.55650000  1.0
  O  O329  1  0.28712000  0.18472000  0.94348000  1.0
  O  O330  1  0.21286000  0.18471000  0.44349000  1.0
  O  O331  1  0.71287000  0.81529000  0.05651000  1.0
  O  O332  1  0.00920000  0.75220000  0.60963000  1.0
  O  O333  1  0.50920000  0.24778000  0.89038000  1.0
  O  O334  1  0.99080000  0.24778000  0.39038000  1.0
  O  O335  1  0.49080000  0.75222000  0.10962000  1.0
  O  O336  1  0.07453000  0.62709000  0.68228000  1.0
  O  O337  1  0.57452000  0.37289000  0.81773000  1.0
  O  O338  1  0.92547000  0.37289000  0.31773000  1.0
  O  O339  1  0.42548000  0.62711000  0.18227000  1.0
  O  O340  1  0.28388000  0.21414000  0.29805000  1.0
  O  O341  1  0.78388000  0.78586000  0.20194000  1.0
  O  O342  1  0.71613000  0.78586000  0.70194000  1.0
  O  O343  1  0.21612000  0.21416000  0.79804000  1.0
  O  O344  1  0.36103000  0.34701000  0.28392000  1.0
  O  O345  1  0.86103000  0.65299000  0.21608000  1.0
  O  O346  1  0.63897000  0.65300000  0.71607000  1.0
  O  O347  1  0.13896000  0.34701000  0.78391000  1.0
  O  O348  1  0.54700000  0.77519000  0.22516000  1.0
  O  O349  1  0.04699000  0.22481000  0.27484000  1.0
  O  O350  1  0.45302000  0.22482000  0.77484000  1.0
  O  O351  1  0.95302000  0.77519000  0.72515000  1.0
  O  O352  1  0.57920000  0.63766000  0.29282000  1.0
  O  O353  1  0.07920000  0.36232000  0.20718000  1.0
  O  O354  1  0.42082000  0.36233000  0.70718000  1.0
  O  O355  1  0.92079000  0.63768000  0.79282000  1.0
  O  O356  1  0.81884000  0.64689000  0.65432000  1.0
  O  O357  1  0.31884000  0.35312000  0.84568000  1.0
  O  O358  1  0.18115000  0.35311000  0.34568000  1.0
  O  O359  1  0.68116000  0.64687000  0.15432000  1.0
  O  O360  1  0.99709000  0.45440000  0.80635000  1.0
  O  O361  1  0.49711000  0.54561000  0.69365000  1.0
  O  O362  1  0.00289000  0.54560000  0.19365000  1.0
  O  O363  1  0.50290000  0.45439000  0.30635000  1.0
  O  O364  1  0.76106000  0.50753000  0.77124000  1.0
  O  O365  1  0.26106000  0.49247000  0.72876000  1.0
  O  O366  1  0.23894000  0.49248000  0.22876000  1.0
  O  O367  1  0.73894000  0.50752000  0.27124000  1.0
