# generated using pymatgen
data_CuH15C18S2N3O5
_symmetry_space_group_name_H-M   'P 1'
_cell_length_a   9.88944000
_cell_length_b   10.29260000
_cell_length_c   12.47810000
_cell_angle_alpha   73.40380000
_cell_angle_beta   68.75530000
_cell_angle_gamma   69.63450000
_symmetry_Int_Tables_number   1
_chemical_formula_structural   CuH15C18S2N3O5
_chemical_formula_sum   'Cu2 H30 C36 S4 N6 O10'
_cell_volume   1091.15601311
_cell_formula_units_Z   2
loop_
 _symmetry_equiv_pos_site_id
 _symmetry_equiv_pos_as_xyz
  1  'x, y, z'
loop_
 _atom_site_type_symbol
 _atom_site_label
 _atom_site_symmetry_multiplicity
 _atom_site_fract_x
 _atom_site_fract_y
 _atom_site_fract_z
 _atom_site_occupancy
  Cu  Cu0  1  0.94341000  0.50180000  0.37748000  1.0
  Cu  Cu1  1  0.05659000  0.49820000  0.62252000  1.0
  H  H2  1  0.28307000  0.41583000  0.32990000  1.0
  H  H3  1  0.71693000  0.58418000  0.67011000  1.0
  H  H4  1  0.49124000  0.19112000  0.29261000  1.0
  H  H5  1  0.50877000  0.80890000  0.70738000  1.0
  H  H6  1  0.42071000  0.97641000  0.30273000  1.0
  H  H7  1  0.57930000  0.02359000  0.69727000  1.0
  H  H8  1  0.15246000  0.99088000  0.34082000  1.0
  H  H9  1  0.84755000  0.00912000  0.65918000  1.0
  H  H10  1  0.61734000  0.51246000  0.41823000  1.0
  H  H11  1  0.38265000  0.48753000  0.58177000  1.0
  H  H12  1  0.48116000  0.32918000  0.45381000  1.0
  H  H13  1  0.51885000  0.67080000  0.54619000  1.0
  H  H14  1  0.63555000  0.08199000  0.43158000  1.0
  H  H15  1  0.36447000  0.91800000  0.56843000  1.0
  H  H16  1  0.91589000  0.02486000  0.37943000  1.0
  H  H17  1  0.08412000  0.97513000  0.62057000  1.0
  H  H18  1  0.19008000  0.53781000  0.11054000  1.0
  H  H19  1  0.80993000  0.46219000  0.88946000  1.0
  H  H20  1  0.85782000  0.69888000  0.01457000  1.0
  H  H21  1  0.14217000  0.30113000  0.98543000  1.0
  H  H22  1  0.96544000  0.65951000  0.87110000  1.0
  H  H23  1  0.03456000  0.34048000  0.12891000  1.0
  H  H24  1  0.94895000  0.82238000  0.90507000  1.0
  H  H25  1  0.05105000  0.17762000  0.09494000  1.0
  H  H26  1  0.32474000  0.59788000  0.93843000  1.0
  H  H27  1  0.67525000  0.40211000  0.06158000  1.0
  H  H28  1  0.23865000  0.75375000  0.85202000  1.0
  H  H29  1  0.76135000  0.24624000  0.14799000  1.0
  H  H30  1  0.25755000  0.58415000  0.82786000  1.0
  H  H31  1  0.74245000  0.41584000  0.17215000  1.0
  C  C32  1  0.86768000  0.83574000  0.26236000  1.0
  C  C33  1  0.13231000  0.16427000  0.73763000  1.0
  C  C34  1  0.01572000  0.80595000  0.25314000  1.0
  C  C35  1  0.98426000  0.19406000  0.74685000  1.0
  C  C36  1  0.98595000  0.96837000  0.05726000  1.0
  C  C37  1  0.01404000  0.03164000  0.94273000  1.0
  C  C38  1  0.74257000  0.78893000  0.36182000  1.0
  C  C39  1  0.25743000  0.21107000  0.63818000  1.0
  C  C40  1  0.10112000  0.71572000  0.33833000  1.0
  C  C41  1  0.89887000  0.28429000  0.66167000  1.0
  C  C42  1  0.26089000  0.32014000  0.32774000  1.0
  C  C43  1  0.73911000  0.67987000  0.67226000  1.0
  C  C44  1  0.37427000  0.19553000  0.30837000  1.0
  C  C45  1  0.62575000  0.80448000  0.69162000  1.0
  C  C46  1  0.33459000  0.07625000  0.31304000  1.0
  C  C47  1  0.66542000  0.92376000  0.68695000  1.0
  C  C48  1  0.18330000  0.08488000  0.33572000  1.0
  C  C49  1  0.81671000  0.91512000  0.66428000  1.0
  C  C50  1  0.07526000  0.21355000  0.35306000  1.0
  C  C51  1  0.92475000  0.78645000  0.64694000  1.0
  C  C52  1  0.67741000  0.40245000  0.41257000  1.0
  C  C53  1  0.32259000  0.59754000  0.58744000  1.0
  C  C54  1  0.60382000  0.30165000  0.42940000  1.0
  C  C55  1  0.39618000  0.69834000  0.57060000  1.0
  C  C56  1  0.68972000  0.16364000  0.41826000  1.0
  C  C57  1  0.31028000  0.83635000  0.58175000  1.0
  C  C58  1  0.84606000  0.13134000  0.39016000  1.0
  C  C59  1  0.15395000  0.86866000  0.60985000  1.0
  C  C60  1  0.91223000  0.23668000  0.37775000  1.0
  C  C61  1  0.08777000  0.76332000  0.62225000  1.0
  C  C62  1  0.07929000  0.58136000  0.09250000  1.0
  C  C63  1  0.92071000  0.41863000  0.90751000  1.0
  C  C64  1  0.95735000  0.71010000  0.94030000  1.0
  C  C65  1  0.04264000  0.28990000  0.05971000  1.0
  C  C66  1  0.23593000  0.64491000  0.89471000  1.0
  C  C67  1  0.76407000  0.35509000  0.10530000  1.0
  S  S68  1  0.80464000  0.95937000  0.14904000  1.0
  S  S69  1  0.19535000  0.04064000  0.85095000  1.0
  S  S70  1  0.12677000  0.89310000  0.12883000  1.0
  S  S71  1  0.87321000  0.10692000  0.87117000  1.0
  N  N72  1  0.11551000  0.32858000  0.34887000  1.0
  N  N73  1  0.88450000  0.67142000  0.65112000  1.0
  N  N74  1  0.82729000  0.37016000  0.38894000  1.0
  N  N75  1  0.17271000  0.62983000  0.61106000  1.0
  N  N76  1  0.09053000  0.64353000  0.98050000  1.0
  N  N77  1  0.90947000  0.35647000  0.01950000  1.0
  O  O78  1  0.76456000  0.65971000  0.41598000  1.0
  O  O79  1  0.23544000  0.34028000  0.58401000  1.0
  O  O80  1  0.61965000  0.88124000  0.38542000  1.0
  O  O81  1  0.38035000  0.11876000  0.61458000  1.0
  O  O82  1  0.07275000  0.59722000  0.39588000  1.0
  O  O83  1  0.92726000  0.40277000  0.60410000  1.0
  O  O84  1  0.19935000  0.75950000  0.34648000  1.0
  O  O85  1  0.80060000  0.24053000  0.65354000  1.0
  O  O86  1  0.95946000  0.57087000  0.17019000  1.0
  O  O87  1  0.04055000  0.42913000  0.82982000  1.0
