# generated using pymatgen
data_Zn4H2C24S4N4O21F2
_symmetry_space_group_name_H-M   'P 1'
_cell_length_a   19.59360000
_cell_length_b   19.60730000
_cell_length_c   33.19420000
_cell_angle_alpha   79.52060000
_cell_angle_beta   79.56940000
_cell_angle_gamma   64.17250000
_symmetry_Int_Tables_number   1
_chemical_formula_structural   Zn4H2C24S4N4O21F2
_chemical_formula_sum   'Zn16 H8 C96 S16 N16 O84 F8'
_cell_volume   11212.24882151
_cell_formula_units_Z   4
loop_
 _symmetry_equiv_pos_site_id
 _symmetry_equiv_pos_as_xyz
  1  'x, y, z'
loop_
 _atom_site_type_symbol
 _atom_site_label
 _atom_site_symmetry_multiplicity
 _atom_site_fract_x
 _atom_site_fract_y
 _atom_site_fract_z
 _atom_site_occupancy
  Zn  Zn0  1  0.05962000  0.40210000  0.47739000  1.0
  Zn  Zn1  1  0.97899000  0.48539000  0.56053000  1.0
  Zn  Zn2  1  0.06281000  0.55785000  0.48179000  1.0
  Zn  Zn3  1  0.89836000  0.55502000  0.48108000  1.0
  Zn  Zn4  1  0.69455000  0.35138000  0.26911000  1.0
  Zn  Zn5  1  0.69278000  0.18665000  0.26819000  1.0
  Zn  Zn6  1  0.76590000  0.27053000  0.18963000  1.0
  Zn  Zn7  1  0.84754000  0.19087000  0.27332000  1.0
  Zn  Zn8  1  0.26460000  0.77178000  0.68979000  1.0
  Zn  Zn9  1  0.34805000  0.69147000  0.77279000  1.0
  Zn  Zn10  1  0.19377000  0.85100000  0.76964000  1.0
  Zn  Zn11  1  0.19394000  0.68534000  0.76810000  1.0
  Zn  Zn12  1  0.56407000  0.05657000  0.98185000  1.0
  Zn  Zn13  1  0.39872000  0.05573000  0.98068000  1.0
  Zn  Zn14  1  0.55897000  0.90222000  0.97712000  1.0
  Zn  Zn15  1  0.47880000  0.98492000  0.06033000  1.0
  H  H16  1  0.46585000  0.23943000  0.33849000  1.0
  H  H17  1  0.47483000  0.70179000  0.60231000  1.0
  H  H18  1  0.20154000  0.98203000  0.60038000  1.0
  H  H19  1  0.94971000  0.96701000  0.34919000  1.0
  H  H20  1  0.54829000  0.77449000  0.14748000  1.0
  H  H21  1  0.15918000  0.14263000  0.04137000  1.0
  H  H22  1  0.30312000  0.27471000  0.90211000  1.0
  H  H23  1  0.79025000  0.00923000  0.90798000  1.0
  C  C24  1  0.06105000  0.31948000  0.56029000  1.0
  C  C25  1  0.06810000  0.56898000  0.56794000  1.0
  C  C26  1  0.18723000  0.43858000  0.43733000  1.0
  C  C27  1  0.93828000  0.68067000  0.44004000  1.0
  C  C28  1  0.93190000  0.43126000  0.43222000  1.0
  C  C29  1  0.81280000  0.56161000  0.56303000  1.0
  C  C30  1  0.56920000  0.31024000  0.31023000  1.0
  C  C31  1  0.68191000  0.18159000  0.18192000  1.0
  C  C32  1  0.68864000  0.43670000  0.18696000  1.0
  C  C33  1  0.93130000  0.18859000  0.19049000  1.0
  C  C34  1  0.81782000  0.31817000  0.31838000  1.0
  C  C35  1  0.81199000  0.06239000  0.31273000  1.0
  C  C36  1  0.43033000  0.69100000  0.68949000  1.0
  C  C37  1  0.31760000  0.81863000  0.81830000  1.0
  C  C38  1  0.18745000  0.93758000  0.68747000  1.0
  C  C39  1  0.06955000  0.80914000  0.81020000  1.0
  C  C40  1  0.18266000  0.68166000  0.68170000  1.0
  C  C41  1  0.31414000  0.56219000  0.81232000  1.0
  C  C42  1  0.43959000  0.18076000  0.93994000  1.0
  C  C43  1  0.43157000  0.93216000  0.93190000  1.0
  C  C44  1  0.68787000  0.93745000  0.93748000  1.0
  C  C45  1  0.56006000  0.81917000  0.06032000  1.0
  C  C46  1  0.56843000  0.06781000  0.06816000  1.0
  C  C47  1  0.31232000  0.06263000  0.06247000  1.0
  C  C48  1  0.90269000  0.40232000  0.40285000  1.0
  C  C49  1  0.84716000  0.34739000  0.34750000  1.0
  C  C50  1  0.83179000  0.44612000  0.38808000  1.0
  C  C51  1  0.91923000  0.30474000  0.36110000  1.0
  C  C52  1  0.80366000  0.41827000  0.36224000  1.0
  C  C53  1  0.94515000  0.33042000  0.38914000  1.0
  C  C54  1  0.09752000  0.59801000  0.59717000  1.0
  C  C55  1  0.15339000  0.65260000  0.65248000  1.0
  C  C56  1  0.13920000  0.64199000  0.58271000  1.0
  C  C57  1  0.10944000  0.61092000  0.66695000  1.0
  C  C58  1  0.16867000  0.66629000  0.60964000  1.0
  C  C59  1  0.08449000  0.58207000  0.64001000  1.0
  C  C60  1  0.30809000  0.45270000  0.39985000  1.0
  C  C61  1  0.44934000  0.29589000  0.34715000  1.0
  C  C62  1  0.26187000  0.41371000  0.41266000  1.0
  C  C63  1  0.49463000  0.33569000  0.33525000  1.0
  C  C64  1  0.38164000  0.33861000  0.37120000  1.0
  C  C65  1  0.37687000  0.41047000  0.37647000  1.0
  C  C66  1  0.72176000  0.57769000  0.63041000  1.0
  C  C67  1  0.52001000  0.67408000  0.62233000  1.0
  C  C68  1  0.73831000  0.58654000  0.58779000  1.0
  C  C69  1  0.50532000  0.66548000  0.66491000  1.0
  C  C70  1  0.59930000  0.64259000  0.60991000  1.0
  C  C71  1  0.64282000  0.60987000  0.64356000  1.0
  C  C72  1  0.07603000  0.22893000  0.62783000  1.0
  C  C73  1  0.17245000  0.02716000  0.62032000  1.0
  C  C74  1  0.08496000  0.24510000  0.58517000  1.0
  C  C75  1  0.16225000  0.01257000  0.66285000  1.0
  C  C76  1  0.14014000  0.10633000  0.60767000  1.0
  C  C77  1  0.10675000  0.15006000  0.64117000  1.0
  C  C78  1  0.84500000  0.79707000  0.39822000  1.0
  C  C79  1  0.90515000  0.94651000  0.35374000  1.0
  C  C80  1  0.91326000  0.75516000  0.41525000  1.0
  C  C81  1  0.83629000  0.98761000  0.33755000  1.0
  C  C82  1  0.90771000  0.87723000  0.37622000  1.0
  C  C83  1  0.84070000  0.86708000  0.37607000  1.0
  C  C84  1  0.65268000  0.15238000  0.15270000  1.0
  C  C85  1  0.59749000  0.09708000  0.09738000  1.0
  C  C86  1  0.66838000  0.16564000  0.10985000  1.0
  C  C87  1  0.58408000  0.08153000  0.14024000  1.0
  C  C88  1  0.63918000  0.14104000  0.08292000  1.0
  C  C89  1  0.60864000  0.11076000  0.16717000  1.0
  C  C90  1  0.67262000  0.52776000  0.11952000  1.0
  C  C91  1  0.57608000  0.72939000  0.12746000  1.0
  C  C92  1  0.66353000  0.51116000  0.16214000  1.0
  C  C93  1  0.58512000  0.74415000  0.08489000  1.0
  C  C94  1  0.60739000  0.65012000  0.13991000  1.0
  C  C95  1  0.64041000  0.60665000  0.10630000  1.0
  C  C96  1  0.07793000  0.12564000  0.17879000  1.0
  C  C97  1  0.16677000  0.12596000  0.07391000  1.0
  C  C98  1  0.00576000  0.16380000  0.16569000  1.0
  C  C99  1  0.23799000  0.08719000  0.08775000  1.0
  C  C100  1  0.10847000  0.13919000  0.10731000  1.0
  C  C101  1  0.13714000  0.11073000  0.14589000  1.0
  C  C102  1  0.34689000  0.84788000  0.84746000  1.0
  C  C103  1  0.40234000  0.90306000  0.90268000  1.0
  C  C104  1  0.30323000  0.91872000  0.86223000  1.0
  C  C105  1  0.44488000  0.83110000  0.88904000  1.0
  C  C106  1  0.33137000  0.94674000  0.88798000  1.0
  C  C107  1  0.41901000  0.80534000  0.86102000  1.0
  C  C108  1  0.40728000  0.44540000  0.85401000  1.0
  C  C109  1  0.34702000  0.29595000  0.89826000  1.0
  C  C110  1  0.33884000  0.48779000  0.83722000  1.0
  C  C111  1  0.41531000  0.25547000  0.91509000  1.0
  C  C112  1  0.34405000  0.36578000  0.87637000  1.0
  C  C113  1  0.41096000  0.37599000  0.87671000  1.0
  C  C114  1  0.94873000  0.79501000  0.84765000  1.0
  C  C115  1  0.80741000  0.95209000  0.90012000  1.0
  C  C116  1  0.99519000  0.83380000  0.83509000  1.0
  C  C117  1  0.76261000  0.91185000  0.91262000  1.0
  C  C118  1  0.87576000  0.90874000  0.87675000  1.0
  C  C119  1  0.88064000  0.83673000  0.87168000  1.0
  S  S120  1  0.30300000  0.32374000  0.39571000  1.0
  S  S121  1  0.45583000  0.42496000  0.35283000  1.0
  S  S122  1  0.65585000  0.63479000  0.56319000  1.0
  S  S123  1  0.58690000  0.61914000  0.69027000  1.0
  S  S124  1  0.13165000  0.16245000  0.56079000  1.0
  S  S125  1  0.11371000  0.09428000  0.68792000  1.0
  S  S126  1  0.97349000  0.80197000  0.40406000  1.0
  S  S127  1  0.77426000  0.94282000  0.34916000  1.0
  S  S128  1  0.61495000  0.59359000  0.18666000  1.0
  S  S129  1  0.63158000  0.66262000  0.05958000  1.0
  S  S130  1  0.01011000  0.18188000  0.11214000  1.0
  S  S131  1  0.23513000  0.06667000  0.14117000  1.0
  S  S132  1  0.27777000  0.44187000  0.84918000  1.0
  S  S133  1  0.47653000  0.30115000  0.90454000  1.0
  S  S134  1  0.95502000  0.92303000  0.85286000  1.0
  S  S135  1  0.80246000  0.82161000  0.89612000  1.0
  N  N136  1  0.78440000  0.52490000  0.39912000  1.0
  N  N137  1  0.97126000  0.23067000  0.34536000  1.0
  N  N138  1  0.72488000  0.46582000  0.35115000  1.0
  N  N139  1  0.01943000  0.27819000  0.40471000  1.0
  N  N140  1  0.15268000  0.66509000  0.53778000  1.0
  N  N141  1  0.08662000  0.59733000  0.71191000  1.0
  N  N142  1  0.21824000  0.70658000  0.59148000  1.0
  N  N143  1  0.04420000  0.53251000  0.65829000  1.0
  N  N144  1  0.71806000  0.20580000  0.09155000  1.0
  N  N145  1  0.54385000  0.03190000  0.15845000  1.0
  N  N146  1  0.65271000  0.16392000  0.03797000  1.0
  N  N147  1  0.58544000  0.09736000  0.21209000  1.0
  N  N148  1  0.22434000  0.96624000  0.85126000  1.0
  N  N149  1  0.51904000  0.77895000  0.90477000  1.0
  N  N150  1  0.28398000  0.02548000  0.89905000  1.0
  N  N151  1  0.47124000  0.73123000  0.84531000  1.0
  O  O152  1  0.00007000  0.49992000  0.50007000  1.0
  O  O153  1  0.06891000  0.31842000  0.52112000  1.0
  O  O154  1  0.01094000  0.55432000  0.58246000  1.0
  O  O155  1  0.15522000  0.50776000  0.44523000  1.0
  O  O156  1  0.03518000  0.37814000  0.57958000  1.0
  O  O157  1  0.16032000  0.38810000  0.44875000  1.0
  O  O158  1  0.10362000  0.56230000  0.53197000  1.0
  O  O159  1  0.00084000  0.65861000  0.45574000  1.0
  O  O160  1  0.88158000  0.48144000  0.45368000  1.0
  O  O161  1  0.89632000  0.64458000  0.44363000  1.0
  O  O162  1  0.00365000  0.40233000  0.43230000  1.0
  O  O163  1  0.87137000  0.51961000  0.58178000  1.0
  O  O164  1  0.81246000  0.58431000  0.52426000  1.0
  O  O165  1  0.75004000  0.24985000  0.25003000  1.0
  O  O166  1  0.60419000  0.35365000  0.30604000  1.0
  O  O167  1  0.68785000  0.14638000  0.21800000  1.0
  O  O168  1  0.73116000  0.37821000  0.16832000  1.0
  O  O169  1  0.59225000  0.24746000  0.29496000  1.0
  O  O170  1  0.66554000  0.43702000  0.22569000  1.0
  O  O171  1  0.69737000  0.23821000  0.16735000  1.0
  O  O172  1  0.87322000  0.21504000  0.17029000  1.0
  O  O173  1  0.84630000  0.24641000  0.31860000  1.0
  O  O174  1  0.93074000  0.18204000  0.22954000  1.0
  O  O175  1  0.76777000  0.36837000  0.29671000  1.0
  O  O176  1  0.74278000  0.09346000  0.30434000  1.0
  O  O177  1  0.86167000  0.09000000  0.30160000  1.0
  O  O178  1  0.25003000  0.75008000  0.75007000  1.0
  O  O179  1  0.37200000  0.71799000  0.66971000  1.0
  O  O180  1  0.34686000  0.74696000  0.81814000  1.0
  O  O181  1  0.16527000  0.93692000  0.72625000  1.0
  O  O182  1  0.43060000  0.68362000  0.72865000  1.0
  O  O183  1  0.22924000  0.87960000  0.66825000  1.0
  O  O184  1  0.26684000  0.86881000  0.79705000  1.0
  O  O185  1  0.10387000  0.85314000  0.80670000  1.0
  O  O186  1  0.19031000  0.64544000  0.71751000  1.0
  O  O187  1  0.09328000  0.74701000  0.79427000  1.0
  O  O188  1  0.19654000  0.73937000  0.66742000  1.0
  O  O189  1  0.36329000  0.59030000  0.80058000  1.0
  O  O190  1  0.24462000  0.59263000  0.80436000  1.0
  O  O191  1  0.50004000  0.99999000  0.99999000  1.0
  O  O192  1  0.50261000  0.15710000  0.95536000  1.0
  O  O193  1  0.38140000  0.98247000  0.95338000  1.0
  O  O194  1  0.65973000  0.88801000  0.94878000  1.0
  O  O195  1  0.39600000  0.14623000  0.94387000  1.0
  O  O196  1  0.65721000  0.00650000  0.94567000  1.0
  O  O197  1  0.50335000  0.90331000  0.93191000  1.0
  O  O198  1  0.56830000  0.81909000  0.02111000  1.0
  O  O199  1  0.51125000  0.05306000  0.08258000  1.0
  O  O200  1  0.53254000  0.87740000  0.08015000  1.0
  O  O201  1  0.60416000  0.06096000  0.03224000  1.0
  O  O202  1  0.31246000  0.08506000  0.02382000  1.0
  O  O203  1  0.37083000  0.02067000  0.08153000  1.0
  O  O204  1  0.80875000  0.57318000  0.38384000  1.0
  O  O205  1  0.72420000  0.53437000  0.42147000  1.0
  O  O206  1  0.99834000  0.23405000  0.30900000  1.0
  O  O207  1  0.98388000  0.17339000  0.37069000  1.0
  O  O208  1  0.67650000  0.44149000  0.36629000  1.0
  O  O209  1  0.71544000  0.52601000  0.32880000  1.0
  O  O210  1  0.01632000  0.25043000  0.44097000  1.0
  O  O211  1  0.07657000  0.26605000  0.37934000  1.0
  O  O212  1  0.09657000  0.71236000  0.52128000  1.0
  O  O213  1  0.21928000  0.63634000  0.52185000  1.0
  O  O214  1  0.03982000  0.65347000  0.72845000  1.0
  O  O215  1  0.11528000  0.53072000  0.72784000  1.0
  O  O216  1  0.28638000  0.67157000  0.59606000  1.0
  O  O217  1  0.18656000  0.77026000  0.57258000  1.0
  O  O218  1  0.07931000  0.46443000  0.65383000  1.0
  O  O219  1  0.98064000  0.56435000  0.67723000  1.0
  O  O220  1  0.78625000  0.17046000  0.09589000  1.0
  O  O221  1  0.68629000  0.26947000  0.07270000  1.0
  O  O222  1  0.57906000  0.96377000  0.15401000  1.0
  O  O223  1  0.48012000  0.06355000  0.17727000  1.0
  O  O224  1  0.59662000  0.21110000  0.02143000  1.0
  O  O225  1  0.71928000  0.13491000  0.02201000  1.0
  O  O226  1  0.53795000  0.15349000  0.22843000  1.0
  O  O227  1  0.61427000  0.03088000  0.22818000  1.0
  O  O228  1  0.17596000  0.94209000  0.86671000  1.0
  O  O229  1  0.21484000  0.02636000  0.82883000  1.0
  O  O230  1  0.51567000  0.75171000  0.94113000  1.0
  O  O231  1  0.57629000  0.76652000  0.87948000  1.0
  O  O232  1  0.30829000  0.07385000  0.88382000  1.0
  O  O233  1  0.22386000  0.03498000  0.92148000  1.0
  O  O234  1  0.49860000  0.73467000  0.80900000  1.0
  O  O235  1  0.48375000  0.67403000  0.87065000  1.0
  F  F236  1  0.29055000  0.52299000  0.40863000  1.0
  F  F237  1  0.77436000  0.54300000  0.65691000  1.0
  F  F238  1  0.04146000  0.28176000  0.65414000  1.0
  F  F239  1  0.78809000  0.77483000  0.40237000  1.0
  F  F240  1  0.70766000  0.47517000  0.09307000  1.0
  F  F241  1  0.09124000  0.10396000  0.21837000  1.0
  F  F242  1  0.46445000  0.46731000  0.84979000  1.0
  F  F243  1  0.96603000  0.72496000  0.83864000  1.0
