# generated using pymatgen
data_CdH7C12(NO2)3
_symmetry_space_group_name_H-M   'P 1'
_cell_length_a   7.50719000
_cell_length_b   14.09740000
_cell_length_c   20.99530000
_cell_angle_alpha   89.99970000
_cell_angle_beta   89.99940000
_cell_angle_gamma   79.12700000
_symmetry_Int_Tables_number   1
_chemical_formula_structural   CdH7C12(NO2)3
_chemical_formula_sum   'Cd4 H28 C48 N12 O24'
_cell_volume   2182.08218320
_cell_formula_units_Z   4
loop_
 _symmetry_equiv_pos_site_id
 _symmetry_equiv_pos_as_xyz
  1  'x, y, z'
loop_
 _atom_site_type_symbol
 _atom_site_label
 _atom_site_symmetry_multiplicity
 _atom_site_fract_x
 _atom_site_fract_y
 _atom_site_fract_z
 _atom_site_occupancy
  Cd  Cd0  1  0.54017000  0.39586000  0.43328000  1.0
  Cd  Cd1  1  0.45985000  0.10413000  0.93329000  1.0
  Cd  Cd2  1  0.45984000  0.60414000  0.56672000  1.0
  Cd  Cd3  1  0.54015000  0.89586000  0.06673000  1.0
  H  H4  1  0.49009000  0.34043000  0.09084000  1.0
  H  H5  1  0.50993000  0.15957000  0.59084000  1.0
  H  H6  1  0.50993000  0.65957000  0.90916000  1.0
  H  H7  1  0.49006000  0.84042000  0.40915000  1.0
  H  H8  1  0.49824000  0.06417000  0.18101000  1.0
  H  H9  1  0.50175000  0.43583000  0.68101000  1.0
  H  H10  1  0.50174000  0.93583000  0.81900000  1.0
  H  H11  1  0.49825000  0.56417000  0.31899000  1.0
  H  H12  1  0.53973000  0.13780000  0.28623000  1.0
  H  H13  1  0.46027000  0.36219000  0.78623000  1.0
  H  H14  1  0.46024000  0.86220000  0.71377000  1.0
  H  H15  1  0.53973000  0.63780000  0.21377000  1.0
  H  H16  1  0.17047000  0.52887000  0.38802000  1.0
  H  H17  1  0.82952000  0.97114000  0.88802000  1.0
  H  H18  1  0.82952000  0.47113000  0.61198000  1.0
  H  H19  1  0.17047000  0.02887000  0.11198000  1.0
  H  H20  1  0.82860000  0.53513000  0.38625000  1.0
  H  H21  1  0.17139000  0.96487000  0.88625000  1.0
  H  H22  1  0.17138000  0.46488000  0.61375000  1.0
  H  H23  1  0.82860000  0.03513000  0.11375000  1.0
  H  H24  1  0.90079000  0.27579000  0.48558000  1.0
  H  H25  1  0.09922000  0.22421000  0.98558000  1.0
  H  H26  1  0.09921000  0.72421000  0.51442000  1.0
  H  H27  1  0.90078000  0.77579000  0.01442000  1.0
  H  H28  1  0.24303000  0.27193000  0.48932000  1.0
  H  H29  1  0.75697000  0.22808000  0.98932000  1.0
  H  H30  1  0.75696000  0.72807000  0.51068000  1.0
  H  H31  1  0.24302000  0.77193000  0.01068000  1.0
  C  C32  1  0.54315000  0.27893000  0.24866000  1.0
  C  C33  1  0.45686000  0.22106000  0.74866000  1.0
  C  C34  1  0.45687000  0.72107000  0.75134000  1.0
  C  C35  1  0.54313000  0.77893000  0.25134000  1.0
  C  C36  1  0.53122000  0.33376000  0.19251000  1.0
  C  C37  1  0.46882000  0.16623000  0.69252000  1.0
  C  C38  1  0.46882000  0.66623000  0.80749000  1.0
  C  C39  1  0.53117000  0.83377000  0.30749000  1.0
  C  C40  1  0.50241000  0.29549000  0.13339000  1.0
  C  C41  1  0.49761000  0.20451000  0.63339000  1.0
  C  C42  1  0.49761000  0.70451000  0.86661000  1.0
  C  C43  1  0.50239000  0.79549000  0.36661000  1.0
  C  C44  1  0.49099000  0.19760000  0.12881000  1.0
  C  C45  1  0.50903000  0.30240000  0.62881000  1.0
  C  C46  1  0.50902000  0.80241000  0.87119000  1.0
  C  C47  1  0.49097000  0.69759000  0.37119000  1.0
  C  C48  1  0.50678000  0.14049000  0.18398000  1.0
  C  C49  1  0.49324000  0.35951000  0.68398000  1.0
  C  C50  1  0.49321000  0.85951000  0.81602000  1.0
  C  C51  1  0.50677000  0.64049000  0.31602000  1.0
  C  C52  1  0.53113000  0.18141000  0.24311000  1.0
  C  C53  1  0.46887000  0.31859000  0.74311000  1.0
  C  C54  1  0.46886000  0.81859000  0.75689000  1.0
  C  C55  1  0.53114000  0.68141000  0.25689000  1.0
  C  C56  1  0.55120000  0.32196000  0.31382000  1.0
  C  C57  1  0.44880000  0.17803000  0.81383000  1.0
  C  C58  1  0.44881000  0.67805000  0.68618000  1.0
  C  C59  1  0.55119000  0.82196000  0.18618000  1.0
  C  C60  1  0.46466000  0.15669000  0.06445000  1.0
  C  C61  1  0.53534000  0.34331000  0.56445000  1.0
  C  C62  1  0.53534000  0.84331000  0.93556000  1.0
  C  C63  1  0.46466000  0.65668000  0.43555000  1.0
  C  C64  1  0.10828000  0.47350000  0.41059000  1.0
  C  C65  1  0.89171000  0.02651000  0.91059000  1.0
  C  C66  1  0.89171000  0.52651000  0.58941000  1.0
  C  C67  1  0.10828000  0.97349000  0.08941000  1.0
  C  C68  1  0.92169000  0.47643000  0.40939000  1.0
  C  C69  1  0.07831000  0.02358000  0.90939000  1.0
  C  C70  1  0.07830000  0.52358000  0.59062000  1.0
  C  C71  1  0.92168000  0.97642000  0.09061000  1.0
  C  C72  1  0.96230000  0.33280000  0.46469000  1.0
  C  C73  1  0.03770000  0.16720000  0.96470000  1.0
  C  C74  1  0.03769000  0.66720000  0.53530000  1.0
  C  C75  1  0.96229000  0.83281000  0.03530000  1.0
  C  C76  1  0.14869000  0.33044000  0.46647000  1.0
  C  C77  1  0.85131000  0.16957000  0.96648000  1.0
  C  C78  1  0.85130000  0.66957000  0.53352000  1.0
  C  C79  1  0.14869000  0.83044000  0.03352000  1.0
  N  N80  1  0.55851000  0.43443000  0.19367000  1.0
  N  N81  1  0.44151000  0.06556000  0.69367000  1.0
  N  N82  1  0.44154000  0.56557000  0.80633000  1.0
  N  N83  1  0.55848000  0.93443000  0.30632000  1.0
  N  N84  1  0.22003000  0.40131000  0.43989000  1.0
  N  N85  1  0.77996000  0.09870000  0.93989000  1.0
  N  N86  1  0.77996000  0.59870000  0.56011000  1.0
  N  N87  1  0.22003000  0.90130000  0.06011000  1.0
  N  N88  1  0.84999000  0.40644000  0.43691000  1.0
  N  N89  1  0.15001000  0.09356000  0.93692000  1.0
  N  N90  1  0.15000000  0.59356000  0.56309000  1.0
  N  N91  1  0.84998000  0.90644000  0.06308000  1.0
  O  O92  1  0.46617000  0.40851000  0.32269000  1.0
  O  O93  1  0.53384000  0.09148000  0.82270000  1.0
  O  O94  1  0.53384000  0.59149000  0.67730000  1.0
  O  O95  1  0.46616000  0.90851000  0.17730000  1.0
  O  O96  1  0.63377000  0.26929000  0.35769000  1.0
  O  O97  1  0.36623000  0.23070000  0.85769000  1.0
  O  O98  1  0.36623000  0.73071000  0.64231000  1.0
  O  O99  1  0.63377000  0.76930000  0.14231000  1.0
  O  O100  1  0.46787000  0.06623000  0.05780000  1.0
  O  O101  1  0.53212000  0.43377000  0.55780000  1.0
  O  O102  1  0.53213000  0.93377000  0.94220000  1.0
  O  O103  1  0.46787000  0.56623000  0.44219000  1.0
  O  O104  1  0.44158000  0.21443000  0.01707000  1.0
  O  O105  1  0.55843000  0.28557000  0.51707000  1.0
  O  O106  1  0.55842000  0.78557000  0.98293000  1.0
  O  O107  1  0.44158000  0.71443000  0.48293000  1.0
  O  O108  1  0.44458000  0.49560000  0.16591000  1.0
  O  O109  1  0.55543000  0.00439000  0.66590000  1.0
  O  O110  1  0.55551000  0.50440000  0.83408000  1.0
  O  O111  1  0.44454000  0.99561000  0.33408000  1.0
  O  O112  1  0.69696000  0.45032000  0.22046000  1.0
  O  O113  1  0.30306000  0.04967000  0.72046000  1.0
  O  O114  1  0.30308000  0.54966000  0.77955000  1.0
  O  O115  1  0.69693000  0.95032000  0.27954000  1.0
