# generated using pymatgen
data_FeH20C22S2(N3O)2
_symmetry_space_group_name_H-M   'P 1'
_cell_length_a   10.27460000
_cell_length_b   10.37340000
_cell_length_c   12.95592094
_cell_angle_alpha   98.45213830
_cell_angle_beta   107.20488174
_cell_angle_gamma   114.20600000
_symmetry_Int_Tables_number   1
_chemical_formula_structural   FeH20C22S2(N3O)2
_chemical_formula_sum   'Fe2 H40 C44 S4 N12 O4'
_cell_volume   1144.65896217
_cell_formula_units_Z   2
loop_
 _symmetry_equiv_pos_site_id
 _symmetry_equiv_pos_as_xyz
  1  'x, y, z'
loop_
 _atom_site_type_symbol
 _atom_site_label
 _atom_site_symmetry_multiplicity
 _atom_site_fract_x
 _atom_site_fract_y
 _atom_site_fract_z
 _atom_site_occupancy
  Fe  Fe0  1  0.14652000  0.39693000  0.74979000  1.0
  Fe  Fe1  1  0.85348000  0.60307000  0.25021000  1.0
  H  H2  1  0.87033000  0.34253000  0.80144000  1.0
  H  H3  1  0.04964000  0.07685000  0.70208000  1.0
  H  H4  1  0.12967000  0.65747000  0.19856000  1.0
  H  H5  1  0.95037000  0.92315000  0.29792000  1.0
  H  H6  1  0.64743000  0.13064000  0.80390000  1.0
  H  H7  1  0.83419000  0.85137000  0.69801000  1.0
  H  H8  1  0.35258000  0.86938000  0.19611000  1.0
  H  H9  1  0.16581000  0.14864000  0.30199000  1.0
  H  H10  1  0.43400000  0.93489000  0.74843000  1.0
  H  H11  1  0.68989000  0.68983000  0.75158000  1.0
  H  H12  1  0.56599000  0.06511000  0.25156000  1.0
  H  H13  1  0.31011000  0.31016000  0.24842000  1.0
  H  H14  1  0.21780000  0.70773000  0.74197000  1.0
  H  H15  1  0.46730000  0.47843000  0.75492000  1.0
  H  H16  1  0.78220000  0.29228000  0.25803000  1.0
  H  H17  1  0.53271000  0.52157000  0.24509000  1.0
  H  H18  1  0.11607000  0.33967000  0.53641000  1.0
  H  H19  1  0.29752000  0.57378000  0.96209000  1.0
  H  H20  1  0.88393000  0.66033000  0.46359000  1.0
  H  H21  1  0.70248000  0.42622000  0.03791000  1.0
  H  H22  1  0.18141000  0.23786000  0.58828000  1.0
  H  H23  1  0.14868000  0.59420000  0.91078000  1.0
  H  H24  1  0.81859000  0.76214000  0.41172000  1.0
  H  H25  1  0.85132000  0.40580000  0.08922000  1.0
  H  H26  1  0.90015000  0.57208000  0.93955000  1.0
  H  H27  1  0.12497000  0.96019000  0.55874000  1.0
  H  H28  1  0.09987000  0.42793000  0.06046000  1.0
  H  H29  1  0.87500000  0.03981000  0.44126000  1.0
  H  H30  1  0.82458000  0.75816000  0.99498000  1.0
  H  H31  1  0.25984000  0.83216000  0.50466000  1.0
  H  H32  1  0.17544000  0.24186000  0.00503000  1.0
  H  H33  1  0.74013000  0.16782000  0.49534000  1.0
  H  H34  1  0.23053000  0.08455000  0.96269000  1.0
  H  H35  1  0.62267000  0.26339000  0.53734000  1.0
  H  H36  1  0.76948000  0.91546000  0.03731000  1.0
  H  H37  1  0.37730000  0.73657000  0.46264000  1.0
  H  H38  1  0.28997000  0.88528000  0.91202000  1.0
  H  H39  1  0.47002000  0.37125000  0.58697000  1.0
  H  H40  1  0.71004000  0.11472000  0.08798000  1.0
  H  H41  1  0.52998000  0.62873000  0.41303000  1.0
  C  C42  1  0.85773000  0.23157000  0.77925000  1.0
  C  C43  1  0.95755000  0.08345000  0.72368000  1.0
  C  C44  1  0.14226000  0.76842000  0.22074000  1.0
  C  C45  1  0.04245000  0.91656000  0.27632000  1.0
  C  C46  1  0.73192000  0.11043000  0.77943000  1.0
  C  C47  1  0.83569000  0.95733000  0.72266000  1.0
  C  C48  1  0.26808000  0.88956000  0.22056000  1.0
  C  C49  1  0.16431000  0.04267000  0.27734000  1.0
  C  C50  1  0.71724000  0.96749000  0.75074000  1.0
  C  C51  1  0.28277000  0.03252000  0.24927000  1.0
  C  C52  1  0.58564000  0.83608000  0.75009000  1.0
  C  C53  1  0.41436000  0.16392000  0.24991000  1.0
  C  C54  1  0.44836000  0.83651000  0.74872000  1.0
  C  C55  1  0.58915000  0.70200000  0.75058000  1.0
  C  C56  1  0.55164000  0.16349000  0.25128000  1.0
  C  C57  1  0.41086000  0.29802000  0.24943000  1.0
  C  C58  1  0.32591000  0.70959000  0.74637000  1.0
  C  C59  1  0.46337000  0.58082000  0.75094000  1.0
  C  C60  1  0.67409000  0.29042000  0.25363000  1.0
  C  C61  1  0.53663000  0.41919000  0.24906000  1.0
  C  C62  1  0.91977000  0.50858000  0.64247000  1.0
  C  C63  1  0.36943000  0.28224000  0.85963000  1.0
  C  C64  1  0.08023000  0.49143000  0.35754000  1.0
  C  C65  1  0.63057000  0.71775000  0.14036000  1.0
  C  C66  1  0.96893000  0.68662000  0.94312000  1.0
  C  C67  1  0.23757000  0.02446000  0.55542000  1.0
  C  C68  1  0.03109000  0.31339000  0.05689000  1.0
  C  C69  1  0.76241000  0.97552000  0.44458000  1.0
  C  C70  1  0.92675000  0.79288000  0.97457000  1.0
  C  C71  1  0.31479000  0.95246000  0.52479000  1.0
  C  C72  1  0.07327000  0.20713000  0.02543000  1.0
  C  C73  1  0.68518000  0.04752000  0.47520000  1.0
  C  C74  1  0.01902000  0.94106000  0.98274000  1.0
  C  C75  1  0.45716000  0.03552000  0.51701000  1.0
  C  C76  1  0.98099000  0.05895000  0.01726000  1.0
  C  C77  1  0.54282000  0.96445000  0.48298000  1.0
  C  C78  1  0.15102000  0.97309000  0.95799000  1.0
  C  C79  1  0.51401000  0.18957000  0.54160000  1.0
  C  C80  1  0.84899000  0.02693000  0.04201000  1.0
  C  C81  1  0.48597000  0.81040000  0.45839000  1.0
  C  C82  1  0.18549000  0.86047000  0.92866000  1.0
  C  C83  1  0.42834000  0.25202000  0.57030000  1.0
  C  C84  1  0.81453000  0.13954000  0.07134000  1.0
  C  C85  1  0.57163000  0.74796000  0.42969000  1.0
  S  S86  1  0.79872000  0.56916000  0.59132000  1.0
  S  S87  1  0.48543000  0.21757000  0.91326000  1.0
  S  S88  1  0.20128000  0.43084000  0.40868000  1.0
  S  S89  1  0.51459000  0.78245000  0.08674000  1.0
  N  N90  1  0.97096000  0.22081000  0.75149000  1.0
  N  N91  1  0.02903000  0.77918000  0.24851000  1.0
  N  N92  1  0.33102000  0.58159000  0.74824000  1.0
  N  N93  1  0.66899000  0.41842000  0.25177000  1.0
  N  N94  1  0.00779000  0.46515000  0.68124000  1.0
  N  N95  1  0.28450000  0.32814000  0.81922000  1.0
  N  N96  1  0.99221000  0.53486000  0.31877000  1.0
  N  N97  1  0.71550000  0.67186000  0.18078000  1.0
  N  N98  1  0.09629000  0.71899000  0.92090000  1.0
  N  N99  1  0.29229000  0.17153000  0.57746000  1.0
  N  N100  1  0.90372000  0.28102000  0.07910000  1.0
  N  N101  1  0.70769000  0.82845000  0.42253000  1.0
  O  O102  1  0.09939000  0.27296000  0.58416000  1.0
  O  O103  1  0.18436000  0.51450000  0.91622000  1.0
  O  O104  1  0.90061000  0.72704000  0.41584000  1.0
  O  O105  1  0.81564000  0.48550000  0.08378000  1.0
