# generated using pymatgen
data_CdH20C14(NO2)2
_symmetry_space_group_name_H-M   'P 1'
_cell_length_a   14.34100000
_cell_length_b   16.33820000
_cell_length_c   16.33820000
_cell_angle_alpha   60.00000000
_cell_angle_beta   89.99990000
_cell_angle_gamma   90.00000000
_symmetry_Int_Tables_number   1
_chemical_formula_structural   CdH20C14(NO2)2
_chemical_formula_sum   'Cd6 H120 C84 N12 O24'
_cell_volume   3315.26679328
_cell_formula_units_Z   6
loop_
 _symmetry_equiv_pos_site_id
 _symmetry_equiv_pos_as_xyz
  1  'x, y, z'
loop_
 _atom_site_type_symbol
 _atom_site_label
 _atom_site_symmetry_multiplicity
 _atom_site_fract_x
 _atom_site_fract_y
 _atom_site_fract_z
 _atom_site_occupancy
  Cd  Cd0  1  0.56400000  0.38800000  0.26647000  1.0
  Cd  Cd1  1  0.39733000  0.65447000  0.61200000  1.0
  Cd  Cd2  1  0.23066000  0.26647000  0.34553000  1.0
  Cd  Cd3  1  0.06399000  0.61200000  0.73353000  1.0
  Cd  Cd4  1  0.89733000  0.34553000  0.38800000  1.0
  Cd  Cd5  1  0.73066000  0.73353000  0.65447000  1.0
  H  H6  1  0.62554000  0.38926000  0.55898000  1.0
  H  H7  1  0.45888000  0.94824000  0.61075000  1.0
  H  H8  1  0.29221000  0.55899000  0.05176000  1.0
  H  H9  1  0.12554000  0.61074000  0.44102000  1.0
  H  H10  1  0.95888000  0.05176000  0.38926000  1.0
  H  H11  1  0.79221000  0.44101000  0.94824000  1.0
  H  H12  1  0.67467000  0.29976000  0.66683000  1.0
  H  H13  1  0.50800000  0.96659000  0.70024000  1.0
  H  H14  1  0.34134000  0.66683000  0.03341000  1.0
  H  H15  1  0.17467000  0.70024000  0.33317000  1.0
  H  H16  1  0.00800000  0.03341000  0.29976000  1.0
  H  H17  1  0.84134000  0.33317000  0.96659000  1.0
  H  H18  1  0.55180000  0.31498000  0.65486000  1.0
  H  H19  1  0.38513000  0.96984000  0.68502000  1.0
  H  H20  1  0.21847000  0.65486000  0.03016000  1.0
  H  H21  1  0.05180000  0.68502000  0.34514000  1.0
  H  H22  1  0.88514000  0.03016000  0.31498000  1.0
  H  H23  1  0.71847000  0.34514000  0.96984000  1.0
  H  H24  1  0.67623000  0.25359000  0.54188000  1.0
  H  H25  1  0.50957000  0.79547000  0.74641000  1.0
  H  H26  1  0.34290000  0.54188000  0.20453000  1.0
  H  H27  1  0.17623000  0.74641000  0.45812000  1.0
  H  H28  1  0.00957000  0.20453000  0.25359000  1.0
  H  H29  1  0.84290000  0.45812000  0.79547000  1.0
  H  H30  1  0.53988000  0.13227000  0.70267000  1.0
  H  H31  1  0.37321000  0.83494000  0.86773000  1.0
  H  H32  1  0.20655000  0.70266000  0.16507000  1.0
  H  H33  1  0.03988000  0.86773000  0.29733000  1.0
  H  H34  1  0.87321000  0.16506000  0.13227000  1.0
  H  H35  1  0.70654000  0.29733000  0.83494000  1.0
  H  H36  1  0.66340000  0.12898000  0.71387000  1.0
  H  H37  1  0.49673000  0.84285000  0.87102000  1.0
  H  H38  1  0.33007000  0.71387000  0.15715000  1.0
  H  H39  1  0.16340000  0.87102000  0.28613000  1.0
  H  H40  1  0.99673000  0.15715000  0.12898000  1.0
  H  H41  1  0.83006000  0.28613000  0.84285000  1.0
  H  H42  1  0.61000000  0.09260000  0.63955000  1.0
  H  H43  1  0.44333000  0.73214000  0.90740000  1.0
  H  H44  1  0.27667000  0.63955000  0.26785000  1.0
  H  H45  1  0.11000000  0.90740000  0.36045000  1.0
  H  H46  1  0.94334000  0.26786000  0.09260000  1.0
  H  H47  1  0.77667000  0.36045000  0.73215000  1.0
  H  H48  1  0.46349000  0.26116000  0.55608000  1.0
  H  H49  1  0.29682000  0.81724000  0.73885000  1.0
  H  H50  1  0.13016000  0.55609000  0.18276000  1.0
  H  H51  1  0.96349000  0.73884000  0.44392000  1.0
  H  H52  1  0.79682000  0.18276000  0.26115000  1.0
  H  H53  1  0.63016000  0.44391000  0.81724000  1.0
  H  H54  1  0.53018000  0.34645000  0.46028000  1.0
  H  H55  1  0.36351000  0.80673000  0.65355000  1.0
  H  H56  1  0.19685000  0.46028000  0.19327000  1.0
  H  H57  1  0.03018000  0.65355000  0.53972000  1.0
  H  H58  1  0.86351000  0.19327000  0.34645000  1.0
  H  H59  1  0.69685000  0.53972000  0.80673000  1.0
  H  H60  1  0.51479000  0.13655000  0.51847000  1.0
  H  H61  1  0.34813000  0.65502000  0.86345000  1.0
  H  H62  1  0.18146000  0.51848000  0.34498000  1.0
  H  H63  1  0.01479000  0.86345000  0.48153000  1.0
  H  H64  1  0.84813000  0.34498000  0.13655000  1.0
  H  H65  1  0.68146000  0.48152000  0.65502000  1.0
  H  H66  1  0.50357000  0.00344000  0.39282000  1.0
  H  H67  1  0.33691000  0.39626000  0.99657000  1.0
  H  H68  1  0.17024000  0.39282000  0.60374000  1.0
  H  H69  1  0.00357000  0.99656000  0.60718000  1.0
  H  H70  1  0.83691000  0.60373000  0.00344000  1.0
  H  H71  1  0.67024000  0.60717000  0.39626000  1.0
  H  H72  1  0.64249000  0.19491000  0.30027000  1.0
  H  H73  1  0.47583000  0.49517000  0.80510000  1.0
  H  H74  1  0.30916000  0.30027000  0.50482000  1.0
  H  H75  1  0.14249000  0.80509000  0.69973000  1.0
  H  H76  1  0.97583000  0.50482000  0.19491000  1.0
  H  H77  1  0.80916000  0.69974000  0.49517000  1.0
  H  H78  1  0.52316000  0.17109000  0.32721000  1.0
  H  H79  1  0.35650000  0.49830000  0.82892000  1.0
  H  H80  1  0.18983000  0.32722000  0.50170000  1.0
  H  H81  1  0.02316000  0.82891000  0.67279000  1.0
  H  H82  1  0.85650000  0.50171000  0.17108000  1.0
  H  H83  1  0.68983000  0.67278000  0.49830000  1.0
  H  H84  1  0.55338000  0.83782000  0.50971000  1.0
  H  H85  1  0.38672000  0.34754000  0.16218000  1.0
  H  H86  1  0.22005000  0.50971000  0.65247000  1.0
  H  H87  1  0.05338000  0.16218000  0.49029000  1.0
  H  H88  1  0.88671000  0.65246000  0.83782000  1.0
  H  H89  1  0.72005000  0.49029000  0.34753000  1.0
  H  H90  1  0.77183000  0.93448000  0.60406000  1.0
  H  H91  1  0.60516000  0.53854000  0.06552000  1.0
  H  H92  1  0.43850000  0.60406000  0.46146000  1.0
  H  H93  1  0.27183000  0.06552000  0.39594000  1.0
  H  H94  1  0.10517000  0.46146000  0.93448000  1.0
  H  H95  1  0.93850000  0.39594000  0.53854000  1.0
  H  H96  1  0.73573000  0.10282000  0.48972000  1.0
  H  H97  1  0.56907000  0.59254000  0.89718000  1.0
  H  H98  1  0.40240000  0.48972000  0.40746000  1.0
  H  H99  1  0.23572000  0.89718000  0.51028000  1.0
  H  H100  1  0.06907000  0.40746000  0.10282000  1.0
  H  H101  1  0.90239000  0.51028000  0.59254000  1.0
  H  H102  1  0.51054000  0.70918000  0.16282000  1.0
  H  H103  1  0.34387000  0.87200000  0.29082000  1.0
  H  H104  1  0.17721000  0.16282000  0.12800000  1.0
  H  H105  1  0.01054000  0.29082000  0.83718000  1.0
  H  H106  1  0.84388000  0.12800000  0.70918000  1.0
  H  H107  1  0.67720000  0.83718000  0.87200000  1.0
  H  H108  1  0.59909000  0.69248000  0.24456000  1.0
  H  H109  1  0.43242000  0.93703000  0.30753000  1.0
  H  H110  1  0.26576000  0.24456000  0.06297000  1.0
  H  H111  1  0.09909000  0.30752000  0.75544000  1.0
  H  H112  1  0.93242000  0.06297000  0.69247000  1.0
  H  H113  1  0.76576000  0.75544000  0.93703000  1.0
  H  H114  1  0.48080000  0.66142000  0.28456000  1.0
  H  H115  1  0.31413000  0.94598000  0.33858000  1.0
  H  H116  1  0.14746000  0.28457000  0.05402000  1.0
  H  H117  1  0.98080000  0.33859000  0.71543000  1.0
  H  H118  1  0.81413000  0.05402000  0.66142000  1.0
  H  H119  1  0.64746000  0.71543000  0.94598000  1.0
  H  H120  1  0.65487000  0.23623000  0.42206000  1.0
  H  H121  1  0.48820000  0.65828000  0.76378000  1.0
  H  H122  1  0.32154000  0.42207000  0.34171000  1.0
  H  H123  1  0.15487000  0.76378000  0.57794000  1.0
  H  H124  1  0.98820000  0.34172000  0.23622000  1.0
  H  H125  1  0.82154000  0.57794000  0.65828000  1.0
  C  C126  1  0.61625000  0.31650000  0.61744000  1.0
  C  C127  1  0.44958000  0.93394000  0.68351000  1.0
  C  C128  1  0.28291000  0.61745000  0.06606000  1.0
  C  C129  1  0.11624000  0.68350000  0.38256000  1.0
  C  C130  1  0.94958000  0.06607000  0.31649000  1.0
  C  C131  1  0.78292000  0.38255000  0.93394000  1.0
  C  C132  1  0.61138000  0.24613000  0.58152000  1.0
  C  C133  1  0.44471000  0.82765000  0.75387000  1.0
  C  C134  1  0.27805000  0.58152000  0.17236000  1.0
  C  C135  1  0.11138000  0.75387000  0.41848000  1.0
  C  C136  1  0.94472000  0.17235000  0.24613000  1.0
  C  C137  1  0.77805000  0.41848000  0.82764000  1.0
  C  C138  1  0.60591000  0.14431000  0.66376000  1.0
  C  C139  1  0.43924000  0.80807000  0.85569000  1.0
  C  C140  1  0.27258000  0.66376000  0.19193000  1.0
  C  C141  1  0.10591000  0.85569000  0.33624000  1.0
  C  C142  1  0.93924000  0.19193000  0.14431000  1.0
  C  C143  1  0.77258000  0.33624000  0.80807000  1.0
  C  C144  1  0.52742000  0.27095000  0.51467000  1.0
  C  C145  1  0.36075000  0.78562000  0.72905000  1.0
  C  C146  1  0.19409000  0.51467000  0.21438000  1.0
  C  C147  1  0.02742000  0.72905000  0.48533000  1.0
  C  C148  1  0.86075000  0.21438000  0.27095000  1.0
  C  C149  1  0.69409000  0.48533000  0.78562000  1.0
  C  C150  1  0.51648000  0.21245000  0.46537000  1.0
  C  C151  1  0.34981000  0.67782000  0.78755000  1.0
  C  C152  1  0.18315000  0.46537000  0.32218000  1.0
  C  C153  1  0.01648000  0.78755000  0.53463000  1.0
  C  C154  1  0.84981000  0.32218000  0.21245000  1.0
  C  C155  1  0.68315000  0.53463000  0.67782000  1.0
  C  C156  1  0.56419000  0.99121000  0.43783000  1.0
  C  C157  1  0.39753000  0.42904000  0.00879000  1.0
  C  C158  1  0.23086000  0.43783000  0.57096000  1.0
  C  C159  1  0.06419000  0.00879000  0.56217000  1.0
  C  C160  1  0.89753000  0.57096000  0.99121000  1.0
  C  C161  1  0.73086000  0.56217000  0.42904000  1.0
  C  C162  1  0.61565000  0.06717000  0.43077000  1.0
  C  C163  1  0.44899000  0.49794000  0.93283000  1.0
  C  C164  1  0.28232000  0.43077000  0.50206000  1.0
  C  C165  1  0.11565000  0.93283000  0.56923000  1.0
  C  C166  1  0.94899000  0.50206000  0.06717000  1.0
  C  C167  1  0.78232000  0.56923000  0.49794000  1.0
  C  C168  1  0.59188000  0.16790000  0.35861000  1.0
  C  C169  1  0.42521000  0.52650000  0.83211000  1.0
  C  C170  1  0.25855000  0.35862000  0.47349000  1.0
  C  C171  1  0.09188000  0.83210000  0.64139000  1.0
  C  C172  1  0.92521000  0.47350000  0.16789000  1.0
  C  C173  1  0.75855000  0.64139000  0.52650000  1.0
  C  C174  1  0.59066000  0.89907000  0.50317000  1.0
  C  C175  1  0.42400000  0.40225000  0.10093000  1.0
  C  C176  1  0.25733000  0.50317000  0.59776000  1.0
  C  C177  1  0.09066000  0.10093000  0.49683000  1.0
  C  C178  1  0.92399000  0.59776000  0.89907000  1.0
  C  C179  1  0.75733000  0.49683000  0.40224000  1.0
  C  C180  1  0.71323000  0.95358000  0.55530000  1.0
  C  C181  1  0.54657000  0.50888000  0.04642000  1.0
  C  C182  1  0.37990000  0.55530000  0.49112000  1.0
  C  C183  1  0.21323000  0.04642000  0.44470000  1.0
  C  C184  1  0.04657000  0.49112000  0.95358000  1.0
  C  C185  1  0.87990000  0.44470000  0.50888000  1.0
  C  C186  1  0.69191000  0.04716000  0.49144000  1.0
  C  C187  1  0.52525000  0.53860000  0.95284000  1.0
  C  C188  1  0.35859000  0.49144000  0.46140000  1.0
  C  C189  1  0.19191000  0.95284000  0.50856000  1.0
  C  C190  1  0.02525000  0.46140000  0.04716000  1.0
  C  C191  1  0.85858000  0.50856000  0.53860000  1.0
  C  C192  1  0.55178000  0.56501000  0.24935000  1.0
  C  C193  1  0.38511000  0.81436000  0.43499000  1.0
  C  C194  1  0.21844000  0.24935000  0.18564000  1.0
  C  C195  1  0.05178000  0.43499000  0.75065000  1.0
  C  C196  1  0.88511000  0.18564000  0.56501000  1.0
  C  C197  1  0.71844000  0.75066000  0.81435000  1.0
  C  C198  1  0.53388000  0.66241000  0.23590000  1.0
  C  C199  1  0.36721000  0.89831000  0.33759000  1.0
  C  C200  1  0.20055000  0.23590000  0.10169000  1.0
  C  C201  1  0.03388000  0.33759000  0.76410000  1.0
  C  C202  1  0.86721000  0.10169000  0.66241000  1.0
  C  C203  1  0.70055000  0.76410000  0.89831000  1.0
  C  C204  1  0.42204000  0.23654000  0.41405000  1.0
  C  C205  1  0.25538000  0.65059000  0.76346000  1.0
  C  C206  1  0.08871000  0.41405000  0.34941000  1.0
  C  C207  1  0.92204000  0.76346000  0.58595000  1.0
  C  C208  1  0.75538000  0.34941000  0.23654000  1.0
  C  C209  1  0.58871000  0.58594000  0.65059000  1.0
  N  N210  1  0.59085000  0.23397000  0.39554000  1.0
  N  N211  1  0.42418000  0.62951000  0.76603000  1.0
  N  N212  1  0.25751000  0.39554000  0.37049000  1.0
  N  N213  1  0.09085000  0.76603000  0.60446000  1.0
  N  N214  1  0.92418000  0.37049000  0.23397000  1.0
  N  N215  1  0.75751000  0.60446000  0.62951000  1.0
  N  N216  1  0.66385000  0.88076000  0.56116000  1.0
  N  N217  1  0.49719000  0.44192000  0.11924000  1.0
  N  N218  1  0.33052000  0.56116000  0.55808000  1.0
  N  N219  1  0.16385000  0.11924000  0.43884000  1.0
  N  N220  1  0.99719000  0.55808000  0.88076000  1.0
  N  N221  1  0.83052000  0.43884000  0.44192000  1.0
  O  O222  1  0.41788000  0.30432000  0.32879000  1.0
  O  O223  1  0.25122000  0.63310000  0.69569000  1.0
  O  O224  1  0.08455000  0.32880000  0.36689000  1.0
  O  O225  1  0.91788000  0.69568000  0.67121000  1.0
  O  O226  1  0.75122000  0.36690000  0.30431000  1.0
  O  O227  1  0.58455000  0.67120000  0.63311000  1.0
  O  O228  1  0.35187000  0.18939000  0.46110000  1.0
  O  O229  1  0.18520000  0.65049000  0.81061000  1.0
  O  O230  1  0.01854000  0.46110000  0.34951000  1.0
  O  O231  1  0.85187000  0.81061000  0.53890000  1.0
  O  O232  1  0.68520000  0.34951000  0.18939000  1.0
  O  O233  1  0.51854000  0.53889000  0.65050000  1.0
  O  O234  1  0.61753000  0.55425000  0.20369000  1.0
  O  O235  1  0.45086000  0.75794000  0.44576000  1.0
  O  O236  1  0.28420000  0.20370000  0.24206000  1.0
  O  O237  1  0.11753000  0.44575000  0.79631000  1.0
  O  O238  1  0.95086000  0.24206000  0.55424000  1.0
  O  O239  1  0.78420000  0.79631000  0.75794000  1.0
  O  O240  1  0.49889000  0.49619000  0.30596000  1.0
  O  O241  1  0.33221000  0.80215000  0.50381000  1.0
  O  O242  1  0.16555000  0.30596000  0.19785000  1.0
  O  O243  1  0.99889000  0.50381000  0.69404000  1.0
  O  O244  1  0.83221000  0.19785000  0.49619000  1.0
  O  O245  1  0.66555000  0.69404000  0.80215000  1.0
