# generated using pymatgen
data_CoH20C26(N2O5)2
_symmetry_space_group_name_H-M   'P 1'
_cell_length_a   7.49838000
_cell_length_b   8.70621000
_cell_length_c   9.92439000
_cell_angle_alpha   72.82140000
_cell_angle_beta   77.97530000
_cell_angle_gamma   74.94370000
_symmetry_Int_Tables_number   1
_chemical_formula_structural   CoH20C26(N2O5)2
_chemical_formula_sum   'Co1 H20 C26 N4 O10'
_cell_volume   591.62323668
_cell_formula_units_Z   1
loop_
 _symmetry_equiv_pos_site_id
 _symmetry_equiv_pos_as_xyz
  1  'x, y, z'
loop_
 _atom_site_type_symbol
 _atom_site_label
 _atom_site_symmetry_multiplicity
 _atom_site_fract_x
 _atom_site_fract_y
 _atom_site_fract_z
 _atom_site_occupancy
  Co  Co0  1  0.50000000  0.00000000  0.50000000  1.0
  H  H1  1  0.08503000  0.48878000  0.73988000  1.0
  H  H2  1  0.91497000  0.51122000  0.26012000  1.0
  H  H3  1  0.16387000  0.00941000  0.05061000  1.0
  H  H4  1  0.83612000  0.99060000  0.94938000  1.0
  H  H5  1  0.33511000  0.87985000  0.95537000  1.0
  H  H6  1  0.66489000  0.12015000  0.04463000  1.0
  H  H7  1  0.31328000  0.16476000  0.81319000  1.0
  H  H8  1  0.68672000  0.83525000  0.18681000  1.0
  H  H9  1  0.34269000  0.22833000  0.96088000  1.0
  H  H10  1  0.65730000  0.77167000  0.03911000  1.0
  H  H11  1  0.13408000  0.66188000  0.36896000  1.0
  H  H12  1  0.86592000  0.33812000  0.63104000  1.0
  H  H13  1  0.78736000  0.71303000  0.45613000  1.0
  H  H14  1  0.21265000  0.28696000  0.54387000  1.0
  H  H15  1  0.75657000  0.21212000  0.38031000  1.0
  H  H16  1  0.24343000  0.78787000  0.61969000  1.0
  H  H17  1  0.09214000  0.18571000  0.27234000  1.0
  H  H18  1  0.90785000  0.81429000  0.72766000  1.0
  H  H19  1  0.74160000  0.31014000  0.13911000  1.0
  H  H20  1  0.25840000  0.68986000  0.86089000  1.0
  C  C21  1  0.31272000  0.97585000  0.01217000  1.0
  C  C22  1  0.68728000  0.02415000  0.98783000  1.0
  C  C23  1  0.37916000  0.12606000  0.90965000  1.0
  C  C24  1  0.62084000  0.87394000  0.09035000  1.0
  C  C25  1  0.13878000  0.92102000  0.31000000  1.0
  C  C26  1  0.86122000  0.07898000  0.68999000  1.0
  C  C27  1  0.05203000  0.78666000  0.36352000  1.0
  C  C28  1  0.94797000  0.21335000  0.63647000  1.0
  C  C29  1  0.86200000  0.81338000  0.41348000  1.0
  C  C30  1  0.13800000  0.18662000  0.58652000  1.0
  C  C31  1  0.84318000  0.09430000  0.36800000  1.0
  C  C32  1  0.15682000  0.90570000  0.63200000  1.0
  C  C33  1  0.03052000  0.07785000  0.31074000  1.0
  C  C34  1  0.96948000  0.92216000  0.68926000  1.0
  C  C35  1  0.41474000  0.33740000  0.30382000  1.0
  C  C36  1  0.58526000  0.66260000  0.69619000  1.0
  C  C37  1  0.44826000  0.41897000  0.14563000  1.0
  C  C38  1  0.55174000  0.58103000  0.85438000  1.0
  C  C39  1  0.63294000  0.39382000  0.07918000  1.0
  C  C40  1  0.36706000  0.60618000  0.92082000  1.0
  C  C41  1  0.68729000  0.47215000  0.93670000  1.0
  C  C42  1  0.31272000  0.52785000  0.06330000  1.0
  C  C43  1  0.89008000  0.42810000  0.88552000  1.0
  C  C44  1  0.10993000  0.57189000  0.11448000  1.0
  C  C45  1  0.34699000  0.89039000  0.27086000  1.0
  C  C46  1  0.65301000  0.10962000  0.72914000  1.0
  N  N47  1  0.75853000  0.96506000  0.41798000  1.0
  N  N48  1  0.24147000  0.03493000  0.58202000  1.0
  N  N49  1  0.41931000  0.91184000  0.13170000  1.0
  N  N50  1  0.58069000  0.08816000  0.86829000  1.0
  O  O51  1  0.45122000  0.17831000  0.33002000  1.0
  O  O52  1  0.54878000  0.82168000  0.66999000  1.0
  O  O53  1  0.36869000  0.42678000  0.38787000  1.0
  O  O54  1  0.63131000  0.57322000  0.61213000  1.0
  O  O55  1  0.99534000  0.30691000  0.94764000  1.0
  O  O56  1  0.00466000  0.69309000  0.05235000  1.0
  O  O57  1  0.95186000  0.53408000  0.76460000  1.0
  O  O58  1  0.04815000  0.46591000  0.23541000  1.0
  O  O59  1  0.44590000  0.84058000  0.36881000  1.0
  O  O60  1  0.55410000  0.15942000  0.63118000  1.0
