# generated using pymatgen
data_CuH5C15NO6
_symmetry_space_group_name_H-M   'P 1'
_cell_length_a   10.95250000
_cell_length_b   15.13400000
_cell_length_c   20.49606142
_cell_angle_alpha   111.66976539
_cell_angle_beta   105.51053031
_cell_angle_gamma   89.98920000
_symmetry_Int_Tables_number   1
_chemical_formula_structural   CuH5C15NO6
_chemical_formula_sum   'Cu4 H20 C60 N4 O24'
_cell_volume   3023.76619192
_cell_formula_units_Z   4
loop_
 _symmetry_equiv_pos_site_id
 _symmetry_equiv_pos_as_xyz
  1  'x, y, z'
loop_
 _atom_site_type_symbol
 _atom_site_label
 _atom_site_symmetry_multiplicity
 _atom_site_fract_x
 _atom_site_fract_y
 _atom_site_fract_z
 _atom_site_occupancy
  Cu  Cu0  1  0.44569000  0.52397000  0.04791000  1.0
  Cu  Cu1  1  0.89777000  0.97602000  0.95208000  1.0
  Cu  Cu2  1  0.10223000  0.02398000  0.04792000  1.0
  Cu  Cu3  1  0.55431000  0.47603000  0.95209000  1.0
  H  H4  1  0.26662000  0.24932000  0.78026000  1.0
  H  H5  1  0.24273000  0.87136000  0.56970000  1.0
  H  H6  1  0.98659000  0.25073000  0.21974000  1.0
  H  H7  1  0.17294000  0.62869000  0.43038000  1.0
  H  H8  1  0.01333000  0.03118000  0.78025000  1.0
  H  H9  1  0.82702000  0.19829000  0.56973000  1.0
  H  H10  1  0.73328000  0.46891000  0.21971000  1.0
  H  H11  1  0.75747000  0.30159000  0.43020000  1.0
  H  H12  1  0.73337000  0.75068000  0.21974000  1.0
  H  H13  1  0.75727000  0.12864000  0.43030000  1.0
  H  H14  1  0.01341000  0.74927000  0.78026000  1.0
  H  H15  1  0.82706000  0.37131000  0.56962000  1.0
  H  H16  1  0.98667000  0.96882000  0.21975000  1.0
  H  H17  1  0.17298000  0.80171000  0.43027000  1.0
  H  H18  1  0.26672000  0.53109000  0.78029000  1.0
  H  H19  1  0.24254000  0.69841000  0.56980000  1.0
  H  H20  1  0.24259000  0.24245000  0.98491000  1.0
  H  H21  1  0.75762000  0.25747000  0.01506000  1.0
  H  H22  1  0.75741000  0.75755000  0.01509000  1.0
  H  H23  1  0.24238000  0.74253000  0.98494000  1.0
  C  C24  1  0.35206000  0.34526000  0.92763000  1.0
  C  C25  1  0.26167000  0.25607000  0.88674000  1.0
  C  C26  1  0.22582000  0.21659000  0.81004000  1.0
  C  C27  1  0.15550000  0.01699000  0.65843000  1.0
  C  C28  1  0.11441000  0.97822000  0.57710000  1.0
  C  C29  1  0.16942000  0.90086000  0.53850000  1.0
  C  C30  1  0.92460000  0.15474000  0.07239000  1.0
  C  C31  1  0.87502000  0.24391000  0.11324000  1.0
  C  C32  1  0.91600000  0.28346000  0.18994000  1.0
  C  C33  1  0.99724000  0.48301000  0.34162000  1.0
  C  C34  1  0.03725000  0.52185000  0.42295000  1.0
  C  C35  1  0.13082000  0.59925000  0.46158000  1.0
  C  C36  1  0.07545000  0.08248000  0.92764000  1.0
  C  C37  1  0.12495000  0.13079000  0.88675000  1.0
  C  C38  1  0.08398000  0.09364000  0.81004000  1.0
  C  C39  1  0.00276000  0.14136000  0.65839000  1.0
  C  C40  1  0.96271000  0.09885000  0.57708000  1.0
  C  C41  1  0.86907000  0.13760000  0.53849000  1.0
  C  C42  1  0.64793000  0.41753000  0.07232000  1.0
  C  C43  1  0.73830000  0.36920000  0.11322000  1.0
  C  C44  1  0.77413000  0.40644000  0.18992000  1.0
  C  C45  1  0.84456000  0.35862000  0.34156000  1.0
  C  C46  1  0.88575000  0.40108000  0.42288000  1.0
  C  C47  1  0.83073000  0.36227000  0.46144000  1.0
  C  C48  1  0.64794000  0.65474000  0.07237000  1.0
  C  C49  1  0.73833000  0.74393000  0.11326000  1.0
  C  C50  1  0.77418000  0.78341000  0.18996000  1.0
  C  C51  1  0.84450000  0.98301000  0.34157000  1.0
  C  C52  1  0.88559000  0.02178000  0.42290000  1.0
  C  C53  1  0.83058000  0.09914000  0.46150000  1.0
  C  C54  1  0.07540000  0.84526000  0.92761000  1.0
  C  C55  1  0.12498000  0.75609000  0.88676000  1.0
  C  C56  1  0.08400000  0.71654000  0.81006000  1.0
  C  C57  1  0.00276000  0.51699000  0.65838000  1.0
  C  C58  1  0.96275000  0.47815000  0.57705000  1.0
  C  C59  1  0.86918000  0.40076000  0.53842000  1.0
  C  C60  1  0.92455000  0.91752000  0.07236000  1.0
  C  C61  1  0.87505000  0.86921000  0.11325000  1.0
  C  C62  1  0.91602000  0.90635000  0.18995000  1.0
  C  C63  1  0.99724000  0.85864000  0.34161000  1.0
  C  C64  1  0.03729000  0.90115000  0.42292000  1.0
  C  C65  1  0.13093000  0.86239000  0.46151000  1.0
  C  C66  1  0.35208000  0.58247000  0.92768000  1.0
  C  C67  1  0.26170000  0.63079000  0.88678000  1.0
  C  C68  1  0.22586000  0.59357000  0.81008000  1.0
  C  C69  1  0.15545000  0.64138000  0.65844000  1.0
  C  C70  1  0.11425000  0.59892000  0.57712000  1.0
  C  C71  1  0.16927000  0.63773000  0.53856000  1.0
  C  C72  1  0.13624000  0.13638000  0.77263000  1.0
  C  C73  1  0.21265000  0.21261000  0.92521000  1.0
  C  C74  1  0.01952000  0.01951000  0.53904000  1.0
  C  C75  1  0.86380000  0.36368000  0.22735000  1.0
  C  C76  1  0.78743000  0.28732000  0.07475000  1.0
  C  C77  1  0.98050000  0.48048000  0.46096000  1.0
  C  C78  1  0.86376000  0.86362000  0.22737000  1.0
  C  C79  1  0.78735000  0.78739000  0.07479000  1.0
  C  C80  1  0.98048000  0.98049000  0.46096000  1.0
  C  C81  1  0.13620000  0.63632000  0.77265000  1.0
  C  C82  1  0.21257000  0.71268000  0.92525000  1.0
  C  C83  1  0.01950000  0.51952000  0.53904000  1.0
  N  N84  1  0.09672000  0.09678000  0.69350000  1.0
  N  N85  1  0.90335000  0.40326000  0.30648000  1.0
  N  N86  1  0.90328000  0.90321000  0.30649000  1.0
  N  N87  1  0.09665000  0.59674000  0.69352000  1.0
  O  O88  1  0.33790000  0.40117000  0.98882000  1.0
  O  O89  1  0.43543000  0.35854000  0.89786000  1.0
  O  O90  1  0.23562000  0.98308000  0.69423000  1.0
  O  O91  1  0.84923000  0.09885000  0.01120000  1.0
  O  O92  1  0.03776000  0.14151000  0.10219000  1.0
  O  O93  1  0.04180000  0.51687000  0.30589000  1.0
  O  O94  1  0.15084000  0.08787000  0.98886000  1.0
  O  O95  1  0.96235000  0.03934000  0.89783000  1.0
  O  O96  1  0.95812000  0.21093000  0.69411000  1.0
  O  O97  1  0.66211000  0.41218000  0.01112000  1.0
  O  O98  1  0.56452000  0.46058000  0.10205000  1.0
  O  O99  1  0.76435000  0.28895000  0.30577000  1.0
  O  O100  1  0.66210000  0.59883000  0.01118000  1.0
  O  O101  1  0.56457000  0.64146000  0.10214000  1.0
  O  O102  1  0.76438000  0.01692000  0.30577000  1.0
  O  O103  1  0.15077000  0.90115000  0.98880000  1.0
  O  O104  1  0.96224000  0.85849000  0.89781000  1.0
  O  O105  1  0.95820000  0.48314000  0.69411000  1.0
  O  O106  1  0.84916000  0.91213000  0.01114000  1.0
  O  O107  1  0.03765000  0.96066000  0.10217000  1.0
  O  O108  1  0.04188000  0.78907000  0.30589000  1.0
  O  O109  1  0.33789000  0.58782000  0.98888000  1.0
  O  O110  1  0.43548000  0.53942000  0.89795000  1.0
  O  O111  1  0.23566000  0.71105000  0.69423000  1.0
