# generated using pymatgen
data_Zn2H27PtC23N5Cl2O11
_symmetry_space_group_name_H-M   'P 1'
_cell_length_a   12.77420000
_cell_length_b   14.95810000
_cell_length_c   23.21820000
_cell_angle_alpha   90.00000000
_cell_angle_beta   89.99950000
_cell_angle_gamma   89.99980000
_symmetry_Int_Tables_number   1
_chemical_formula_structural   Zn2H27PtC23N5Cl2O11
_chemical_formula_sum   'Zn8 H108 Pt4 C92 N20 Cl8 O44'
_cell_volume   4436.48167072
_cell_formula_units_Z   4
loop_
 _symmetry_equiv_pos_site_id
 _symmetry_equiv_pos_as_xyz
  1  'x, y, z'
loop_
 _atom_site_type_symbol
 _atom_site_label
 _atom_site_symmetry_multiplicity
 _atom_site_fract_x
 _atom_site_fract_y
 _atom_site_fract_z
 _atom_site_occupancy
  Zn  Zn0  1  0.15753000  0.51380000  0.90187000  1.0
  Zn  Zn1  1  0.65754000  0.01381000  0.59813000  1.0
  Zn  Zn2  1  0.34246000  0.51381000  0.40187000  1.0
  Zn  Zn3  1  0.84246000  0.01380000  0.09813000  1.0
  Zn  Zn4  1  0.24886000  0.39160000  0.01527000  1.0
  Zn  Zn5  1  0.74886000  0.89162000  0.48473000  1.0
  Zn  Zn6  1  0.25113000  0.39163000  0.51526000  1.0
  Zn  Zn7  1  0.75114000  0.89161000  0.98473000  1.0
  H  H8  1  0.06036000  0.27835000  0.82147000  1.0
  H  H9  1  0.56036000  0.77835000  0.67853000  1.0
  H  H10  1  0.43964000  0.27836000  0.32147000  1.0
  H  H11  1  0.93965000  0.77834000  0.17853000  1.0
  H  H12  1  0.01821000  0.17641000  0.99302000  1.0
  H  H13  1  0.51820000  0.67643000  0.50698000  1.0
  H  H14  1  0.48179000  0.17643000  0.49302000  1.0
  H  H15  1  0.98178000  0.67641000  0.00699000  1.0
  H  H16  1  0.89008000  0.04373000  0.84394000  1.0
  H  H17  1  0.39008000  0.54373000  0.65606000  1.0
  H  H18  1  0.60991000  0.04373000  0.34394000  1.0
  H  H19  1  0.10991000  0.54372000  0.15606000  1.0
  H  H20  1  0.87374000  0.03582000  0.64822000  1.0
  H  H21  1  0.37374000  0.53583000  0.85179000  1.0
  H  H22  1  0.62627000  0.03582000  0.14822000  1.0
  H  H23  1  0.12626000  0.53583000  0.35178000  1.0
  H  H24  1  0.00303000  0.13867000  0.48924000  1.0
  H  H25  1  0.50304000  0.63866000  0.01077000  1.0
  H  H26  1  0.49696000  0.13865000  0.98924000  1.0
  H  H27  1  0.99696000  0.63866000  0.51077000  1.0
  H  H28  1  0.08338000  0.24854000  0.65460000  1.0
  H  H29  1  0.58341000  0.74853000  0.84541000  1.0
  H  H30  1  0.41661000  0.24852000  0.15459000  1.0
  H  H31  1  0.91661000  0.74854000  0.34541000  1.0
  H  H32  1  0.13543000  0.57731000  0.76960000  1.0
  H  H33  1  0.63545000  0.07731000  0.73039000  1.0
  H  H34  1  0.36458000  0.57730000  0.26961000  1.0
  H  H35  1  0.86457000  0.07730000  0.23039000  1.0
  H  H36  1  0.30095000  0.38199000  0.75126000  1.0
  H  H37  1  0.80096000  0.88199000  0.74873000  1.0
  H  H38  1  0.19903000  0.38199000  0.25127000  1.0
  H  H39  1  0.69903000  0.88199000  0.24874000  1.0
  H  H40  1  0.27797000  0.37985000  0.67470000  1.0
  H  H41  1  0.77797000  0.87984000  0.82530000  1.0
  H  H42  1  0.22202000  0.37985000  0.17470000  1.0
  H  H43  1  0.72203000  0.87985000  0.32530000  1.0
  H  H44  1  0.18472000  0.33122000  0.72263000  1.0
  H  H45  1  0.68471000  0.83122000  0.77736000  1.0
  H  H46  1  0.31528000  0.33121000  0.22263000  1.0
  H  H47  1  0.81527000  0.83122000  0.27737000  1.0
  H  H48  1  0.09822000  0.56865000  0.67838000  1.0
  H  H49  1  0.59823000  0.06866000  0.82161000  1.0
  H  H50  1  0.40177000  0.56865000  0.17838000  1.0
  H  H51  1  0.90178000  0.06865000  0.32161000  1.0
  H  H52  1  0.19193000  0.51222000  0.63388000  1.0
  H  H53  1  0.69194000  0.01221000  0.86611000  1.0
  H  H54  1  0.30807000  0.51221000  0.13389000  1.0
  H  H55  1  0.80806000  0.01222000  0.36611000  1.0
  H  H56  1  0.07596000  0.45592000  0.65543000  1.0
  H  H57  1  0.57597000  0.95592000  0.84456000  1.0
  H  H58  1  0.42404000  0.45592000  0.15543000  1.0
  H  H59  1  0.92404000  0.95592000  0.34457000  1.0
  H  H60  1  0.95797000  0.44787000  0.82365000  1.0
  H  H61  1  0.45798000  0.94786000  0.67635000  1.0
  H  H62  1  0.54202000  0.44787000  0.32365000  1.0
  H  H63  1  0.04202000  0.94786000  0.17634000  1.0
  H  H64  1  0.70223000  0.49552000  0.80460000  1.0
  H  H65  1  0.20223000  0.99550000  0.69540000  1.0
  H  H66  1  0.79778000  0.49551000  0.30460000  1.0
  H  H67  1  0.29778000  0.99551000  0.19539000  1.0
  H  H68  1  0.81204000  0.43410000  0.77711000  1.0
  H  H69  1  0.31205000  0.93410000  0.72289000  1.0
  H  H70  1  0.68796000  0.43410000  0.27711000  1.0
  H  H71  1  0.18796000  0.93408000  0.22289000  1.0
  H  H72  1  0.77092000  0.53596000  0.74357000  1.0
  H  H73  1  0.27093000  0.03595000  0.75644000  1.0
  H  H74  1  0.72908000  0.53596000  0.24356000  1.0
  H  H75  1  0.22908000  0.03595000  0.25643000  1.0
  H  H76  1  0.88278000  0.67211000  0.86348000  1.0
  H  H77  1  0.38277000  0.17209000  0.63652000  1.0
  H  H78  1  0.61722000  0.67210000  0.36348000  1.0
  H  H79  1  0.11721000  0.17209000  0.13652000  1.0
  H  H80  1  0.75036000  0.63535000  0.86947000  1.0
  H  H81  1  0.25036000  0.13534000  0.63052000  1.0
  H  H82  1  0.74964000  0.63533000  0.36947000  1.0
  H  H83  1  0.24965000  0.13533000  0.13052000  1.0
  H  H84  1  0.79596000  0.67981000  0.80289000  1.0
  H  H85  1  0.29595000  0.17980000  0.69710000  1.0
  H  H86  1  0.70405000  0.67980000  0.30289000  1.0
  H  H87  1  0.20404000  0.17979000  0.19711000  1.0
  H  H88  1  0.07862000  0.69849000  0.93749000  1.0
  H  H89  1  0.57862000  0.19850000  0.56252000  1.0
  H  H90  1  0.42137000  0.69850000  0.43748000  1.0
  H  H91  1  0.92138000  0.19849000  0.06252000  1.0
  H  H92  1  0.08192000  0.91626000  0.90034000  1.0
  H  H93  1  0.58192000  0.41626000  0.59966000  1.0
  H  H94  1  0.41808000  0.91626000  0.40034000  1.0
  H  H95  1  0.91808000  0.41626000  0.09965000  1.0
  H  H96  1  0.00495000  0.82905000  0.93170000  1.0
  H  H97  1  0.50497000  0.32905000  0.56832000  1.0
  H  H98  1  0.49503000  0.82905000  0.43168000  1.0
  H  H99  1  0.99504000  0.32904000  0.06831000  1.0
  H  H100  1  0.98378000  0.86240000  0.85870000  1.0
  H  H101  1  0.48378000  0.36241000  0.64131000  1.0
  H  H102  1  0.51621000  0.86241000  0.35870000  1.0
  H  H103  1  0.01622000  0.36240000  0.14130000  1.0
  H  H104  1  0.13874000  0.84930000  0.79340000  1.0
  H  H105  1  0.63875000  0.34932000  0.70661000  1.0
  H  H106  1  0.36126000  0.84932000  0.29339000  1.0
  H  H107  1  0.86126000  0.34931000  0.20660000  1.0
  H  H108  1  0.25657000  0.84039000  0.83484000  1.0
  H  H109  1  0.75658000  0.34040000  0.66516000  1.0
  H  H110  1  0.24342000  0.84040000  0.33483000  1.0
  H  H111  1  0.74343000  0.34040000  0.16516000  1.0
  H  H112  1  0.20574000  0.74381000  0.80097000  1.0
  H  H113  1  0.70575000  0.24383000  0.69904000  1.0
  H  H114  1  0.29426000  0.74384000  0.30096000  1.0
  H  H115  1  0.79425000  0.24383000  0.19904000  1.0
  Pt  Pt116  1  0.97204000  0.14893000  0.74183000  1.0
  Pt  Pt117  1  0.47205000  0.64893000  0.75817000  1.0
  Pt  Pt118  1  0.52796000  0.14893000  0.24183000  1.0
  Pt  Pt119  1  0.02795000  0.64893000  0.25817000  1.0
  C  C120  1  0.02958000  0.22887000  0.85122000  1.0
  C  C121  1  0.52960000  0.72887000  0.64878000  1.0
  C  C122  1  0.47039000  0.22887000  0.35122000  1.0
  C  C123  1  0.97039000  0.72885000  0.14878000  1.0
  C  C124  1  0.04386000  0.23813000  0.91024000  1.0
  C  C125  1  0.54386000  0.73813000  0.58976000  1.0
  C  C126  1  0.45614000  0.23813000  0.41024000  1.0
  C  C127  1  0.95614000  0.73811000  0.08977000  1.0
  C  C128  1  0.00441000  0.17281000  0.94688000  1.0
  C  C129  1  0.50439000  0.67283000  0.55312000  1.0
  C  C130  1  0.49561000  0.17283000  0.44688000  1.0
  C  C131  1  0.99559000  0.67280000  0.05313000  1.0
  C  C132  1  0.94537000  0.10330000  0.92356000  1.0
  C  C133  1  0.44537000  0.60331000  0.57644000  1.0
  C  C134  1  0.55463000  0.10331000  0.42356000  1.0
  C  C135  1  0.05463000  0.60329000  0.07644000  1.0
  C  C136  1  0.93348000  0.09793000  0.86395000  1.0
  C  C137  1  0.43349000  0.59794000  0.63606000  1.0
  C  C138  1  0.56651000  0.09794000  0.36395000  1.0
  C  C139  1  0.06652000  0.59793000  0.13606000  1.0
  C  C140  1  0.09881000  0.31945000  0.93275000  1.0
  C  C141  1  0.59882000  0.81946000  0.56725000  1.0
  C  C142  1  0.40119000  0.31947000  0.43275000  1.0
  C  C143  1  0.90119000  0.81945000  0.06725000  1.0
  C  C144  1  0.89201000  0.03724000  0.96250000  1.0
  C  C145  1  0.39201000  0.53726000  0.53749000  1.0
  C  C146  1  0.60799000  0.03725000  0.46250000  1.0
  C  C147  1  0.10798000  0.53723000  0.03750000  1.0
  C  C148  1  0.92325000  0.08190000  0.62431000  1.0
  C  C149  1  0.42326000  0.58190000  0.87569000  1.0
  C  C150  1  0.57673000  0.08188000  0.12431000  1.0
  C  C151  1  0.07674000  0.58190000  0.37569000  1.0
  C  C152  1  0.93080000  0.07931000  0.56435000  1.0
  C  C153  1  0.43080000  0.57931000  0.93566000  1.0
  C  C154  1  0.56921000  0.07931000  0.06435000  1.0
  C  C155  1  0.06920000  0.57932000  0.43566000  1.0
  C  C156  1  0.99629000  0.13963000  0.53601000  1.0
  C  C157  1  0.49631000  0.63963000  0.96399000  1.0
  C  C158  1  0.50370000  0.13962000  0.03601000  1.0
  C  C159  1  0.00370000  0.63963000  0.46399000  1.0
  C  C160  1  0.05282000  0.20129000  0.56851000  1.0
  C  C161  1  0.55284000  0.70128000  0.93149000  1.0
  C  C162  1  0.44716000  0.20127000  0.06851000  1.0
  C  C163  1  0.94716000  0.70128000  0.43149000  1.0
  C  C164  1  0.04153000  0.20068000  0.62804000  1.0
  C  C165  1  0.54154000  0.70068000  0.87197000  1.0
  C  C166  1  0.45849000  0.20069000  0.12803000  1.0
  C  C167  1  0.95848000  0.70069000  0.37197000  1.0
  C  C168  1  0.87049000  0.01286000  0.52984000  1.0
  C  C169  1  0.37048000  0.51287000  0.97017000  1.0
  C  C170  1  0.62952000  0.01287000  0.02983000  1.0
  C  C171  1  0.12952000  0.51286000  0.47016000  1.0
  C  C172  1  0.12407000  0.26825000  0.54098000  1.0
  C  C173  1  0.62409000  0.76824000  0.95902000  1.0
  C  C174  1  0.37592000  0.26824000  0.04099000  1.0
  C  C175  1  0.87592000  0.76824000  0.45902000  1.0
  C  C176  1  0.17954000  0.51385000  0.77152000  1.0
  C  C177  1  0.67954000  0.01385000  0.72849000  1.0
  C  C178  1  0.32046000  0.51384000  0.27151000  1.0
  C  C179  1  0.82045000  0.01385000  0.22848000  1.0
  C  C180  1  0.24171000  0.38589000  0.71732000  1.0
  C  C181  1  0.74172000  0.88587000  0.78267000  1.0
  C  C182  1  0.25828000  0.38588000  0.21732000  1.0
  C  C183  1  0.75828000  0.88589000  0.28268000  1.0
  C  C184  1  0.13576000  0.50423000  0.66930000  1.0
  C  C185  1  0.63576000  0.00423000  0.83069000  1.0
  C  C186  1  0.36424000  0.50422000  0.16930000  1.0
  C  C187  1  0.86424000  0.00423000  0.33070000  1.0
  C  C188  1  0.94268000  0.51638000  0.83927000  1.0
  C  C189  1  0.44269000  0.01638000  0.66073000  1.0
  C  C190  1  0.55732000  0.51638000  0.33926000  1.0
  C  C191  1  0.05733000  0.01637000  0.16074000  1.0
  C  C192  1  0.78021000  0.50111000  0.78500000  1.0
  C  C193  1  0.28021000  0.00111000  0.71501000  1.0
  C  C194  1  0.71980000  0.50110000  0.28499000  1.0
  C  C195  1  0.21980000  0.00109000  0.21501000  1.0
  C  C196  1  0.81832000  0.63970000  0.84060000  1.0
  C  C197  1  0.31831000  0.13968000  0.65940000  1.0
  C  C198  1  0.68169000  0.63970000  0.34060000  1.0
  C  C199  1  0.18168000  0.13970000  0.15940000  1.0
  C  C200  1  0.13170000  0.70833000  0.90074000  1.0
  C  C201  1  0.63172000  0.20833000  0.59926000  1.0
  C  C202  1  0.36828000  0.70834000  0.40073000  1.0
  C  C203  1  0.86829000  0.20833000  0.09926000  1.0
  C  C204  1  0.04348000  0.85176000  0.89209000  1.0
  C  C205  1  0.54349000  0.35177000  0.60792000  1.0
  C  C206  1  0.45651000  0.85177000  0.39209000  1.0
  C  C207  1  0.95652000  0.35176000  0.10791000  1.0
  C  C208  1  0.18374000  0.80620000  0.82253000  1.0
  C  C209  1  0.68375000  0.30621000  0.67748000  1.0
  C  C210  1  0.31625000  0.80622000  0.32252000  1.0
  C  C211  1  0.81625000  0.30621000  0.17747000  1.0
  N  N212  1  0.97709000  0.15896000  0.82829000  1.0
  N  N213  1  0.47709000  0.65897000  0.67171000  1.0
  N  N214  1  0.52291000  0.15898000  0.32829000  1.0
  N  N215  1  0.02291000  0.65896000  0.17171000  1.0
  N  N216  1  0.97796000  0.14220000  0.65535000  1.0
  N  N217  1  0.47797000  0.64220000  0.84465000  1.0
  N  N218  1  0.52204000  0.14219000  0.15535000  1.0
  N  N219  1  0.02204000  0.64220000  0.34465000  1.0
  N  N220  1  0.18837000  0.47189000  0.72102000  1.0
  N  N221  1  0.68838000  0.97188000  0.77898000  1.0
  N  N222  1  0.31162000  0.47188000  0.22101000  1.0
  N  N223  1  0.81162000  0.97188000  0.27898000  1.0
  N  N224  1  0.85104000  0.55084000  0.82232000  1.0
  N  N225  1  0.35104000  0.05082000  0.67767000  1.0
  N  N226  1  0.64898000  0.55083000  0.32232000  1.0
  N  N227  1  0.14898000  0.05083000  0.17768000  1.0
  N  N228  1  0.11993000  0.78573000  0.87298000  1.0
  N  N229  1  0.61994000  0.28574000  0.62703000  1.0
  N  N230  1  0.38006000  0.78574000  0.37297000  1.0
  N  N231  1  0.88007000  0.28573000  0.12702000  1.0
  Cl  Cl232  1  0.94098000  0.30179000  0.73467000  1.0
  Cl  Cl233  1  0.44100000  0.80178000  0.76533000  1.0
  Cl  Cl234  1  0.55902000  0.30178000  0.23466000  1.0
  Cl  Cl235  1  0.05902000  0.80178000  0.26533000  1.0
  Cl  Cl236  1  0.00148000  0.99673000  0.74804000  1.0
  Cl  Cl237  1  0.50148000  0.49673000  0.75196000  1.0
  Cl  Cl238  1  0.49852000  0.99673000  0.24804000  1.0
  Cl  Cl239  1  0.99851000  0.49673000  0.25197000  1.0
  O  O240  1  0.10477000  0.38463000  0.89818000  1.0
  O  O241  1  0.60477000  0.88463000  0.60182000  1.0
  O  O242  1  0.39524000  0.38463000  0.39818000  1.0
  O  O243  1  0.89523000  0.88461000  0.10182000  1.0
  O  O244  1  0.13192000  0.31481000  0.98431000  1.0
  O  O245  1  0.63193000  0.81483000  0.51569000  1.0
  O  O246  1  0.36807000  0.31483000  0.48432000  1.0
  O  O247  1  0.86806000  0.81480000  0.01569000  1.0
  O  O248  1  0.90398000  0.04913000  0.01599000  1.0
  O  O249  1  0.40397000  0.54915000  0.48401000  1.0
  O  O250  1  0.59603000  0.04915000  0.51599000  1.0
  O  O251  1  0.09602000  0.54913000  0.98401000  1.0
  O  O252  1  0.83872000  0.97646000  0.93742000  1.0
  O  O253  1  0.33871000  0.47648000  0.56257000  1.0
  O  O254  1  0.66129000  0.97648000  0.43742000  1.0
  O  O255  1  0.16129000  0.47646000  0.06258000  1.0
  O  O256  1  0.79414000  0.96984000  0.55518000  1.0
  O  O257  1  0.29414000  0.46983000  0.94483000  1.0
  O  O258  1  0.70586000  0.96982000  0.05517000  1.0
  O  O259  1  0.20586000  0.46983000  0.44482000  1.0
  O  O260  1  0.89355000  0.99878000  0.47842000  1.0
  O  O261  1  0.39354000  0.49879000  0.02158000  1.0
  O  O262  1  0.60646000  0.99879000  0.97842000  1.0
  O  O263  1  0.10646000  0.49879000  0.52158000  1.0
  O  O264  1  0.12204000  0.27952000  0.48751000  1.0
  O  O265  1  0.62207000  0.77950000  0.01249000  1.0
  O  O266  1  0.37796000  0.27952000  0.98751000  1.0
  O  O267  1  0.87795000  0.77952000  0.51249000  1.0
  O  O268  1  0.18515000  0.31230000  0.57535000  1.0
  O  O269  1  0.68516000  0.81229000  0.92466000  1.0
  O  O270  1  0.31484000  0.31230000  0.07535000  1.0
  O  O271  1  0.81484000  0.81230000  0.42465000  1.0
  O  O272  1  0.21704000  0.48490000  0.81791000  1.0
  O  O273  1  0.71706000  0.98490000  0.68209000  1.0
  O  O274  1  0.28295000  0.48490000  0.31791000  1.0
  O  O275  1  0.78296000  0.98490000  0.18209000  1.0
  O  O276  1  0.00718000  0.55770000  0.87017000  1.0
  O  O277  1  0.50719000  0.05769000  0.62983000  1.0
  O  O278  1  0.49282000  0.55769000  0.37016000  1.0
  O  O279  1  0.99282000  0.05767000  0.12983000  1.0
  O  O280  1  0.19753000  0.64943000  0.88691000  1.0
  O  O281  1  0.69755000  0.14943000  0.61310000  1.0
  O  O282  1  0.30245000  0.64943000  0.38689000  1.0
  O  O283  1  0.80246000  0.14942000  0.11311000  1.0
