# generated using pymatgen
data_CuH8C6(N5O2)2
_symmetry_space_group_name_H-M   'P 1'
_cell_length_a   4.87483000
_cell_length_b   11.04230000
_cell_length_c   11.53190000
_cell_angle_alpha   90.00000000
_cell_angle_beta   94.02960000
_cell_angle_gamma   89.99760000
_symmetry_Int_Tables_number   1
_chemical_formula_structural   CuH8C6(N5O2)2
_chemical_formula_sum   'Cu2 H16 C12 N20 O8'
_cell_volume   619.21993149
_cell_formula_units_Z   2
loop_
 _symmetry_equiv_pos_site_id
 _symmetry_equiv_pos_as_xyz
  1  'x, y, z'
loop_
 _atom_site_type_symbol
 _atom_site_label
 _atom_site_symmetry_multiplicity
 _atom_site_fract_x
 _atom_site_fract_y
 _atom_site_fract_z
 _atom_site_occupancy
  Cu  Cu0  1  0.50003000  0.00000000  0.50000000  1.0
  Cu  Cu1  1  0.99997000  0.50000000  0.00000000  1.0
  H  H2  1  0.49703000  0.67137000  0.04350000  1.0
  H  H3  1  0.00298000  0.17138000  0.45649000  1.0
  H  H4  1  0.50294000  0.32863000  0.95651000  1.0
  H  H5  1  0.99706000  0.82863000  0.54350000  1.0
  H  H6  1  0.70983000  0.70684000  0.16543000  1.0
  H  H7  1  0.79017000  0.20685000  0.33457000  1.0
  H  H8  1  0.29013000  0.29314000  0.83456000  1.0
  H  H9  1  0.20986000  0.79315000  0.66543000  1.0
  H  H10  1  0.82372000  0.66022000  0.35434000  1.0
  H  H11  1  0.67629000  0.16023000  0.14565000  1.0
  H  H12  1  0.17630000  0.33977000  0.64565000  1.0
  H  H13  1  0.32369000  0.83976000  0.85435000  1.0
  H  H14  1  0.67443000  0.58535000  0.46906000  1.0
  H  H15  1  0.82559000  0.08535000  0.03092000  1.0
  H  H16  1  0.32558000  0.41465000  0.53093000  1.0
  H  H17  1  0.17440000  0.91466000  0.96908000  1.0
  C  C18  1  0.41639000  0.58180000  0.19134000  1.0
  C  C19  1  0.08361000  0.08181000  0.30865000  1.0
  C  C20  1  0.58362000  0.41819000  0.80866000  1.0
  C  C21  1  0.91640000  0.91821000  0.69133000  1.0
  C  C22  1  0.62626000  0.63723000  0.38879000  1.0
  C  C23  1  0.87373000  0.13722000  0.11122000  1.0
  C  C24  1  0.37376000  0.36276000  0.61120000  1.0
  C  C25  1  0.12625000  0.86276000  0.88879000  1.0
  C  C26  1  0.46715000  0.75233000  0.41920000  1.0
  C  C27  1  0.03289000  0.25234000  0.08082000  1.0
  C  C28  1  0.53289000  0.24767000  0.58080000  1.0
  C  C29  1  0.96709000  0.74766000  0.91918000  1.0
  N  N30  1  0.19458000  0.51525000  0.15631000  1.0
  N  N31  1  0.30548000  0.01524000  0.34367000  1.0
  N  N32  1  0.80543000  0.48476000  0.84370000  1.0
  N  N33  1  0.69456000  0.98475000  0.65630000  1.0
  N  N34  1  0.10703000  0.45850000  0.25227000  1.0
  N  N35  1  0.39302000  0.95850000  0.24774000  1.0
  N  N36  1  0.89298000  0.54150000  0.74773000  1.0
  N  N37  1  0.60699000  0.04151000  0.75226000  1.0
  N  N38  1  0.26146000  0.48783000  0.34289000  1.0
  N  N39  1  0.23856000  0.98783000  0.15712000  1.0
  N  N40  1  0.73855000  0.51216000  0.65712000  1.0
  N  N41  1  0.76142000  0.01217000  0.84288000  1.0
  N  N42  1  0.46101000  0.56377000  0.30745000  1.0
  N  N43  1  0.03899000  0.06377000  0.19257000  1.0
  N  N44  1  0.53898000  0.43624000  0.69257000  1.0
  N  N45  1  0.96098000  0.93624000  0.80744000  1.0
  N  N46  1  0.57658000  0.64725000  0.12513000  1.0
  N  N47  1  0.92343000  0.14727000  0.37488000  1.0
  N  N48  1  0.42337000  0.35273000  0.87488000  1.0
  N  N49  1  0.07660000  0.85274000  0.62513000  1.0
  O  O50  1  0.21358000  0.75633000  0.40089000  1.0
  O  O51  1  0.28647000  0.25632000  0.09910000  1.0
  O  O52  1  0.78647000  0.24368000  0.59912000  1.0
  O  O53  1  0.71350000  0.74369000  0.90090000  1.0
  O  O54  1  0.62674000  0.83542000  0.46549000  1.0
  O  O55  1  0.87325000  0.33542000  0.03450000  1.0
  O  O56  1  0.37326000  0.16458000  0.53449000  1.0
  O  O57  1  0.12670000  0.66458000  0.96550000  1.0
