# generated using pymatgen
data_AgH22C10N2Cl
_symmetry_space_group_name_H-M   'P 1'
_cell_length_a   6.09717000
_cell_length_b   10.71270793
_cell_length_c   20.75290000
_cell_angle_alpha   95.21754185
_cell_angle_beta   90.08730000
_cell_angle_gamma   106.22953767
_symmetry_Int_Tables_number   1
_chemical_formula_structural   AgH22C10N2Cl
_chemical_formula_sum   'Ag4 H88 C40 N8 Cl4'
_cell_volume   1295.59629081
_cell_formula_units_Z   4
loop_
 _symmetry_equiv_pos_site_id
 _symmetry_equiv_pos_as_xyz
  1  'x, y, z'
loop_
 _atom_site_type_symbol
 _atom_site_label
 _atom_site_symmetry_multiplicity
 _atom_site_fract_x
 _atom_site_fract_y
 _atom_site_fract_z
 _atom_site_occupancy
  Ag  Ag0  1  0.73358000  0.55123000  0.30515000  1.0
  Ag  Ag1  1  0.18078000  0.44710000  0.19458000  1.0
  Ag  Ag2  1  0.26641000  0.44876000  0.69486000  1.0
  Ag  Ag3  1  0.81923000  0.55290000  0.80543000  1.0
  H  H4  1  0.50385000  0.73017000  0.32091000  1.0
  H  H5  1  0.77418000  0.26809000  0.17919000  1.0
  H  H6  1  0.49614000  0.26983000  0.67909000  1.0
  H  H7  1  0.22582000  0.73192000  0.82081000  1.0
  H  H8  1  0.56135000  0.70859000  0.42980000  1.0
  H  H9  1  0.85028000  0.29023000  0.07031000  1.0
  H  H10  1  0.43857000  0.29139000  0.57021000  1.0
  H  H11  1  0.14972000  0.70979000  0.92970000  1.0
  H  H12  1  0.61048000  0.87707000  0.41934000  1.0
  H  H13  1  0.73661000  0.12149000  0.08044000  1.0
  H  H14  1  0.38949000  0.12294000  0.58066000  1.0
  H  H15  1  0.26338000  0.87854000  0.91956000  1.0
  H  H16  1  0.92157000  0.84781000  0.48792000  1.0
  H  H17  1  0.07556000  0.15262000  0.01178000  1.0
  H  H18  1  0.07837000  0.15220000  0.51210000  1.0
  H  H19  1  0.92443000  0.84741000  0.98821000  1.0
  H  H20  1  0.98122000  0.73487000  0.42701000  1.0
  H  H21  1  0.24565000  0.26647000  0.07255000  1.0
  H  H22  1  0.01873000  0.26512000  0.57301000  1.0
  H  H23  1  0.75434000  0.73355000  0.92745000  1.0
  H  H24  1  0.25582000  0.95420000  0.41946000  1.0
  H  H25  1  0.31010000  0.04843000  0.08001000  1.0
  H  H26  1  0.74415000  0.04578000  0.58055000  1.0
  H  H27  1  0.68989000  0.95160000  0.91998000  1.0
  H  H28  1  0.02709000  0.02501000  0.41526000  1.0
  H  H29  1  0.01279000  0.97560000  0.08441000  1.0
  H  H30  1  0.97288000  0.97499000  0.58475000  1.0
  H  H31  1  0.98721000  0.02441000  0.91558000  1.0
  H  H32  1  0.15947000  0.98658000  0.30416000  1.0
  H  H33  1  0.18536000  0.01511000  0.19539000  1.0
  H  H34  1  0.84054000  0.01339000  0.69586000  1.0
  H  H35  1  0.81463000  0.98489000  0.80459000  1.0
  H  H36  1  0.12750000  0.81990000  0.31551000  1.0
  H  H37  1  0.31216000  0.18244000  0.18411000  1.0
  H  H38  1  0.87250000  0.18009000  0.68450000  1.0
  H  H39  1  0.68784000  0.81756000  0.81588000  1.0
  H  H40  1  0.79623000  0.83833000  0.25217000  1.0
  H  H41  1  0.96228000  0.16002000  0.24750000  1.0
  H  H42  1  0.20380000  0.16166000  0.74783000  1.0
  H  H43  1  0.03771000  0.83997000  0.75249000  1.0
  H  H44  1  0.74345000  0.95312000  0.31340000  1.0
  H  H45  1  0.79886000  0.04472000  0.18599000  1.0
  H  H46  1  0.25656000  0.04688000  0.68660000  1.0
  H  H47  1  0.20113000  0.95529000  0.81400000  1.0
  H  H48  1  0.32897000  0.42085000  0.34949000  1.0
  H  H49  1  0.90604000  0.57827000  0.15045000  1.0
  H  H50  1  0.67100000  0.57911000  0.65050000  1.0
  H  H51  1  0.09398000  0.42173000  0.84955000  1.0
  H  H52  1  0.30243000  0.18897000  0.35609000  1.0
  H  H53  1  0.10181000  0.80982000  0.14437000  1.0
  H  H54  1  0.69762000  0.81099000  0.64388000  1.0
  H  H55  1  0.89820000  0.19018000  0.85562000  1.0
  H  H56  1  0.40874000  0.25123000  0.28164000  1.0
  H  H57  1  0.15197000  0.74799000  0.21853000  1.0
  H  H58  1  0.59134000  0.74877000  0.71834000  1.0
  H  H59  1  0.84803000  0.25201000  0.78148000  1.0
  H  H60  1  0.64784000  0.12020000  0.32655000  1.0
  H  H61  1  0.51563000  0.88224000  0.17297000  1.0
  H  H62  1  0.35229000  0.87983000  0.67344000  1.0
  H  H63  1  0.48438000  0.11777000  0.82703000  1.0
  H  H64  1  0.80474000  0.28568000  0.31996000  1.0
  H  H65  1  0.51540000  0.71770000  0.17980000  1.0
  H  H66  1  0.19533000  0.71435000  0.68004000  1.0
  H  H67  1  0.48460000  0.28229000  0.82021000  1.0
  H  H68  1  0.60501000  0.16782000  0.44399000  1.0
  H  H69  1  0.42473000  0.83305000  0.05556000  1.0
  H  H70  1  0.39501000  0.83217000  0.55600000  1.0
  H  H71  1  0.57527000  0.16695000  0.94444000  1.0
  H  H72  1  0.89802000  0.22302000  0.42641000  1.0
  H  H73  1  0.66636000  0.78036000  0.07326000  1.0
  H  H74  1  0.10203000  0.77701000  0.57359000  1.0
  H  H75  1  0.33367000  0.21965000  0.92674000  1.0
  H  H76  1  0.76454000  0.38907000  0.50015000  1.0
  H  H77  1  0.37157000  0.61186000  0.99988000  1.0
  H  H78  1  0.23538000  0.61091000  0.49986000  1.0
  H  H79  1  0.62845000  0.38815000  0.00013000  1.0
  H  H80  1  0.87769000  0.45073000  0.42687000  1.0
  H  H81  1  0.42667000  0.55153000  0.07335000  1.0
  H  H82  1  0.12226000  0.54929000  0.57314000  1.0
  H  H83  1  0.57337000  0.44848000  0.92665000  1.0
  H  H84  1  0.36870000  0.34280000  0.45524000  1.0
  H  H85  1  0.02011000  0.65646000  0.04490000  1.0
  H  H86  1  0.63124000  0.65714000  0.54474000  1.0
  H  H87  1  0.97992000  0.34354000  0.95510000  1.0
  H  H88  1  0.51885000  0.50908000  0.44806000  1.0
  H  H89  1  0.00983000  0.49047000  0.05193000  1.0
  H  H90  1  0.48104000  0.49089000  0.55193000  1.0
  H  H91  1  0.99021000  0.50951000  0.94808000  1.0
  C  C92  1  0.67647000  0.79099000  0.40791000  1.0
  C  C93  1  0.88628000  0.20804000  0.09196000  1.0
  C  C94  1  0.32348000  0.20901000  0.59210000  1.0
  C  C95  1  0.11371000  0.79198000  0.90803000  1.0
  C  C96  1  0.92014000  0.82254000  0.43533000  1.0
  C  C97  1  0.09973000  0.17805000  0.06436000  1.0
  C  C98  1  0.07982000  0.17746000  0.56469000  1.0
  C  C99  1  0.90027000  0.82197000  0.93563000  1.0
  C  C100  1  0.07742000  0.93477000  0.40218000  1.0
  C  C101  1  0.15031000  0.06661000  0.09745000  1.0
  C  C102  1  0.92257000  0.06523000  0.59783000  1.0
  C  C103  1  0.84970000  0.93341000  0.90254000  1.0
  C  C104  1  0.05851000  0.90325000  0.32861000  1.0
  C  C105  1  0.16308000  0.09790000  0.17102000  1.0
  C  C106  1  0.94148000  0.09673000  0.67140000  1.0
  C  C107  1  0.83692000  0.90210000  0.82896000  1.0
  C  C108  1  0.81014000  0.86691000  0.30450000  1.0
  C  C109  1  0.94857000  0.13188000  0.19515000  1.0
  C  C110  1  0.18985000  0.13308000  0.69551000  1.0
  C  C111  1  0.05141000  0.86812000  0.80484000  1.0
  C  C112  1  0.44672000  0.25765000  0.33374000  1.0
  C  C113  1  0.18214000  0.74210000  0.16636000  1.0
  C  C114  1  0.55331000  0.74234000  0.66624000  1.0
  C  C115  1  0.81786000  0.25790000  0.83365000  1.0
  C  C116  1  0.66708000  0.22178000  0.34617000  1.0
  C  C117  1  0.43732000  0.78026000  0.15352000  1.0
  C  C118  1  0.33299000  0.77824000  0.65382000  1.0
  C  C119  1  0.56269000  0.21974000  0.84648000  1.0
  C  C120  1  0.73110000  0.24074000  0.41853000  1.0
  C  C121  1  0.48184000  0.76115000  0.08116000  1.0
  C  C122  1  0.26893000  0.75927000  0.58147000  1.0
  C  C123  1  0.51818000  0.23886000  0.91884000  1.0
  C  C124  1  0.73555000  0.37838000  0.44730000  1.0
  C  C125  1  0.35344000  0.62286000  0.05271000  1.0
  C  C126  1  0.26440000  0.62160000  0.55270000  1.0
  C  C127  1  0.64660000  0.37715000  0.94730000  1.0
  C  C128  1  0.51240000  0.40823000  0.43084000  1.0
  C  C129  1  0.10112000  0.59152000  0.06920000  1.0
  C  C130  1  0.48753000  0.59173000  0.56916000  1.0
  C  C131  1  0.89891000  0.40847000  0.93080000  1.0
  N  N132  1  0.67089000  0.75700000  0.33744000  1.0
  N  N133  1  0.91478000  0.24159000  0.16248000  1.0
  N  N134  1  0.32909000  0.24300000  0.66257000  1.0
  N  N135  1  0.08522000  0.75843000  0.83752000  1.0
  N  N136  1  0.47099000  0.39227000  0.36061000  1.0
  N  N137  1  0.07610000  0.60717000  0.13946000  1.0
  N  N138  1  0.52899000  0.60770000  0.63939000  1.0
  N  N139  1  0.92393000  0.39283000  0.86054000  1.0
  Cl  Cl140  1  0.15489000  0.56224000  0.31318000  1.0
  Cl  Cl141  1  0.59233000  0.43777000  0.18650000  1.0
  Cl  Cl142  1  0.84510000  0.43776000  0.68682000  1.0
  Cl  Cl143  1  0.40768000  0.56224000  0.81350000  1.0
