# generated using pymatgen
data_CuH4C3IN
_symmetry_space_group_name_H-M   'P 1'
_cell_length_a   4.20652000
_cell_length_b   13.96670000
_cell_length_c   16.87410000
_cell_angle_alpha   89.99960000
_cell_angle_beta   89.99920000
_cell_angle_gamma   86.96250000
_symmetry_Int_Tables_number   1
_chemical_formula_structural   CuH4C3IN
_chemical_formula_sum   'Cu8 H32 C24 I8 N8'
_cell_volume   989.98085894
_cell_formula_units_Z   8
loop_
 _symmetry_equiv_pos_site_id
 _symmetry_equiv_pos_as_xyz
  1  'x, y, z'
loop_
 _atom_site_type_symbol
 _atom_site_label
 _atom_site_symmetry_multiplicity
 _atom_site_fract_x
 _atom_site_fract_y
 _atom_site_fract_z
 _atom_site_occupancy
  Cu  Cu0  1  0.42625000  0.24945000  0.29226000  1.0
  Cu  Cu1  1  0.92624000  0.74945000  0.20774000  1.0
  Cu  Cu2  1  0.57375000  0.75055000  0.70774000  1.0
  Cu  Cu3  1  0.07376000  0.25055000  0.79226000  1.0
  Cu  Cu4  1  0.08372000  0.16462000  0.39582000  1.0
  Cu  Cu5  1  0.58374000  0.66462000  0.10417000  1.0
  Cu  Cu6  1  0.91627000  0.83538000  0.60418000  1.0
  Cu  Cu7  1  0.41626000  0.33538000  0.89583000  1.0
  H  H8  1  0.14976000  0.19661000  0.99952000  1.0
  H  H9  1  0.64977000  0.69662000  0.50048000  1.0
  H  H10  1  0.85025000  0.80338000  0.00048000  1.0
  H  H11  1  0.35024000  0.30338000  0.49952000  1.0
  H  H12  1  0.69274000  0.43126000  0.04265000  1.0
  H  H13  1  0.19274000  0.93126000  0.45736000  1.0
  H  H14  1  0.30727000  0.56874000  0.95736000  1.0
  H  H15  1  0.80725000  0.06874000  0.54264000  1.0
  H  H16  1  0.70341000  0.39111000  0.18745000  1.0
  H  H17  1  0.20339000  0.89111000  0.31255000  1.0
  H  H18  1  0.29660000  0.60889000  0.81255000  1.0
  H  H19  1  0.79659000  0.10889000  0.68744000  1.0
  H  H20  1  0.95326000  0.15360000  0.20024000  1.0
  H  H21  1  0.45328000  0.65360000  0.29976000  1.0
  H  H22  1  0.04674000  0.84640000  0.79976000  1.0
  H  H23  1  0.54672000  0.34640000  0.70024000  1.0
  H  H24  1  0.30760000  0.08553000  0.18593000  1.0
  H  H25  1  0.80763000  0.58553000  0.31408000  1.0
  H  H26  1  0.69240000  0.91447000  0.81407000  1.0
  H  H27  1  0.19238000  0.41447000  0.68592000  1.0
  H  H28  1  0.85337000  0.00865000  0.12079000  1.0
  H  H29  1  0.35338000  0.50865000  0.37920000  1.0
  H  H30  1  0.14662000  0.99135000  0.87921000  1.0
  H  H31  1  0.64662000  0.49135000  0.62079000  1.0
  H  H32  1  0.14148000  0.03766000  0.04966000  1.0
  H  H33  1  0.64149000  0.53766000  0.45034000  1.0
  H  H34  1  0.85851000  0.96234000  0.95034000  1.0
  H  H35  1  0.35851000  0.46234000  0.54966000  1.0
  H  H36  1  0.78207000  0.10945000  0.05803000  1.0
  H  H37  1  0.28207000  0.60945000  0.44197000  1.0
  H  H38  1  0.21793000  0.89055000  0.94197000  1.0
  H  H39  1  0.71793000  0.39055000  0.55803000  1.0
  C  C40  1  0.27846000  0.21570000  0.12253000  1.0
  C  C41  1  0.77846000  0.71570000  0.37746000  1.0
  C  C42  1  0.72156000  0.78430000  0.87746000  1.0
  C  C43  1  0.22154000  0.28429000  0.62254000  1.0
  C  C44  1  0.27182000  0.23998000  0.04237000  1.0
  C  C45  1  0.77179000  0.73998000  0.45764000  1.0
  C  C46  1  0.72820000  0.76002000  0.95763000  1.0
  C  C47  1  0.22821000  0.26002000  0.54236000  1.0
  C  C48  1  0.57121000  0.36984000  0.06529000  1.0
  C  C49  1  0.07119000  0.86984000  0.43472000  1.0
  C  C50  1  0.42880000  0.63016000  0.93471000  1.0
  C  C51  1  0.92881000  0.13017000  0.56528000  1.0
  C  C52  1  0.57746000  0.34736000  0.14544000  1.0
  C  C53  1  0.07748000  0.84737000  0.35455000  1.0
  C  C54  1  0.42255000  0.65264000  0.85456000  1.0
  C  C55  1  0.92251000  0.15263000  0.64544000  1.0
  C  C56  1  0.12404000  0.12953000  0.15374000  1.0
  C  C57  1  0.62405000  0.62953000  0.34626000  1.0
  C  C58  1  0.87596000  0.87047000  0.84626000  1.0
  C  C59  1  0.37595000  0.37047000  0.65374000  1.0
  C  C60  1  0.96623000  0.06855000  0.09197000  1.0
  C  C61  1  0.46624000  0.56856000  0.40803000  1.0
  C  C62  1  0.03377000  0.93145000  0.90803000  1.0
  C  C63  1  0.53376000  0.43144000  0.59197000  1.0
  I  I64  1  0.59319000  0.07144000  0.34484000  1.0
  I  I65  1  0.09320000  0.57144000  0.15516000  1.0
  I  I66  1  0.40680000  0.92857000  0.65516000  1.0
  I  I67  1  0.90680000  0.42857000  0.84484000  1.0
  I  I68  1  0.92363000  0.34461000  0.34850000  1.0
  I  I69  1  0.42363000  0.84461000  0.15151000  1.0
  I  I70  1  0.07637000  0.65539000  0.65150000  1.0
  I  I71  1  0.57636000  0.15539000  0.84849000  1.0
  N  N72  1  0.43489000  0.27079000  0.17486000  1.0
  N  N73  1  0.93486000  0.77078000  0.32514000  1.0
  N  N74  1  0.56512000  0.72921000  0.82514000  1.0
  N  N75  1  0.06513000  0.22922000  0.67486000  1.0
  N  N76  1  0.41883000  0.31580000  0.01294000  1.0
  N  N77  1  0.91886000  0.81582000  0.48705000  1.0
  N  N78  1  0.58118000  0.68420000  0.98706000  1.0
  N  N79  1  0.08114000  0.18418000  0.51294000  1.0
