# generated using pymatgen
data_CaH10C4(NO5)2
_symmetry_space_group_name_H-M   'P 1'
_cell_length_a   7.38605000
_cell_length_b   7.38605000
_cell_length_c   10.45940000
_cell_angle_alpha   81.19990000
_cell_angle_beta   81.19980000
_cell_angle_gamma   65.91930000
_symmetry_Int_Tables_number   1
_chemical_formula_structural   CaH10C4(NO5)2
_chemical_formula_sum   'Ca2 H20 C8 N4 O20'
_cell_volume   512.20826704
_cell_formula_units_Z   2
loop_
 _symmetry_equiv_pos_site_id
 _symmetry_equiv_pos_as_xyz
  1  'x, y, z'
loop_
 _atom_site_type_symbol
 _atom_site_label
 _atom_site_symmetry_multiplicity
 _atom_site_fract_x
 _atom_site_fract_y
 _atom_site_fract_z
 _atom_site_occupancy
  Ca  Ca0  1  0.18639000  0.81361000  0.75000000  1.0
  Ca  Ca1  1  0.81361000  0.18639000  0.25000000  1.0
  H  H2  1  0.71556000  0.65786000  0.48416000  1.0
  H  H3  1  0.65787000  0.71556000  0.98416000  1.0
  H  H4  1  0.28444000  0.34214000  0.51585000  1.0
  H  H5  1  0.34213000  0.28444000  0.01585000  1.0
  H  H6  1  0.49815000  0.88191000  0.45661000  1.0
  H  H7  1  0.88191000  0.49815000  0.95661000  1.0
  H  H8  1  0.50185000  0.11809000  0.54339000  1.0
  H  H9  1  0.11809000  0.50185000  0.04339000  1.0
  H  H10  1  0.43748000  0.63392000  0.37387000  1.0
  H  H11  1  0.63392000  0.43748000  0.87387000  1.0
  H  H12  1  0.56252000  0.36608000  0.62614000  1.0
  H  H13  1  0.36608000  0.56252000  0.12614000  1.0
  H  H14  1  0.62518000  0.78056000  0.67640000  1.0
  H  H15  1  0.78056000  0.62518000  0.17640000  1.0
  H  H16  1  0.37482000  0.21944000  0.32360000  1.0
  H  H17  1  0.21944000  0.37482000  0.82360000  1.0
  H  H18  1  0.14764000  0.73957000  0.48389000  1.0
  H  H19  1  0.73957000  0.14764000  0.98389000  1.0
  H  H20  1  0.85236000  0.26043000  0.51611000  1.0
  H  H21  1  0.26043000  0.85236000  0.01611000  1.0
  C  C22  1  0.55510000  0.73344000  0.51123000  1.0
  C  C23  1  0.73344000  0.55510000  0.01123000  1.0
  C  C24  1  0.44490000  0.26656000  0.48877000  1.0
  C  C25  1  0.26656000  0.44490000  0.98877000  1.0
  C  C26  1  0.44673000  0.61213000  0.47970000  1.0
  C  C27  1  0.61213000  0.44673000  0.97970000  1.0
  C  C28  1  0.55327000  0.38787000  0.52030000  1.0
  C  C29  1  0.38787000  0.55327000  0.02030000  1.0
  N  N30  1  0.04026000  0.25499000  0.69221000  1.0
  N  N31  1  0.25502000  0.04025000  0.19220000  1.0
  N  N32  1  0.95974000  0.74500000  0.30779000  1.0
  N  N33  1  0.74502000  0.95973000  0.80779000  1.0
  O  O34  1  0.51831000  0.75107000  0.64920000  1.0
  O  O35  1  0.75107000  0.51831000  0.14921000  1.0
  O  O36  1  0.48169000  0.24893000  0.35080000  1.0
  O  O37  1  0.24893000  0.48170000  0.85080000  1.0
  O  O38  1  0.24987000  0.68194000  0.54754000  1.0
  O  O39  1  0.68194000  0.24987000  0.04755000  1.0
  O  O40  1  0.75013000  0.31806000  0.45246000  1.0
  O  O41  1  0.31806000  0.75013000  0.95246000  1.0
  O  O42  1  0.15821000  0.17225000  0.78078000  1.0
  O  O43  1  0.17226000  0.15821000  0.28078000  1.0
  O  O44  1  0.84179000  0.82775000  0.21922000  1.0
  O  O45  1  0.82775000  0.84179000  0.71922000  1.0
  O  O46  1  0.01662000  0.13644000  0.62291000  1.0
  O  O47  1  0.13643000  0.01662000  0.12291000  1.0
  O  O48  1  0.98338000  0.86356000  0.37709000  1.0
  O  O49  1  0.86356000  0.98338000  0.87709000  1.0
  O  O50  1  0.95316000  0.43779000  0.67210000  1.0
  O  O51  1  0.43778000  0.95318000  0.17209000  1.0
  O  O52  1  0.04684000  0.56221000  0.32789000  1.0
  O  O53  1  0.56220000  0.04684000  0.82789000  1.0
