# generated using pymatgen
data_CdH18C20N4O5
_symmetry_space_group_name_H-M   'P 1'
_cell_length_a   8.63355000
_cell_length_b   11.07510000
_cell_length_c   11.71984107
_cell_angle_alpha   82.80072462
_cell_angle_beta   68.39486699
_cell_angle_gamma   70.06500000
_symmetry_Int_Tables_number   1
_chemical_formula_structural   CdH18C20N4O5
_chemical_formula_sum   'Cd2 H36 C40 N8 O10'
_cell_volume   979.46010280
_cell_formula_units_Z   2
loop_
 _symmetry_equiv_pos_site_id
 _symmetry_equiv_pos_as_xyz
  1  'x, y, z'
loop_
 _atom_site_type_symbol
 _atom_site_label
 _atom_site_symmetry_multiplicity
 _atom_site_fract_x
 _atom_site_fract_y
 _atom_site_fract_z
 _atom_site_occupancy
  Cd  Cd0  1  0.44075000  0.25345000  0.59715000  1.0
  Cd  Cd1  1  0.03765000  0.75364000  0.40322000  1.0
  H  H2  1  0.17588000  0.86790000  0.62553000  1.0
  H  H3  1  0.80190000  0.36772000  0.37441000  1.0
  H  H4  1  0.15365000  0.45701000  0.54333000  1.0
  H  H5  1  0.69638000  0.95721000  0.45698000  1.0
  H  H6  1  0.29283000  0.39843000  0.41620000  1.0
  H  H7  1  0.70845000  0.89864000  0.58411000  1.0
  H  H8  1  0.87363000  0.06799000  0.50193000  1.0
  H  H9  1  0.37548000  0.56808000  0.49861000  1.0
  H  H10  1  0.61893000  0.35450000  0.77710000  1.0
  H  H11  1  0.39582000  0.85414000  0.22312000  1.0
  H  H12  1  0.98248000  0.29908000  0.70529000  1.0
  H  H13  1  0.68821000  0.79836000  0.29433000  1.0
  H  H14  1  0.22303000  0.18202000  0.47289000  1.0
  H  H15  1  0.69589000  0.68187000  0.52720000  1.0
  H  H16  1  0.17661000  0.04393000  0.44828000  1.0
  H  H17  1  0.62526000  0.54360000  0.55159000  1.0
  H  H18  1  0.54604000  0.04884000  0.80853000  1.0
  H  H19  1  0.35449000  0.54919000  0.19119000  1.0
  H  H20  1  0.61253000  0.84802000  0.92988000  1.0
  H  H21  1  0.54222000  0.34859000  0.06939000  1.0
  H  H22  1  0.35165000  0.67697000  0.77709000  1.0
  H  H23  1  0.12918000  0.17707000  0.22253000  1.0
  H  H24  1  0.60418000  0.64105000  0.99177000  1.0
  H  H25  1  0.59626000  0.14145000  0.00768000  1.0
  H  H26  1  0.43248000  0.59407000  0.97958000  1.0
  H  H27  1  0.41255000  0.09431000  0.01975000  1.0
  H  H28  1  0.64335000  0.55103000  0.86346000  1.0
  H  H29  1  0.50726000  0.05137000  0.13588000  1.0
  H  H30  1  0.70449000  0.39410000  0.18054000  1.0
  H  H31  1  0.88604000  0.89429000  0.81971000  1.0
  H  H32  1  0.90223000  0.37998000  0.95977000  1.0
  H  H33  1  0.86353000  0.88011000  0.04038000  1.0
  H  H34  1  0.11165000  0.17066000  0.87200000  1.0
  H  H35  1  0.98458000  0.67066000  0.12811000  1.0
  H  H36  1  0.13710000  0.97471000  0.00414000  1.0
  H  H37  1  0.14119000  0.47461000  0.99599000  1.0
  C  C38  1  0.84771000  0.13709000  0.57015000  1.0
  C  C39  1  0.41777000  0.63699000  0.43019000  1.0
  C  C40  1  0.72517000  0.28525000  0.71106000  1.0
  C  C41  1  0.43618000  0.78487000  0.28910000  1.0
  C  C42  1  0.90366000  0.25994000  0.67599000  1.0
  C  C43  1  0.57988000  0.75940000  0.32386000  1.0
  C  C44  1  0.16647000  0.10632000  0.51827000  1.0
  C  C45  1  0.68493000  0.60612000  0.48173000  1.0
  C  C46  1  0.26003000  0.03165000  0.60192000  1.0
  C  C47  1  0.86224000  0.53157000  0.39804000  1.0
  C  C48  1  0.40540000  0.97672000  0.72757000  1.0
  C  C49  1  0.13313000  0.47686000  0.27230000  1.0
  C  C50  1  0.50254000  0.96914000  0.80244000  1.0
  C  C51  1  0.30498000  0.46943000  0.19726000  1.0
  C  C52  1  0.53974000  0.85631000  0.86907000  1.0
  C  C53  1  0.40880000  0.35670000  0.13041000  1.0
  C  C54  1  0.48939000  0.75016000  0.85985000  1.0
  C  C55  1  0.34947000  0.25045000  0.13962000  1.0
  C  C56  1  0.39094000  0.75810000  0.78574000  1.0
  C  C57  1  0.17704000  0.25823000  0.21388000  1.0
  C  C58  1  0.34763000  0.87260000  0.72229000  1.0
  C  C59  1  0.07024000  0.37267000  0.27748000  1.0
  C  C60  1  0.54480000  0.62787000  0.92785000  1.0
  C  C61  1  0.47302000  0.12820000  0.07154000  1.0
  C  C62  1  0.68310000  0.20475000  0.34469000  1.0
  C  C63  1  0.02772000  0.70480000  0.65562000  1.0
  C  C64  1  0.80831000  0.19296000  0.21510000  1.0
  C  C65  1  0.02348000  0.69301000  0.78518000  1.0
  C  C66  1  0.79928000  0.30262000  0.14041000  1.0
  C  C67  1  0.94026000  0.80272000  0.85985000  1.0
  C  C68  1  0.90762000  0.29463000  0.01754000  1.0
  C  C69  1  0.92600000  0.79470000  0.98267000  1.0
  C  C70  1  0.02653000  0.17603000  0.96780000  1.0
  C  C71  1  0.99488000  0.67603000  0.03238000  1.0
  C  C72  1  0.04013000  0.06663000  0.04172000  1.0
  C  C73  1  0.08184000  0.56657000  0.95848000  1.0
  C  C74  1  0.93380000  0.07468000  0.16584000  1.0
  C  C75  1  0.09944000  0.57462000  0.83440000  1.0
  C  C76  1  0.97310000  0.96117000  0.24699000  1.0
  C  C77  1  0.21959000  0.46100000  0.75329000  1.0
  N  N78  1  0.34964000  0.07406000  0.65036000  1.0
  N  N79  1  0.00012000  0.57413000  0.34964000  1.0
  N  N80  1  0.25519000  0.91191000  0.64234000  1.0
  N  N81  1  0.89792000  0.41184000  0.35752000  1.0
  N  N82  1  0.97865000  0.16615000  0.58617000  1.0
  N  N83  1  0.56504000  0.66579000  0.41379000  1.0
  N  N84  1  0.69182000  0.20819000  0.64439000  1.0
  N  N85  1  0.33598000  0.70807000  0.35604000  1.0
  O  O86  1  0.62969000  0.11156000  0.39765000  1.0
  O  O87  1  0.02779000  0.61147000  0.60251000  1.0
  O  O88  1  0.62895000  0.31335000  0.39886000  1.0
  O  O89  1  0.02714000  0.81351000  0.60158000  1.0
  O  O90  1  0.03743000  0.97320000  0.32560000  1.0
  O  O91  1  0.36271000  0.47276000  0.67473000  1.0
  O  O92  1  0.94866000  0.85825000  0.23236000  1.0
  O  O93  1  0.18021000  0.35823000  0.76799000  1.0
  O  O94  1  0.23193000  0.37478000  0.49964000  1.0
  O  O95  1  0.73122000  0.87499000  0.50060000  1.0
