# generated using pymatgen
data_Na2H8C8O11
_symmetry_space_group_name_H-M   'P 1'
_cell_length_a   6.22128000
_cell_length_b   8.62641000
_cell_length_c   11.38484626
_cell_angle_alpha   112.26525673
_cell_angle_beta   90.41160105
_cell_angle_gamma   89.99180000
_symmetry_Int_Tables_number   1
_chemical_formula_structural   Na2H8C8O11
_chemical_formula_sum   'Na4 H16 C16 O22'
_cell_volume   565.42137376
_cell_formula_units_Z   2
loop_
 _symmetry_equiv_pos_site_id
 _symmetry_equiv_pos_as_xyz
  1  'x, y, z'
loop_
 _atom_site_type_symbol
 _atom_site_label
 _atom_site_symmetry_multiplicity
 _atom_site_fract_x
 _atom_site_fract_y
 _atom_site_fract_z
 _atom_site_occupancy
  Na  Na0  1  0.49238000  0.36783000  0.09473000  1.0
  Na  Na1  1  0.00745000  0.27335000  0.90539000  1.0
  Na  Na2  1  0.50761000  0.63216000  0.90526000  1.0
  Na  Na3  1  0.99255000  0.72664000  0.09460000  1.0
  H  H4  1  0.42100000  0.79502000  0.41869000  1.0
  H  H5  1  0.07943000  0.37633000  0.58112000  1.0
  H  H6  1  0.57900000  0.20496000  0.58130000  1.0
  H  H7  1  0.92057000  0.62367000  0.41888000  1.0
  H  H8  1  0.20806000  0.31864000  0.30970000  1.0
  H  H9  1  0.29192000  0.00917000  0.69046000  1.0
  H  H10  1  0.79195000  0.68135000  0.69030000  1.0
  H  H11  1  0.70808000  0.99084000  0.30954000  1.0
  H  H12  1  0.19093000  0.04985000  0.48578000  1.0
  H  H13  1  0.30892000  0.56438000  0.51426000  1.0
  H  H14  1  0.80907000  0.95014000  0.51422000  1.0
  H  H15  1  0.69107000  0.43561000  0.48573000  1.0
  H  H16  1  0.20535000  0.10288000  0.06935000  1.0
  H  H17  1  0.29434000  0.03365000  0.93071000  1.0
  H  H18  1  0.79465000  0.89712000  0.93065000  1.0
  H  H19  1  0.70566000  0.96634000  0.06928000  1.0
  C  C20  1  0.19641000  0.08267000  0.30297000  1.0
  C  C21  1  0.30346000  0.77989000  0.69713000  1.0
  C  C22  1  0.80359000  0.91733000  0.69703000  1.0
  C  C23  1  0.69655000  0.22012000  0.30287000  1.0
  C  C24  1  0.48244000  0.76948000  0.22218000  1.0
  C  C25  1  0.01744000  0.54702000  0.77763000  1.0
  C  C26  1  0.51756000  0.23052000  0.77781000  1.0
  C  C27  1  0.98257000  0.45297000  0.22236000  1.0
  C  C28  1  0.35165000  0.82883000  0.34316000  1.0
  C  C29  1  0.14845000  0.48571000  0.65674000  1.0
  C  C30  1  0.64835000  0.17116000  0.65683000  1.0
  C  C31  1  0.85155000  0.51428000  0.34325000  1.0
  C  C32  1  0.21548000  0.98124000  0.38426000  1.0
  C  C33  1  0.28438000  0.59720000  0.61575000  1.0
  C  C34  1  0.78452000  0.01875000  0.61574000  1.0
  C  C35  1  0.71561000  0.40279000  0.38423000  1.0
  O  O36  1  0.24983000  0.13772000  0.00005000  1.0
  O  O37  1  0.75017000  0.86227000  0.99994000  1.0
  O  O38  1  0.40208000  0.66644000  0.12136000  1.0
  O  O39  1  0.09760000  0.54452000  0.87841000  1.0
  O  O40  1  0.59792000  0.33355000  0.87863000  1.0
  O  O41  1  0.90241000  0.45547000  0.12158000  1.0
  O  O42  1  0.67595000  0.82551000  0.23577000  1.0
  O  O43  1  0.82399000  0.58955000  0.76397000  1.0
  O  O44  1  0.32405000  0.17449000  0.76423000  1.0
  O  O45  1  0.17602000  0.41045000  0.23603000  1.0
  O  O46  1  0.12191000  0.81591000  0.33244000  1.0
  O  O47  1  0.37823000  0.48366000  0.66750000  1.0
  O  O48  1  0.87809000  0.18408000  0.66755000  1.0
  O  O49  1  0.62177000  0.51634000  0.33249000  1.0
  O  O50  1  0.23320000  0.24285000  0.36691000  1.0
  O  O51  1  0.26670000  0.87614000  0.63320000  1.0
  O  O52  1  0.76681000  0.75714000  0.63309000  1.0
  O  O53  1  0.73330000  0.12387000  0.36680000  1.0
  O  O54  1  0.15139000  0.01658000  0.18842000  1.0
  O  O55  1  0.34847000  0.82831000  0.81167000  1.0
  O  O56  1  0.84861000  0.98343000  0.81158000  1.0
  O  O57  1  0.65153000  0.17167000  0.18831000  1.0
