# generated using pymatgen
data_Cd3H26(C9N4)2
_symmetry_space_group_name_H-M   'P 1'
_cell_length_a   9.16382000
_cell_length_b   10.59910000
_cell_length_c   17.17350000
_cell_angle_alpha   90.00010000
_cell_angle_beta   90.00000000
_cell_angle_gamma   105.14500000
_symmetry_Int_Tables_number   1
_chemical_formula_structural   Cd3H26(C9N4)2
_chemical_formula_sum   'Cd6 H52 C36 N16'
_cell_volume   1610.09737899
_cell_formula_units_Z   2
loop_
 _symmetry_equiv_pos_site_id
 _symmetry_equiv_pos_as_xyz
  1  'x, y, z'
loop_
 _atom_site_type_symbol
 _atom_site_label
 _atom_site_symmetry_multiplicity
 _atom_site_fract_x
 _atom_site_fract_y
 _atom_site_fract_z
 _atom_site_occupancy
  Cd  Cd0  1  0.00000000  0.00000000  0.00000000  1.0
  Cd  Cd1  1  0.00000000  0.00000000  0.50000000  1.0
  Cd  Cd2  1  0.82417000  0.63985000  0.75000000  1.0
  Cd  Cd3  1  0.23191000  0.32521000  0.75000000  1.0
  Cd  Cd4  1  0.17582000  0.36015000  0.25000000  1.0
  Cd  Cd5  1  0.76808000  0.67479000  0.25000000  1.0
  H  H6  1  0.75888000  0.06484000  0.91392000  1.0
  H  H7  1  0.70217000  0.99123000  0.99670000  1.0
  H  H8  1  0.81997000  0.20941000  0.06075000  1.0
  H  H9  1  0.77721000  0.28691000  0.89252000  1.0
  H  H10  1  0.95171000  0.31086000  0.94224000  1.0
  H  H11  1  0.87613000  0.46022000  0.03638000  1.0
  H  H12  1  0.86023000  0.51557000  0.94066000  1.0
  H  H13  1  0.58287000  0.41687000  0.94231000  1.0
  H  H14  1  0.63713000  0.52309000  0.02247000  1.0
  H  H15  1  0.45389000  0.31080000  0.06219000  1.0
  H  H16  1  0.62946000  0.33532000  0.11024000  1.0
  H  H17  1  0.54564000  0.10669000  0.06141000  1.0
  H  H18  1  0.52879000  0.16426000  0.96531000  1.0
  H  H19  1  0.24112000  0.93516000  0.41392000  1.0
  H  H20  1  0.29783000  0.00877000  0.49670000  1.0
  H  H21  1  0.18004000  0.79059000  0.56075000  1.0
  H  H22  1  0.22278000  0.71309000  0.39252000  1.0
  H  H23  1  0.04829000  0.68914000  0.44224000  1.0
  H  H24  1  0.12387000  0.53978000  0.53638000  1.0
  H  H25  1  0.13977000  0.48442000  0.44066000  1.0
  H  H26  1  0.41713000  0.58313000  0.44231000  1.0
  H  H27  1  0.36287000  0.47691000  0.52246000  1.0
  H  H28  1  0.54612000  0.68920000  0.56219000  1.0
  H  H29  1  0.37054000  0.66468000  0.61025000  1.0
  H  H30  1  0.45436000  0.89331000  0.56141000  1.0
  H  H31  1  0.47121000  0.83574000  0.46531000  1.0
  H  H32  1  0.24113000  0.93516000  0.08608000  1.0
  H  H33  1  0.29783000  0.00877000  0.00330000  1.0
  H  H34  1  0.18003000  0.79060000  0.93925000  1.0
  H  H35  1  0.22279000  0.71309000  0.10748000  1.0
  H  H36  1  0.04829000  0.68914000  0.05776000  1.0
  H  H37  1  0.12388000  0.53978000  0.96362000  1.0
  H  H38  1  0.13978000  0.48442000  0.05933000  1.0
  H  H39  1  0.41714000  0.58313000  0.05769000  1.0
  H  H40  1  0.36287000  0.47691000  0.97753000  1.0
  H  H41  1  0.54612000  0.68920000  0.93781000  1.0
  H  H42  1  0.37054000  0.66468000  0.88975000  1.0
  H  H43  1  0.45436000  0.89331000  0.93859000  1.0
  H  H44  1  0.47121000  0.83575000  0.03469000  1.0
  H  H45  1  0.75888000  0.06484000  0.58608000  1.0
  H  H46  1  0.70217000  0.99123000  0.50330000  1.0
  H  H47  1  0.81996000  0.20940000  0.43925000  1.0
  H  H48  1  0.77722000  0.28691000  0.60748000  1.0
  H  H49  1  0.95171000  0.31086000  0.55776000  1.0
  H  H50  1  0.87613000  0.46022000  0.46362000  1.0
  H  H51  1  0.86023000  0.51558000  0.55934000  1.0
  H  H52  1  0.58287000  0.41687000  0.55769000  1.0
  H  H53  1  0.63713000  0.52309000  0.47753000  1.0
  H  H54  1  0.45388000  0.31080000  0.43782000  1.0
  H  H55  1  0.62946000  0.33531000  0.38976000  1.0
  H  H56  1  0.54564000  0.10668000  0.43859000  1.0
  H  H57  1  0.52879000  0.16425000  0.53469000  1.0
  C  C58  1  0.87593000  0.76810000  0.85324000  1.0
  C  C59  1  0.19604000  0.21201000  0.85735000  1.0
  C  C60  1  0.75901000  0.19332000  0.00476000  1.0
  C  C61  1  0.83144000  0.30645000  0.95041000  1.0
  C  C62  1  0.81167000  0.43613000  0.98178000  1.0
  C  C63  1  0.64592000  0.42976000  0.99776000  1.0
  C  C64  1  0.57426000  0.31686000  0.05271000  1.0
  C  C65  1  0.59265000  0.18717000  0.02041000  1.0
  C  C66  1  0.12407000  0.23191000  0.35324000  1.0
  C  C67  1  0.80396000  0.78800000  0.35735000  1.0
  C  C68  1  0.24099000  0.80668000  0.50476000  1.0
  C  C69  1  0.16855000  0.69355000  0.45041000  1.0
  C  C70  1  0.18833000  0.56387000  0.48178000  1.0
  C  C71  1  0.35408000  0.57024000  0.49776000  1.0
  C  C72  1  0.42574000  0.68314000  0.55271000  1.0
  C  C73  1  0.40735000  0.81283000  0.52041000  1.0
  C  C74  1  0.12409000  0.23191000  0.14676000  1.0
  C  C75  1  0.80395000  0.78800000  0.14265000  1.0
  C  C76  1  0.24099000  0.80668000  0.99524000  1.0
  C  C77  1  0.16856000  0.69355000  0.04959000  1.0
  C  C78  1  0.18833000  0.56387000  0.01822000  1.0
  C  C79  1  0.35408000  0.57024000  0.00224000  1.0
  C  C80  1  0.42574000  0.68314000  0.94729000  1.0
  C  C81  1  0.40736000  0.81284000  0.97959000  1.0
  C  C82  1  0.87591000  0.76809000  0.64676000  1.0
  C  C83  1  0.19604000  0.21200000  0.64265000  1.0
  C  C84  1  0.75901000  0.19332000  0.49524000  1.0
  C  C85  1  0.83145000  0.30644000  0.54959000  1.0
  C  C86  1  0.81168000  0.43613000  0.51822000  1.0
  C  C87  1  0.64592000  0.42977000  0.50224000  1.0
  C  C88  1  0.57426000  0.31685000  0.44729000  1.0
  C  C89  1  0.59265000  0.18716000  0.47958000  1.0
  C  C90  1  0.58566000  0.52393000  0.75000000  1.0
  C  C91  1  0.98247000  0.51244000  0.75000000  1.0
  C  C92  1  0.41433000  0.47607000  0.25000000  1.0
  C  C93  1  0.01752000  0.48757000  0.24999000  1.0
  N  N94  1  0.91499000  0.84204000  0.90429000  1.0
  N  N95  1  0.16282000  0.14256000  0.91093000  1.0
  N  N96  1  0.77936000  0.06911000  0.97257000  1.0
  N  N97  1  0.08501000  0.15796000  0.40429000  1.0
  N  N98  1  0.83718000  0.85744000  0.41094000  1.0
  N  N99  1  0.22064000  0.93089000  0.47257000  1.0
  N  N100  1  0.08501000  0.15797000  0.09571000  1.0
  N  N101  1  0.83718000  0.85744000  0.08907000  1.0
  N  N102  1  0.22064000  0.93089000  0.02743000  1.0
  N  N103  1  0.91499000  0.84204000  0.59571000  1.0
  N  N104  1  0.16282000  0.14256000  0.58907000  1.0
  N  N105  1  0.77936000  0.06910000  0.52743000  1.0
  N  N106  1  0.45887000  0.46482000  0.75000000  1.0
  N  N107  1  0.07318000  0.45287000  0.75000000  1.0
  N  N108  1  0.54112000  0.53518000  0.25000000  1.0
  N  N109  1  0.92681000  0.54714000  0.25000000  1.0
