# generated using pymatgen
data_AgH8C10(NO)3
_symmetry_space_group_name_H-M   'P 1'
_cell_length_a   5.27612000
_cell_length_b   9.73933000
_cell_length_c   10.92504341
_cell_angle_alpha   79.70075071
_cell_angle_beta   76.10683700
_cell_angle_gamma   78.49900000
_symmetry_Int_Tables_number   1
_chemical_formula_structural   AgH8C10(NO)3
_chemical_formula_sum   'Ag2 H16 C20 N6 O6'
_cell_volume   528.94566476
_cell_formula_units_Z   2
loop_
 _symmetry_equiv_pos_site_id
 _symmetry_equiv_pos_as_xyz
  1  'x, y, z'
loop_
 _atom_site_type_symbol
 _atom_site_label
 _atom_site_symmetry_multiplicity
 _atom_site_fract_x
 _atom_site_fract_y
 _atom_site_fract_z
 _atom_site_occupancy
  Ag  Ag0  1  0.00869000  0.86805000  0.35910000  1.0
  Ag  Ag1  1  0.99132000  0.13195000  0.64090000  1.0
  H  H2  1  0.75338000  0.58099000  0.42612000  1.0
  H  H3  1  0.24661000  0.41900000  0.57389000  1.0
  H  H4  1  0.85937000  0.32836000  0.38692000  1.0
  H  H5  1  0.14064000  0.67163000  0.61308000  1.0
  H  H6  1  0.28251000  0.24417000  0.24110000  1.0
  H  H7  1  0.71751000  0.75584000  0.75889000  1.0
  H  H8  1  0.47618000  0.66284000  0.20148000  1.0
  H  H9  1  0.52380000  0.33717000  0.79852000  1.0
  H  H10  1  0.65755000  0.17590000  0.29012000  1.0
  H  H11  1  0.34245000  0.82411000  0.70988000  1.0
  H  H12  1  0.00119000  0.38979000  0.92339000  1.0
  H  H13  1  0.99882000  0.61020000  0.07660000  1.0
  H  H14  1  0.32270000  0.16274000  0.88765000  1.0
  H  H15  1  0.67729000  0.83724000  0.11235000  1.0
  H  H16  1  0.29871000  0.95846000  0.06292000  1.0
  H  H17  1  0.70127000  0.04153000  0.93710000  1.0
  C  C18  1  0.93955000  0.54042000  0.36502000  1.0
  C  C19  1  0.06046000  0.45958000  0.63498000  1.0
  C  C20  1  0.99875000  0.40051000  0.34129000  1.0
  C  C21  1  0.00125000  0.59949000  0.65870000  1.0
  C  C22  1  0.23717000  0.35292000  0.26130000  1.0
  C  C23  1  0.76285000  0.64709000  0.73869000  1.0
  C  C24  1  0.41047000  0.44959000  0.20940000  1.0
  C  C25  1  0.58954000  0.55041000  0.79060000  1.0
  C  C26  1  0.34034000  0.58739000  0.24063000  1.0
  C  C27  1  0.65965000  0.41261000  0.75938000  1.0
  C  C28  1  0.79923000  0.17845000  0.19926000  1.0
  C  C29  1  0.20076000  0.82156000  0.80075000  1.0
  C  C30  1  0.80310000  0.29845000  0.10706000  1.0
  C  C31  1  0.19689000  0.70156000  0.89295000  1.0
  C  C32  1  0.99504000  0.29551000  0.99392000  1.0
  C  C33  1  0.00497000  0.70449000  0.00608000  1.0
  C  C34  1  0.17604000  0.17218000  0.97631000  1.0
  C  C35  1  0.82396000  0.82781000  0.02370000  1.0
  C  C36  1  0.16168000  0.05747000  0.07307000  1.0
  C  C37  1  0.83831000  0.94253000  0.92694000  1.0
  N  N38  1  0.10893000  0.63270000  0.31557000  1.0
  N  N39  1  0.89107000  0.36729000  0.68443000  1.0
  N  N40  1  0.97838000  0.06082000  0.18163000  1.0
  N  N41  1  0.02161000  0.93918000  0.81837000  1.0
  N  N42  1  0.44339000  0.12521000  0.58352000  1.0
  N  N43  1  0.55661000  0.87479000  0.41647000  1.0
  O  O44  1  0.64411000  0.42763000  0.12073000  1.0
  O  O45  1  0.35591000  0.57237000  0.87927000  1.0
  O  O46  1  0.54247000  0.21868000  0.50169000  1.0
  O  O47  1  0.45753000  0.78131000  0.49829000  1.0
  O  O48  1  0.58676000  0.05390000  0.65944000  1.0
  O  O49  1  0.41325000  0.94610000  0.34055000  1.0
