# generated using pymatgen
data_CuH12C15NO4F
_symmetry_space_group_name_H-M   'P 1'
_cell_length_a   10.37820000
_cell_length_b   10.53060000
_cell_length_c   15.23310000
_cell_angle_alpha   72.76500000
_cell_angle_beta   89.99980000
_cell_angle_gamma   89.99990000
_symmetry_Int_Tables_number   1
_chemical_formula_structural   CuH12C15NO4F
_chemical_formula_sum   'Cu4 H48 C60 N4 O16 F4'
_cell_volume   1590.05144101
_cell_formula_units_Z   4
loop_
 _symmetry_equiv_pos_site_id
 _symmetry_equiv_pos_as_xyz
  1  'x, y, z'
loop_
 _atom_site_type_symbol
 _atom_site_label
 _atom_site_symmetry_multiplicity
 _atom_site_fract_x
 _atom_site_fract_y
 _atom_site_fract_z
 _atom_site_occupancy
  Cu  Cu0  1  0.91071000  0.91185000  0.51032000  1.0
  Cu  Cu1  1  0.41071000  0.08815000  0.98968000  1.0
  Cu  Cu2  1  0.08929000  0.08814000  0.48968000  1.0
  Cu  Cu3  1  0.58929000  0.91185000  0.01032000  1.0
  H  H4  1  0.18697000  0.59335000  0.47531000  1.0
  H  H5  1  0.68699000  0.40665000  0.02469000  1.0
  H  H6  1  0.81301000  0.40665000  0.52468000  1.0
  H  H7  1  0.31302000  0.59336000  0.97532000  1.0
  H  H8  1  0.26584000  0.96314000  0.26856000  1.0
  H  H9  1  0.76584000  0.03685000  0.23143000  1.0
  H  H10  1  0.73415000  0.03686000  0.73143000  1.0
  H  H11  1  0.23416000  0.96314000  0.76856000  1.0
  H  H12  1  0.14389000  0.38609000  0.43554000  1.0
  H  H13  1  0.64390000  0.61389000  0.06445000  1.0
  H  H14  1  0.85610000  0.61391000  0.56444000  1.0
  H  H15  1  0.35611000  0.38610000  0.93556000  1.0
  H  H16  1  0.44975000  0.60540000  0.25228000  1.0
  H  H17  1  0.94975000  0.39459000  0.24773000  1.0
  H  H18  1  0.55025000  0.39461000  0.74772000  1.0
  H  H19  1  0.05025000  0.60539000  0.75228000  1.0
  H  H20  1  0.55467000  0.44445000  0.38893000  1.0
  H  H21  1  0.05469000  0.55555000  0.11107000  1.0
  H  H22  1  0.44532000  0.55554000  0.61107000  1.0
  H  H23  1  0.94532000  0.44445000  0.88893000  1.0
  H  H24  1  0.38452000  0.05719000  0.50870000  1.0
  H  H25  1  0.88452000  0.94280000  0.99130000  1.0
  H  H26  1  0.61547000  0.94281000  0.49131000  1.0
  H  H27  1  0.11548000  0.05719000  0.00870000  1.0
  H  H28  1  0.05596000  0.26857000  0.69204000  1.0
  H  H29  1  0.55595000  0.73143000  0.80798000  1.0
  H  H30  1  0.94405000  0.73143000  0.30797000  1.0
  H  H31  1  0.44405000  0.26857000  0.19203000  1.0
  H  H32  1  0.16034000  0.21757000  0.78899000  1.0
  H  H33  1  0.66032000  0.78244000  0.71102000  1.0
  H  H34  1  0.83968000  0.78244000  0.21101000  1.0
  H  H35  1  0.33967000  0.21757000  0.28899000  1.0
  H  H36  1  0.19597000  0.17655000  0.68673000  1.0
  H  H37  1  0.69596000  0.82345000  0.81329000  1.0
  H  H38  1  0.80405000  0.82346000  0.31328000  1.0
  H  H39  1  0.30404000  0.17655000  0.18672000  1.0
  H  H40  1  0.33343000  0.36913000  0.70483000  1.0
  H  H41  1  0.83342000  0.63088000  0.79517000  1.0
  H  H42  1  0.66658000  0.63088000  0.29517000  1.0
  H  H43  1  0.16658000  0.36912000  0.20483000  1.0
  H  H44  1  0.19170000  0.46555000  0.69840000  1.0
  H  H45  1  0.69170000  0.53445000  0.80160000  1.0
  H  H46  1  0.80830000  0.53446000  0.30160000  1.0
  H  H47  1  0.30830000  0.46555000  0.19840000  1.0
  H  H48  1  0.24011000  0.41429000  0.60246000  1.0
  H  H49  1  0.74011000  0.58572000  0.89754000  1.0
  H  H50  1  0.75990000  0.58573000  0.39754000  1.0
  H  H51  1  0.25990000  0.41428000  0.10246000  1.0
  C  C52  1  0.13682000  0.85825000  0.42608000  1.0
  C  C53  1  0.63683000  0.14174000  0.07392000  1.0
  C  C54  1  0.86317000  0.14174000  0.57391000  1.0
  C  C55  1  0.36319000  0.85826000  0.92608000  1.0
  C  C56  1  0.41789000  0.86520000  0.15953000  1.0
  C  C57  1  0.91788000  0.13477000  0.34047000  1.0
  C  C58  1  0.58212000  0.13479000  0.84046000  1.0
  C  C59  1  0.08211000  0.86520000  0.65953000  1.0
  C  C60  1  0.23720000  0.64746000  0.41248000  1.0
  C  C61  1  0.73722000  0.35254000  0.08752000  1.0
  C  C62  1  0.76279000  0.35254000  0.58751000  1.0
  C  C63  1  0.26279000  0.64746000  0.91249000  1.0
  C  C64  1  0.36100000  0.79040000  0.25037000  1.0
  C  C65  1  0.86101000  0.20959000  0.24962000  1.0
  C  C66  1  0.63899000  0.20961000  0.74962000  1.0
  C  C67  1  0.13900000  0.79040000  0.75038000  1.0
  C  C68  1  0.21982000  0.78482000  0.37739000  1.0
  C  C69  1  0.71983000  0.21518000  0.12260000  1.0
  C  C70  1  0.78017000  0.21518000  0.62260000  1.0
  C  C71  1  0.28018000  0.78482000  0.87740000  1.0
  C  C72  1  0.34597000  0.43736000  0.40822000  1.0
  C  C73  1  0.84599000  0.56263000  0.09178000  1.0
  C  C74  1  0.65402000  0.56263000  0.59177000  1.0
  C  C75  1  0.15402000  0.43737000  0.90823000  1.0
  C  C76  1  0.28099000  0.85644000  0.29626000  1.0
  C  C77  1  0.78100000  0.14355000  0.20374000  1.0
  C  C78  1  0.71900000  0.14356000  0.70373000  1.0
  C  C79  1  0.21900000  0.85644000  0.79626000  1.0
  C  C80  1  0.24283000  0.34961000  0.44019000  1.0
  C  C81  1  0.74284000  0.65038000  0.05981000  1.0
  C  C82  1  0.75716000  0.65039000  0.55980000  1.0
  C  C83  1  0.25716000  0.34962000  0.94020000  1.0
  C  C84  1  0.38511000  0.65449000  0.28839000  1.0
  C  C85  1  0.88513000  0.34550000  0.21161000  1.0
  C  C86  1  0.61488000  0.34552000  0.71161000  1.0
  C  C87  1  0.11488000  0.65448000  0.78840000  1.0
  C  C88  1  0.32299000  0.58165000  0.36949000  1.0
  C  C89  1  0.82300000  0.41834000  0.13051000  1.0
  C  C90  1  0.67700000  0.41835000  0.63050000  1.0
  C  C91  1  0.17700000  0.58165000  0.86950000  1.0
  C  C92  1  0.46990000  0.38264000  0.41257000  1.0
  C  C93  1  0.96991000  0.61736000  0.08743000  1.0
  C  C94  1  0.53008000  0.61736000  0.58742000  1.0
  C  C95  1  0.03009000  0.38264000  0.91258000  1.0
  C  C96  1  0.37601000  0.16487000  0.48070000  1.0
  C  C97  1  0.87601000  0.83512000  0.01930000  1.0
  C  C98  1  0.62398000  0.83513000  0.51930000  1.0
  C  C99  1  0.12399000  0.16487000  0.98069000  1.0
  C  C100  1  0.48227000  0.24595000  0.44902000  1.0
  C  C101  1  0.98228000  0.75404000  0.05098000  1.0
  C  C102  1  0.51772000  0.75405000  0.55098000  1.0
  C  C103  1  0.01773000  0.24595000  0.94902000  1.0
  C  C104  1  0.15726000  0.25470000  0.71364000  1.0
  C  C105  1  0.65725000  0.74530000  0.78638000  1.0
  C  C106  1  0.84275000  0.74531000  0.28637000  1.0
  C  C107  1  0.34275000  0.25470000  0.21363000  1.0
  C  C108  1  0.23448000  0.38306000  0.67794000  1.0
  C  C109  1  0.73447000  0.61694000  0.82207000  1.0
  C  C110  1  0.76553000  0.61695000  0.32207000  1.0
  C  C111  1  0.26553000  0.38306000  0.17794000  1.0
  N  N112  1  0.25759000  0.21791000  0.47498000  1.0
  N  N113  1  0.75760000  0.78208000  0.02502000  1.0
  N  N114  1  0.74240000  0.78209000  0.52502000  1.0
  N  N115  1  0.24240000  0.21791000  0.97498000  1.0
  O  O116  1  0.36202000  0.97338000  0.11597000  1.0
  O  O117  1  0.86202000  0.02661000  0.38403000  1.0
  O  O118  1  0.63797000  0.02663000  0.88402000  1.0
  O  O119  1  0.13798000  0.97338000  0.61597000  1.0
  O  O120  1  0.51621000  0.81394000  0.13300000  1.0
  O  O121  1  0.01622000  0.18604000  0.36701000  1.0
  O  O122  1  0.48378000  0.18606000  0.86700000  1.0
  O  O123  1  0.98379000  0.81394000  0.63300000  1.0
  O  O124  1  0.03007000  0.80472000  0.45833000  1.0
  O  O125  1  0.53007000  0.19530000  0.04166000  1.0
  O  O126  1  0.96993000  0.19529000  0.54166000  1.0
  O  O127  1  0.46992000  0.80471000  0.95834000  1.0
  O  O128  1  0.18067000  0.96955000  0.42971000  1.0
  O  O129  1  0.68067000  0.03046000  0.07028000  1.0
  O  O130  1  0.81933000  0.03045000  0.57029000  1.0
  O  O131  1  0.31933000  0.96956000  0.92971000  1.0
  F  F132  1  0.60076000  0.18926000  0.45303000  1.0
  F  F133  1  0.10076000  0.81075000  0.04696000  1.0
  F  F134  1  0.39923000  0.81074000  0.54698000  1.0
  F  F135  1  0.89924000  0.18925000  0.95302000  1.0
