# generated using pymatgen
data_Zn4H6C24S4Br2O17
_symmetry_space_group_name_H-M   'P 1'
_cell_length_a   19.69530000
_cell_length_b   19.73170000
_cell_length_c   33.40470000
_cell_angle_alpha   79.06740000
_cell_angle_beta   79.17770000
_cell_angle_gamma   63.93760000
_symmetry_Int_Tables_number   1
_chemical_formula_structural   Zn4H6C24S4Br2O17
_chemical_formula_sum   'Zn16 H24 C96 S16 Br8 O68'
_cell_volume   11369.55000087
_cell_formula_units_Z   4
loop_
 _symmetry_equiv_pos_site_id
 _symmetry_equiv_pos_as_xyz
  1  'x, y, z'
loop_
 _atom_site_type_symbol
 _atom_site_label
 _atom_site_symmetry_multiplicity
 _atom_site_fract_x
 _atom_site_fract_y
 _atom_site_fract_z
 _atom_site_occupancy
  Zn  Zn0  1  0.05586000  0.40017000  0.47814000  1.0
  Zn  Zn1  1  0.98490000  0.48332000  0.56055000  1.0
  Zn  Zn2  1  0.05858000  0.56092000  0.48173000  1.0
  Zn  Zn3  1  0.90063000  0.55567000  0.48016000  1.0
  Zn  Zn4  1  0.69376000  0.34952000  0.27200000  1.0
  Zn  Zn5  1  0.69051000  0.18814000  0.26659000  1.0
  Zn  Zn6  1  0.76924000  0.26714000  0.19030000  1.0
  Zn  Zn7  1  0.84800000  0.19377000  0.27145000  1.0
  Zn  Zn8  1  0.26593000  0.76587000  0.68941000  1.0
  Zn  Zn9  1  0.34993000  0.69650000  0.77102000  1.0
  Zn  Zn10  1  0.19189000  0.84910000  0.77071000  1.0
  Zn  Zn11  1  0.19184000  0.68861000  0.76829000  1.0
  Zn  Zn12  1  0.55885000  0.06240000  0.98348000  1.0
  Zn  Zn13  1  0.40146000  0.05404000  0.97724000  1.0
  Zn  Zn14  1  0.55826000  0.90103000  0.97928000  1.0
  Zn  Zn15  1  0.48011000  0.98354000  0.05972000  1.0
  H  H16  1  0.74962000  0.44950000  0.34937000  1.0
  H  H17  1  0.99937000  0.30201000  0.40062000  1.0
  H  H18  1  0.20077000  0.69984000  0.60210000  1.0
  H  H19  1  0.04907000  0.55028000  0.64791000  1.0
  H  H20  1  0.64761000  0.14914000  0.04968000  1.0
  H  H21  1  0.60265000  0.10061000  0.20038000  1.0
  H  H22  1  0.30417000  0.99839000  0.90121000  1.0
  H  H23  1  0.44696000  0.75017000  0.84860000  1.0
  H  H24  1  0.32720000  0.53994000  0.39822000  1.0
  H  H25  1  0.42253000  0.20957000  0.35216000  1.0
  H  H26  1  0.75449000  0.54124000  0.68456000  1.0
  H  H27  1  0.49623000  0.70814000  0.56572000  1.0
  H  H28  1  0.04176000  0.25448000  0.68353000  1.0
  H  H29  1  0.20887000  0.99470000  0.56628000  1.0
  H  H30  1  0.74377000  0.81657000  0.38713000  1.0
  H  H31  1  0.00450000  0.93257000  0.36316000  1.0
  H  H32  1  0.70802000  0.49576000  0.06638000  1.0
  H  H33  1  0.54147000  0.75477000  0.18401000  1.0
  H  H34  1  0.14902000  0.07706000  0.21927000  1.0
  H  H35  1  0.10007000  0.17377000  0.03062000  1.0
  H  H36  1  0.50704000  0.43267000  0.86292000  1.0
  H  H37  1  0.24486000  0.31815000  0.88673000  1.0
  H  H38  1  0.92199000  0.70988000  0.85193000  1.0
  H  H39  1  0.82819000  0.04062000  0.89769000  1.0
  C  C40  1  0.06198000  0.31615000  0.56167000  1.0
  C  C41  1  0.06941000  0.57094000  0.56790000  1.0
  C  C42  1  0.18369000  0.43988000  0.43834000  1.0
  C  C43  1  0.93557000  0.68422000  0.43884000  1.0
  C  C44  1  0.93019000  0.43125000  0.43142000  1.0
  C  C45  1  0.81725000  0.56098000  0.56286000  1.0
  C  C46  1  0.56607000  0.30961000  0.31127000  1.0
  C  C47  1  0.68335000  0.18004000  0.18040000  1.0
  C  C48  1  0.68964000  0.43365000  0.18830000  1.0
  C  C49  1  0.93536000  0.18789000  0.18952000  1.0
  C  C50  1  0.81851000  0.31970000  0.31898000  1.0
  C  C51  1  0.81276000  0.06515000  0.31129000  1.0
  C  C52  1  0.43322000  0.68947000  0.68756000  1.0
  C  C53  1  0.31702000  0.82147000  0.81856000  1.0
  C  C54  1  0.18773000  0.93331000  0.68795000  1.0
  C  C55  1  0.06546000  0.80966000  0.81130000  1.0
  C  C56  1  0.18051000  0.67917000  0.68207000  1.0
  C  C57  1  0.31505000  0.56629000  0.81142000  1.0
  C  C58  1  0.43675000  0.18427000  0.93841000  1.0
  C  C59  1  0.43432000  0.92753000  0.93095000  1.0
  C  C60  1  0.68433000  0.94118000  0.93909000  1.0
  C  C61  1  0.56066000  0.81674000  0.06222000  1.0
  C  C62  1  0.56683000  0.06977000  0.06966000  1.0
  C  C63  1  0.31419000  0.06197000  0.05988000  1.0
  C  C64  1  0.89865000  0.40581000  0.40238000  1.0
  C  C65  1  0.85025000  0.34561000  0.34771000  1.0
  C  C66  1  0.82727000  0.44771000  0.38748000  1.0
  C  C67  1  0.92175000  0.30379000  0.36252000  1.0
  C  C68  1  0.80468000  0.41726000  0.36081000  1.0
  C  C69  1  0.94429000  0.33426000  0.38919000  1.0
  C  C70  1  0.09947000  0.60037000  0.59568000  1.0
  C  C71  1  0.15027000  0.64987000  0.65432000  1.0
  C  C72  1  0.14296000  0.64315000  0.58282000  1.0
  C  C73  1  0.10680000  0.60707000  0.66719000  1.0
  C  C74  1  0.16723000  0.66683000  0.61195000  1.0
  C  C75  1  0.08251000  0.58339000  0.63806000  1.0
  C  C76  1  0.30465000  0.45432000  0.40077000  1.0
  C  C77  1  0.44530000  0.29509000  0.34929000  1.0
  C  C78  1  0.25832000  0.41543000  0.41386000  1.0
  C  C79  1  0.49167000  0.33388000  0.33607000  1.0
  C  C80  1  0.37720000  0.33919000  0.37294000  1.0
  C  C81  1  0.37292000  0.41020000  0.37720000  1.0
  C  C82  1  0.72590000  0.57590000  0.63030000  1.0
  C  C83  1  0.52456000  0.67356000  0.62004000  1.0
  C  C84  1  0.74314000  0.58506000  0.58771000  1.0
  C  C85  1  0.50736000  0.66470000  0.66265000  1.0
  C  C86  1  0.60446000  0.64104000  0.60833000  1.0
  C  C87  1  0.64601000  0.60828000  0.64201000  1.0
  C  C88  1  0.07674000  0.22542000  0.62943000  1.0
  C  C89  1  0.17393000  0.02400000  0.62033000  1.0
  C  C90  1  0.08633000  0.24213000  0.58677000  1.0
  C  C91  1  0.16404000  0.00734000  0.66296000  1.0
  C  C92  1  0.14199000  0.10370000  0.60820000  1.0
  C  C93  1  0.10880000  0.14571000  0.64157000  1.0
  C  C94  1  0.84199000  0.80119000  0.39734000  1.0
  C  C95  1  0.90609000  0.94831000  0.35306000  1.0
  C  C96  1  0.91045000  0.75834000  0.41406000  1.0
  C  C97  1  0.83765000  0.99113000  0.33625000  1.0
  C  C98  1  0.90758000  0.87884000  0.37524000  1.0
  C  C99  1  0.84071000  0.87045000  0.37499000  1.0
  C  C100  1  0.65513000  0.15311000  0.15041000  1.0
  C  C101  1  0.59525000  0.09653000  0.09965000  1.0
  C  C102  1  0.66762000  0.16675000  0.10722000  1.0
  C  C103  1  0.58272000  0.08293000  0.14284000  1.0
  C  C104  1  0.63794000  0.13861000  0.08298000  1.0
  C  C105  1  0.61242000  0.11103000  0.16708000  1.0
  C  C106  1  0.67403000  0.52452000  0.12056000  1.0
  C  C107  1  0.57542000  0.72584000  0.12987000  1.0
  C  C108  1  0.66460000  0.50769000  0.16321000  1.0
  C  C109  1  0.58506000  0.74271000  0.08724000  1.0
  C  C110  1  0.60798000  0.64612000  0.14191000  1.0
  C  C111  1  0.64148000  0.60426000  0.10850000  1.0
  C  C112  1  0.08209000  0.12397000  0.17774000  1.0
  C  C113  1  0.16741000  0.12640000  0.07190000  1.0
  C  C114  1  0.00968000  0.16300000  0.16495000  1.0
  C  C115  1  0.23988000  0.08739000  0.08455000  1.0
  C  C116  1  0.10997000  0.13976000  0.10602000  1.0
  C  C117  1  0.13966000  0.11073000  0.14366000  1.0
  C  C118  1  0.34394000  0.85178000  0.84753000  1.0
  C  C119  1  0.40727000  0.89685000  0.90223000  1.0
  C  C120  1  0.30345000  0.92268000  0.86281000  1.0
  C  C121  1  0.44765000  0.82585000  0.88706000  1.0
  C  C122  1  0.33533000  0.94367000  0.88947000  1.0
  C  C123  1  0.41580000  0.80487000  0.86037000  1.0
  C  C124  1  0.40856000  0.44857000  0.85280000  1.0
  C  C125  1  0.34353000  0.30188000  0.89677000  1.0
  C  C126  1  0.34027000  0.49182000  0.83598000  1.0
  C  C127  1  0.41182000  0.25862000  0.91366000  1.0
  C  C128  1  0.34250000  0.37125000  0.87461000  1.0
  C  C129  1  0.40953000  0.37927000  0.87502000  1.0
  C  C130  1  0.94471000  0.79544000  0.84936000  1.0
  C  C131  1  0.80495000  0.95535000  0.90063000  1.0
  C  C132  1  0.99115000  0.83411000  0.83601000  1.0
  C  C133  1  0.75839000  0.91686000  0.91407000  1.0
  C  C134  1  0.87278000  0.91089000  0.87694000  1.0
  C  C135  1  0.87666000  0.83989000  0.87294000  1.0
  S  S136  1  0.29836000  0.32534000  0.39756000  1.0
  S  S137  1  0.45180000  0.42394000  0.35248000  1.0
  S  S138  1  0.66206000  0.63285000  0.56213000  1.0
  S  S139  1  0.58846000  0.61680000  0.68820000  1.0
  S  S140  1  0.13450000  0.16065000  0.56176000  1.0
  S  S141  1  0.11602000  0.08876000  0.68801000  1.0
  S  S142  1  0.97284000  0.80247000  0.40248000  1.0
  S  S143  1  0.77552000  0.94672000  0.34765000  1.0
  S  S144  1  0.61577000  0.58901000  0.18830000  1.0
  S  S145  1  0.63394000  0.66143000  0.06211000  1.0
  S  S146  1  0.01198000  0.18347000  0.11163000  1.0
  S  S147  1  0.23770000  0.06708000  0.13792000  1.0
  S  S148  1  0.27760000  0.44795000  0.84732000  1.0
  S  S149  1  0.47431000  0.30269000  0.90245000  1.0
  S  S150  1  0.95164000  0.92436000  0.85205000  1.0
  S  S151  1  0.79768000  0.82664000  0.89791000  1.0
  Br  Br152  1  0.75600000  0.54592000  0.40068000  1.0
  Br  Br153  1  0.99331000  0.20584000  0.34914000  1.0
  Br  Br154  1  0.17339000  0.67222000  0.52721000  1.0
  Br  Br155  1  0.07671000  0.57756000  0.72279000  1.0
  Br  Br156  1  0.72315000  0.22248000  0.07767000  1.0
  Br  Br157  1  0.52676000  0.02765000  0.17241000  1.0
  Br  Br158  1  0.20560000  0.99572000  0.84971000  1.0
  Br  Br159  1  0.54558000  0.75292000  0.90010000  1.0
  O  O160  1  0.00081000  0.49860000  0.50012000  1.0
  O  O161  1  0.07814000  0.31492000  0.52263000  1.0
  O  O162  1  0.03379000  0.53058000  0.58554000  1.0
  O  O163  1  0.15476000  0.50663000  0.44899000  1.0
  O  O164  1  0.02717000  0.37475000  0.58063000  1.0
  O  O165  1  0.15414000  0.39157000  0.44674000  1.0
  O  O166  1  0.08146000  0.58839000  0.52951000  1.0
  O  O167  1  0.00321000  0.65710000  0.44896000  1.0
  O  O168  1  0.88812000  0.49495000  0.44430000  1.0
  O  O169  1  0.88894000  0.65326000  0.44820000  1.0
  O  O170  1  0.99685000  0.38638000  0.44081000  1.0
  O  O171  1  0.87642000  0.52646000  0.58156000  1.0
  O  O172  1  0.81540000  0.57739000  0.52386000  1.0
  O  O173  1  0.74867000  0.25066000  0.25043000  1.0
  O  O174  1  0.59562000  0.35793000  0.30327000  1.0
  O  O175  1  0.66568000  0.16234000  0.21847000  1.0
  O  O176  1  0.72672000  0.37517000  0.16936000  1.0
  O  O177  1  0.59468000  0.24339000  0.29995000  1.0
  O  O178  1  0.67193000  0.43463000  0.22728000  1.0
  O  O179  1  0.72220000  0.21793000  0.16564000  1.0
  O  O180  1  0.87759000  0.22420000  0.16934000  1.0
  O  O181  1  0.85969000  0.25484000  0.30730000  1.0
  O  O182  1  0.93416000  0.17164000  0.22839000  1.0
  O  O183  1  0.75260000  0.36514000  0.30873000  1.0
  O  O184  1  0.74638000  0.09150000  0.29956000  1.0
  O  O185  1  0.85880000  0.09679000  0.30339000  1.0
  O  O186  1  0.25045000  0.75012000  0.74984000  1.0
  O  O187  1  0.37431000  0.72340000  0.66862000  1.0
  O  O188  1  0.36352000  0.75705000  0.80708000  1.0
  O  O189  1  0.17034000  0.93473000  0.72694000  1.0
  O  O190  1  0.43473000  0.67439000  0.72661000  1.0
  O  O191  1  0.22305000  0.87454000  0.66916000  1.0
  O  O192  1  0.25089000  0.86172000  0.80797000  1.0
  O  O193  1  0.09406000  0.85873000  0.80227000  1.0
  O  O194  1  0.16757000  0.66259000  0.72047000  1.0
  O  O195  1  0.09521000  0.74259000  0.80103000  1.0
  O  O196  1  0.21712000  0.71857000  0.66439000  1.0
  O  O197  1  0.36075000  0.59835000  0.80281000  1.0
  O  O198  1  0.24783000  0.59259000  0.80081000  1.0
  O  O199  1  0.49999000  0.00059000  0.99958000  1.0
  O  O200  1  0.50289000  0.15851000  0.95037000  1.0
  O  O201  1  0.38901000  0.99342000  0.94092000  1.0
  O  O202  1  0.65548000  0.89227000  0.94754000  1.0
  O  O203  1  0.39139000  0.15186000  0.94586000  1.0
  O  O204  1  0.65519000  0.00757000  0.95019000  1.0
  O  O205  1  0.49921000  0.88616000  0.94291000  1.0
  O  O206  1  0.58020000  0.81556000  0.02335000  1.0
  O  O207  1  0.52810000  0.03176000  0.08442000  1.0
  O  O208  1  0.52243000  0.87541000  0.08089000  1.0
  O  O209  1  0.58426000  0.08770000  0.03159000  1.0
  O  O210  1  0.31559000  0.07632000  0.02094000  1.0
  O  O211  1  0.37180000  0.02687000  0.08026000  1.0
  O  O212  1  0.28582000  0.52501000  0.40978000  1.0
  O  O213  1  0.46388000  0.22442000  0.34035000  1.0
  O  O214  1  0.77954000  0.54046000  0.65647000  1.0
  O  O215  1  0.47104000  0.70894000  0.59379000  1.0
  O  O216  1  0.04109000  0.27924000  0.65535000  1.0
  O  O217  1  0.20952000  0.97006000  0.59449000  1.0
  O  O218  1  0.78497000  0.77846000  0.40216000  1.0
  O  O219  1  0.96307000  0.97105000  0.34841000  1.0
  O  O220  1  0.70980000  0.47086000  0.09455000  1.0
  O  O221  1  0.53959000  0.77958000  0.15583000  1.0
  O  O222  1  0.09438000  0.10220000  0.21767000  1.0
  O  O223  1  0.15476000  0.14820000  0.03203000  1.0
  O  O224  1  0.46568000  0.47114000  0.84814000  1.0
  O  O225  1  0.28634000  0.27945000  0.90136000  1.0
  O  O226  1  0.96347000  0.72470000  0.84047000  1.0
  O  O227  1  0.78669000  0.02600000  0.90948000  1.0
