# generated using pymatgen
data_CuH5C8NO5
_symmetry_space_group_name_H-M   'P 1'
_cell_length_a   6.59289000
_cell_length_b   8.09022000
_cell_length_c   16.52340000
_cell_angle_alpha   90.95780000
_cell_angle_beta   89.99930000
_cell_angle_gamma   89.99970000
_symmetry_Int_Tables_number   1
_chemical_formula_structural   CuH5C8NO5
_chemical_formula_sum   'Cu4 H20 C32 N4 O20'
_cell_volume   881.20082113
_cell_formula_units_Z   4
loop_
 _symmetry_equiv_pos_site_id
 _symmetry_equiv_pos_as_xyz
  1  'x, y, z'
loop_
 _atom_site_type_symbol
 _atom_site_label
 _atom_site_symmetry_multiplicity
 _atom_site_fract_x
 _atom_site_fract_y
 _atom_site_fract_z
 _atom_site_occupancy
  Cu  Cu0  1  0.45939000  0.14155000  0.35429000  1.0
  Cu  Cu1  1  0.95971000  0.35785000  0.64560000  1.0
  Cu  Cu2  1  0.54023000  0.85783000  0.64558000  1.0
  Cu  Cu3  1  0.04062000  0.64151000  0.35428000  1.0
  H  H4  1  0.15607000  0.01167000  0.13872000  1.0
  H  H5  1  0.65656000  0.48825000  0.86145000  1.0
  H  H6  1  0.84349000  0.98820000  0.86146000  1.0
  H  H7  1  0.34393000  0.51164000  0.13871000  1.0
  H  H8  1  0.45719000  0.81921000  0.19880000  1.0
  H  H9  1  0.95801000  0.68133000  0.80106000  1.0
  H  H10  1  0.54198000  0.18134000  0.80105000  1.0
  H  H11  1  0.04283000  0.31920000  0.19883000  1.0
  H  H12  1  0.55988000  0.87440000  0.05593000  1.0
  H  H13  1  0.06040000  0.62659000  0.94409000  1.0
  H  H14  1  0.43961000  0.12663000  0.94408000  1.0
  H  H15  1  0.94017000  0.37439000  0.05595000  1.0
  H  H16  1  0.36563000  0.11349000  0.52179000  1.0
  H  H17  1  0.86482000  0.38730000  0.47811000  1.0
  H  H18  1  0.63524000  0.88731000  0.47809000  1.0
  H  H19  1  0.13435000  0.61359000  0.52179000  1.0
  H  H20  1  0.23237000  0.00356000  0.46264000  1.0
  H  H21  1  0.73095000  0.49593000  0.53775000  1.0
  H  H22  1  0.76910000  0.99593000  0.53773000  1.0
  H  H23  1  0.26771000  0.50369000  0.46264000  1.0
  C  C24  1  0.10251000  0.96785000  0.29618000  1.0
  C  C25  1  0.60293000  0.53179000  0.70383000  1.0
  C  C26  1  0.89701000  0.03176000  0.70384000  1.0
  C  C27  1  0.39747000  0.46784000  0.29619000  1.0
  C  C28  1  0.94990000  0.93202000  0.23105000  1.0
  C  C29  1  0.45076000  0.56821000  0.76906000  1.0
  C  C30  1  0.04924000  0.06818000  0.76906000  1.0
  C  C31  1  0.55011000  0.43202000  0.23106000  1.0
  C  C32  1  0.00464000  0.96565000  0.15174000  1.0
  C  C33  1  0.50526000  0.53461000  0.84840000  1.0
  C  C34  1  0.99477000  0.03458000  0.84840000  1.0
  C  C35  1  0.49536000  0.46563000  0.15174000  1.0
  C  C36  1  0.75107000  0.87680000  0.24840000  1.0
  C  C37  1  0.25212000  0.62374000  0.75169000  1.0
  C  C38  1  0.24788000  0.12372000  0.75168000  1.0
  C  C39  1  0.74894000  0.37681000  0.24842000  1.0
  C  C40  1  0.61058000  0.86029000  0.18508000  1.0
  C  C41  1  0.11138000  0.64035000  0.81492000  1.0
  C  C42  1  0.38863000  0.14034000  0.81492000  1.0
  C  C43  1  0.88943000  0.36031000  0.18510000  1.0
  C  C44  1  0.68222000  0.82930000  0.33157000  1.0
  C  C45  1  0.18314000  0.66988000  0.66838000  1.0
  C  C46  1  0.31684000  0.16985000  0.66838000  1.0
  C  C47  1  0.81775000  0.32928000  0.33158000  1.0
  C  C48  1  0.86567000  0.94309000  0.08830000  1.0
  C  C49  1  0.36624000  0.55767000  0.91180000  1.0
  C  C50  1  0.13379000  0.05767000  0.91180000  1.0
  C  C51  1  0.63434000  0.44306000  0.08830000  1.0
  C  C52  1  0.66753000  0.89086000  0.10553000  1.0
  C  C53  1  0.16818000  0.61007000  0.89451000  1.0
  C  C54  1  0.33185000  0.11008000  0.89451000  1.0
  C  C55  1  0.83248000  0.39084000  0.10554000  1.0
  N  N56  1  0.91103000  0.97303000  0.00632000  1.0
  N  N57  1  0.41146000  0.52776000  0.99382000  1.0
  N  N58  1  0.08859000  0.02776000  0.99381000  1.0
  N  N59  1  0.58901000  0.47302000  0.00633000  1.0
  O  O60  1  0.21795000  0.09153000  0.28486000  1.0
  O  O61  1  0.71831000  0.40819000  0.71519000  1.0
  O  O62  1  0.78163000  0.90815000  0.71518000  1.0
  O  O63  1  0.28199000  0.59150000  0.28483000  1.0
  O  O64  1  0.75259000  0.69914000  0.36335000  1.0
  O  O65  1  0.25434000  0.79817000  0.63502000  1.0
  O  O66  1  0.24562000  0.29816000  0.63502000  1.0
  O  O67  1  0.74736000  0.19915000  0.36338000  1.0
  O  O68  1  0.11119000  0.87793000  0.35874000  1.0
  O  O69  1  0.61090000  0.62128000  0.64110000  1.0
  O  O70  1  0.88905000  0.12130000  0.64113000  1.0
  O  O71  1  0.38876000  0.37798000  0.35876000  1.0
  O  O72  1  0.54437000  0.91087000  0.36834000  1.0
  O  O73  1  0.04311000  0.58895000  0.63259000  1.0
  O  O74  1  0.45686000  0.08893000  0.63258000  1.0
  O  O75  1  0.95560000  0.41085000  0.36836000  1.0
  O  O76  1  0.29274000  0.11329000  0.46991000  1.0
  O  O77  1  0.79198000  0.38655000  0.53003000  1.0
  O  O78  1  0.70805000  0.88656000  0.53002000  1.0
  O  O79  1  0.20725000  0.61339000  0.46991000  1.0
