# generated using pymatgen
data_SrH14C8(NO5)2
_symmetry_space_group_name_H-M   'P 1'
_cell_length_a   6.05474000
_cell_length_b   10.17170000
_cell_length_c   10.95380000
_cell_angle_alpha   68.12100000
_cell_angle_beta   89.99970000
_cell_angle_gamma   89.99970000
_symmetry_Int_Tables_number   1
_chemical_formula_structural   SrH14C8(NO5)2
_chemical_formula_sum   'Sr2 H28 C16 N4 O20'
_cell_volume   626.02134515
_cell_formula_units_Z   2
loop_
 _symmetry_equiv_pos_site_id
 _symmetry_equiv_pos_as_xyz
  1  'x, y, z'
loop_
 _atom_site_type_symbol
 _atom_site_label
 _atom_site_symmetry_multiplicity
 _atom_site_fract_x
 _atom_site_fract_y
 _atom_site_fract_z
 _atom_site_occupancy
  Sr  Sr0  1  0.55490000  0.85981000  0.99660000  1.0
  Sr  Sr1  1  0.44510000  0.35980000  0.99661000  1.0
  H  H2  1  0.02112000  0.96663000  0.02550000  1.0
  H  H3  1  0.97888000  0.46664000  0.02550000  1.0
  H  H4  1  0.96423000  0.87748000  0.17486000  1.0
  H  H5  1  0.03577000  0.37749000  0.17486000  1.0
  H  H6  1  0.96418000  0.84275000  0.81789000  1.0
  H  H7  1  0.03582000  0.34275000  0.81789000  1.0
  H  H8  1  0.02115000  0.75350000  0.96720000  1.0
  H  H9  1  0.97885000  0.25350000  0.96720000  1.0
  H  H10  1  0.15744000  0.70381000  0.18249000  1.0
  H  H11  1  0.84257000  0.20381000  0.18249000  1.0
  H  H12  1  0.18372000  0.59791000  0.10703000  1.0
  H  H13  1  0.81629000  0.09791000  0.10703000  1.0
  H  H14  1  0.18380000  0.12223000  0.88585000  1.0
  H  H15  1  0.81620000  0.62223000  0.88585000  1.0
  H  H16  1  0.15781000  0.01616000  0.81054000  1.0
  H  H17  1  0.84219000  0.51617000  0.81054000  1.0
  H  H18  1  0.86934000  0.12487000  0.59174000  1.0
  H  H19  1  0.13066000  0.62487000  0.59175000  1.0
  H  H20  1  0.86828000  0.59479000  0.40150000  1.0
  H  H21  1  0.13173000  0.09479000  0.40150000  1.0
  H  H22  1  0.34064000  0.49744000  0.38986000  1.0
  H  H23  1  0.65936000  0.99744000  0.38986000  1.0
  H  H24  1  0.35817000  0.33147000  0.37167000  1.0
  H  H25  1  0.64183000  0.83146000  0.37167000  1.0
  H  H26  1  0.34136000  0.22109000  0.60363000  1.0
  H  H27  1  0.65865000  0.72109000  0.60363000  1.0
  H  H28  1  0.35780000  0.38714000  0.62177000  1.0
  H  H29  1  0.64219000  0.88714000  0.62177000  1.0
  C  C30  1  0.67360000  0.42999000  0.37367000  1.0
  C  C31  1  0.32639000  0.92998000  0.37367000  1.0
  C  C32  1  0.79757000  0.28728000  0.41202000  1.0
  C  C33  1  0.20243000  0.78728000  0.41202000  1.0
  C  C34  1  0.67387000  0.28934000  0.61968000  1.0
  C  C35  1  0.32613000  0.78934000  0.61968000  1.0
  C  C36  1  0.79716000  0.43226000  0.58128000  1.0
  C  C37  1  0.20284000  0.93226000  0.58128000  1.0
  C  C38  1  0.43093000  0.39656000  0.42164000  1.0
  C  C39  1  0.56907000  0.89656000  0.42164000  1.0
  C  C40  1  0.43106000  0.32217000  0.57183000  1.0
  C  C41  1  0.56893000  0.82217000  0.57183000  1.0
  C  C42  1  0.66796000  0.52249000  0.22606000  1.0
  C  C43  1  0.33204000  0.02249000  0.22606000  1.0
  C  C44  1  0.66826000  0.19695000  0.76731000  1.0
  C  C45  1  0.33174000  0.69694000  0.76731000  1.0
  N  N46  1  0.78099000  0.21629000  0.54222000  1.0
  N  N47  1  0.21901000  0.71629000  0.54223000  1.0
  N  N48  1  0.78024000  0.50326000  0.45110000  1.0
  N  N49  1  0.21975000  0.00326000  0.45110000  1.0
  O  O50  1  0.90188000  0.94629000  0.09303000  1.0
  O  O51  1  0.09812000  0.44629000  0.09303000  1.0
  O  O52  1  0.90625000  0.24482000  0.33607000  1.0
  O  O53  1  0.09376000  0.74483000  0.33607000  1.0
  O  O54  1  0.90188000  0.77386000  0.89971000  1.0
  O  O55  1  0.09813000  0.27386000  0.89971000  1.0
  O  O56  1  0.90567000  0.47490000  0.65718000  1.0
  O  O57  1  0.09432000  0.97490000  0.65718000  1.0
  O  O58  1  0.21132000  0.69736000  0.10047000  1.0
  O  O59  1  0.78869000  0.19736000  0.10047000  1.0
  O  O60  1  0.72138000  0.65094000  0.19385000  1.0
  O  O61  1  0.27861000  0.15094000  0.19386000  1.0
  O  O62  1  0.21157000  0.02275000  0.89253000  1.0
  O  O63  1  0.78844000  0.52275000  0.89254000  1.0
  O  O64  1  0.59678000  0.46092000  0.15340000  1.0
  O  O65  1  0.40322000  0.96092000  0.15341000  1.0
  O  O66  1  0.59704000  0.25865000  0.83984000  1.0
  O  O67  1  0.40296000  0.75864000  0.83984000  1.0
  O  O68  1  0.72172000  0.06849000  0.79961000  1.0
  O  O69  1  0.27829000  0.56849000  0.79961000  1.0
