# generated using pymatgen
data_ZnH21C20NO4
_symmetry_space_group_name_H-M   'P 1'
_cell_length_a   9.72490000
_cell_length_b   10.96410000
_cell_length_c   17.44160000
_cell_angle_alpha   93.49540000
_cell_angle_beta   92.81070000
_cell_angle_gamma   90.66120000
_symmetry_Int_Tables_number   1
_chemical_formula_structural   ZnH21C20NO4
_chemical_formula_sum   'Zn2 H42 C40 N2 O8'
_cell_volume   1853.81709353
_cell_formula_units_Z   2
loop_
 _symmetry_equiv_pos_site_id
 _symmetry_equiv_pos_as_xyz
  1  'x, y, z'
loop_
 _atom_site_type_symbol
 _atom_site_label
 _atom_site_symmetry_multiplicity
 _atom_site_fract_x
 _atom_site_fract_y
 _atom_site_fract_z
 _atom_site_occupancy
  Zn  Zn0  1  0.35845000  0.50225000  0.50885000  1.0
  Zn  Zn1  1  0.64592000  0.49903000  0.49715000  1.0
  H  H2  1  0.67038000  0.59735000  0.27154000  1.0
  H  H3  1  0.37111000  0.40856000  0.75314000  1.0
  H  H4  1  0.72163000  0.64674000  0.74244000  1.0
  H  H5  1  0.23743000  0.51341000  0.25601000  1.0
  H  H6  1  0.64872000  0.63411000  0.00924000  1.0
  H  H7  1  0.34520000  0.54962000  0.00066000  1.0
  H  H8  1  0.23260000  0.53655000  0.11449000  1.0
  H  H9  1  0.72379000  0.69029000  0.88433000  1.0
  H  H10  1  0.37439000  0.44684000  0.89452000  1.0
  H  H11  1  0.66636000  0.62794000  0.13185000  1.0
  H  H12  1  0.70718000  0.13703000  0.52938000  1.0
  H  H13  1  0.29733000  0.86981000  0.51644000  1.0
  H  H14  1  0.82152000  0.03962000  0.69578000  1.0
  H  H15  1  0.64863000  0.98536000  0.68881000  1.0
  H  H16  1  0.76996000  0.92049000  0.75328000  1.0
  H  H17  1  0.72760000  0.77962000  0.63576000  1.0
  H  H18  1  0.89986000  0.83285000  0.64392000  1.0
  H  H19  1  0.80735000  0.83243000  0.50987000  1.0
  H  H20  1  0.85247000  0.98311000  0.54653000  1.0
  H  H21  1  0.98252000  0.13580000  0.60626000  1.0
  H  H22  1  0.04910000  0.25190000  0.67371000  1.0
  H  H23  1  0.03212000  0.27948000  0.57454000  1.0
  H  H24  1  0.23109000  0.09624000  0.64700000  1.0
  H  H25  1  0.27987000  0.23968000  0.61535000  1.0
  H  H26  1  0.20203000  0.17215000  0.48081000  1.0
  H  H27  1  0.15047000  0.02780000  0.51197000  1.0
  H  H28  1  0.85937000  0.62169000  0.58569000  1.0
  H  H29  1  0.14500000  0.38253000  0.41517000  1.0
  H  H30  1  0.96426000  0.65703000  0.75035000  1.0
  H  H31  1  0.93952000  0.51147000  0.70110000  1.0
  H  H32  1  0.03065000  0.52466000  0.79159000  1.0
  H  H33  1  0.20022000  0.49932000  0.68743000  1.0
  H  H34  1  0.22147000  0.64161000  0.73817000  1.0
  H  H35  1  0.23980000  0.67936000  0.60624000  1.0
  H  H36  1  0.07710000  0.73601000  0.63172000  1.0
  H  H37  1  0.68855000  0.13857000  0.34963000  1.0
  H  H38  1  0.82609000  0.12809000  0.28607000  1.0
  H  H39  1  0.81394000  0.02373000  0.35964000  1.0
  H  H40  1  0.99476000  0.18200000  0.39997000  1.0
  H  H41  1  0.85525000  0.19476000  0.46060000  1.0
  H  H42  1  0.75720000  0.36217000  0.37749000  1.0
  H  H43  1  0.91149000  0.35604000  0.32792000  1.0
  C  C44  1  0.48873000  0.26467000  0.50306000  1.0
  C  C45  1  0.52091000  0.73910000  0.51754000  1.0
  C  C46  1  0.61754000  0.07616000  0.52529000  1.0
  C  C47  1  0.38741000  0.93031000  0.51866000  1.0
  C  C48  1  0.63657000  0.95129000  0.53108000  1.0
  C  C49  1  0.36831000  0.05632000  0.51668000  1.0
  C  C50  1  0.51710000  0.87602000  0.52320000  1.0
  C  C51  1  0.48844000  0.13018000  0.51520000  1.0
  C  C52  1  0.92468000  0.56744000  0.54829000  1.0
  C  C53  1  0.07939000  0.43438000  0.45379000  1.0
  C  C54  1  0.06811000  0.57426000  0.55862000  1.0
  C  C55  1  0.93566000  0.42591000  0.44431000  1.0
  C  C56  1  0.46354000  0.52363000  0.35511000  1.0
  C  C57  1  0.53670000  0.50730000  0.65289000  1.0
  C  C58  1  0.45524000  0.55005000  0.27197000  1.0
  C  C59  1  0.54416000  0.52740000  0.73859000  1.0
  C  C60  1  0.57489000  0.58503000  0.23638000  1.0
  C  C61  1  0.44674000  0.47154000  0.78235000  1.0
  C  C62  1  0.57182000  0.60174000  0.15818000  1.0
  C  C63  1  0.44822000  0.49431000  0.86143000  1.0
  C  C64  1  0.44943000  0.58054000  0.11212000  1.0
  C  C65  1  0.54635000  0.57524000  0.89993000  1.0
  C  C66  1  0.32867000  0.55121000  0.14914000  1.0
  C  C67  1  0.64580000  0.62855000  0.85565000  1.0
  C  C68  1  0.33092000  0.53734000  0.22796000  1.0
  C  C69  1  0.64493000  0.60482000  0.77634000  1.0
  C  C70  1  0.44476000  0.57778000  0.02853000  1.0
  C  C71  1  0.55040000  0.59902000  0.98310000  1.0
  C  C72  1  0.77937000  0.90668000  0.55097000  1.0
  C  C73  1  0.79292000  0.86180000  0.63307000  1.0
  C  C74  1  0.75626000  0.95707000  0.69614000  1.0
  C  C75  1  0.22442000  0.10448000  0.52329000  1.0
  C  C76  1  0.20512000  0.16375000  0.60442000  1.0
  C  C77  1  0.05959000  0.21017000  0.61538000  1.0
  C  C78  1  0.13708000  0.65219000  0.62291000  1.0
  C  C79  1  0.14955000  0.58705000  0.69891000  1.0
  C  C80  1  0.01369000  0.56895000  0.73714000  1.0
  C  C81  1  0.86695000  0.34064000  0.38349000  1.0
  C  C82  1  0.88514000  0.20566000  0.40142000  1.0
  C  C83  1  0.79877000  0.11930000  0.34597000  1.0
  N  N84  1  0.14395000  0.50558000  0.50993000  1.0
  N  N85  1  0.85992000  0.49423000  0.49318000  1.0
  O  O86  1  0.37495000  0.31665000  0.48758000  1.0
  O  O87  1  0.63092000  0.68767000  0.49709000  1.0
  O  O88  1  0.60629000  0.31874000  0.50791000  1.0
  O  O89  1  0.41013000  0.68267000  0.53181000  1.0
  O  O90  1  0.35326000  0.52836000  0.39168000  1.0
  O  O91  1  0.64468000  0.52909000  0.61717000  1.0
  O  O92  1  0.58247000  0.49727000  0.38326000  1.0
  O  O93  1  0.42056000  0.47157000  0.62150000  1.0
