# generated using pymatgen
data_ZnH18C28(NO)4
_symmetry_space_group_name_H-M   'P 1'
_cell_length_a   7.72028000
_cell_length_b   10.23120000
_cell_length_c   15.22390000
_cell_angle_alpha   73.39420000
_cell_angle_beta   80.72170000
_cell_angle_gamma   81.85560000
_symmetry_Int_Tables_number   1
_chemical_formula_structural   ZnH18C28(NO)4
_chemical_formula_sum   'Zn2 H36 C56 N8 O8'
_cell_volume   1131.44892848
_cell_formula_units_Z   2
loop_
 _symmetry_equiv_pos_site_id
 _symmetry_equiv_pos_as_xyz
  1  'x, y, z'
loop_
 _atom_site_type_symbol
 _atom_site_label
 _atom_site_symmetry_multiplicity
 _atom_site_fract_x
 _atom_site_fract_y
 _atom_site_fract_z
 _atom_site_occupancy
  Zn  Zn0  1  0.21537000  0.47869000  0.98578000  1.0
  Zn  Zn1  1  0.78463000  0.52131000  0.01423000  1.0
  H  H2  1  0.21312000  0.53083000  0.53999000  1.0
  H  H3  1  0.78688000  0.46917000  0.46001000  1.0
  H  H4  1  0.03193000  0.94532000  0.29348000  1.0
  H  H5  1  0.96807000  0.05468000  0.70653000  1.0
  H  H6  1  0.10348000  0.17564000  0.29542000  1.0
  H  H7  1  0.89652000  0.82436000  0.70458000  1.0
  H  H8  1  0.25847000  0.20119000  0.41822000  1.0
  H  H9  1  0.74153000  0.79881000  0.58178000  1.0
  H  H10  1  0.35251000  0.99803000  0.54324000  1.0
  H  H11  1  0.64749000  0.00197000  0.45676000  1.0
  H  H12  1  0.53726000  0.52421000  0.56240000  1.0
  H  H13  1  0.46274000  0.47579000  0.43760000  1.0
  H  H14  1  0.71494000  0.43969000  0.69335000  1.0
  H  H15  1  0.28506000  0.56030000  0.30666000  1.0
  H  H16  1  0.43046000  0.74824000  0.81805000  1.0
  H  H17  1  0.56955000  0.25177000  0.18194000  1.0
  H  H18  1  0.25254000  0.83385000  0.68680000  1.0
  H  H19  1  0.74747000  0.16615000  0.31319000  1.0
  H  H20  1  0.56086000  0.27800000  0.98272000  1.0
  H  H21  1  0.43914000  0.72200000  0.01728000  1.0
  H  H22  1  0.07164000  0.47912000  0.78723000  1.0
  H  H23  1  0.92836000  0.52087000  0.21277000  1.0
  H  H24  1  0.04277000  0.38130000  0.65751000  1.0
  H  H25  1  0.95722000  0.61870000  0.34249000  1.0
  H  H26  1  0.25782000  0.19957000  0.61919000  1.0
  H  H27  1  0.74218000  0.80044000  0.38081000  1.0
  H  H28  1  0.50974000  0.09903000  0.71150000  1.0
  H  H29  1  0.49025000  0.90097000  0.28850000  1.0
  H  H30  1  0.50757000  0.94516000  0.87286000  1.0
  H  H31  1  0.49242000  0.05484000  0.12714000  1.0
  H  H32  1  0.73906000  0.75240000  0.89295000  1.0
  H  H33  1  0.26094000  0.24759000  0.10705000  1.0
  H  H34  1  0.11470000  0.01799000  0.90553000  1.0
  H  H35  1  0.88530000  0.98201000  0.09447000  1.0
  H  H36  1  0.87967000  0.21735000  0.87957000  1.0
  H  H37  1  0.12032000  0.78265000  0.12043000  1.0
  C  C38  1  0.20743000  0.64016000  0.50644000  1.0
  C  C39  1  0.79258000  0.35983000  0.49356000  1.0
  C  C40  1  0.15164000  0.84248000  0.41785000  1.0
  C  C41  1  0.84836000  0.15752000  0.58215000  1.0
  C  C42  1  0.10012000  0.95707000  0.34771000  1.0
  C  C43  1  0.89988000  0.04293000  0.65229000  1.0
  C  C44  1  0.14059000  0.08470000  0.34947000  1.0
  C  C45  1  0.85941000  0.91530000  0.65053000  1.0
  C  C46  1  0.23002000  0.09940000  0.41923000  1.0
  C  C47  1  0.76998000  0.90060000  0.58078000  1.0
  C  C48  1  0.28312000  0.98668000  0.48941000  1.0
  C  C49  1  0.71688000  0.01332000  0.51059000  1.0
  C  C50  1  0.24326000  0.85891000  0.48723000  1.0
  C  C51  1  0.75674000  0.14110000  0.51277000  1.0
  C  C52  1  0.38355000  0.68364000  0.61684000  1.0
  C  C53  1  0.61646000  0.31636000  0.38315000  1.0
  C  C54  1  0.51442000  0.57335000  0.61849000  1.0
  C  C55  1  0.48559000  0.42664000  0.38151000  1.0
  C  C56  1  0.61406000  0.52617000  0.69174000  1.0
  C  C57  1  0.38594000  0.47383000  0.30826000  1.0
  C  C58  1  0.58380000  0.58873000  0.76437000  1.0
  C  C59  1  0.41621000  0.41127000  0.23563000  1.0
  C  C60  1  0.45587000  0.70121000  0.76100000  1.0
  C  C61  1  0.54414000  0.29879000  0.23900000  1.0
  C  C62  1  0.35548000  0.74890000  0.68788000  1.0
  C  C63  1  0.64452000  0.25110000  0.31212000  1.0
  C  C64  1  0.68276000  0.52971000  0.84605000  1.0
  C  C65  1  0.31723000  0.47030000  0.15395000  1.0
  C  C66  1  0.48999000  0.28211000  0.92568000  1.0
  C  C67  1  0.51001000  0.71789000  0.07432000  1.0
  C  C68  1  0.30074000  0.33756000  0.82496000  1.0
  C  C69  1  0.69926000  0.66244000  0.17504000  1.0
  C  C70  1  0.16613000  0.39750000  0.77091000  1.0
  C  C71  1  0.83387000  0.60250000  0.22910000  1.0
  C  C72  1  0.15232000  0.34387000  0.69823000  1.0
  C  C73  1  0.84768000  0.65613000  0.30177000  1.0
  C  C74  1  0.27408000  0.23747000  0.67714000  1.0
  C  C75  1  0.72591000  0.76253000  0.32287000  1.0
  C  C76  1  0.41314000  0.17943000  0.72864000  1.0
  C  C77  1  0.58685000  0.82057000  0.27136000  1.0
  C  C78  1  0.42209000  0.23073000  0.80332000  1.0
  C  C79  1  0.57790000  0.76927000  0.19668000  1.0
  C  C80  1  0.68045000  0.09096000  0.87779000  1.0
  C  C81  1  0.31956000  0.90904000  0.12221000  1.0
  C  C82  1  0.64094000  0.96132000  0.87942000  1.0
  C  C83  1  0.35906000  0.03869000  0.12058000  1.0
  C  C84  1  0.77196000  0.85236000  0.89221000  1.0
  C  C85  1  0.22804000  0.14764000  0.10779000  1.0
  C  C86  1  0.94148000  0.87050000  0.90511000  1.0
  C  C87  1  0.05852000  0.12951000  0.09489000  1.0
  C  C88  1  0.98115000  0.00306000  0.89865000  1.0
  C  C89  1  0.01886000  0.99694000  0.10135000  1.0
  C  C90  1  0.85137000  0.11388000  0.88486000  1.0
  C  C91  1  0.14864000  0.88612000  0.11514000  1.0
  C  C92  1  0.07723000  0.75137000  0.92933000  1.0
  C  C93  1  0.92278000  0.24862000  0.07067000  1.0
  N  N94  1  0.13003000  0.70453000  0.43271000  1.0
  N  N95  1  0.86997000  0.29547000  0.56728000  1.0
  N  N96  1  0.27946000  0.72654000  0.54302000  1.0
  N  N97  1  0.72055000  0.27346000  0.45698000  1.0
  N  N98  1  0.34596000  0.36576000  0.90252000  1.0
  N  N99  1  0.65403000  0.63424000  0.09748000  1.0
  N  N100  1  0.54116000  0.19932000  0.86834000  1.0
  N  N101  1  0.45883000  0.80068000  0.13166000  1.0
  O  O102  1  0.62845000  0.57818000  0.91756000  1.0
  O  O103  1  0.37155000  0.42182000  0.08244000  1.0
  O  O104  1  0.80712000  0.43791000  0.84483000  1.0
  O  O105  1  0.19288000  0.56210000  0.15517000  1.0
  O  O106  1  0.23204000  0.76762000  0.93320000  1.0
  O  O107  1  0.76796000  0.23238000  0.06679000  1.0
  O  O108  1  0.02522000  0.62710000  0.94769000  1.0
  O  O109  1  0.97478000  0.37290000  0.05232000  1.0
