# generated using pymatgen
data_Co2PH22C11NO6
_symmetry_space_group_name_H-M   'P 1'
_cell_length_a   6.19036000
_cell_length_b   8.56963000
_cell_length_c   14.86780000
_cell_angle_alpha   73.60800000
_cell_angle_beta   89.99930000
_cell_angle_gamma   89.99950000
_symmetry_Int_Tables_number   1
_chemical_formula_structural   Co2PH22C11NO6
_chemical_formula_sum   'Co4 P2 H44 C22 N2 O12'
_cell_volume   756.66439949
_cell_formula_units_Z   2
loop_
 _symmetry_equiv_pos_site_id
 _symmetry_equiv_pos_as_xyz
  1  'x, y, z'
loop_
 _atom_site_type_symbol
 _atom_site_label
 _atom_site_symmetry_multiplicity
 _atom_site_fract_x
 _atom_site_fract_y
 _atom_site_fract_z
 _atom_site_occupancy
  Co  Co0  1  0.09848000  0.19222000  0.03663000  1.0
  Co  Co1  1  0.59847000  0.80779000  0.96337000  1.0
  Co  Co2  1  0.84323000  0.49619000  0.00808000  1.0
  Co  Co3  1  0.34323000  0.50381000  0.99192000  1.0
  P  P4  1  0.09305000  0.83995000  0.02018000  1.0
  P  P5  1  0.59305000  0.16005000  0.97983000  1.0
  H  H6  1  0.90205000  0.85766000  0.15271000  1.0
  H  H7  1  0.40206000  0.14236000  0.84729000  1.0
  H  H8  1  0.13863000  0.73577000  0.18858000  1.0
  H  H9  1  0.63866000  0.26424000  0.81143000  1.0
  H  H10  1  0.24382000  0.12879000  0.24772000  1.0
  H  H11  1  0.74380000  0.87121000  0.75228000  1.0
  H  H12  1  0.87014000  0.19431000  0.18291000  1.0
  H  H13  1  0.37012000  0.80569000  0.81710000  1.0
  H  H14  1  0.86833000  0.13106000  0.30660000  1.0
  H  H15  1  0.36830000  0.86896000  0.69341000  1.0
  H  H16  1  0.78395000  0.99482000  0.24314000  1.0
  H  H17  1  0.28394000  0.00519000  0.75688000  1.0
  H  H18  1  0.05098000  0.78981000  0.33192000  1.0
  H  H19  1  0.55099000  0.21019000  0.66808000  1.0
  H  H20  1  0.52378000  0.89478000  0.32905000  1.0
  H  H21  1  0.02377000  0.10520000  0.67095000  1.0
  H  H22  1  0.41913000  0.76719000  0.26437000  1.0
  H  H23  1  0.91914000  0.23279000  0.73563000  1.0
  H  H24  1  0.31064000  0.56136000  0.41031000  1.0
  H  H25  1  0.81065000  0.43862000  0.58969000  1.0
  H  H26  1  0.58974000  0.60185000  0.41119000  1.0
  H  H27  1  0.08975000  0.39812000  0.58880000  1.0
  H  H28  1  0.41867000  0.59028000  0.56603000  1.0
  H  H29  1  0.91868000  0.40969000  0.43396000  1.0
  H  H30  1  0.53689000  0.78094000  0.51297000  1.0
  H  H31  1  0.03688000  0.21904000  0.48702000  1.0
  H  H32  1  0.17570000  0.82536000  0.57322000  1.0
  H  H33  1  0.67570000  0.17462000  0.42678000  1.0
  H  H34  1  0.05406000  0.69812000  0.51320000  1.0
  H  H35  1  0.55406000  0.30187000  0.48680000  1.0
  H  H36  1  0.27679000  0.02517000  0.42228000  1.0
  H  H37  1  0.77679000  0.97481000  0.57773000  1.0
  H  H38  1  0.99651000  0.98534000  0.42727000  1.0
  H  H39  1  0.49651000  0.01464000  0.57274000  1.0
  H  H40  1  0.87128000  0.46176000  0.22268000  1.0
  H  H41  1  0.37128000  0.53827000  0.77731000  1.0
  H  H42  1  0.68600000  0.44294000  0.31860000  1.0
  H  H43  1  0.18601000  0.55707000  0.68139000  1.0
  H  H44  1  0.72408000  0.63277000  0.23311000  1.0
  H  H45  1  0.22409000  0.36724000  0.76690000  1.0
  H  H46  1  0.34370000  0.98785000  0.14395000  1.0
  H  H47  1  0.84371000  0.01214000  0.85604000  1.0
  H  H48  1  0.16724000  0.40858000  0.14185000  1.0
  H  H49  1  0.66726000  0.59145000  0.85814000  1.0
  C  C50  1  0.07629000  0.84973000  0.14095000  1.0
  C  C51  1  0.57631000  0.15027000  0.85905000  1.0
  C  C52  1  0.13262000  0.02964000  0.24501000  1.0
  C  C53  1  0.63261000  0.97036000  0.75500000  1.0
  C  C54  1  0.90070000  0.09062000  0.24428000  1.0
  C  C55  1  0.40069000  0.90939000  0.75573000  1.0
  C  C56  1  0.17603000  0.88263000  0.33101000  1.0
  C  C57  1  0.67602000  0.11737000  0.66899000  1.0
  C  C58  1  0.39777000  0.80374000  0.32900000  1.0
  C  C59  1  0.89776000  0.19624000  0.67100000  1.0
  C  C60  1  0.42941000  0.65548000  0.41399000  1.0
  C  C61  1  0.92943000  0.34451000  0.58600000  1.0
  C  C62  1  0.40347000  0.69973000  0.50606000  1.0
  C  C63  1  0.90349000  0.30024000  0.49394000  1.0
  C  C64  1  0.18767000  0.78503000  0.50927000  1.0
  C  C65  1  0.68766000  0.21494000  0.49073000  1.0
  C  C66  1  0.15504000  0.93054000  0.42281000  1.0
  C  C67  1  0.65503000  0.06946000  0.57719000  1.0
  C  C68  1  0.53122000  0.46680000  0.18618000  1.0
  C  C69  1  0.03121000  0.53324000  0.81381000  1.0
  C  C70  1  0.71593000  0.50056000  0.24422000  1.0
  C  C71  1  0.21594000  0.49946000  0.75578000  1.0
  N  N72  1  0.17971000  0.99734000  0.15290000  1.0
  N  N73  1  0.67971000  0.00266000  0.84710000  1.0
  O  O74  1  0.08502000  0.01369000  0.95613000  1.0
  O  O75  1  0.58500000  0.98631000  0.04388000  1.0
  O  O76  1  0.89202000  0.73615000  0.01183000  1.0
  O  O77  1  0.39203000  0.26385000  0.98817000  1.0
  O  O78  1  0.29692000  0.74445000  0.00504000  1.0
  O  O79  1  0.79692000  0.25554000  0.99497000  1.0
  O  O80  1  0.10367000  0.39789000  0.08157000  1.0
  O  O81  1  0.60367000  0.60212000  0.91843000  1.0
  O  O82  1  0.57558000  0.47006000  0.10030000  1.0
  O  O83  1  0.07557000  0.52994000  0.89971000  1.0
  O  O84  1  0.34440000  0.44122000  0.22071000  1.0
  O  O85  1  0.84443000  0.55885000  0.77929000  1.0
