# generated using pymatgen
data_CdH13C18N3O4
_symmetry_space_group_name_H-M   'P 1'
_cell_length_a   11.77740000
_cell_length_b   25.59365000
_cell_length_c   25.59360000
_cell_angle_alpha   119.99980613
_cell_angle_beta   90.00000000
_cell_angle_gamma   90.00000000
_symmetry_Int_Tables_number   1
_chemical_formula_structural   CdH13C18N3O4
_chemical_formula_sum   'Cd6 H78 C108 N18 O24'
_cell_volume   6681.04674257
_cell_formula_units_Z   6
loop_
 _symmetry_equiv_pos_site_id
 _symmetry_equiv_pos_as_xyz
  1  'x, y, z'
loop_
 _atom_site_type_symbol
 _atom_site_label
 _atom_site_symmetry_multiplicity
 _atom_site_fract_x
 _atom_site_fract_y
 _atom_site_fract_z
 _atom_site_occupancy
  Cd  Cd0  1  0.00000000  0.58848000  0.06221000  1.0
  Cd  Cd1  1  0.00000000  0.47373000  0.41152000  1.0
  Cd  Cd2  1  0.00000000  0.93779000  0.52627000  1.0
  Cd  Cd3  1  0.00000000  0.41152000  0.93779000  1.0
  Cd  Cd4  1  0.00000000  0.52627000  0.58848000  1.0
  Cd  Cd5  1  0.00000000  0.06221000  0.47373000  1.0
  H  H6  1  0.20620000  0.61785000  0.00532000  1.0
  H  H7  1  0.41627000  0.62036000  0.00368000  1.0
  H  H8  1  0.41452000  0.54716000  0.12425000  1.0
  H  H9  1  0.20459000  0.54710000  0.11937000  1.0
  H  H10  1  0.20620000  0.38747000  0.38214000  1.0
  H  H11  1  0.41627000  0.38332000  0.37963000  1.0
  H  H12  1  0.41452000  0.57709000  0.45284000  1.0
  H  H13  1  0.20459000  0.57227000  0.45290000  1.0
  H  H14  1  0.20620000  0.99467000  0.61252000  1.0
  H  H15  1  0.41627000  0.99631000  0.61668000  1.0
  H  H16  1  0.41452000  0.87575000  0.42292000  1.0
  H  H17  1  0.20459000  0.88063000  0.42773000  1.0
  H  H18  1  0.20620000  0.38215000  0.99468000  1.0
  H  H19  1  0.41627000  0.37963000  0.99631000  1.0
  H  H20  1  0.41452000  0.45283000  0.87574000  1.0
  H  H21  1  0.20459000  0.45290000  0.88063000  1.0
  H  H22  1  0.20620000  0.61253000  0.61786000  1.0
  H  H23  1  0.41627000  0.61668000  0.62037000  1.0
  H  H24  1  0.41452000  0.42291000  0.54716000  1.0
  H  H25  1  0.20459000  0.42773000  0.54710000  1.0
  H  H26  1  0.20620000  0.00533000  0.38748000  1.0
  H  H27  1  0.41627000  0.00369000  0.38332000  1.0
  H  H28  1  0.41452000  0.12425000  0.57708000  1.0
  H  H29  1  0.20459000  0.11937000  0.57227000  1.0
  H  H30  1  0.79380000  0.38214000  0.99467000  1.0
  H  H31  1  0.58373000  0.37963000  0.99631000  1.0
  H  H32  1  0.58548000  0.45284000  0.87575000  1.0
  H  H33  1  0.79541000  0.45290000  0.88063000  1.0
  H  H34  1  0.79380000  0.61253000  0.61786000  1.0
  H  H35  1  0.58373000  0.61668000  0.62037000  1.0
  H  H36  1  0.58548000  0.42291000  0.54716000  1.0
  H  H37  1  0.79541000  0.42773000  0.54710000  1.0
  H  H38  1  0.79380000  0.00533000  0.38748000  1.0
  H  H39  1  0.58373000  0.00369000  0.38333000  1.0
  H  H40  1  0.58548000  0.12425000  0.57708000  1.0
  H  H41  1  0.79541000  0.11937000  0.57227000  1.0
  H  H42  1  0.79380000  0.61785000  0.00532000  1.0
  H  H43  1  0.58374000  0.62037000  0.00369000  1.0
  H  H44  1  0.58548000  0.54717000  0.12426000  1.0
  H  H45  1  0.79541000  0.54710000  0.11937000  1.0
  H  H46  1  0.79380000  0.38747000  0.38214000  1.0
  H  H47  1  0.58373000  0.38332000  0.37963000  1.0
  H  H48  1  0.58548000  0.57709000  0.45284000  1.0
  H  H49  1  0.79541000  0.57227000  0.45290000  1.0
  H  H50  1  0.79380000  0.99467000  0.61252000  1.0
  H  H51  1  0.58373000  0.99631000  0.61667000  1.0
  H  H52  1  0.58548000  0.87575000  0.42292000  1.0
  H  H53  1  0.79541000  0.88063000  0.42773000  1.0
  H  H54  1  0.00000000  0.44789000  0.82956000  1.0
  H  H55  1  0.00000000  0.42118000  0.67479000  1.0
  H  H56  1  0.99999000  0.38579000  0.72067000  1.0
  H  H57  1  0.00000000  0.62663000  0.80180000  1.0
  H  H58  1  0.00000000  0.64079000  0.90671000  1.0
  H  H59  1  0.00000000  0.38167000  0.55211000  1.0
  H  H60  1  0.00000000  0.25361000  0.57881000  1.0
  H  H61  1  0.00000000  0.33489000  0.61422000  1.0
  H  H62  1  0.00000000  0.17517000  0.37337000  1.0
  H  H63  1  0.00000000  0.26592000  0.35921000  1.0
  H  H64  1  0.00000000  0.17044000  0.61833000  1.0
  H  H65  1  0.00000000  0.32520000  0.74638000  1.0
  H  H66  1  0.00001000  0.27933000  0.66512000  1.0
  H  H67  1  0.00000000  0.19820000  0.82483000  1.0
  H  H68  1  0.00000000  0.09329000  0.73408000  1.0
  H  H69  1  0.00000000  0.55211000  0.17044000  1.0
  H  H70  1  0.00000000  0.57882000  0.32521000  1.0
  H  H71  1  0.00000000  0.61421000  0.27933000  1.0
  H  H72  1  0.00000000  0.37337000  0.19820000  1.0
  H  H73  1  0.00000000  0.35921000  0.09329000  1.0
  H  H74  1  0.00000000  0.61833000  0.44789000  1.0
  H  H75  1  0.00000000  0.74639000  0.42118000  1.0
  H  H76  1  0.00000000  0.66512000  0.38579000  1.0
  H  H77  1  0.00000000  0.82483000  0.62663000  1.0
  H  H78  1  0.00000000  0.73408000  0.64079000  1.0
  H  H79  1  0.00000000  0.82956000  0.38167000  1.0
  H  H80  1  0.00000000  0.67480000  0.25362000  1.0
  H  H81  1  0.00000000  0.72067000  0.33488000  1.0
  H  H82  1  0.00000000  0.80180000  0.17517000  1.0
  H  H83  1  0.00000000  0.90671000  0.26591000  1.0
  C  C84  1  0.25683000  0.60224000  0.03061000  1.0
  C  C85  1  0.37472000  0.60351000  0.03029000  1.0
  C  C86  1  0.43704000  0.58344000  0.06374000  1.0
  C  C87  1  0.37369000  0.56310000  0.09666000  1.0
  C  C88  1  0.25569000  0.56292000  0.09444000  1.0
  C  C89  1  0.25683000  0.42837000  0.39776000  1.0
  C  C90  1  0.37472000  0.42679000  0.39650000  1.0
  C  C91  1  0.43704000  0.48030000  0.41656000  1.0
  C  C92  1  0.37369000  0.53356000  0.43690000  1.0
  C  C93  1  0.25568000  0.53152000  0.43708000  1.0
  C  C94  1  0.25683000  0.96939000  0.57163000  1.0
  C  C95  1  0.37472000  0.96971000  0.57322000  1.0
  C  C96  1  0.43704000  0.93626000  0.51970000  1.0
  C  C97  1  0.37369000  0.90334000  0.46644000  1.0
  C  C98  1  0.25568000  0.90555000  0.46847000  1.0
  C  C99  1  0.25683000  0.39776000  0.96939000  1.0
  C  C100  1  0.37472000  0.39649000  0.96970000  1.0
  C  C101  1  0.43704000  0.41656000  0.93626000  1.0
  C  C102  1  0.37369000  0.43690000  0.90334000  1.0
  C  C103  1  0.25569000  0.43707000  0.90555000  1.0
  C  C104  1  0.25683000  0.57163000  0.60224000  1.0
  C  C105  1  0.37472000  0.57321000  0.60350000  1.0
  C  C106  1  0.43704000  0.51970000  0.58344000  1.0
  C  C107  1  0.37369000  0.46644000  0.56310000  1.0
  C  C108  1  0.25568000  0.46848000  0.56292000  1.0
  C  C109  1  0.25683000  0.03061000  0.42837000  1.0
  C  C110  1  0.37472000  0.03029000  0.42678000  1.0
  C  C111  1  0.43704000  0.06374000  0.48030000  1.0
  C  C112  1  0.37369000  0.09666000  0.53356000  1.0
  C  C113  1  0.25569000  0.09444000  0.53152000  1.0
  C  C114  1  0.74317000  0.39776000  0.96939000  1.0
  C  C115  1  0.62528000  0.39649000  0.96971000  1.0
  C  C116  1  0.56296000  0.41656000  0.93626000  1.0
  C  C117  1  0.62631000  0.43690000  0.90334000  1.0
  C  C118  1  0.74431000  0.43708000  0.90556000  1.0
  C  C119  1  0.74317000  0.57163000  0.60224000  1.0
  C  C120  1  0.62528000  0.57321000  0.60350000  1.0
  C  C121  1  0.56296000  0.51970000  0.58344000  1.0
  C  C122  1  0.62631000  0.46644000  0.56310000  1.0
  C  C123  1  0.74431000  0.46848000  0.56292000  1.0
  C  C124  1  0.74317000  0.03061000  0.42837000  1.0
  C  C125  1  0.62528000  0.03029000  0.42678000  1.0
  C  C126  1  0.56296000  0.06374000  0.48030000  1.0
  C  C127  1  0.62631000  0.09666000  0.53356000  1.0
  C  C128  1  0.74432000  0.09445000  0.53153000  1.0
  C  C129  1  0.74317000  0.60224000  0.03061000  1.0
  C  C130  1  0.62528000  0.60351000  0.03030000  1.0
  C  C131  1  0.56296000  0.58344000  0.06374000  1.0
  C  C132  1  0.62631000  0.56310000  0.09666000  1.0
  C  C133  1  0.74432000  0.56292000  0.09444000  1.0
  C  C134  1  0.74317000  0.42837000  0.39776000  1.0
  C  C135  1  0.62528000  0.42679000  0.39650000  1.0
  C  C136  1  0.56296000  0.48030000  0.41656000  1.0
  C  C137  1  0.62631000  0.53356000  0.43690000  1.0
  C  C138  1  0.74432000  0.53152000  0.43708000  1.0
  C  C139  1  0.74317000  0.96939000  0.57163000  1.0
  C  C140  1  0.62528000  0.96971000  0.57322000  1.0
  C  C141  1  0.56296000  0.93626000  0.51970000  1.0
  C  C142  1  0.62631000  0.90334000  0.46644000  1.0
  C  C143  1  0.74431000  0.90556000  0.46848000  1.0
  C  C144  1  0.99999000  0.55263000  0.93582000  1.0
  C  C145  1  0.00000000  0.54490000  0.87381000  1.0
  C  C146  1  0.00000000  0.48717000  0.82347000  1.0
  C  C147  1  0.00000000  0.47875000  0.76457000  1.0
  C  C148  1  0.00000000  0.53045000  0.75730000  1.0
  C  C149  1  0.00000000  0.58810000  0.80899000  1.0
  C  C150  1  0.00000000  0.59609000  0.86675000  1.0
  C  C151  1  0.00000000  0.52555000  0.69674000  1.0
  C  C152  1  0.00000000  0.38318000  0.44736000  1.0
  C  C153  1  0.00000000  0.32891000  0.45511000  1.0
  C  C154  1  0.00000000  0.33630000  0.51283000  1.0
  C  C155  1  0.00000000  0.28582000  0.52126000  1.0
  C  C156  1  0.00000000  0.22685000  0.46954000  1.0
  C  C157  1  0.00000000  0.22089000  0.41191000  1.0
  C  C158  1  0.00000000  0.27066000  0.40391000  1.0
  C  C159  1  0.00000000  0.17119000  0.47445000  1.0
  C  C160  1  0.00000000  0.06418000  0.61681000  1.0
  C  C161  1  0.00000000  0.12620000  0.67110000  1.0
  C  C162  1  0.00000000  0.17653000  0.66370000  1.0
  C  C163  1  0.00000000  0.23544000  0.71419000  1.0
  C  C164  1  0.00000000  0.24269000  0.77314000  1.0
  C  C165  1  0.00000000  0.19102000  0.77912000  1.0
  C  C166  1  0.00000000  0.13325000  0.72934000  1.0
  C  C167  1  0.00001000  0.30326000  0.82881000  1.0
  C  C168  1  0.00000000  0.44737000  0.06419000  1.0
  C  C169  1  0.00000000  0.45510000  0.12619000  1.0
  C  C170  1  0.00000000  0.51283000  0.17653000  1.0
  C  C171  1  0.00000000  0.52125000  0.23543000  1.0
  C  C172  1  0.00000000  0.46955000  0.24270000  1.0
  C  C173  1  0.00000000  0.41190000  0.19101000  1.0
  C  C174  1  0.00000000  0.40391000  0.13325000  1.0
  C  C175  1  0.00001000  0.47445000  0.30326000  1.0
  C  C176  1  0.00000000  0.61682000  0.55264000  1.0
  C  C177  1  0.00000000  0.67110000  0.54490000  1.0
  C  C178  1  0.00000000  0.66370000  0.48717000  1.0
  C  C179  1  0.00000000  0.71418000  0.47874000  1.0
  C  C180  1  0.00000000  0.77315000  0.53046000  1.0
  C  C181  1  0.00000000  0.77911000  0.58809000  1.0
  C  C182  1  0.00000000  0.72934000  0.59609000  1.0
  C  C183  1  0.00000000  0.82881000  0.52555000  1.0
  C  C184  1  0.00000000  0.93582000  0.38319000  1.0
  C  C185  1  0.00000000  0.87380000  0.32890000  1.0
  C  C186  1  0.00000000  0.82347000  0.33630000  1.0
  C  C187  1  0.00000000  0.76456000  0.28581000  1.0
  C  C188  1  0.00000000  0.75731000  0.22686000  1.0
  C  C189  1  0.00000000  0.80899000  0.22089000  1.0
  C  C190  1  0.00000000  0.86675000  0.27066000  1.0
  C  C191  1  0.00000000  0.69674000  0.17119000  1.0
  N  N192  1  0.19804000  0.58189000  0.06179000  1.0
  N  N193  1  0.19804000  0.47989000  0.41810000  1.0
  N  N194  1  0.19804000  0.93821000  0.52010000  1.0
  N  N195  1  0.19804000  0.41811000  0.93822000  1.0
  N  N196  1  0.19804000  0.52011000  0.58190000  1.0
  N  N197  1  0.19804000  0.06179000  0.47990000  1.0
  N  N198  1  0.80196000  0.41811000  0.93822000  1.0
  N  N199  1  0.80196000  0.52011000  0.58190000  1.0
  N  N200  1  0.80196000  0.06179000  0.47990000  1.0
  N  N201  1  0.80196000  0.58189000  0.06179000  1.0
  N  N202  1  0.80196000  0.47990000  0.41811000  1.0
  N  N203  1  0.80196000  0.93821000  0.52010000  1.0
  N  N204  1  0.00000000  0.42225000  0.71544000  1.0
  N  N205  1  0.00000000  0.29319000  0.57775000  1.0
  N  N206  1  0.00000000  0.28456000  0.70681000  1.0
  N  N207  1  0.00000000  0.57775000  0.28456000  1.0
  N  N208  1  0.00000000  0.70681000  0.42225000  1.0
  N  N209  1  0.00000000  0.71544000  0.29319000  1.0
  O  O210  1  0.99999000  0.60622000  0.98084000  1.0
  O  O211  1  0.99999000  0.50646000  0.94273000  1.0
  O  O212  1  0.00000000  0.57386000  0.69396000  1.0
  O  O213  1  0.00000000  0.47302000  0.64827000  1.0
  O  O214  1  0.00000000  0.37462000  0.39377000  1.0
  O  O215  1  0.00000000  0.43627000  0.49353000  1.0
  O  O216  1  0.00000000  0.12011000  0.42615000  1.0
  O  O217  1  0.00000000  0.17526000  0.52698000  1.0
  O  O218  1  0.00000000  0.01915000  0.62537000  1.0
  O  O219  1  0.00000000  0.05726000  0.56373000  1.0
  O  O220  1  0.00001000  0.30604000  0.87990000  1.0
  O  O221  1  0.00000000  0.35172000  0.82474000  1.0
  O  O222  1  0.00000000  0.39378000  0.01916000  1.0
  O  O223  1  0.00000000  0.49353000  0.05726000  1.0
  O  O224  1  0.00001000  0.42614000  0.30604000  1.0
  O  O225  1  0.00000000  0.52698000  0.35173000  1.0
  O  O226  1  0.00000000  0.62538000  0.60623000  1.0
  O  O227  1  0.00000000  0.56373000  0.50647000  1.0
  O  O228  1  0.00000000  0.87990000  0.57386000  1.0
  O  O229  1  0.00000000  0.82474000  0.47302000  1.0
  O  O230  1  0.00001000  0.98085000  0.37463000  1.0
  O  O231  1  0.00000000  0.94274000  0.43628000  1.0
  O  O232  1  0.00000000  0.69396000  0.12011000  1.0
  O  O233  1  0.00001000  0.64828000  0.17526000  1.0
