# generated using pymatgen
data_CdH22C24(NO)4
_symmetry_space_group_name_H-M   'P 1'
_cell_length_a   10.85360000
_cell_length_b   11.22950000
_cell_length_c   11.43170000
_cell_angle_alpha   87.74400000
_cell_angle_beta   62.65140000
_cell_angle_gamma   66.78760000
_symmetry_Int_Tables_number   1
_chemical_formula_structural   CdH22C24(NO)4
_chemical_formula_sum   'Cd2 H44 C48 N8 O8'
_cell_volume   1120.12034734
_cell_formula_units_Z   2
loop_
 _symmetry_equiv_pos_site_id
 _symmetry_equiv_pos_as_xyz
  1  'x, y, z'
loop_
 _atom_site_type_symbol
 _atom_site_label
 _atom_site_symmetry_multiplicity
 _atom_site_fract_x
 _atom_site_fract_y
 _atom_site_fract_z
 _atom_site_occupancy
  Cd  Cd0  1  0.89931000  0.12408000  0.66849000  1.0
  Cd  Cd1  1  0.10070000  0.87592000  0.33151000  1.0
  H  H2  1  0.02873000  0.66030000  0.18475000  1.0
  H  H3  1  0.97126000  0.33970000  0.81526000  1.0
  H  H4  1  0.52882000  0.32244000  0.27753000  1.0
  H  H5  1  0.47118000  0.67755000  0.72246000  1.0
  H  H6  1  0.05556000  0.18955000  0.35301000  1.0
  H  H7  1  0.94445000  0.81045000  0.64699000  1.0
  H  H8  1  0.72584000  0.02818000  0.97371000  1.0
  H  H9  1  0.27416000  0.97182000  0.02629000  1.0
  H  H10  1  0.36831000  0.00220000  0.17157000  1.0
  H  H11  1  0.63168000  0.99781000  0.82843000  1.0
  H  H12  1  0.15600000  0.76617000  0.92914000  1.0
  H  H13  1  0.84400000  0.23383000  0.07087000  1.0
  H  H14  1  0.52148000  0.42599000  0.09530000  1.0
  H  H15  1  0.47852000  0.57401000  0.90470000  1.0
  H  H16  1  0.40586000  0.40811000  0.03200000  1.0
  H  H17  1  0.59414000  0.59189000  0.96799000  1.0
  H  H18  1  0.40893000  0.16940000  0.02659000  1.0
  H  H19  1  0.59107000  0.83060000  0.97340000  1.0
  H  H20  1  0.73434000  0.95562000  0.17833000  1.0
  H  H21  1  0.26565000  0.04438000  0.82168000  1.0
  H  H22  1  0.91424000  0.88425000  0.17251000  1.0
  H  H23  1  0.08575000  0.11575000  0.82750000  1.0
  H  H24  1  0.42601000  0.87742000  0.33567000  1.0
  H  H25  1  0.57400000  0.12258000  0.66433000  1.0
  H  H26  1  0.46467000  0.94669000  0.44614000  1.0
  H  H27  1  0.53533000  0.05332000  0.55387000  1.0
  H  H28  1  0.48298000  0.15940000  0.42428000  1.0
  H  H29  1  0.51703000  0.84060000  0.57572000  1.0
  H  H30  1  0.63655000  0.80203000  0.12295000  1.0
  H  H31  1  0.36345000  0.19797000  0.87705000  1.0
  H  H32  1  0.19469000  0.85614000  0.68693000  1.0
  H  H33  1  0.80530000  0.14386000  0.31308000  1.0
  H  H34  1  0.08881000  0.32828000  0.17863000  1.0
  H  H35  1  0.91119000  0.67172000  0.82137000  1.0
  H  H36  1  0.12079000  0.45264000  0.23538000  1.0
  H  H37  1  0.87921000  0.54736000  0.76462000  1.0
  H  H38  1  0.72588000  0.46905000  0.70468000  1.0
  H  H39  1  0.27412000  0.53095000  0.29532000  1.0
  H  H40  1  0.80753000  0.60104000  0.48876000  1.0
  H  H41  1  0.19246000  0.39897000  0.51124000  1.0
  H  H42  1  0.79234000  0.41785000  0.22511000  1.0
  H  H43  1  0.20766000  0.58215000  0.77488000  1.0
  H  H44  1  0.60937000  0.59502000  0.16884000  1.0
  H  H45  1  0.39063000  0.40497000  0.83116000  1.0
  C  C46  1  0.93843000  0.64444000  0.17947000  1.0
  C  C47  1  0.06157000  0.35556000  0.82053000  1.0
  C  C48  1  0.92325000  0.52721000  0.20686000  1.0
  C  C49  1  0.07675000  0.47279000  0.79314000  1.0
  C  C50  1  0.49327000  0.25250000  0.25368000  1.0
  C  C51  1  0.50674000  0.74750000  0.74632000  1.0
  C  C52  1  0.97688000  0.28235000  0.42122000  1.0
  C  C53  1  0.02312000  0.71765000  0.57878000  1.0
  C  C54  1  0.47189000  0.25763000  0.14140000  1.0
  C  C55  1  0.52811000  0.74238000  0.85860000  1.0
  C  C56  1  0.22689000  0.02429000  0.49964000  1.0
  C  C57  1  0.77311000  0.97571000  0.50036000  1.0
  C  C58  1  0.84843000  0.96797000  0.92470000  1.0
  C  C59  1  0.15156000  0.03203000  0.07531000  1.0
  C  C60  1  0.83661000  0.74373000  0.14788000  1.0
  C  C61  1  0.16338000  0.25627000  0.85213000  1.0
  C  C62  1  0.40248000  0.07348000  0.19486000  1.0
  C  C63  1  0.59751000  0.92652000  0.80514000  1.0
  C  C64  1  0.07536000  0.83051000  0.89816000  1.0
  C  C65  1  0.92464000  0.16948000  0.10184000  1.0
  C  C66  1  0.42443000  0.06824000  0.30692000  1.0
  C  C67  1  0.57557000  0.93176000  0.69308000  1.0
  C  C68  1  0.64723000  0.28346000  0.91465000  1.0
  C  C69  1  0.35278000  0.71654000  0.08535000  1.0
  C  C70  1  0.50344000  0.35459000  0.04980000  1.0
  C  C71  1  0.49656000  0.64541000  0.95020000  1.0
  C  C72  1  0.42498000  0.16711000  0.11403000  1.0
  C  C73  1  0.57502000  0.83289000  0.88597000  1.0
  C  C74  1  0.84831000  0.87324000  0.12810000  1.0
  C  C75  1  0.15169000  0.12676000  0.87191000  1.0
  C  C76  1  0.39593000  0.96840000  0.39515000  1.0
  C  C77  1  0.60407000  0.03160000  0.60485000  1.0
  C  C78  1  0.46820000  0.16014000  0.33613000  1.0
  C  C79  1  0.53180000  0.83986000  0.66387000  1.0
  C  C80  1  0.71968000  0.72387000  0.14306000  1.0
  C  C81  1  0.28031000  0.27613000  0.85694000  1.0
  C  C82  1  0.09155000  0.87677000  0.78109000  1.0
  C  C83  1  0.90845000  0.12323000  0.21891000  1.0
  C  C84  1  0.03168000  0.42348000  0.24459000  1.0
  C  C85  1  0.96833000  0.57652000  0.75541000  1.0
  C  C86  1  0.80656000  0.43069000  0.59956000  1.0
  C  C87  1  0.19345000  0.56931000  0.40043000  1.0
  C  C88  1  0.84552000  0.49714000  0.49431000  1.0
  C  C89  1  0.15449000  0.50286000  0.50569000  1.0
  C  C90  1  0.80511000  0.50880000  0.20216000  1.0
  C  C91  1  0.19489000  0.49120000  0.79784000  1.0
  C  C92  1  0.70384000  0.60682000  0.16994000  1.0
  C  C93  1  0.29616000  0.39317000  0.83006000  1.0
  N  N94  1  0.92042000  0.88898000  0.98770000  1.0
  N  N95  1  0.07958000  0.11102000  0.01230000  1.0
  N  N96  1  0.94912000  0.96298000  0.79875000  1.0
  N  N97  1  0.05088000  0.03702000  0.20125000  1.0
  N  N98  1  0.95324000  0.40133000  0.38188000  1.0
  N  N99  1  0.04676000  0.59867000  0.61812000  1.0
  N  N100  1  0.88933000  0.29698000  0.55267000  1.0
  N  N101  1  0.11067000  0.70302000  0.44733000  1.0
  O  O102  1  0.77063000  0.28894000  0.89097000  1.0
  O  O103  1  0.22937000  0.71106000  0.10903000  1.0
  O  O104  1  0.13856000  0.99113000  0.47567000  1.0
  O  O105  1  0.86144000  0.00886000  0.52432000  1.0
  O  O106  1  0.63544000  0.21803000  0.83399000  1.0
  O  O107  1  0.36456000  0.78197000  0.16600000  1.0
  O  O108  1  0.17760000  0.10237000  0.60275000  1.0
  O  O109  1  0.82240000  0.89763000  0.39725000  1.0
