# generated using pymatgen
data_ZnH14C14(NO2)2
_symmetry_space_group_name_H-M   'P 1'
_cell_length_a   7.94208000
_cell_length_b   9.01564000
_cell_length_c   10.55650000
_cell_angle_alpha   108.89700000
_cell_angle_beta   99.74550000
_cell_angle_gamma   100.44000000
_symmetry_Int_Tables_number   1
_chemical_formula_structural   ZnH14C14(NO2)2
_chemical_formula_sum   'Zn2 H28 C28 N4 O8'
_cell_volume   681.86290642
_cell_formula_units_Z   2
loop_
 _symmetry_equiv_pos_site_id
 _symmetry_equiv_pos_as_xyz
  1  'x, y, z'
loop_
 _atom_site_type_symbol
 _atom_site_label
 _atom_site_symmetry_multiplicity
 _atom_site_fract_x
 _atom_site_fract_y
 _atom_site_fract_z
 _atom_site_occupancy
  Zn  Zn0  1  0.83851000  0.01723000  0.34741000  1.0
  Zn  Zn1  1  0.16149000  0.98276000  0.65259000  1.0
  H  H2  1  0.35538000  0.14550000  0.12140000  1.0
  H  H3  1  0.64461000  0.85450000  0.87862000  1.0
  H  H4  1  0.51783000  0.16936000  0.02619000  1.0
  H  H5  1  0.48215000  0.83064000  0.97382000  1.0
  H  H6  1  0.53164000  0.32577000  0.18399000  1.0
  H  H7  1  0.46835000  0.67423000  0.81602000  1.0
  H  H8  1  0.67726000  0.64177000  0.62082000  1.0
  H  H9  1  0.32275000  0.35823000  0.37918000  1.0
  H  H10  1  0.58613000  0.57436000  0.43779000  1.0
  H  H11  1  0.41388000  0.42564000  0.56221000  1.0
  H  H12  1  0.51187000  0.72499000  0.55303000  1.0
  H  H13  1  0.48814000  0.27501000  0.44697000  1.0
  H  H14  1  0.65813000  0.65815000  0.19211000  1.0
  H  H15  1  0.34187000  0.34184000  0.80789000  1.0
  H  H16  1  0.64709000  0.43353000  0.97706000  1.0
  H  H17  1  0.35291000  0.56647000  0.02294000  1.0
  H  H18  1  0.05219000  0.76676000  0.90311000  1.0
  H  H19  1  0.94780000  0.23325000  0.09689000  1.0
  H  H20  1  0.04591000  0.97321000  0.12382000  1.0
  H  H21  1  0.95409000  0.02680000  0.87619000  1.0
  H  H22  1  0.03846000  0.59553000  0.72289000  1.0
  H  H23  1  0.96154000  0.40446000  0.27711000  1.0
  H  H24  1  0.01749000  0.37267000  0.50561000  1.0
  H  H25  1  0.98252000  0.62733000  0.49438000  1.0
  H  H26  1  0.63809000  0.05637000  0.58382000  1.0
  H  H27  1  0.36192000  0.94363000  0.41617000  1.0
  H  H28  1  0.63910000  0.25731000  0.80027000  1.0
  H  H29  1  0.36090000  0.74270000  0.19972000  1.0
  C  C30  1  0.49540000  0.19360000  0.13010000  1.0
  C  C31  1  0.50459000  0.80639000  0.86990000  1.0
  C  C32  1  0.61132000  0.11882000  0.20708000  1.0
  C  C33  1  0.38867000  0.88119000  0.79292000  1.0
  C  C34  1  0.62800000  0.67861000  0.53551000  1.0
  C  C35  1  0.37201000  0.32139000  0.46449000  1.0
  C  C36  1  0.76622000  0.81045000  0.52539000  1.0
  C  C37  1  0.23379000  0.18955000  0.47461000  1.0
  C  C38  1  0.74121000  0.67579000  0.12325000  1.0
  C  C39  1  0.25880000  0.32421000  0.87675000  1.0
  C  C40  1  0.73669000  0.55137000  0.00258000  1.0
  C  C41  1  0.26331000  0.44864000  0.99742000  1.0
  C  C42  1  0.84632000  0.57884000  0.91681000  1.0
  C  C43  1  0.15368000  0.42116000  0.08318000  1.0
  C  C44  1  0.96063000  0.73452000  0.96195000  1.0
  C  C45  1  0.03937000  0.26548000  0.03805000  1.0
  C  C46  1  0.95774000  0.85201000  0.08497000  1.0
  C  C47  1  0.04226000  0.14799000  0.91503000  1.0
  C  C48  1  0.84038000  0.44972000  0.78539000  1.0
  C  C49  1  0.15960000  0.55029000  0.21460000  1.0
  C  C50  1  0.94702000  0.47814000  0.69769000  1.0
  C  C51  1  0.05298000  0.52186000  0.30231000  1.0
  C  C52  1  0.93682000  0.35360000  0.57544000  1.0
  C  C53  1  0.06318000  0.64639000  0.42455000  1.0
  C  C54  1  0.72618000  0.17659000  0.61755000  1.0
  C  C55  1  0.27381000  0.82341000  0.38245000  1.0
  C  C56  1  0.72765000  0.29401000  0.74169000  1.0
  C  C57  1  0.27235000  0.70599000  0.25830000  1.0
  N  N58  1  0.84881000  0.82501000  0.16430000  1.0
  N  N59  1  0.15120000  0.17500000  0.83570000  1.0
  N  N60  1  0.82978000  0.20411000  0.53511000  1.0
  N  N61  1  0.17022000  0.79587000  0.46488000  1.0
  O  O62  1  0.77961000  0.17129000  0.23133000  1.0
  O  O63  1  0.22038000  0.82870000  0.76867000  1.0
  O  O64  1  0.54328000  0.00782000  0.24610000  1.0
  O  O65  1  0.45670000  0.99218000  0.75391000  1.0
  O  O66  1  0.73847000  0.83613000  0.41288000  1.0
  O  O67  1  0.26153000  0.16386000  0.58712000  1.0
  O  O68  1  0.89708000  0.88587000  0.62871000  1.0
  O  O69  1  0.10293000  0.11414000  0.37129000  1.0
