# generated using pymatgen
data_ZnHC12NCl5O4F
_symmetry_space_group_name_H-M   'P 1'
_cell_length_a   10.12200000
_cell_length_b   11.08490000
_cell_length_c   28.51880000
_cell_angle_alpha   89.89940000
_cell_angle_beta   90.86670000
_cell_angle_gamma   89.94610000
_symmetry_Int_Tables_number   1
_chemical_formula_structural   ZnHC12NCl5O4F
_chemical_formula_sum   'Zn4 H4 C48 N4 Cl20 O16 F4'
_cell_volume   3199.47556770
_cell_formula_units_Z   4
loop_
 _symmetry_equiv_pos_site_id
 _symmetry_equiv_pos_as_xyz
  1  'x, y, z'
loop_
 _atom_site_type_symbol
 _atom_site_label
 _atom_site_symmetry_multiplicity
 _atom_site_fract_x
 _atom_site_fract_y
 _atom_site_fract_z
 _atom_site_occupancy
  Zn  Zn0  1  0.35433000  0.51078000  0.49745000  1.0
  Zn  Zn1  1  0.63653000  0.51224000  0.49600000  1.0
  Zn  Zn2  1  0.64510000  0.50821000  0.11948000  1.0
  Zn  Zn3  1  0.36288000  0.50996000  0.12106000  1.0
  H  H4  1  0.72763000  0.53515000  0.97147000  1.0
  H  H5  1  0.30236000  0.50290000  0.97382000  1.0
  H  H6  1  0.69718000  0.50357000  0.64311000  1.0
  H  H7  1  0.27173000  0.53441000  0.64568000  1.0
  C  C8  1  0.51254000  0.27911000  0.49926000  1.0
  C  C9  1  0.48228000  0.52421000  0.58637000  1.0
  C  C10  1  0.50940000  0.74368000  0.49455000  1.0
  C  C11  1  0.47536000  0.46915000  0.40917000  1.0
  C  C12  1  0.48718000  0.27677000  0.11765000  1.0
  C  C13  1  0.51690000  0.52358000  0.03066000  1.0
  C  C14  1  0.48887000  0.74128000  0.12288000  1.0
  C  C15  1  0.52568000  0.46620000  0.20792000  1.0
  C  C16  1  0.06601000  0.57175000  0.46477000  1.0
  C  C17  1  0.92797000  0.45039000  0.53025000  1.0
  C  C18  1  0.92597000  0.57015000  0.46400000  1.0
  C  C19  1  0.06785000  0.44749000  0.52978000  1.0
  C  C20  1  0.51085000  0.88126000  0.49605000  1.0
  C  C21  1  0.51296000  0.14203000  0.49623000  1.0
  C  C22  1  0.63049000  0.94735000  0.49511000  1.0
  C  C23  1  0.39363000  0.07628000  0.49352000  1.0
  C  C24  1  0.63140000  0.07474000  0.49747000  1.0
  C  C25  1  0.39256000  0.94922000  0.49748000  1.0
  C  C26  1  0.51521000  0.51939000  0.97820000  1.0
  C  C27  1  0.63323000  0.52462000  0.95322000  1.0
  C  C28  1  0.62767000  0.51563000  0.90484000  1.0
  C  C29  1  0.50813000  0.50316000  0.87911000  1.0
  C  C30  1  0.39238000  0.49903000  0.90610000  1.0
  C  C31  1  0.39389000  0.50651000  0.95442000  1.0
  C  C32  1  0.50335000  0.49824000  0.82989000  1.0
  C  C33  1  0.49687000  0.49810000  0.78717000  1.0
  C  C34  1  0.49188000  0.50285000  0.73794000  1.0
  C  C35  1  0.60752000  0.49918000  0.71088000  1.0
  C  C36  1  0.60570000  0.50679000  0.66256000  1.0
  C  C37  1  0.48419000  0.51943000  0.63884000  1.0
  C  C38  1  0.36627000  0.52406000  0.66389000  1.0
  C  C39  1  0.37213000  0.51484000  0.71227000  1.0
  C  C40  1  0.48516000  0.43043000  0.35834000  1.0
  C  C41  1  0.51676000  0.42859000  0.25895000  1.0
  C  C42  1  0.37451000  0.41888000  0.32790000  1.0
  C  C43  1  0.62757000  0.41955000  0.28944000  1.0
  C  C44  1  0.39147000  0.41054000  0.27905000  1.0
  C  C45  1  0.61076000  0.41313000  0.33835000  1.0
  C  C46  1  0.93328000  0.56925000  0.15183000  1.0
  C  C47  1  0.07166000  0.44789000  0.08653000  1.0
  C  C48  1  0.07325000  0.56619000  0.15300000  1.0
  C  C49  1  0.93174000  0.44589000  0.08673000  1.0
  C  C50  1  0.48790000  0.87888000  0.12143000  1.0
  C  C51  1  0.48664000  0.13966000  0.12076000  1.0
  C  C52  1  0.36877000  0.94550000  0.12371000  1.0
  C  C53  1  0.60587000  0.07326000  0.12245000  1.0
  C  C54  1  0.36796000  0.07280000  0.12079000  1.0
  C  C55  1  0.60619000  0.94618000  0.11863000  1.0
  N  N56  1  0.13464000  0.50937000  0.49733000  1.0
  N  N57  1  0.85894000  0.51028000  0.49701000  1.0
  N  N58  1  0.86480000  0.50770000  0.11911000  1.0
  N  N59  1  0.14048000  0.50675000  0.11999000  1.0
  Cl  Cl60  1  0.14823000  0.65364000  0.42471000  1.0
  Cl  Cl61  1  0.84714000  0.37795000  0.57334000  1.0
  Cl  Cl62  1  0.84188000  0.64408000  0.42130000  1.0
  Cl  Cl63  1  0.15173000  0.36483000  0.57020000  1.0
  Cl  Cl64  1  0.78233000  0.87923000  0.49046000  1.0
  Cl  Cl65  1  0.24482000  0.14710000  0.48298000  1.0
  Cl  Cl66  1  0.78334000  0.14315000  0.50241000  1.0
  Cl  Cl67  1  0.24156000  0.88244000  0.50630000  1.0
  Cl  Cl68  1  0.21572000  0.41398000  0.34833000  1.0
  Cl  Cl69  1  0.78629000  0.41524000  0.26894000  1.0
  Cl  Cl70  1  0.25825000  0.36977000  0.24458000  1.0
  Cl  Cl71  1  0.74491000  0.37558000  0.37303000  1.0
  Cl  Cl72  1  0.85104000  0.65195000  0.19156000  1.0
  Cl  Cl73  1  0.15284000  0.37519000  0.04364000  1.0
  Cl  Cl74  1  0.15707000  0.63743000  0.19631000  1.0
  Cl  Cl75  1  0.84794000  0.36435000  0.04609000  1.0
  Cl  Cl76  1  0.21785000  0.87772000  0.13094000  1.0
  Cl  Cl77  1  0.75579000  0.14303000  0.13154000  1.0
  Cl  Cl78  1  0.21565000  0.14130000  0.11688000  1.0
  Cl  Cl79  1  0.75592000  0.87844000  0.10829000  1.0
  O  O80  1  0.41391000  0.32966000  0.51741000  1.0
  O  O81  1  0.61335000  0.33384000  0.48340000  1.0
  O  O82  1  0.58920000  0.49688000  0.56626000  1.0
  O  O83  1  0.37352000  0.55323000  0.56586000  1.0
  O  O84  1  0.61589000  0.69063000  0.50696000  1.0
  O  O85  1  0.40487000  0.69102000  0.48072000  1.0
  O  O86  1  0.37104000  0.44387000  0.43164000  1.0
  O  O87  1  0.57193000  0.52964000  0.42527000  1.0
  O  O88  1  0.58580000  0.32746000  0.09953000  1.0
  O  O89  1  0.38632000  0.33152000  0.13346000  1.0
  O  O90  1  0.40995000  0.49620000  0.05075000  1.0
  O  O91  1  0.62563000  0.55213000  0.05121000  1.0
  O  O92  1  0.38213000  0.68883000  0.11051000  1.0
  O  O93  1  0.59344000  0.68813000  0.13651000  1.0
  O  O94  1  0.62987000  0.44094000  0.18535000  1.0
  O  O95  1  0.42850000  0.52605000  0.19177000  1.0
  F  F96  1  0.27516000  0.48723000  0.88301000  1.0
  F  F97  1  0.74143000  0.51949000  0.88043000  1.0
  F  F98  1  0.25847000  0.51804000  0.73674000  1.0
  F  F99  1  0.72493000  0.48769000  0.73392000  1.0
