# generated using pymatgen
data_AlH12C24(SO5)3
_symmetry_space_group_name_H-M   'P 1'
_cell_length_a   4.31255000
_cell_length_b   28.77245462
_cell_length_c   28.77110000
_cell_angle_alpha   59.99867245
_cell_angle_beta   90.00070000
_cell_angle_gamma   89.99810008
_symmetry_Int_Tables_number   1
_chemical_formula_structural   AlH12C24(SO5)3
_chemical_formula_sum   'Al2 H24 C48 S6 O30'
_cell_volume   3091.66439872
_cell_formula_units_Z   2
loop_
 _symmetry_equiv_pos_site_id
 _symmetry_equiv_pos_as_xyz
  1  'x, y, z'
loop_
 _atom_site_type_symbol
 _atom_site_label
 _atom_site_symmetry_multiplicity
 _atom_site_fract_x
 _atom_site_fract_y
 _atom_site_fract_z
 _atom_site_occupancy
  Al  Al0  1  0.03579000  0.50000000  0.00000000  1.0
  Al  Al1  1  0.03613000  0.16665000  0.66669000  1.0
  H  H2  1  0.49628000  0.30460000  0.52491000  1.0
  H  H3  1  0.43295000  0.35866000  0.42571000  1.0
  H  H4  1  0.46686000  0.21346000  0.41660000  1.0
  H  H5  1  0.46694000  0.45320000  0.25010000  1.0
  H  H6  1  0.49574000  0.36206000  0.14178000  1.0
  H  H7  1  0.43264000  0.30800000  0.24098000  1.0
  H  H8  1  0.49630000  0.17051000  0.80461000  1.0
  H  H9  1  0.43295000  0.21564000  0.85867000  1.0
  H  H10  1  0.46693000  0.36995000  0.71346000  1.0
  H  H11  1  0.46697000  0.29672000  0.95319000  1.0
  H  H12  1  0.49576000  0.49617000  0.86205000  1.0
  H  H13  1  0.43260000  0.45104000  0.80798000  1.0
  H  H14  1  0.49626000  0.02492000  0.67049000  1.0
  H  H15  1  0.43289000  0.92572000  0.71561000  1.0
  H  H16  1  0.46700000  0.91656000  0.86995000  1.0
  H  H17  1  0.46688000  0.75009000  0.79670000  1.0
  H  H18  1  0.49580000  0.64178000  0.99616000  1.0
  H  H19  1  0.43270000  0.74098000  0.95102000  1.0
  H  H20  1  0.01965000  0.11571000  0.56193000  1.0
  H  H21  1  0.01958000  0.55093000  0.10476000  1.0
  H  H22  1  0.01970000  0.32236000  0.61571000  1.0
  H  H23  1  0.01957000  0.34431000  0.05093000  1.0
  H  H24  1  0.01977000  0.06189000  0.82238000  1.0
  H  H25  1  0.01951000  0.60476000  0.84430000  1.0
  C  C26  1  0.53279000  0.57992000  0.95191000  1.0
  C  C27  1  0.53278000  0.46817000  0.07993000  1.0
  C  C28  1  0.53278000  0.45191000  0.96817000  1.0
  C  C29  1  0.53313000  0.19848000  0.58677000  1.0
  C  C30  1  0.53314000  0.21475000  0.69850000  1.0
  C  C31  1  0.53314000  0.08674000  0.71478000  1.0
  C  C32  1  0.50264000  0.22878000  0.52688000  1.0
  C  C33  1  0.48175000  0.28488000  0.50098000  1.0
  C  C34  1  0.44687000  0.31506000  0.44564000  1.0
  C  C35  1  0.43605000  0.28978000  0.41442000  1.0
  C  C36  1  0.46112000  0.23347000  0.44023000  1.0
  C  C37  1  0.49330000  0.20362000  0.49577000  1.0
  C  C38  1  0.41846000  0.32030000  0.35780000  1.0
  C  C39  1  0.41851000  0.34636000  0.30889000  1.0
  C  C40  1  0.43594000  0.37687000  0.25229000  1.0
  C  C41  1  0.46113000  0.43319000  0.22646000  1.0
  C  C42  1  0.49321000  0.46303000  0.17093000  1.0
  C  C43  1  0.50243000  0.43788000  0.13981000  1.0
  C  C44  1  0.48141000  0.38178000  0.16572000  1.0
  C  C45  1  0.44658000  0.35160000  0.22106000  1.0
  C  C46  1  0.50270000  0.24435000  0.72879000  1.0
  C  C47  1  0.48185000  0.21416000  0.78489000  1.0
  C  C48  1  0.44692000  0.23932000  0.81506000  1.0
  C  C49  1  0.43610000  0.29581000  0.78979000  1.0
  C  C50  1  0.46117000  0.32631000  0.73347000  1.0
  C  C51  1  0.49337000  0.30063000  0.70362000  1.0
  C  C52  1  0.41853000  0.32191000  0.82030000  1.0
  C  C53  1  0.41851000  0.34476000  0.84636000  1.0
  C  C54  1  0.43593000  0.37085000  0.87687000  1.0
  C  C55  1  0.46110000  0.34036000  0.93318000  1.0
  C  C56  1  0.49321000  0.36605000  0.96302000  1.0
  C  C57  1  0.50239000  0.42232000  0.93787000  1.0
  C  C58  1  0.48137000  0.45252000  0.88176000  1.0
  C  C59  1  0.44654000  0.42735000  0.85159000  1.0
  C  C60  1  0.50265000  0.02686000  0.74436000  1.0
  C  C61  1  0.48177000  0.00097000  0.71415000  1.0
  C  C62  1  0.44688000  0.94563000  0.73930000  1.0
  C  C63  1  0.43616000  0.91440000  0.79580000  1.0
  C  C64  1  0.46125000  0.94020000  0.82631000  1.0
  C  C65  1  0.49338000  0.99573000  0.80064000  1.0
  C  C66  1  0.41856000  0.85780000  0.82188000  1.0
  C  C67  1  0.41854000  0.80889000  0.84474000  1.0
  C  C68  1  0.43593000  0.75228000  0.87084000  1.0
  C  C69  1  0.46107000  0.72646000  0.84035000  1.0
  C  C70  1  0.49316000  0.67093000  0.86603000  1.0
  C  C71  1  0.50238000  0.63981000  0.92231000  1.0
  C  C72  1  0.48140000  0.66572000  0.95250000  1.0
  C  C73  1  0.44660000  0.72106000  0.92734000  1.0
  S  S74  1  0.57374000  0.13370000  0.52318000  1.0
  S  S75  1  0.57369000  0.53295000  0.14352000  1.0
  S  S76  1  0.57381000  0.34313000  0.63370000  1.0
  S  S77  1  0.57369000  0.32354000  0.03294000  1.0
  S  S78  1  0.57389000  0.02313000  0.84315000  1.0
  S  S79  1  0.57358000  0.64351000  0.82353000  1.0
  O  O80  1  0.30707000  0.44712000  0.99892000  1.0
  O  O81  1  0.30706000  0.55397000  0.94711000  1.0
  O  O82  1  0.30706000  0.49892000  0.05396000  1.0
  O  O83  1  0.77527000  0.48024000  0.95869000  1.0
  O  O84  1  0.77527000  0.45869000  0.06107000  1.0
  O  O85  1  0.77529000  0.56108000  0.98024000  1.0
  O  O86  1  0.30742000  0.11269000  0.71958000  1.0
  O  O87  1  0.30741000  0.16772000  0.61272000  1.0
  O  O88  1  0.30740000  0.21955000  0.66775000  1.0
  O  O89  1  0.77557000  0.10560000  0.68643000  1.0
  O  O90  1  0.77559000  0.18641000  0.70800000  1.0
  O  O91  1  0.77558000  0.20798000  0.60562000  1.0
  O  O92  1  0.29811000  0.10105000  0.54779000  1.0
  O  O93  1  0.72245000  0.12723000  0.48219000  1.0
  O  O94  1  0.79102000  0.12143000  0.57089000  1.0
  O  O95  1  0.29803000  0.56561000  0.11889000  1.0
  O  O96  1  0.72238000  0.53942000  0.18451000  1.0
  O  O97  1  0.79095000  0.54520000  0.09581000  1.0
  O  O98  1  0.29817000  0.35116000  0.60104000  1.0
  O  O99  1  0.72255000  0.39058000  0.62723000  1.0
  O  O100  1  0.79108000  0.30767000  0.62145000  1.0
  O  O101  1  0.29804000  0.31550000  0.06561000  1.0
  O  O102  1  0.72240000  0.27608000  0.03942000  1.0
  O  O103  1  0.79094000  0.35899000  0.04521000  1.0
  O  O104  1  0.29826000  0.04774000  0.85121000  1.0
  O  O105  1  0.72262000  0.98214000  0.89060000  1.0
  O  O106  1  0.79116000  0.07084000  0.80770000  1.0
  O  O107  1  0.29793000  0.61888000  0.81551000  1.0
  O  O108  1  0.72228000  0.68448000  0.77607000  1.0
  O  O109  1  0.79086000  0.59579000  0.85899000  1.0
