# generated using pymatgen
data_CdH7C8S2N3O
_symmetry_space_group_name_H-M   'P 1'
_cell_length_a   8.17636000
_cell_length_b   8.50568000
_cell_length_c   9.75554000
_cell_angle_alpha   69.25070000
_cell_angle_beta   72.45360000
_cell_angle_gamma   72.36660000
_symmetry_Int_Tables_number   1
_chemical_formula_structural   CdH7C8S2N3O
_chemical_formula_sum   'Cd2 H14 C16 S4 N6 O2'
_cell_volume   590.11551472
_cell_formula_units_Z   2
loop_
 _symmetry_equiv_pos_site_id
 _symmetry_equiv_pos_as_xyz
  1  'x, y, z'
loop_
 _atom_site_type_symbol
 _atom_site_label
 _atom_site_symmetry_multiplicity
 _atom_site_fract_x
 _atom_site_fract_y
 _atom_site_fract_z
 _atom_site_occupancy
  Cd  Cd0  1  0.63369000  0.64284000  0.51603000  1.0
  Cd  Cd1  1  0.36631000  0.35716000  0.48397000  1.0
  H  H2  1  0.47232000  0.32657000  0.91124000  1.0
  H  H3  1  0.52768000  0.67344000  0.08876000  1.0
  H  H4  1  0.96068000  0.90879000  0.70619000  1.0
  H  H5  1  0.03932000  0.09122000  0.29380000  1.0
  H  H6  1  0.78713000  0.16989000  0.54307000  1.0
  H  H7  1  0.21287000  0.83011000  0.45693000  1.0
  H  H8  1  0.62875000  0.07231000  0.09002000  1.0
  H  H9  1  0.37125000  0.92770000  0.90998000  1.0
  H  H10  1  0.87667000  0.82216000  0.12776000  1.0
  H  H11  1  0.12333000  0.17784000  0.87223000  1.0
  H  H12  1  0.04301000  0.78124000  0.96817000  1.0
  H  H13  1  0.95699000  0.21876000  0.03182000  1.0
  H  H14  1  0.85386000  0.69603000  0.02663000  1.0
  H  H15  1  0.14615000  0.30397000  0.97337000  1.0
  C  C16  1  0.02555000  0.45643000  0.33036000  1.0
  C  C17  1  0.97444000  0.54357000  0.66964000  1.0
  C  C18  1  0.34121000  0.94626000  0.66178000  1.0
  C  C19  1  0.65880000  0.05374000  0.33822000  1.0
  C  C20  1  0.58084000  0.22829000  0.87512000  1.0
  C  C21  1  0.41916000  0.77171000  0.12489000  1.0
  C  C22  1  0.85298000  0.99727000  0.75711000  1.0
  C  C23  1  0.14702000  0.00273000  0.24289000  1.0
  C  C24  1  0.80833000  0.96660000  0.91356000  1.0
  C  C25  1  0.19167000  0.03340000  0.08644000  1.0
  C  C26  1  0.76141000  0.13868000  0.66480000  1.0
  C  C27  1  0.23858000  0.86132000  0.33520000  1.0
  C  C28  1  0.66995000  0.08780000  0.96997000  1.0
  C  C29  1  0.33005000  0.91221000  0.03003000  1.0
  C  C30  1  0.90091000  0.80957000  0.01505000  1.0
  C  C31  1  0.09909000  0.19043000  0.98495000  1.0
  S  S32  1  0.32134000  0.74869000  0.70491000  1.0
  S  S33  1  0.67867000  0.25130000  0.29509000  1.0
  S  S34  1  0.23173000  0.39267000  0.25290000  1.0
  S  S35  1  0.76827000  0.60733000  0.74710000  1.0
  N  N36  1  0.87644000  0.50050000  0.38668000  1.0
  N  N37  1  0.12356000  0.49950000  0.61332000  1.0
  N  N38  1  0.62527000  0.25024000  0.72497000  1.0
  N  N39  1  0.37472000  0.74977000  0.27503000  1.0
  N  N40  1  0.35535000  0.08916000  0.63518000  1.0
  N  N41  1  0.64466000  0.91083000  0.36482000  1.0
  O  O42  1  0.53304000  0.38437000  0.63679000  1.0
  O  O43  1  0.46695000  0.61564000  0.36321000  1.0
