# generated using pymatgen
data_CuH8C12(NO2)2
_symmetry_space_group_name_H-M   'P 1'
_cell_length_a   8.65250000
_cell_length_b   8.65506325
_cell_length_c   17.31600000
_cell_angle_alpha   90.00450000
_cell_angle_beta   89.99990000
_cell_angle_gamma   60.00938914
_symmetry_Int_Tables_number   1
_chemical_formula_structural   CuH8C12(NO2)2
_chemical_formula_sum   'Cu3 H24 C36 N6 O12'
_cell_volume   1123.13288267
_cell_formula_units_Z   3
loop_
 _symmetry_equiv_pos_site_id
 _symmetry_equiv_pos_as_xyz
  1  'x, y, z'
loop_
 _atom_site_type_symbol
 _atom_site_label
 _atom_site_symmetry_multiplicity
 _atom_site_fract_x
 _atom_site_fract_y
 _atom_site_fract_z
 _atom_site_occupancy
  Cu  Cu0  1  0.53799000  0.00000000  1.00000000  1.0
  Cu  Cu1  1  0.99990000  0.46274000  0.33327000  1.0
  Cu  Cu2  1  0.46266000  0.53725000  0.66666667  1.0
  H  H3  1  0.25667000  0.80737000  0.22662000  1.0
  H  H4  1  0.35025000  0.61772000  0.34526000  1.0
  H  H5  1  0.67179000  0.47167000  0.38733000  1.0
  H  H6  1  0.79659000  0.70606000  0.20742000  1.0
  H  H7  1  0.80660000  0.93633000  0.55999000  1.0
  H  H8  1  0.61626000  0.03275000  0.67842000  1.0
  H  H9  1  0.47026000  0.85721000  0.72048000  1.0
  H  H10  1  0.70553000  0.49768000  0.54077000  1.0
  H  H11  1  0.93633000  0.25647000  0.89373000  1.0
  H  H12  1  0.03188000  0.34995000  0.01254000  1.0
  H  H13  1  0.85674000  0.67157000  0.05446000  1.0
  H  H14  1  0.49877000  0.79653000  0.87403000  1.0
  H  H15  1  0.06406000  0.19264000  0.77338000  1.0
  H  H16  1  0.96799000  0.38229000  0.65474000  1.0
  H  H17  1  0.14349000  0.52832000  0.61267000  1.0
  H  H18  1  0.50270000  0.29390000  0.79258000  1.0
  H  H19  1  0.74293000  0.06367000  0.44001000  1.0
  H  H20  1  0.64902000  0.96723000  0.32159000  1.0
  H  H21  1  0.32747000  0.14278000  0.27952000  1.0
  H  H22  1  0.20320000  0.50232000  0.45922000  1.0
  H  H23  1  0.19280000  0.74354000  0.10627000  1.0
  H  H24  1  0.38184000  0.65006000  0.98746000  1.0
  H  H25  1  0.52832000  0.32845000  0.94555000  1.0
  H  H26  1  0.29533000  0.20347000  0.12597000  1.0
  C  C27  1  0.47319000  0.87768000  0.13411000  1.0
  C  C28  1  0.52099000  0.76915000  0.20718000  1.0
  C  C29  1  0.39392000  0.74521000  0.24705000  1.0
  C  C30  1  0.44640000  0.63800000  0.31280000  1.0
  C  C31  1  0.62361000  0.55658000  0.33641000  1.0
  C  C32  1  0.69552000  0.68558000  0.23516000  1.0
  C  C33  1  0.87710000  0.64960000  0.46745000  1.0
  C  C34  1  0.76842000  0.71030000  0.54051000  1.0
  C  C35  1  0.74426000  0.86136000  0.58036000  1.0
  C  C36  1  0.63677000  0.91623000  0.64602000  1.0
  C  C37  1  0.55538000  0.82041000  0.66962000  1.0
  C  C38  1  0.68486000  0.61932000  0.56849000  1.0
  C  C39  1  0.65019000  0.47284000  0.80090000  1.0
  C  C40  1  0.71081000  0.52081000  0.87402000  1.0
  C  C41  1  0.86140000  0.39373000  0.91408000  1.0
  C  C42  1  0.91585000  0.44615000  0.97992000  1.0
  C  C43  1  0.82022000  0.62341000  0.00346000  1.0
  C  C44  1  0.62003000  0.69539000  0.90193000  1.0
  C  C45  1  0.35089000  0.12233000  0.86589000  1.0
  C  C46  1  0.29016000  0.23084000  0.79281000  1.0
  C  C47  1  0.13916000  0.25479000  0.75295000  1.0
  C  C48  1  0.08441000  0.36200000  0.68720000  1.0
  C  C49  1  0.18022000  0.44341000  0.66359000  1.0
  C  C50  1  0.38112000  0.31440000  0.76483000  1.0
  C  C51  1  0.52671000  0.35040000  0.53254000  1.0
  C  C52  1  0.47870000  0.28970000  0.45949000  1.0
  C  C53  1  0.60562000  0.13863000  0.41964000  1.0
  C  C54  1  0.55300000  0.08376000  0.35398000  1.0
  C  C55  1  0.37578000  0.17959000  0.33038000  1.0
  C  C56  1  0.30418000  0.38068000  0.43151000  1.0
  C  C57  1  0.12304000  0.52717000  0.19910000  1.0
  C  C58  1  0.23164000  0.47919000  0.12599000  1.0
  C  C59  1  0.25514000  0.60627000  0.08593000  1.0
  C  C60  1  0.36200000  0.55387000  0.02008000  1.0
  C  C61  1  0.44365000  0.37660000  0.99654000  1.0
  C  C62  1  0.31544000  0.30462000  0.09808000  1.0
  N  N63  1  0.74598000  0.58047000  0.29806000  1.0
  N  N64  1  0.57965000  0.67396000  0.63139000  1.0
  N  N65  1  0.67440000  0.74588000  0.96494000  1.0
  N  N66  1  0.32649000  0.41951000  0.70193000  1.0
  N  N67  1  0.25360000  0.32604000  0.36861000  1.0
  N  N68  1  0.42031000  0.25413000  0.03506000  1.0
  O  O69  1  0.32577000  0.92819000  0.10265000  1.0
  O  O70  1  0.59504000  0.91049000  0.10821000  1.0
  O  O71  1  0.92787000  0.74645000  0.43614000  1.0
  O  O72  1  0.90975000  0.49513000  0.44144000  1.0
  O  O73  1  0.74707000  0.32521000  0.76964000  1.0
  O  O74  1  0.49568000  0.59463000  0.77486000  1.0
  O  O75  1  0.25398000  0.07181000  0.89735000  1.0
  O  O76  1  0.50555000  0.08952000  0.89179000  1.0
  O  O77  1  0.67430000  0.25356000  0.56386000  1.0
  O  O78  1  0.40488000  0.50488000  0.55855000  1.0
  O  O79  1  0.07227000  0.67479000  0.23037000  1.0
  O  O80  1  0.09032000  0.40536000  0.22514000  1.0
