# generated using pymatgen
data_MgH12C16(N5O2)2
_symmetry_space_group_name_H-M   'P 1'
_cell_length_a   8.54338000
_cell_length_b   9.75389000
_cell_length_c   12.11440000
_cell_angle_alpha   67.84000000
_cell_angle_beta   69.37000000
_cell_angle_gamma   89.99110000
_symmetry_Int_Tables_number   1
_chemical_formula_structural   MgH12C16(N5O2)2
_chemical_formula_sum   'Mg2 H24 C32 N20 O8'
_cell_volume   864.66415751
_cell_formula_units_Z   2
loop_
 _symmetry_equiv_pos_site_id
 _symmetry_equiv_pos_as_xyz
  1  'x, y, z'
loop_
 _atom_site_type_symbol
 _atom_site_label
 _atom_site_symmetry_multiplicity
 _atom_site_fract_x
 _atom_site_fract_y
 _atom_site_fract_z
 _atom_site_occupancy
  Mg  Mg0  1  0.45339000  0.75005000  0.00004000  1.0
  Mg  Mg1  1  0.54661000  0.24995000  0.99996000  1.0
  H  H2  1  0.70920000  0.73559000  0.16121000  1.0
  H  H3  1  0.87010000  0.76439000  0.83887000  1.0
  H  H4  1  0.29080000  0.26441000  0.83879000  1.0
  H  H5  1  0.12990000  0.23561000  0.16113000  1.0
  H  H6  1  0.90871000  0.84784000  0.05062000  1.0
  H  H7  1  0.95900000  0.65206000  0.94954000  1.0
  H  H8  1  0.09129000  0.15216000  0.94938000  1.0
  H  H9  1  0.04100000  0.34793000  0.05046000  1.0
  H  H10  1  0.44716000  0.74295000  0.56811000  1.0
  H  H11  1  0.01546000  0.75740000  0.43187000  1.0
  H  H12  1  0.55284000  0.25705000  0.43189000  1.0
  H  H13  1  0.98454000  0.24260000  0.56813000  1.0
  H  H14  1  0.34923000  0.68484000  0.80330000  1.0
  H  H15  1  0.15275000  0.81571000  0.19665000  1.0
  H  H16  1  0.65076000  0.31517000  0.19670000  1.0
  H  H17  1  0.84725000  0.18429000  0.80335000  1.0
  H  H18  1  0.75344000  0.97017000  0.74691000  1.0
  H  H19  1  0.50039000  0.53000000  0.25317000  1.0
  H  H20  1  0.24656000  0.02983000  0.25309000  1.0
  H  H21  1  0.49962000  0.46999000  0.74684000  1.0
  H  H22  1  0.87073000  0.04073000  0.50862000  1.0
  H  H23  1  0.37946000  0.45935000  0.49147000  1.0
  H  H24  1  0.12927000  0.95927000  0.49138000  1.0
  H  H25  1  0.62054000  0.54065000  0.50853000  1.0
  C  C26  1  0.69855000  0.96031000  0.03088000  1.0
  C  C27  1  0.72922000  0.53965000  0.96911000  1.0
  C  C28  1  0.30145000  0.03969000  0.96913000  1.0
  C  C29  1  0.27078000  0.46035000  0.03089000  1.0
  C  C30  1  0.78039000  0.84859000  0.11433000  1.0
  C  C31  1  0.89444000  0.65137000  0.88573000  1.0
  C  C32  1  0.21962000  0.15141000  0.88568000  1.0
  C  C33  1  0.10556000  0.34862000  0.11427000  1.0
  C  C34  1  0.74363000  0.91732000  0.38404000  1.0
  C  C35  1  0.12778000  0.58288000  0.61598000  1.0
  C  C36  1  0.25637000  0.08268000  0.61596000  1.0
  C  C37  1  0.87222000  0.41712000  0.38402000  1.0
  C  C38  1  0.67044000  0.89373000  0.51947000  1.0
  C  C39  1  0.19007000  0.60655000  0.48055000  1.0
  C  C40  1  0.32956000  0.10627000  0.48053000  1.0
  C  C41  1  0.80993000  0.39345000  0.51945000  1.0
  C  C42  1  0.51894000  0.79570000  0.60391000  1.0
  C  C43  1  0.12300000  0.70465000  0.39608000  1.0
  C  C44  1  0.48105000  0.20430000  0.39609000  1.0
  C  C45  1  0.87701000  0.29535000  0.60391000  1.0
  C  C46  1  0.46418000  0.76310000  0.73465000  1.0
  C  C47  1  0.19901000  0.73735000  0.26532000  1.0
  C  C48  1  0.53581000  0.23691000  0.26535000  1.0
  C  C49  1  0.80100000  0.26265000  0.73467000  1.0
  C  C50  1  0.69014000  0.92189000  0.70315000  1.0
  C  C51  1  0.39330000  0.57832000  0.29690000  1.0
  C  C52  1  0.30986000  0.07811000  0.29685000  1.0
  C  C53  1  0.60670000  0.42168000  0.70310000  1.0
  C  C54  1  0.75473000  0.96114000  0.57085000  1.0
  C  C55  1  0.32568000  0.53903000  0.42921000  1.0
  C  C56  1  0.24527000  0.03886000  0.42915000  1.0
  C  C57  1  0.67432000  0.46097000  0.57079000  1.0
  N  N58  1  0.79516000  0.89088000  0.21302000  1.0
  N  N59  1  0.00796000  0.60904000  0.78708000  1.0
  N  N60  1  0.20484000  0.10912000  0.78699000  1.0
  N  N61  1  0.99203000  0.39096000  0.21292000  1.0
  N  N62  1  0.67790000  0.84529000  0.33123000  1.0
  N  N63  1  0.00909000  0.65481000  0.66879000  1.0
  N  N64  1  0.32210000  0.15471000  0.66877000  1.0
  N  N65  1  0.99091000  0.34519000  0.33121000  1.0
  N  N66  1  0.89522000  0.00412000  0.29840000  1.0
  N  N67  1  0.19366000  0.49599000  0.70168000  1.0
  N  N68  1  0.10478000  0.99588000  0.70160000  1.0
  N  N69  1  0.80634000  0.50400000  0.29832000  1.0
  N  N70  1  0.92589000  0.98666000  0.19045000  1.0
  N  N71  1  0.11621000  0.51333000  0.80969000  1.0
  N  N72  1  0.07411000  0.01334000  0.80955000  1.0
  N  N73  1  0.88379000  0.48667000  0.19030000  1.0
  N  N74  1  0.54950000  0.82180000  0.78530000  1.0
  N  N75  1  0.33484000  0.67852000  0.21472000  1.0
  N  N76  1  0.45050000  0.17820000  0.21470000  1.0
  N  N77  1  0.66517000  0.32148000  0.78528000  1.0
  O  O78  1  0.63826000  0.91244000  0.96858000  1.0
  O  O79  1  0.60681000  0.58751000  0.03158000  1.0
  O  O80  1  0.36175000  0.08757000  0.03142000  1.0
  O  O81  1  0.39319000  0.41249000  0.96842000  1.0
  O  O82  1  0.70540000  0.09119000  0.02728000  1.0
  O  O83  1  0.73245000  0.40881000  0.97261000  1.0
  O  O84  1  0.29460000  0.90881000  0.97272000  1.0
  O  O85  1  0.26755000  0.59119000  0.02739000  1.0
