# generated using pymatgen
data_CdH10C12(N3O)2
_symmetry_space_group_name_H-M   'P 1'
_cell_length_a   7.76851000
_cell_length_b   9.80501000
_cell_length_c   10.79310000
_cell_angle_alpha   85.54820000
_cell_angle_beta   72.43330000
_cell_angle_gamma   87.04410000
_symmetry_Int_Tables_number   1
_chemical_formula_structural   CdH10C12(N3O)2
_chemical_formula_sum   'Cd2 H20 C24 N12 O4'
_cell_volume   781.06840514
_cell_formula_units_Z   2
loop_
 _symmetry_equiv_pos_site_id
 _symmetry_equiv_pos_as_xyz
  1  'x, y, z'
loop_
 _atom_site_type_symbol
 _atom_site_label
 _atom_site_symmetry_multiplicity
 _atom_site_fract_x
 _atom_site_fract_y
 _atom_site_fract_z
 _atom_site_occupancy
  Cd  Cd0  1  0.09795000  0.15823000  0.60012000  1.0
  Cd  Cd1  1  0.90204000  0.84178000  0.39988000  1.0
  H  H2  1  0.35814000  0.26808000  0.76898000  1.0
  H  H3  1  0.64185000  0.73192000  0.23102000  1.0
  H  H4  1  0.57996000  0.17634000  0.88397000  1.0
  H  H5  1  0.42003000  0.82367000  0.11604000  1.0
  H  H6  1  0.69787000  0.93447000  0.85348000  1.0
  H  H7  1  0.30214000  0.06553000  0.14651000  1.0
  H  H8  1  0.58369000  0.79015000  0.71762000  1.0
  H  H9  1  0.41631000  0.20986000  0.28238000  1.0
  H  H10  1  0.26268000  0.44894000  0.64421000  1.0
  H  H11  1  0.73732000  0.55105000  0.35580000  1.0
  H  H12  1  0.19882000  0.57765000  0.26635000  1.0
  H  H13  1  0.80119000  0.42235000  0.73365000  1.0
  H  H14  1  0.74968000  0.10309000  0.04505000  1.0
  H  H15  1  0.25034000  0.89689000  0.95496000  1.0
  H  H16  1  0.82177000  0.27536000  0.04145000  1.0
  H  H17  1  0.17824000  0.72462000  0.95856000  1.0
  H  H18  1  0.96384000  0.13002000  0.05975000  1.0
  H  H19  1  0.03617000  0.86997000  0.94026000  1.0
  H  H20  1  0.47540000  0.69059000  0.57357000  1.0
  H  H21  1  0.52461000  0.30942000  0.42642000  1.0
  C  C22  1  0.41134000  0.16293000  0.75975000  1.0
  C  C23  1  0.58865000  0.83707000  0.24026000  1.0
  C  C24  1  0.53353000  0.11082000  0.82431000  1.0
  C  C25  1  0.46647000  0.88918000  0.17568000  1.0
  C  C26  1  0.59693000  0.97564000  0.80830000  1.0
  C  C27  1  0.40308000  0.02437000  0.19170000  1.0
  C  C28  1  0.53343000  0.89581000  0.73108000  1.0
  C  C29  1  0.46657000  0.10420000  0.26891000  1.0
  C  C30  1  0.40832000  0.95579000  0.67169000  1.0
  C  C31  1  0.59167000  0.04422000  0.32831000  1.0
  C  C32  1  0.32501000  0.87929000  0.59540000  1.0
  C  C33  1  0.67498000  0.12072000  0.40459000  1.0
  C  C34  1  0.24681000  0.71099000  0.50207000  1.0
  C  C35  1  0.75320000  0.28901000  0.49792000  1.0
  C  C36  1  0.24085000  0.57401000  0.46532000  1.0
  C  C37  1  0.75915000  0.42599000  0.53469000  1.0
  C  C38  1  0.25640000  0.45663000  0.54467000  1.0
  C  C39  1  0.74359000  0.54337000  0.45533000  1.0
  C  C40  1  0.21914000  0.52161000  0.35208000  1.0
  C  C41  1  0.78086000  0.47839000  0.64793000  1.0
  C  C42  1  0.94452000  0.16974000  0.86577000  1.0
  C  C43  1  0.05548000  0.83027000  0.13424000  1.0
  C  C44  1  0.86418000  0.17152000  0.01163000  1.0
  C  C45  1  0.13582000  0.82846000  0.98838000  1.0
  N  N46  1  0.35122000  0.08765000  0.68402000  1.0
  N  N47  1  0.64876000  0.91235000  0.31599000  1.0
  N  N48  1  0.19594000  0.92742000  0.54514000  1.0
  N  N49  1  0.80405000  0.07258000  0.45486000  1.0
  N  N50  1  0.14619000  0.82281000  0.48693000  1.0
  N  N51  1  0.85381000  0.17719000  0.51306000  1.0
  N  N52  1  0.35989000  0.74501000  0.57007000  1.0
  N  N53  1  0.64011000  0.25499000  0.42992000  1.0
  N  N54  1  0.22354000  0.38475000  0.36238000  1.0
  N  N55  1  0.77645000  0.61524000  0.63762000  1.0
  N  N56  1  0.24524000  0.34437000  0.48246000  1.0
  N  N57  1  0.75475000  0.65562000  0.51754000  1.0
  O  O58  1  0.95263000  0.05608000  0.81325000  1.0
  O  O59  1  0.04737000  0.94392000  0.18675000  1.0
  O  O60  1  0.00243000  0.28013000  0.79845000  1.0
  O  O61  1  0.99755000  0.71988000  0.20156000  1.0
