# generated using pymatgen
data_Al2H16C22N4O11
_symmetry_space_group_name_H-M   'P 1'
_cell_length_a   6.71838000
_cell_length_b   11.14862520
_cell_length_c   16.75890000
_cell_angle_alpha   99.98557437
_cell_angle_beta   94.95440000
_cell_angle_gamma   107.51147071
_symmetry_Int_Tables_number   1
_chemical_formula_structural   Al2H16C22N4O11
_chemical_formula_sum   'Al2 H16 C22 N4 O11'
_cell_volume   1166.05058070
_cell_formula_units_Z   1
loop_
 _symmetry_equiv_pos_site_id
 _symmetry_equiv_pos_as_xyz
  1  'x, y, z'
loop_
 _atom_site_type_symbol
 _atom_site_label
 _atom_site_symmetry_multiplicity
 _atom_site_fract_x
 _atom_site_fract_y
 _atom_site_fract_z
 _atom_site_occupancy
  Al  Al0  1  0.00053000  0.49954000  0.49976000  1.0
  Al  Al1  1  0.49796000  0.49407000  0.49957000  1.0
  H  H2  1  0.15536000  0.34752000  0.43123000  1.0
  H  H3  1  0.83337000  0.63286000  0.58477000  1.0
  H  H4  1  0.57248000  0.43295000  0.72134000  1.0
  H  H5  1  0.64454000  0.42695000  0.87046000  1.0
  H  H6  1  0.09862000  0.54069000  0.91244000  1.0
  H  H7  1  0.94459000  0.54714000  0.09995000  1.0
  H  H8  1  0.27804000  0.43156000  0.11087000  1.0
  H  H9  1  0.35475000  0.43148000  0.26046000  1.0
  H  H10  1  0.24175000  0.11507000  0.50270000  1.0
  H  H11  1  0.88045000  0.11447000  0.49221000  1.0
  H  H12  1  0.13031000  0.88234000  0.50559000  1.0
  H  H13  1  0.94515000  0.53777000  0.69833000  1.0
  H  H14  1  0.88476000  0.56482000  0.79814000  1.0
  H  H15  1  0.09690000  0.54825000  0.31441000  1.0
  H  H16  1  0.18489000  0.57580000  0.22140000  1.0
  H  H17  1  0.72500000  0.78062000  0.49305000  1.0
  C  C18  1  0.63402000  0.26824000  0.49514000  1.0
  C  C19  1  0.71607000  0.48997000  0.35334000  1.0
  C  C20  1  0.36801000  0.72841000  0.50331000  1.0
  C  C21  1  0.28261000  0.50306000  0.64626000  1.0
  C  C22  1  0.30292000  0.49479000  0.73322000  1.0
  C  C23  1  0.47385000  0.45962000  0.76489000  1.0
  C  C24  1  0.51497000  0.45647000  0.84647000  1.0
  C  C25  1  0.37894000  0.48980000  0.89972000  1.0
  C  C26  1  0.20322000  0.51897000  0.86982000  1.0
  C  C27  1  0.15983000  0.52225000  0.78624000  1.0
  C  C28  1  0.81674000  0.52354000  0.13648000  1.0
  C  C29  1  0.61022000  0.49335000  0.09852000  1.0
  C  C30  1  0.43860000  0.45943000  0.14257000  1.0
  C  C31  1  0.48216000  0.45899000  0.22442000  1.0
  C  C32  1  0.68983000  0.49182000  0.26550000  1.0
  C  C33  1  0.86323000  0.52482000  0.22076000  1.0
  C  C34  1  0.44005000  0.86619000  0.50090000  1.0
  C  C35  1  0.56778000  0.12854000  0.49702000  1.0
  C  C36  1  0.65402000  0.93231000  0.49622000  1.0
  C  C37  1  0.35536000  0.06312000  0.50098000  1.0
  C  C38  1  0.71591000  0.06371000  0.49490000  1.0
  C  C39  1  0.29404000  0.93375000  0.50295000  1.0
  N  N40  1  0.40510000  0.49274000  0.98472000  1.0
  N  N41  1  0.58720000  0.49586000  0.01415000  1.0
  N  N42  1  0.98966000  0.55461000  0.75979000  1.0
  N  N43  1  0.06727000  0.55862000  0.25597000  1.0
  O  O44  1  0.82690000  0.32408000  0.48986000  1.0
  O  O45  1  0.55321000  0.47748000  0.38948000  1.0
  O  O46  1  0.50777000  0.66976000  0.49982000  1.0
  O  O47  1  0.10527000  0.50482000  0.61146000  1.0
  O  O48  1  0.17600000  0.67405000  0.50881000  1.0
  O  O49  1  0.44518000  0.51017000  0.61045000  1.0
  O  O50  1  0.49117000  0.32195000  0.49879000  1.0
  O  O51  1  0.89934000  0.50005000  0.38926000  1.0
  O  O52  1  0.20937000  0.43650000  0.46035000  1.0
  O  O53  1  0.78838000  0.55978000  0.53904000  1.0
  O  O54  1  0.80180000  0.87285000  0.49279000  1.0
