# generated using pymatgen
data_AlH8C11(NO3)2
_symmetry_space_group_name_H-M   'P 1'
_cell_length_a   6.72682000
_cell_length_b   11.12334972
_cell_length_c   16.77660000
_cell_angle_alpha   97.08367629
_cell_angle_beta   95.35240000
_cell_angle_gamma   106.61642110
_symmetry_Int_Tables_number   1
_chemical_formula_structural   AlH8C11(NO3)2
_chemical_formula_sum   'Al2 H16 C22 N4 O12'
_cell_volume   1182.74619835
_cell_formula_units_Z   2
loop_
 _symmetry_equiv_pos_site_id
 _symmetry_equiv_pos_as_xyz
  1  'x, y, z'
loop_
 _atom_site_type_symbol
 _atom_site_label
 _atom_site_symmetry_multiplicity
 _atom_site_fract_x
 _atom_site_fract_y
 _atom_site_fract_z
 _atom_site_occupancy
  Al  Al0  1  0.00009000  0.49640000  0.50014000  1.0
  Al  Al1  1  0.50016000  0.49543000  0.50075000  1.0
  H  H2  1  0.17267000  0.37833000  0.41190000  1.0
  H  H3  1  0.83866000  0.64251000  0.56926000  1.0
  H  H4  1  0.57510000  0.43246000  0.72501000  1.0
  H  H5  1  0.64761000  0.42987000  0.87464000  1.0
  H  H6  1  0.09878000  0.54387000  0.90980000  1.0
  H  H7  1  0.94042000  0.54827000  0.09995000  1.0
  H  H8  1  0.27900000  0.43412000  0.11308000  1.0
  H  H9  1  0.35430000  0.43125000  0.26193000  1.0
  H  H10  1  0.87365000  0.10591000  0.48882000  1.0
  H  H11  1  0.12902000  0.88772000  0.51093000  1.0
  H  H12  1  0.94543000  0.53984000  0.69514000  1.0
  H  H13  1  0.88701000  0.56906000  0.79385000  1.0
  H  H14  1  0.09367000  0.55626000  0.31554000  1.0
  H  H15  1  0.18003000  0.58384000  0.22165000  1.0
  H  H16  1  0.71311000  0.77375000  0.48252000  1.0
  H  H17  1  0.28541000  0.21881000  0.51545000  1.0
  C  C18  1  0.64202000  0.26749000  0.50115000  1.0
  C  C19  1  0.71429000  0.48809000  0.35405000  1.0
  C  C20  1  0.36062000  0.72613000  0.49989000  1.0
  C  C21  1  0.28206000  0.50021000  0.64571000  1.0
  C  C22  1  0.30380000  0.49458000  0.73312000  1.0
  C  C23  1  0.47572000  0.46010000  0.76690000  1.0
  C  C24  1  0.51701000  0.45857000  0.84881000  1.0
  C  C25  1  0.37976000  0.49241000  0.90004000  1.0
  C  C26  1  0.20355000  0.52148000  0.86827000  1.0
  C  C27  1  0.16050000  0.52386000  0.78435000  1.0
  C  C28  1  0.81371000  0.52460000  0.13695000  1.0
  C  C29  1  0.60867000  0.49501000  0.09949000  1.0
  C  C30  1  0.43833000  0.46100000  0.14416000  1.0
  C  C31  1  0.48150000  0.45929000  0.22588000  1.0
  C  C32  1  0.68775000  0.49148000  0.26646000  1.0
  C  C33  1  0.85983000  0.52544000  0.22116000  1.0
  C  C34  1  0.43399000  0.86436000  0.49893000  1.0
  C  C35  1  0.56883000  0.12902000  0.50118000  1.0
  C  C36  1  0.64651000  0.92754000  0.49158000  1.0
  C  C37  1  0.35582000  0.06579000  0.50794000  1.0
  C  C38  1  0.71033000  0.05868000  0.49327000  1.0
  C  C39  1  0.29246000  0.93471000  0.50662000  1.0
  N  N40  1  0.40501000  0.49568000  0.98506000  1.0
  N  N41  1  0.58626000  0.49798000  0.01506000  1.0
  N  N42  1  0.99100000  0.55728000  0.75599000  1.0
  N  N43  1  0.06251000  0.55872000  0.25552000  1.0
  O  O44  1  0.83169000  0.32245000  0.49446000  1.0
  O  O45  1  0.55219000  0.47489000  0.39052000  1.0
  O  O46  1  0.50046667  0.66666667  0.49514000  1.0
  O  O47  1  0.10357000  0.49881000  0.61003000  1.0
  O  O48  1  0.17004000  0.67203000  0.50587000  1.0
  O  O49  1  0.44399000  0.50797000  0.60995000  1.0
  O  O50  1  0.50242000  0.32639000  0.50737000  1.0
  O  O51  1  0.89773000  0.49748000  0.38966000  1.0
  O  O52  1  0.21267000  0.43567000  0.46300000  1.0
  O  O53  1  0.78827000  0.55815000  0.53760000  1.0
  O  O54  1  0.79073000  0.86473000  0.48244000  1.0
  O  O55  1  0.21025000  0.12757000  0.51599000  1.0
