# generated using pymatgen
data_HgH10C10(BrN2)2
_symmetry_space_group_name_H-M   'P 1'
_cell_length_a   9.03539000
_cell_length_b   10.28560000
_cell_length_c   15.60320000
_cell_angle_alpha   90.00000000
_cell_angle_beta   90.00000000
_cell_angle_gamma   94.65640000
_symmetry_Int_Tables_number   1
_chemical_formula_structural   HgH10C10(BrN2)2
_chemical_formula_sum   'Hg4 H40 C40 Br8 N16'
_cell_volume   1445.28810376
_cell_formula_units_Z   4
loop_
 _symmetry_equiv_pos_site_id
 _symmetry_equiv_pos_as_xyz
  1  'x, y, z'
loop_
 _atom_site_type_symbol
 _atom_site_label
 _atom_site_symmetry_multiplicity
 _atom_site_fract_x
 _atom_site_fract_y
 _atom_site_fract_z
 _atom_site_occupancy
  Hg  Hg0  1  0.78848000  0.78391000  0.92318000  1.0
  Hg  Hg1  1  0.71152000  0.21610000  0.42318000  1.0
  Hg  Hg2  1  0.21151000  0.21609000  0.07682000  1.0
  Hg  Hg3  1  0.28847000  0.78390000  0.57682000  1.0
  H  H4  1  0.79552000  0.05380000  0.81837000  1.0
  H  H5  1  0.70447000  0.94621000  0.31837000  1.0
  H  H6  1  0.20448000  0.94620000  0.18163000  1.0
  H  H7  1  0.29553000  0.05379000  0.68163000  1.0
  H  H8  1  0.15430000  0.89939000  0.93660000  1.0
  H  H9  1  0.34569000  0.10062000  0.43660000  1.0
  H  H10  1  0.84571000  0.10061000  0.06340000  1.0
  H  H11  1  0.65431000  0.89938000  0.56340000  1.0
  H  H12  1  0.32789000  0.07552000  0.86907000  1.0
  H  H13  1  0.17210000  0.92449000  0.36907000  1.0
  H  H14  1  0.67211000  0.92448000  0.13093000  1.0
  H  H15  1  0.82790000  0.07552000  0.63093000  1.0
  H  H16  1  0.07614000  0.35373000  0.64904000  1.0
  H  H17  1  0.42385000  0.64628000  0.14904000  1.0
  H  H18  1  0.92386000  0.64627000  0.35096000  1.0
  H  H19  1  0.57614000  0.35372000  0.85096000  1.0
  H  H20  1  0.13176000  0.39600000  0.75527000  1.0
  H  H21  1  0.36824000  0.60400000  0.25527000  1.0
  H  H22  1  0.86824000  0.60399000  0.24474000  1.0
  H  H23  1  0.63176000  0.39600000  0.74474000  1.0
  H  H24  1  0.87990000  0.46668000  0.57756000  1.0
  H  H25  1  0.62010000  0.53333000  0.07756000  1.0
  H  H26  1  0.12010000  0.53332000  0.42244000  1.0
  H  H27  1  0.37990000  0.46668000  0.92244000  1.0
  H  H28  1  0.71357000  0.65032000  0.58232000  1.0
  H  H29  1  0.78642000  0.34968000  0.08232000  1.0
  H  H30  1  0.28642000  0.34967000  0.41768000  1.0
  H  H31  1  0.21358000  0.65033000  0.91768000  1.0
  H  H32  1  0.68303000  0.76656000  0.72196000  1.0
  H  H33  1  0.81697000  0.23345000  0.22196000  1.0
  H  H34  1  0.31697000  0.23345000  0.27803000  1.0
  H  H35  1  0.18303000  0.76655000  0.77804000  1.0
  H  H36  1  0.96126000  0.52910000  0.84782000  1.0
  H  H37  1  0.53874000  0.47091000  0.34782000  1.0
  H  H38  1  0.03875000  0.47090000  0.15218000  1.0
  H  H39  1  0.46126000  0.52909000  0.65218000  1.0
  H  H40  1  0.83905000  0.24326000  0.73538000  1.0
  H  H41  1  0.66095000  0.75675000  0.23538000  1.0
  H  H42  1  0.16095000  0.75674000  0.26462000  1.0
  H  H43  1  0.33905000  0.24325000  0.76462000  1.0
  C  C44  1  0.91525000  0.05942000  0.82958000  1.0
  C  C45  1  0.58474000  0.94059000  0.32958000  1.0
  C  C46  1  0.08475000  0.94058000  0.17042000  1.0
  C  C47  1  0.41526000  0.05941000  0.67043000  1.0
  C  C48  1  0.11478000  0.97365000  0.89452000  1.0
  C  C49  1  0.38522000  0.02635000  0.39452000  1.0
  C  C50  1  0.88523000  0.02634000  0.10548000  1.0
  C  C51  1  0.61478000  0.97365000  0.60548000  1.0
  C  C52  1  0.20815000  0.07171000  0.85788000  1.0
  C  C53  1  0.29184000  0.92829000  0.35788000  1.0
  C  C54  1  0.79185000  0.92828000  0.14211000  1.0
  C  C55  1  0.70815000  0.07171000  0.64212000  1.0
  C  C56  1  0.01155000  0.16259000  0.79413000  1.0
  C  C57  1  0.48845000  0.83742000  0.29413000  1.0
  C  C58  1  0.98846000  0.83741000  0.20587000  1.0
  C  C59  1  0.51155000  0.16259000  0.70588000  1.0
  C  C60  1  0.03453000  0.37214000  0.71419000  1.0
  C  C61  1  0.46546000  0.62787000  0.21419000  1.0
  C  C62  1  0.96547000  0.62786000  0.28582000  1.0
  C  C63  1  0.53454000  0.37213000  0.78582000  1.0
  C  C64  1  0.93660000  0.48436000  0.71200000  1.0
  C  C65  1  0.56339000  0.51565000  0.21200000  1.0
  C  C66  1  0.06340000  0.51564000  0.28799000  1.0
  C  C67  1  0.43661000  0.48435000  0.78800000  1.0
  C  C68  1  0.86500000  0.51972000  0.63714000  1.0
  C  C69  1  0.63500000  0.48029000  0.13714000  1.0
  C  C70  1  0.13500000  0.48028000  0.36286000  1.0
  C  C71  1  0.36500000  0.51972000  0.86286000  1.0
  C  C72  1  0.77259000  0.62185000  0.63933000  1.0
  C  C73  1  0.72741000  0.37816000  0.13933000  1.0
  C  C74  1  0.22742000  0.37815000  0.36066000  1.0
  C  C75  1  0.27259000  0.62184000  0.86067000  1.0
  C  C76  1  0.75416000  0.68603000  0.71663000  1.0
  C  C77  1  0.74583000  0.31397000  0.21662000  1.0
  C  C78  1  0.24584000  0.31397000  0.28337000  1.0
  C  C79  1  0.25417000  0.68603000  0.78338000  1.0
  C  C80  1  0.90998000  0.55358000  0.78703000  1.0
  C  C81  1  0.59002000  0.44643000  0.28703000  1.0
  C  C82  1  0.09002000  0.44642000  0.21297000  1.0
  C  C83  1  0.40998000  0.55357000  0.71297000  1.0
  Br  Br84  1  0.55524000  0.89086000  0.88711000  1.0
  Br  Br85  1  0.94476000  0.10915000  0.38712000  1.0
  Br  Br86  1  0.44475000  0.10915000  0.11288000  1.0
  Br  Br87  1  0.05524000  0.89085000  0.61289000  1.0
  Br  Br88  1  0.95811000  0.66458000  0.01744000  1.0
  Br  Br89  1  0.54188000  0.33542000  0.51744000  1.0
  Br  Br90  1  0.04189000  0.33543000  0.98255000  1.0
  Br  Br91  1  0.45812000  0.66458000  0.48257000  1.0
  N  N92  1  0.96750000  0.96829000  0.87774000  1.0
  N  N93  1  0.53249000  0.03172000  0.37774000  1.0
  N  N94  1  0.03250000  0.03171000  0.12226000  1.0
  N  N95  1  0.46751000  0.96829000  0.62226000  1.0
  N  N96  1  0.15952000  0.16447000  0.80666000  1.0
  N  N97  1  0.34047000  0.83553000  0.30666000  1.0
  N  N98  1  0.84048000  0.83552000  0.19334000  1.0
  N  N99  1  0.65952000  0.16447000  0.69334000  1.0
  N  N100  1  0.95162000  0.25718000  0.74898000  1.0
  N  N101  1  0.54838000  0.74282000  0.24898000  1.0
  N  N102  1  0.04838000  0.74282000  0.25102000  1.0
  N  N103  1  0.45162000  0.25718000  0.75102000  1.0
  N  N104  1  0.82155000  0.65208000  0.78912000  1.0
  N  N105  1  0.67845000  0.34793000  0.28912000  1.0
  N  N106  1  0.17845000  0.34792000  0.21087000  1.0
  N  N107  1  0.32155000  0.65207000  0.71088000  1.0
