# generated using pymatgen
data_NdH15C23N4O7
_symmetry_space_group_name_H-M   'P 1'
_cell_length_a   7.46144000
_cell_length_b   16.94420000
_cell_length_c   19.75210000
_cell_angle_alpha   104.35600000
_cell_angle_beta   89.99270000
_cell_angle_gamma   102.72000000
_symmetry_Int_Tables_number   1
_chemical_formula_structural   NdH15C23N4O7
_chemical_formula_sum   'Nd4 H60 C92 N16 O28'
_cell_volume   2355.94578897
_cell_formula_units_Z   4
loop_
 _symmetry_equiv_pos_site_id
 _symmetry_equiv_pos_as_xyz
  1  'x, y, z'
loop_
 _atom_site_type_symbol
 _atom_site_label
 _atom_site_symmetry_multiplicity
 _atom_site_fract_x
 _atom_site_fract_y
 _atom_site_fract_z
 _atom_site_occupancy
  Nd  Nd0  1  0.73352000  0.95728000  0.52346000  1.0
  Nd  Nd1  1  0.77635000  0.04282000  0.97653000  1.0
  Nd  Nd2  1  0.26648000  0.04272000  0.47654000  1.0
  Nd  Nd3  1  0.22365000  0.95718000  0.02347000  1.0
  H  H4  1  0.46670000  0.81602000  0.57712000  1.0
  H  H5  1  0.65083000  0.18407000  0.92278000  1.0
  H  H6  1  0.53330000  0.18398000  0.42288000  1.0
  H  H7  1  0.34917000  0.81593000  0.07722000  1.0
  H  H8  1  0.40247000  0.90249000  0.61093000  1.0
  H  H9  1  0.50022000  0.09756000  0.88905000  1.0
  H  H10  1  0.59753000  0.09751000  0.38907000  1.0
  H  H11  1  0.49978000  0.90245000  0.11095000  1.0
  H  H12  1  0.58152000  0.05497000  0.70292000  1.0
  H  H13  1  0.52634000  0.94508000  0.79702000  1.0
  H  H14  1  0.41847000  0.94503000  0.29708000  1.0
  H  H15  1  0.47366000  0.05492000  0.20298000  1.0
  H  H16  1  0.79581000  0.12036000  0.81029000  1.0
  H  H17  1  0.67516000  0.87960000  0.68963000  1.0
  H  H18  1  0.20419000  0.87963000  0.18971000  1.0
  H  H19  1  0.32484000  0.12040000  0.31037000  1.0
  H  H20  1  0.99586000  0.26298000  0.82023000  1.0
  H  H21  1  0.73293000  0.73706000  0.67981000  1.0
  H  H22  1  0.00414000  0.73701000  0.17977000  1.0
  H  H23  1  0.26707000  0.26294000  0.32019000  1.0
  H  H24  1  0.85534000  0.47635000  0.60669000  1.0
  H  H25  1  0.37897000  0.52383000  0.89340000  1.0
  H  H26  1  0.14466000  0.52365000  0.39332000  1.0
  H  H27  1  0.62102000  0.47618000  0.10660000  1.0
  H  H28  1  0.02719000  0.43717000  0.49827000  1.0
  H  H29  1  0.59037000  0.56293000  0.00167000  1.0
  H  H30  1  0.97281000  0.56283000  0.50173000  1.0
  H  H31  1  0.40962000  0.43707000  0.99833000  1.0
  H  H32  1  0.07030000  0.28926000  0.46063000  1.0
  H  H33  1  0.78114000  0.71093000  0.03938000  1.0
  H  H34  1  0.92970000  0.71075000  0.53937000  1.0
  H  H35  1  0.21886000  0.28907000  0.96062000  1.0
  H  H36  1  0.42163000  0.21694000  0.86566000  1.0
  H  H37  1  0.20445000  0.78297000  0.63419000  1.0
  H  H38  1  0.57837000  0.78306000  0.13434000  1.0
  H  H39  1  0.79556000  0.21703000  0.36581000  1.0
  H  H40  1  0.37398000  0.28019000  0.76662000  1.0
  H  H41  1  0.09373000  0.71969000  0.73323000  1.0
  H  H42  1  0.62602000  0.71981000  0.23338000  1.0
  H  H43  1  0.90627000  0.28031000  0.26677000  1.0
  H  H44  1  0.20077000  0.18649000  0.65687000  1.0
  H  H45  1  0.01461000  0.81342000  0.84308000  1.0
  H  H46  1  0.79923000  0.81351000  0.34313000  1.0
  H  H47  1  0.98539000  0.18658000  0.15692000  1.0
  H  H48  1  0.43740000  0.27119000  0.53472000  1.0
  H  H49  1  0.16645000  0.72882000  0.96540000  1.0
  H  H50  1  0.56261000  0.72881000  0.46528000  1.0
  H  H51  1  0.83355000  0.27118000  0.03460000  1.0
  H  H52  1  0.39662000  0.41507000  0.57843000  1.0
  H  H53  1  0.98184000  0.58495000  0.92161000  1.0
  H  H54  1  0.60339000  0.58493000  0.42157000  1.0
  H  H55  1  0.01816000  0.41505000  0.07839000  1.0
  H  H56  1  0.63253000  0.46749000  0.38916000  1.0
  H  H57  1  0.16518000  0.53238000  0.11083000  1.0
  H  H58  1  0.36747000  0.53251000  0.61084000  1.0
  H  H59  1  0.83482000  0.46762000  0.88917000  1.0
  H  H60  1  0.65753000  0.32113000  0.35328000  1.0
  H  H61  1  0.33644000  0.67876000  0.14679000  1.0
  H  H62  1  0.34247000  0.67887000  0.64672000  1.0
  H  H63  1  0.66356000  0.32124000  0.85321000  1.0
  C  C64  1  0.67520000  0.11585000  0.70935000  1.0
  C  C65  1  0.55915000  0.88421000  0.79060000  1.0
  C  C66  1  0.32480000  0.88415000  0.29064000  1.0
  C  C67  1  0.44086000  0.11579000  0.20940000  1.0
  C  C68  1  0.79168000  0.15224000  0.76902000  1.0
  C  C69  1  0.63924000  0.84776000  0.73093000  1.0
  C  C70  1  0.20832000  0.84776000  0.23098000  1.0
  C  C71  1  0.36076000  0.15224000  0.26907000  1.0
  C  C72  1  0.90446000  0.23093000  0.77372000  1.0
  C  C73  1  0.67348000  0.76911000  0.72629000  1.0
  C  C74  1  0.09554000  0.76907000  0.22628000  1.0
  C  C75  1  0.32653000  0.23088000  0.27371000  1.0
  C  C76  1  0.80456000  0.23454000  0.66414000  1.0
  C  C77  1  0.56998000  0.76558000  0.83589000  1.0
  C  C78  1  0.19544000  0.76546000  0.33586000  1.0
  C  C79  1  0.43002000  0.23442000  0.16411000  1.0
  C  C80  1  0.67598000  0.15782000  0.65657000  1.0
  C  C81  1  0.51811000  0.84229000  0.84342000  1.0
  C  C82  1  0.32402000  0.84218000  0.34342000  1.0
  C  C83  1  0.48189000  0.15771000  0.15658000  1.0
  C  C84  1  0.84425000  0.28250000  0.60907000  1.0
  C  C85  1  0.56170000  0.71765000  0.89097000  1.0
  C  C86  1  0.15575000  0.71750000  0.39093000  1.0
  C  C87  1  0.43830000  0.28235000  0.10902000  1.0
  C  C88  1  0.88151000  0.41363000  0.58885000  1.0
  C  C89  1  0.46794000  0.58653000  0.91119000  1.0
  C  C90  1  0.11849000  0.58638000  0.41116000  1.0
  C  C91  1  0.53206000  0.41347000  0.08881000  1.0
  C  C92  1  0.97414000  0.39171000  0.52809000  1.0
  C  C93  1  0.58263000  0.60842000  0.97190000  1.0
  C  C94  1  0.02586000  0.60829000  0.47191000  1.0
  C  C95  1  0.41737000  0.39158000  0.02810000  1.0
  C  C96  1  0.99726000  0.31020000  0.50706000  1.0
  C  C97  1  0.68717000  0.68995000  0.99295000  1.0
  C  C98  1  0.00274000  0.68980000  0.49294000  1.0
  C  C99  1  0.31283000  0.31005000  0.00704000  1.0
  C  C100  1  0.92789000  0.25294000  0.54623000  1.0
  C  C101  1  0.67489000  0.74721000  0.95381000  1.0
  C  C102  1  0.07211000  0.74706000  0.45377000  1.0
  C  C103  1  0.32511000  0.25279000  0.04618000  1.0
  C  C104  1  0.53874000  0.11914000  0.59613000  1.0
  C  C105  1  0.41961000  0.88098000  0.90390000  1.0
  C  C106  1  0.46126000  0.88086000  0.40387000  1.0
  C  C107  1  0.58038000  0.11902000  0.09610000  1.0
  C  C108  1  0.95490000  0.16514000  0.52018000  1.0
  C  C109  1  0.78951000  0.83503000  0.97989000  1.0
  C  C110  1  0.04510000  0.83486000  0.47983000  1.0
  C  C111  1  0.21048000  0.16497000  0.02011000  1.0
  C  C112  1  0.35204000  0.17810000  0.81606000  1.0
  C  C113  1  0.17385000  0.82180000  0.68383000  1.0
  C  C114  1  0.64796000  0.82190000  0.18394000  1.0
  C  C115  1  0.82616000  0.17820000  0.31617000  1.0
  C  C116  1  0.32436000  0.21338000  0.76148000  1.0
  C  C117  1  0.11092000  0.78651000  0.73841000  1.0
  C  C118  1  0.67564000  0.78662000  0.23852000  1.0
  C  C119  1  0.88908000  0.21349000  0.26159000  1.0
  C  C120  1  0.22871000  0.16140000  0.70040000  1.0
  C  C121  1  0.06747000  0.83849000  0.79952000  1.0
  C  C122  1  0.77129000  0.83860000  0.29960000  1.0
  C  C123  1  0.93253000  0.16151000  0.20048000  1.0
  C  C124  1  0.16364000  0.07636000  0.69611000  1.0
  C  C125  1  0.08734000  0.92352000  0.80381000  1.0
  C  C126  1  0.83636000  0.92364000  0.30389000  1.0
  C  C127  1  0.91266000  0.07648000  0.19619000  1.0
  C  C128  1  0.20808000  0.04551000  0.75239000  1.0
  C  C129  1  0.16257000  0.95439000  0.74752000  1.0
  C  C130  1  0.79192000  0.95449000  0.24761000  1.0
  C  C131  1  0.83744000  0.04561000  0.25248000  1.0
  C  C132  1  0.03469000  0.02442000  0.63548000  1.0
  C  C133  1  0.01040000  0.97544000  0.86448000  1.0
  C  C134  1  0.96531000  0.97557000  0.36452000  1.0
  C  C135  1  0.98960000  0.02456000  0.13552000  1.0
  C  C136  1  0.47743000  0.31664000  0.50378000  1.0
  C  C137  1  0.16106000  0.68333000  0.99629000  1.0
  C  C138  1  0.52257000  0.68337000  0.49622000  1.0
  C  C139  1  0.83894000  0.31667000  0.00371000  1.0
  C  C140  1  0.45601000  0.39827000  0.52803000  1.0
  C  C141  1  0.05804000  0.60171000  0.97200000  1.0
  C  C142  1  0.54399000  0.60173000  0.47197000  1.0
  C  C143  1  0.94196000  0.39829000  0.02799000  1.0
  C  C144  1  0.51038000  0.45632000  0.48796000  1.0
  C  C145  1  0.05422000  0.54364000  0.01205000  1.0
  C  C146  1  0.48962000  0.54368000  0.51204000  1.0
  C  C147  1  0.94578000  0.45636000  0.98795000  1.0
  C  C148  1  0.58627000  0.42722000  0.42390000  1.0
  C  C149  1  0.15925000  0.57268000  0.07610000  1.0
  C  C150  1  0.41373000  0.57278000  0.57610000  1.0
  C  C151  1  0.84075000  0.42732000  0.92389000  1.0
  C  C152  1  0.60197000  0.34455000  0.40351000  1.0
  C  C153  1  0.25757000  0.65536000  0.09654000  1.0
  C  C154  1  0.39803000  0.65545000  0.59649000  1.0
  C  C155  1  0.74243000  0.34464000  0.90345000  1.0
  N  N156  1  0.91432000  0.27080000  0.72263000  1.0
  N  N157  1  0.64353000  0.72930000  0.77742000  1.0
  N  N158  1  0.08568000  0.72920000  0.27738000  1.0
  N  N159  1  0.35647000  0.27071000  0.22258000  1.0
  N  N160  1  0.82194000  0.36145000  0.62919000  1.0
  N  N161  1  0.46041000  0.63872000  0.87087000  1.0
  N  N162  1  0.17806000  0.63855000  0.37081000  1.0
  N  N163  1  0.53959000  0.36128000  0.12913000  1.0
  N  N164  1  0.30049000  0.09581000  0.81154000  1.0
  N  N165  1  0.20463000  0.90410000  0.68836000  1.0
  N  N166  1  0.69952000  0.90419000  0.18846000  1.0
  N  N167  1  0.79538000  0.09590000  0.31164000  1.0
  N  N168  1  0.54865000  0.28941000  0.44221000  1.0
  N  N169  1  0.25938000  0.71054000  0.05788000  1.0
  N  N170  1  0.45135000  0.71060000  0.55779000  1.0
  N  N171  1  0.74062000  0.28946000  0.94211000  1.0
  O  O172  1  0.49774000  0.03838000  0.57381000  1.0
  O  O173  1  0.45928000  0.96173000  0.92624000  1.0
  O  O174  1  0.50226000  0.96162000  0.42619000  1.0
  O  O175  1  0.54072000  0.03827000  0.07376000  1.0
  O  O176  1  0.45611000  0.16341000  0.57025000  1.0
  O  O177  1  0.29276000  0.83667000  0.92980000  1.0
  O  O178  1  0.54389000  0.83660000  0.42975000  1.0
  O  O179  1  0.70724000  0.16334000  0.07020000  1.0
  O  O180  1  0.82421000  0.10619000  0.52713000  1.0
  O  O181  1  0.71785000  0.89396000  0.97285000  1.0
  O  O182  1  0.17579000  0.89381000  0.47287000  1.0
  O  O183  1  0.28214000  0.10604000  0.02714000  1.0
  O  O184  1  0.10572000  0.15690000  0.49224000  1.0
  O  O185  1  0.94845000  0.84328000  0.00790000  1.0
  O  O186  1  0.89428000  0.84310000  0.50776000  1.0
  O  O187  1  0.05154000  0.15672000  0.99209000  1.0
  O  O188  1  0.07713000  0.03046000  0.57378000  1.0
  O  O189  1  0.04690000  0.96943000  0.92617000  1.0
  O  O190  1  0.92287000  0.96954000  0.42622000  1.0
  O  O191  1  0.95309000  0.03057000  0.07383000  1.0
  O  O192  1  0.87993000  0.98238000  0.64617000  1.0
  O  O193  1  0.89760000  0.01748000  0.85382000  1.0
  O  O194  1  0.12007000  0.01762000  0.35383000  1.0
  O  O195  1  0.10240000  0.98252000  0.14618000  1.0
  O  O196  1  0.49641000  0.87872000  0.58328000  1.0
  O  O197  1  0.61796000  0.12138000  0.91665000  1.0
  O  O198  1  0.50360000  0.12128000  0.41672000  1.0
  O  O199  1  0.38204000  0.87862000  0.08335000  1.0
