# generated using pymatgen
data_B5H5PbCNO9
_symmetry_space_group_name_H-M   'P 1'
_cell_length_a   6.72655000
_cell_length_b   6.78697000
_cell_length_c   10.72090000
_cell_angle_alpha   99.53000000
_cell_angle_beta   93.33060000
_cell_angle_gamma   118.98900000
_symmetry_Int_Tables_number   1
_chemical_formula_structural   B5H5PbCNO9
_chemical_formula_sum   'B10 H10 Pb2 C2 N2 O18'
_cell_volume   416.74677993
_cell_formula_units_Z   2
loop_
 _symmetry_equiv_pos_site_id
 _symmetry_equiv_pos_as_xyz
  1  'x, y, z'
loop_
 _atom_site_type_symbol
 _atom_site_label
 _atom_site_symmetry_multiplicity
 _atom_site_fract_x
 _atom_site_fract_y
 _atom_site_fract_z
 _atom_site_occupancy
  B  B0  1  0.19170000  0.39420000  0.69360000  1.0
  B  B1  1  0.80830000  0.60580000  0.30640000  1.0
  B  B2  1  0.31765000  0.66336000  0.90197000  1.0
  B  B3  1  0.68234000  0.33664000  0.09803000  1.0
  B  B4  1  0.38584000  0.81896000  0.70214000  1.0
  B  B5  1  0.61416000  0.18104000  0.29786000  1.0
  B  B6  1  0.75779000  0.11307000  0.64978000  1.0
  B  B7  1  0.24221000  0.88693000  0.35022000  1.0
  B  B8  1  0.44668000  0.20213000  0.66844000  1.0
  B  B9  1  0.55332000  0.79787000  0.33156000  1.0
  H  H10  1  0.40802000  0.87032000  0.07505000  1.0
  H  H11  1  0.59198000  0.12968000  0.92496000  1.0
  H  H12  1  0.69198000  0.70392000  0.85822000  1.0
  H  H13  1  0.30802000  0.29608000  0.14178000  1.0
  H  H14  1  0.87319000  0.62141000  0.89837000  1.0
  H  H15  1  0.12681000  0.37859000  0.10163000  1.0
  H  H16  1  0.98549000  0.09803000  0.88304000  1.0
  H  H17  1  0.01452000  0.90197000  0.11695000  1.0
  H  H18  1  0.19283000  0.02305000  0.92271000  1.0
  H  H19  1  0.80717000  0.97695000  0.07729000  1.0
  Pb  Pb20  1  0.86294000  0.68682000  0.61753000  1.0
  Pb  Pb21  1  0.13706000  0.31318000  0.38247000  1.0
  C  C22  1  0.01510000  0.98079000  0.92997000  1.0
  C  C23  1  0.98490000  0.01921000  0.07003000  1.0
  N  N24  1  0.85883000  0.74186000  0.85768000  1.0
  N  N25  1  0.14116000  0.25814000  0.14231000  1.0
  O  O26  1  0.30220000  0.98123000  0.67974000  1.0
  O  O27  1  0.69779000  0.01876000  0.32026000  1.0
  O  O28  1  0.60559000  0.88768000  0.65074000  1.0
  O  O29  1  0.39440000  0.11232000  0.34926000  1.0
  O  O30  1  0.67977000  0.27083000  0.66057000  1.0
  O  O31  1  0.32023000  0.72917000  0.33943000  1.0
  O  O32  1  0.39159000  0.36698000  0.65915000  1.0
  O  O33  1  0.60841000  0.63302000  0.34085000  1.0
  O  O34  1  0.97800000  0.17386000  0.63375000  1.0
  O  O35  1  0.02200000  0.82614000  0.36625000  1.0
  O  O36  1  0.20118000  0.44143000  0.83198000  1.0
  O  O37  1  0.79881000  0.55857000  0.16802000  1.0
  O  O38  1  0.43512000  0.84685000  0.84289000  1.0
  O  O39  1  0.56489000  0.15315000  0.15711000  1.0
  O  O40  1  0.20460000  0.58683000  0.63998000  1.0
  O  O41  1  0.79540000  0.41317000  0.36002000  1.0
  O  O42  1  0.32035000  0.70320000  0.03211000  1.0
  O  O43  1  0.67965000  0.29681000  0.96789000  1.0
