# generated using pymatgen
data_CoCu3H24C15S6(IN)3
_symmetry_space_group_name_H-M   'P 1'
_cell_length_a   20.03585520
_cell_length_b   20.03590000
_cell_length_c   20.03610000
_cell_angle_alpha   70.52900000
_cell_angle_beta   70.52868617
_cell_angle_gamma   109.47150499
_symmetry_Int_Tables_number   1
_chemical_formula_structural   CoCu3H24C15S6(IN)3
_chemical_formula_sum   'Co8 Cu24 H192 C120 S48 I24 N24'
_cell_volume   6191.66140351
_cell_formula_units_Z   8
loop_
 _symmetry_equiv_pos_site_id
 _symmetry_equiv_pos_as_xyz
  1  'x, y, z'
loop_
 _atom_site_type_symbol
 _atom_site_label
 _atom_site_symmetry_multiplicity
 _atom_site_fract_x
 _atom_site_fract_y
 _atom_site_fract_z
 _atom_site_occupancy
  Co  Co0  1  0.84578000  0.84578000  0.15422000  1.0
  Co  Co1  1  0.50000000  0.65421000  0.00000000  1.0
  Co  Co2  1  0.65422000  1.00000000  0.50000000  1.0
  Co  Co3  1  1.00000000  0.50000000  0.34578000  1.0
  Co  Co4  1  0.34578000  0.34578000  0.65422000  1.0
  Co  Co5  1  0.15422000  0.00000000  0.50000000  1.0
  Co  Co6  1  0.50000000  0.15422000  0.00000000  1.0
  Co  Co7  1  0.00000000  0.50000000  0.84578000  1.0
  Cu  Cu8  1  0.77548000  0.78478000  0.04663000  1.0
  Cu  Cu9  1  0.78477000  0.95336000  0.22453000  1.0
  Cu  Cu10  1  0.95337000  0.77548000  0.21522000  1.0
  Cu  Cu11  1  0.66859000  0.71522000  0.00930000  1.0
  Cu  Cu12  1  0.32211000  0.54663000  0.16859000  1.0
  Cu  Cu13  1  0.50930000  0.72452000  0.82211000  1.0
  Cu  Cu14  1  0.72453000  0.17790000  0.49070000  1.0
  Cu  Cu15  1  0.71523000  0.99070000  0.33141000  1.0
  Cu  Cu16  1  0.54663000  0.83140000  0.67790000  1.0
  Cu  Cu17  1  0.83141000  0.32211000  0.45336000  1.0
  Cu  Cu18  1  0.17789000  0.50930000  0.27548000  1.0
  Cu  Cu19  1  0.99070000  0.66859000  0.28478000  1.0
  Cu  Cu20  1  0.28477000  0.27547000  0.54664000  1.0
  Cu  Cu21  1  0.45337000  0.28478000  0.72452000  1.0
  Cu  Cu22  1  0.27547000  0.45336000  0.71523000  1.0
  Cu  Cu23  1  0.21523000  0.16860000  0.50930000  1.0
  Cu  Cu24  1  0.04664000  0.82211000  0.66859000  1.0
  Cu  Cu25  1  0.22453000  0.00930000  0.32211000  1.0
  Cu  Cu26  1  0.67789000  0.22452000  0.99070000  1.0
  Cu  Cu27  1  0.49070000  0.21522000  0.83141000  1.0
  Cu  Cu28  1  0.33140000  0.04663000  0.17790000  1.0
  Cu  Cu29  1  0.82211000  0.33141000  0.95336000  1.0
  Cu  Cu30  1  0.00930000  0.67789000  0.77548000  1.0
  Cu  Cu31  1  0.16859000  0.49070000  0.78477000  1.0
  H  H32  1  0.78741000  0.04168000  0.99522000  1.0
  H  H33  1  0.04168000  0.00479000  0.21258000  1.0
  H  H34  1  0.00478000  0.78741000  0.95833000  1.0
  H  H35  1  0.46311000  0.45832000  0.25426000  1.0
  H  H36  1  0.28263000  0.49522000  0.96311000  1.0
  H  H37  1  0.75426000  0.71259000  0.78263000  1.0
  H  H38  1  0.71259000  0.21737000  0.24574000  1.0
  H  H39  1  0.45832000  0.74573000  0.53689000  1.0
  H  H40  1  0.49521000  0.03689000  0.71738000  1.0
  H  H41  1  0.03689000  0.28263000  0.50478000  1.0
  H  H42  1  0.21737000  0.75426000  0.28741000  1.0
  H  H43  1  0.74573000  0.46310000  0.54168000  1.0
  H  H44  1  0.54168000  0.28742000  0.49522000  1.0
  H  H45  1  0.50478000  0.54167000  0.71259000  1.0
  H  H46  1  0.28741000  0.50478000  0.45833000  1.0
  H  H47  1  0.95832000  0.96311000  0.75427000  1.0
  H  H48  1  0.99522000  0.78263000  0.46311000  1.0
  H  H49  1  0.21258000  0.25426000  0.28263000  1.0
  H  H50  1  0.71737000  0.21258000  0.74574000  1.0
  H  H51  1  0.24573000  0.95832000  0.03690000  1.0
  H  H52  1  0.53689000  0.99522000  0.21737000  1.0
  H  H53  1  0.78263000  0.53690000  0.00478000  1.0
  H  H54  1  0.25426000  0.71737000  0.78742000  1.0
  H  H55  1  0.96311000  0.24574000  0.04167000  1.0
  H  H56  1  0.70916000  0.03390000  0.07835000  1.0
  H  H57  1  0.03390000  0.92165000  0.29084000  1.0
  H  H58  1  0.92165000  0.70916000  0.96610000  1.0
  H  H59  1  0.38775000  0.46610000  0.32474000  1.0
  H  H60  1  0.28751000  0.57834000  0.88775000  1.0
  H  H61  1  0.82474000  0.79083000  0.78751000  1.0
  H  H62  1  0.79084000  0.21249000  0.17526000  1.0
  H  H63  1  0.46609000  0.67525000  0.61225000  1.0
  H  H64  1  0.57834000  0.11225000  0.71249000  1.0
  H  H65  1  0.11225000  0.28751000  0.42166000  1.0
  H  H66  1  0.21249000  0.82474000  0.20917000  1.0
  H  H67  1  0.67526000  0.38775000  0.53390000  1.0
  H  H68  1  0.53390000  0.20916000  0.57835000  1.0
  H  H69  1  0.42165000  0.53390000  0.79084000  1.0
  H  H70  1  0.20917000  0.42166000  0.46609000  1.0
  H  H71  1  0.96610000  0.88776000  0.82473000  1.0
  H  H72  1  0.07834000  0.78751000  0.38776000  1.0
  H  H73  1  0.29084000  0.32475000  0.28750000  1.0
  H  H74  1  0.71249000  0.29083000  0.67526000  1.0
  H  H75  1  0.17526000  0.96610000  0.11224000  1.0
  H  H76  1  0.61225000  0.07835000  0.21249000  1.0
  H  H77  1  0.78751000  0.61225000  0.92165000  1.0
  H  H78  1  0.32474000  0.71249000  0.70917000  1.0
  H  H79  1  0.88775000  0.17526000  0.03391000  1.0
  H  H80  1  0.69398000  0.98832000  0.94997000  1.0
  H  H81  1  0.98831000  0.05003000  0.30602000  1.0
  H  H82  1  0.05003000  0.69398000  0.01169000  1.0
  H  H83  1  0.56171000  0.51168000  0.29434000  1.0
  H  H84  1  0.14395000  0.44997000  0.06171000  1.0
  H  H85  1  0.79433000  0.80602000  0.64395000  1.0
  H  H86  1  0.80602000  0.35605000  0.20566000  1.0
  H  H87  1  0.51168000  0.70566000  0.43829000  1.0
  H  H88  1  0.44997000  0.93828000  0.85605000  1.0
  H  H89  1  0.93828000  0.14394000  0.55003000  1.0
  H  H90  1  0.35605000  0.79433000  0.19398000  1.0
  H  H91  1  0.70567000  0.56172000  0.48831000  1.0
  H  H92  1  0.48831000  0.19398000  0.44998000  1.0
  H  H93  1  0.55003000  0.48832000  0.80602000  1.0
  H  H94  1  0.19398000  0.55003000  0.51168000  1.0
  H  H95  1  0.01169000  0.06172000  0.79433000  1.0
  H  H96  1  0.94997000  0.64395000  0.56172000  1.0
  H  H97  1  0.30602000  0.29434000  0.14395000  1.0
  H  H98  1  0.85605000  0.30602000  0.70566000  1.0
  H  H99  1  0.20567000  0.01169000  0.93828000  1.0
  H  H100  1  0.43828000  0.94997000  0.35605000  1.0
  H  H101  1  0.64395000  0.43829000  0.05003000  1.0
  H  H102  1  0.29433000  0.85605000  0.69399000  1.0
  H  H103  1  0.06172000  0.20567000  0.98831000  1.0
  H  H104  1  0.65776000  0.04844000  0.98204000  1.0
  H  H105  1  0.04843000  0.01795000  0.34224000  1.0
  H  H106  1  0.01795000  0.65776000  0.95157000  1.0
  H  H107  1  0.46952000  0.45157000  0.39067000  1.0
  H  H108  1  0.13981000  0.48205000  0.96951000  1.0
  H  H109  1  0.89068000  0.84224000  0.63980000  1.0
  H  H110  1  0.84224000  0.36019000  0.10932000  1.0
  H  H111  1  0.45156000  0.60932000  0.53049000  1.0
  H  H112  1  0.48205000  0.03048000  0.86019000  1.0
  H  H113  1  0.03048000  0.13980000  0.51796000  1.0
  H  H114  1  0.36020000  0.89068000  0.15776000  1.0
  H  H115  1  0.60932000  0.46951000  0.54844000  1.0
  H  H116  1  0.54844000  0.15776000  0.48204000  1.0
  H  H117  1  0.51795000  0.54843000  0.84224000  1.0
  H  H118  1  0.15776000  0.51795000  0.45156000  1.0
  H  H119  1  0.95157000  0.96952000  0.89067000  1.0
  H  H120  1  0.98205000  0.63981000  0.46951000  1.0
  H  H121  1  0.34224000  0.39068000  0.13981000  1.0
  H  H122  1  0.86019000  0.34224000  0.60933000  1.0
  H  H123  1  0.10932000  0.95156000  0.03048000  1.0
  H  H124  1  0.53048000  0.98205000  0.36019000  1.0
  H  H125  1  0.63980000  0.53048000  0.01796000  1.0
  H  H126  1  0.39068000  0.86020000  0.65776000  1.0
  H  H127  1  0.96952000  0.10932000  0.04844000  1.0
  H  H128  1  0.55051000  0.92804000  0.11615667  1.0
  H  H129  1  0.92804000  0.88390000  0.44949000  1.0
  H  H130  1  0.88390000  0.55051000  0.07196000  1.0
  H  H131  1  0.45585000  0.57196000  0.37754000  1.0
  H  H132  1  0.16661000  0.61610000  0.95586000  1.0
  H  H133  1  0.87754000  0.94949000  0.66660000  1.0
  H  H134  1  0.94949000  0.33339000  0.12247000  1.0
  H  H135  1  0.57196000  0.62247000  0.54414000  1.0
  H  H136  1  0.61610000  0.04414000  0.83339000  1.0
  H  H137  1  0.04415000  0.16661000  0.38390000  1.0
  H  H138  1  0.33340000  0.87754000  0.05050000  1.0
  H  H139  1  0.62246000  0.45585000  0.42805000  1.0
  H  H140  1  0.42804000  0.05051000  0.61610000  1.0
  H  H141  1  0.38390000  0.42804000  0.94949000  1.0
  H  H142  1  0.05051000  0.38384333  0.57196000  1.0
  H  H143  1  0.07196000  0.95586000  0.87753000  1.0
  H  H144  1  0.11610000  0.66661000  0.45586000  1.0
  H  H145  1  0.44949000  0.37753000  0.16661000  1.0
  H  H146  1  0.83338000  0.44948000  0.62247000  1.0
  H  H147  1  0.12246000  0.07195000  0.04414000  1.0
  H  H148  1  0.54414000  0.11610000  0.33339000  1.0
  H  H149  1  0.66666667  0.54420667  0.88384333  1.0
  H  H150  1  0.37754000  0.83340000  0.55051000  1.0
  H  H151  1  0.95586000  0.12247000  0.92805000  1.0
  H  H152  1  0.54937000  0.88633000  0.05066000  1.0
  H  H153  1  0.88633000  0.94934000  0.45063000  1.0
  H  H154  1  0.94934000  0.54937000  0.11366000  1.0
  H  H155  1  0.56300000  0.61367000  0.33696000  1.0
  H  H156  1  0.10003000  0.55066000  0.06300000  1.0
  H  H157  1  0.83696000  0.95063000  0.60003000  1.0
  H  H158  1  0.95063000  0.39997000  0.16304000  1.0
  H  H159  1  0.61367000  0.66304000  0.43699000  1.0
  H  H160  1  0.55067000  0.93700000  0.89996000  1.0
  H  H161  1  0.93700000  0.10003000  0.44933000  1.0
  H  H162  1  0.39997000  0.83696000  0.04937000  1.0
  H  H163  1  0.66303000  0.56300000  0.38634000  1.0
  H  H164  1  0.38633000  0.04937000  0.55067000  1.0
  H  H165  1  0.44933000  0.38633000  0.95064000  1.0
  H  H166  1  0.04937000  0.44934000  0.61366000  1.0
  H  H167  1  0.11367000  0.06301000  0.83696000  1.0
  H  H168  1  0.05067000  0.60004000  0.56300000  1.0
  H  H169  1  0.45063000  0.33696000  0.10003000  1.0
  H  H170  1  0.89997000  0.45064000  0.66303000  1.0
  H  H171  1  0.16304000  0.11367000  0.93699000  1.0
  H  H172  1  0.43700000  0.05067000  0.39996000  1.0
  H  H173  1  0.60003000  0.43700000  0.94934000  1.0
  H  H174  1  0.33697000  0.89997000  0.54936000  1.0
  H  H175  1  0.06301000  0.16304000  0.88633000  1.0
  H  H176  1  0.57874000  0.82365000  0.17867000  1.0
  H  H177  1  0.82365000  0.82133000  0.42126000  1.0
  H  H178  1  0.82133000  0.57874000  0.17635000  1.0
  H  H179  1  0.49768000  0.67636000  0.24491000  1.0
  H  H180  1  0.25741000  0.67867000  0.99768000  1.0
  H  H181  1  0.74491000  0.92126000  0.75741000  1.0
  H  H182  1  0.92126000  0.24259000  0.25509000  1.0
  H  H183  1  0.67635000  0.75509000  0.50232000  1.0
  H  H184  1  0.67867000  0.00232000  0.74259000  1.0
  H  H185  1  0.00232000  0.25741000  0.32133000  1.0
  H  H186  1  0.24260000  0.74492000  0.07873000  1.0
  H  H187  1  0.75509000  0.49769000  0.32365000  1.0
  H  H188  1  0.32365000  0.07874000  0.67867000  1.0
  H  H189  1  0.32133000  0.32365000  0.92126000  1.0
  H  H190  1  0.07874000  0.32134000  0.67635000  1.0
  H  H191  1  0.17635000  0.99768000  0.74491000  1.0
  H  H192  1  0.17867000  0.75741000  0.49768000  1.0
  H  H193  1  0.42126000  0.24491000  0.25741000  1.0
  H  H194  1  0.74259000  0.42126000  0.75509000  1.0
  H  H195  1  0.25509000  0.17635000  0.00231000  1.0
  H  H196  1  0.50232000  0.17867000  0.24259000  1.0
  H  H197  1  0.75741000  0.50232000  0.82133000  1.0
  H  H198  1  0.24491000  0.74259000  0.57874000  1.0
  H  H199  1  0.99768000  0.25508000  0.82365000  1.0
  H  H200  1  0.62505000  0.82320000  0.08574000  1.0
  H  H201  1  0.82320000  0.91426000  0.37495000  1.0
  H  H202  1  0.91426000  0.62505000  0.17680000  1.0
  H  H203  1  0.59106000  0.67680000  0.19815000  1.0
  H  H204  1  0.21079000  0.58574000  0.09106000  1.0
  H  H205  1  0.69815000  0.87495000  0.71079000  1.0
  H  H206  1  0.87495000  0.28921000  0.30185000  1.0
  H  H207  1  0.67680000  0.80185000  0.40894000  1.0
  H  H208  1  0.58574000  0.90894000  0.78921000  1.0
  H  H209  1  0.90894000  0.21079000  0.41426000  1.0
  H  H210  1  0.28922000  0.69816000  0.12504000  1.0
  H  H211  1  0.80185000  0.59106000  0.32320000  1.0
  H  H212  1  0.32320000  0.12505000  0.58574000  1.0
  H  H213  1  0.41426000  0.32320000  0.87495000  1.0
  H  H214  1  0.12505000  0.41426000  0.67680000  1.0
  H  H215  1  0.17680000  0.09106000  0.69815000  1.0
  H  H216  1  0.08574000  0.71079000  0.59106000  1.0
  H  H217  1  0.37495000  0.19815000  0.21079000  1.0
  H  H218  1  0.78922000  0.37496000  0.80184000  1.0
  H  H219  1  0.30185000  0.17680000  0.90894000  1.0
  H  H220  1  0.40894000  0.08574000  0.28921000  1.0
  H  H221  1  0.71079000  0.40894000  0.91426000  1.0
  H  H222  1  0.19815000  0.78921000  0.62505000  1.0
  H  H223  1  0.09106000  0.30185000  0.82320000  1.0
  C  C224  1  0.74644000  0.89828000  0.11238000  1.0
  C  C225  1  0.89827000  0.88761000  0.25356000  1.0
  C  C226  1  0.88761000  0.74643000  0.10173000  1.0
  C  C227  1  0.48934000  0.60173000  0.15183000  1.0
  C  C228  1  0.35882000  0.61239000  0.98934000  1.0
  C  C229  1  0.65183000  0.75356000  0.85884000  1.0
  C  C230  1  0.75357000  0.14118000  0.34816000  1.0
  C  C231  1  0.60173000  0.84817000  0.51066000  1.0
  C  C232  1  0.61239000  0.01066000  0.64117000  1.0
  C  C233  1  0.01066000  0.35882000  0.38761000  1.0
  C  C234  1  0.14117000  0.65183000  0.24644000  1.0
  C  C235  1  0.84816000  0.48933000  0.39828000  1.0
  C  C236  1  0.39827000  0.24643000  0.61239000  1.0
  C  C237  1  0.38761000  0.39827000  0.75356000  1.0
  C  C238  1  0.24643000  0.38761000  0.60173000  1.0
  C  C239  1  0.10173000  0.98934000  0.65183000  1.0
  C  C240  1  0.11239000  0.85882000  0.48934000  1.0
  C  C241  1  0.25357000  0.15184000  0.35882000  1.0
  C  C242  1  0.64118000  0.25357000  0.84816000  1.0
  C  C243  1  0.34816000  0.10172000  0.01067000  1.0
  C  C244  1  0.51066000  0.11239000  0.14117000  1.0
  C  C245  1  0.85883000  0.51066000  0.88761000  1.0
  C  C246  1  0.15184000  0.64118000  0.74643000  1.0
  C  C247  1  0.98934000  0.34817000  0.89827000  1.0
  C  C248  1  0.72182000  0.00613000  0.03993000  1.0
  C  C249  1  0.00613000  0.96007000  0.27818000  1.0
  C  C250  1  0.96007000  0.72182000  0.99387000  1.0
  C  C251  1  0.45394000  0.49387000  0.28431000  1.0
  C  C252  1  0.26176000  0.53993000  0.95394000  1.0
  C  C253  1  0.78431000  0.77818000  0.76175000  1.0
  C  C254  1  0.77818000  0.23825000  0.21569000  1.0
  C  C255  1  0.49387000  0.71570000  0.54606000  1.0
  C  C256  1  0.53993000  0.04606000  0.73825000  1.0
  C  C257  1  0.04606000  0.26175000  0.46007000  1.0
  C  C258  1  0.23825000  0.78431000  0.22182000  1.0
  C  C259  1  0.71569000  0.45393000  0.50614000  1.0
  C  C260  1  0.50613000  0.22182000  0.53993000  1.0
  C  C261  1  0.46007000  0.50613000  0.77818000  1.0
  C  C262  1  0.22182000  0.46007000  0.49387000  1.0
  C  C263  1  0.99387000  0.95394000  0.78431000  1.0
  C  C264  1  0.03993000  0.76176000  0.45394000  1.0
  C  C265  1  0.27818000  0.28431000  0.26175000  1.0
  C  C266  1  0.73825000  0.27818000  0.71569000  1.0
  C  C267  1  0.21569000  0.99386000  0.04606000  1.0
  C  C268  1  0.54606000  0.03993000  0.23824000  1.0
  C  C269  1  0.76175000  0.54606000  0.96007000  1.0
  C  C270  1  0.28431000  0.73825000  0.72182000  1.0
  C  C271  1  0.95394000  0.21569000  0.00613000  1.0
  C  C272  1  0.66638000  0.99559000  0.00264000  1.0
  C  C273  1  0.99559000  0.99736000  0.33362000  1.0
  C  C274  1  0.99736000  0.66638000  0.00441000  1.0
  C  C275  1  0.50177000  0.50441000  0.32921000  1.0
  C  C276  1  0.16902000  0.50263000  0.00177000  1.0
  C  C277  1  0.82920000  0.83361000  0.66902000  1.0
  C  C278  1  0.83362000  0.33098000  0.17079000  1.0
  C  C279  1  0.50441000  0.67079000  0.49823000  1.0
  C  C280  1  0.50264000  0.99823000  0.83097000  1.0
  C  C281  1  0.99823000  0.16902000  0.49736000  1.0
  C  C282  1  0.33098000  0.82921000  0.16638000  1.0
  C  C283  1  0.67079000  0.50177000  0.49560000  1.0
  C  C284  1  0.49559000  0.16638000  0.50264000  1.0
  C  C285  1  0.49736000  0.49559000  0.83362000  1.0
  C  C286  1  0.16639000  0.49737000  0.50440000  1.0
  C  C287  1  0.00441000  0.00177000  0.82920000  1.0
  C  C288  1  0.00264000  0.66902000  0.50177000  1.0
  C  C289  1  0.33361000  0.32920000  0.16903000  1.0
  C  C290  1  0.83098000  0.33362000  0.67079000  1.0
  C  C291  1  0.17079000  0.00440000  0.99823000  1.0
  C  C292  1  0.49823000  0.00264000  0.33098000  1.0
  C  C293  1  0.66902000  0.49823000  0.99736000  1.0
  C  C294  1  0.32921000  0.83098000  0.66639000  1.0
  C  C295  1  0.00177000  0.17079000  0.99559000  1.0
  C  C296  1  0.58738000  0.91597000  0.07210000  1.0
  C  C297  1  0.91597000  0.92790000  0.41261000  1.0
  C  C298  1  0.92790000  0.58738000  0.08404000  1.0
  C  C299  1  0.51193000  0.58403000  0.32859000  1.0
  C  C300  1  0.15948000  0.57210000  0.01194000  1.0
  C  C301  1  0.82858000  0.91261000  0.65948000  1.0
  C  C302  1  0.91262000  0.34052000  0.17141000  1.0
  C  C303  1  0.58403000  0.67141000  0.48807000  1.0
  C  C304  1  0.57210000  0.98807000  0.84052000  1.0
  C  C305  1  0.98807000  0.15948000  0.42790000  1.0
  C  C306  1  0.34053000  0.82859000  0.08738000  1.0
  C  C307  1  0.67141000  0.51193000  0.41597000  1.0
  C  C308  1  0.41597000  0.08739000  0.57209000  1.0
  C  C309  1  0.42790000  0.41597000  0.91261000  1.0
  C  C310  1  0.08738000  0.42790000  0.58403000  1.0
  C  C311  1  0.08403000  0.01193000  0.82859000  1.0
  C  C312  1  0.07210000  0.65948000  0.51193000  1.0
  C  C313  1  0.41262000  0.32859000  0.15948000  1.0
  C  C314  1  0.84052000  0.41262000  0.67141000  1.0
  C  C315  1  0.17142000  0.08404000  0.98806000  1.0
  C  C316  1  0.48806000  0.07210000  0.34052000  1.0
  C  C317  1  0.65948000  0.48807000  0.92790000  1.0
  C  C318  1  0.32859000  0.84053000  0.58738000  1.0
  C  C319  1  0.01194000  0.17142000  0.91597000  1.0
  C  C320  1  0.61760000  0.86229000  0.11190000  1.0
  C  C321  1  0.86229000  0.88810000  0.38239000  1.0
  C  C322  1  0.88811000  0.61761000  0.13770000  1.0
  C  C323  1  0.52581000  0.63771000  0.24469000  1.0
  C  C324  1  0.22950000  0.61190000  0.02581000  1.0
  C  C325  1  0.74469000  0.88240000  0.72950000  1.0
  C  C326  1  0.88240000  0.27050000  0.25531000  1.0
  C  C327  1  0.63771000  0.75531000  0.47419000  1.0
  C  C328  1  0.61190000  0.97419000  0.77050000  1.0
  C  C329  1  0.97419000  0.22950000  0.38810000  1.0
  C  C330  1  0.27050000  0.74469000  0.11760000  1.0
  C  C331  1  0.75531000  0.52582000  0.36229000  1.0
  C  C332  1  0.36229000  0.11760000  0.61190000  1.0
  C  C333  1  0.38810000  0.36229000  0.88240000  1.0
  C  C334  1  0.11760000  0.38811000  0.63771000  1.0
  C  C335  1  0.13771000  0.02581000  0.74469000  1.0
  C  C336  1  0.11190000  0.72950000  0.52581000  1.0
  C  C337  1  0.38240000  0.24469000  0.22949000  1.0
  C  C338  1  0.77050000  0.38240000  0.75531000  1.0
  C  C339  1  0.25531000  0.13771000  0.97419000  1.0
  C  C340  1  0.47419000  0.11190000  0.27050000  1.0
  C  C341  1  0.72950000  0.47419000  0.88810000  1.0
  C  C342  1  0.24469000  0.77050000  0.61760000  1.0
  C  C343  1  0.02581000  0.25531000  0.86230000  1.0
  S  S344  1  0.72304000  0.79808000  0.16181000  1.0
  S  S345  1  0.79808000  0.83819000  0.27696000  1.0
  S  S346  1  0.83819000  0.72304000  0.20191000  1.0
  S  S347  1  0.54010000  0.70191000  0.07505000  1.0
  S  S348  1  0.38485000  0.66181000  0.04011000  1.0
  S  S349  1  0.57504000  0.77696000  0.88486000  1.0
  S  S350  1  0.77696000  0.11515000  0.42496000  1.0
  S  S351  1  0.70191000  0.92495000  0.45990000  1.0
  S  S352  1  0.66181000  0.95990000  0.61515000  1.0
  S  S353  1  0.95990000  0.38486000  0.33819000  1.0
  S  S354  1  0.11515000  0.57505000  0.22304000  1.0
  S  S355  1  0.92496000  0.54011000  0.29808000  1.0
  S  S356  1  0.29808000  0.22304000  0.66182000  1.0
  S  S357  1  0.33819000  0.29809000  0.77696000  1.0
  S  S358  1  0.22304000  0.33819000  0.70192000  1.0
  S  S359  1  0.20192000  0.04011000  0.57504000  1.0
  S  S360  1  0.16181000  0.88485000  0.54011000  1.0
  S  S361  1  0.27696000  0.07505000  0.38485000  1.0
  S  S362  1  0.61515000  0.27696000  0.92495000  1.0
  S  S363  1  0.42496000  0.20192000  0.95989000  1.0
  S  S364  1  0.45989000  0.16181000  0.11515000  1.0
  S  S365  1  0.88485000  0.45989000  0.83819000  1.0
  S  S366  1  0.07504000  0.61514000  0.72305000  1.0
  S  S367  1  0.04010000  0.42495000  0.79809000  1.0
  S  S368  1  0.84046000  0.96192000  0.09546000  1.0
  S  S369  1  0.96193000  0.90455000  0.15953000  1.0
  S  S370  1  0.90455000  0.84047000  0.03807000  1.0
  S  S371  1  0.44262000  0.53807000  0.12146000  1.0
  S  S372  1  0.43592000  0.59546000  0.94262000  1.0
  S  S373  1  0.62147000  0.65954000  0.93591000  1.0
  S  S374  1  0.65954000  0.06409000  0.37854000  1.0
  S  S375  1  0.53807000  0.87853000  0.55739000  1.0
  S  S376  1  0.59545000  0.05738000  0.56409000  1.0
  S  S377  1  0.05738000  0.43592000  0.40455000  1.0
  S  S378  1  0.06409000  0.62147000  0.34045000  1.0
  S  S379  1  0.87854000  0.44262000  0.46192000  1.0
  S  S380  1  0.46193000  0.34047000  0.59545000  1.0
  S  S381  1  0.40455000  0.46193000  0.65953000  1.0
  S  S382  1  0.34046000  0.40454000  0.53808000  1.0
  S  S383  1  0.03807000  0.94262000  0.62147000  1.0
  S  S384  1  0.09546000  0.93592000  0.44262000  1.0
  S  S385  1  0.15954000  0.12146000  0.43592000  1.0
  S  S386  1  0.56408000  0.15953000  0.87854000  1.0
  S  S387  1  0.37854000  0.03808000  0.05738000  1.0
  S  S388  1  0.55738000  0.09545000  0.06408000  1.0
  S  S389  1  0.93592000  0.55738000  0.90454000  1.0
  S  S390  1  0.12146000  0.56408000  0.84047000  1.0
  S  S391  1  0.94262000  0.37854000  0.96192000  1.0
  I  I392  1  0.77331000  0.87324000  0.91964000  1.0
  I  I393  1  0.87325000  0.08037000  0.22668000  1.0
  I  I394  1  0.08037000  0.77331000  0.12675000  1.0
  I  I395  1  0.70712000  0.62675000  0.09994000  1.0
  I  I396  1  0.19294000  0.41963000  0.20713000  1.0
  I  I397  1  0.59993000  0.72668000  0.69295000  1.0
  I  I398  1  0.72669000  0.30706000  0.40006000  1.0
  I  I399  1  0.62675000  0.90006000  0.29288000  1.0
  I  I400  1  0.41963000  0.79287000  0.80706000  1.0
  I  I401  1  0.79288000  0.19295000  0.58037000  1.0
  I  I402  1  0.30706000  0.59994000  0.27331000  1.0
  I  I403  1  0.90007000  0.70712000  0.37324000  1.0
  I  I404  1  0.37325000  0.27332000  0.41963000  1.0
  I  I405  1  0.58037000  0.37325000  0.72669000  1.0
  I  I406  1  0.27331000  0.58037000  0.62676000  1.0
  I  I407  1  0.12675000  0.20712000  0.59994000  1.0
  I  I408  1  0.91963000  0.69294000  0.70712000  1.0
  I  I409  1  0.22668000  0.09993000  0.19295000  1.0
  I  I410  1  0.80705000  0.22668000  0.90007000  1.0
  I  I411  1  0.40007000  0.12676000  0.79288000  1.0
  I  I412  1  0.29288000  0.91963000  0.30705000  1.0
  I  I413  1  0.69295000  0.29288000  0.08037000  1.0
  I  I414  1  0.09993000  0.80705000  0.77332000  1.0
  I  I415  1  0.20712000  0.40006000  0.87325000  1.0
  N  N416  1  0.69876000  0.92129000  0.09149000  1.0
  N  N417  1  0.92129000  0.90851000  0.30124000  1.0
  N  N418  1  0.90851000  0.69876000  0.07871000  1.0
  N  N419  1  0.48722000  0.57871000  0.22253000  1.0
  N  N420  1  0.29025000  0.59149000  0.98723000  1.0
  N  N421  1  0.72253000  0.80124000  0.79025000  1.0
  N  N422  1  0.80124000  0.20975000  0.27747000  1.0
  N  N423  1  0.57871000  0.77747000  0.51278000  1.0
  N  N424  1  0.59149000  0.01278000  0.70975000  1.0
  N  N425  1  0.01278000  0.29025000  0.40851000  1.0
  N  N426  1  0.20976000  0.72254000  0.19875000  1.0
  N  N427  1  0.77747000  0.48722000  0.42129000  1.0
  N  N428  1  0.42129000  0.19876000  0.59149000  1.0
  N  N429  1  0.40851000  0.42129000  0.80124000  1.0
  N  N430  1  0.19876000  0.40851000  0.57872000  1.0
  N  N431  1  0.07871000  0.98722000  0.72253000  1.0
  N  N432  1  0.09149000  0.79025000  0.48722000  1.0
  N  N433  1  0.30124000  0.22253000  0.29025000  1.0
  N  N434  1  0.70975000  0.30124000  0.77747000  1.0
  N  N435  1  0.27747000  0.07871000  0.01278000  1.0
  N  N436  1  0.51278000  0.09149000  0.20975000  1.0
  N  N437  1  0.79025000  0.51278000  0.90851000  1.0
  N  N438  1  0.22253000  0.70975000  0.69876000  1.0
  N  N439  1  0.98722000  0.27747000  0.92129000  1.0
