# generated using pymatgen
data_CdH7C6N5O6
_symmetry_space_group_name_H-M   'P 1'
_cell_length_a   7.46861000
_cell_length_b   12.58780000
_cell_length_c   12.76660000
_cell_angle_alpha   111.30400000
_cell_angle_beta   90.00000000
_cell_angle_gamma   90.00000000
_symmetry_Int_Tables_number   1
_chemical_formula_structural   CdH7C6N5O6
_chemical_formula_sum   'Cd4 H28 C24 N20 O24'
_cell_volume   1118.21432447
_cell_formula_units_Z   4
loop_
 _symmetry_equiv_pos_site_id
 _symmetry_equiv_pos_as_xyz
  1  'x, y, z'
loop_
 _atom_site_type_symbol
 _atom_site_label
 _atom_site_symmetry_multiplicity
 _atom_site_fract_x
 _atom_site_fract_y
 _atom_site_fract_z
 _atom_site_occupancy
  Cd  Cd0  1  0.19954000  0.66972000  0.29981000  1.0
  Cd  Cd1  1  0.69954000  0.83028000  0.70019000  1.0
  Cd  Cd2  1  0.80046000  0.33028000  0.70019000  1.0
  Cd  Cd3  1  0.30046000  0.16972000  0.29981000  1.0
  H  H4  1  0.18457000  0.42253000  0.31441000  1.0
  H  H5  1  0.68457000  0.07747000  0.68559000  1.0
  H  H6  1  0.81543000  0.57747000  0.68559000  1.0
  H  H7  1  0.31543000  0.92253000  0.31441000  1.0
  H  H8  1  0.68571000  0.29886000  0.35353000  1.0
  H  H9  1  0.18571000  0.20114000  0.64647000  1.0
  H  H10  1  0.31429000  0.70114000  0.64647000  1.0
  H  H11  1  0.81429000  0.79886000  0.35354000  1.0
  H  H12  1  0.83075000  0.47435000  0.34157000  1.0
  H  H13  1  0.33075000  0.02565000  0.65843000  1.0
  H  H14  1  0.16925000  0.52565000  0.65843000  1.0
  H  H15  1  0.66925000  0.97435000  0.34157000  1.0
  H  H16  1  0.62584000  0.62345000  0.31430000  1.0
  H  H17  1  0.12584000  0.87655000  0.68570000  1.0
  H  H18  1  0.37416000  0.37655000  0.68570000  1.0
  H  H19  1  0.87416000  0.12345000  0.31430000  1.0
  H  H20  1  0.71188000  0.63254000  0.99314000  1.0
  H  H21  1  0.21188000  0.86746000  0.00686000  1.0
  H  H22  1  0.28812000  0.36746000  0.00686000  1.0
  H  H23  1  0.78812000  0.13254000  0.99314000  1.0
  H  H24  1  0.62254000  0.77084000  0.00840000  1.0
  H  H25  1  0.12254000  0.72916000  0.99160000  1.0
  H  H26  1  0.37746000  0.22916000  0.99160000  1.0
  H  H27  1  0.87746000  0.27084000  0.00840000  1.0
  H  H28  1  0.52109000  0.64303000  0.91264000  1.0
  H  H29  1  0.02109000  0.85697000  0.08736000  1.0
  H  H30  1  0.47891000  0.35697000  0.08736000  1.0
  H  H31  1  0.97891000  0.14303000  0.91264000  1.0
  C  C32  1  0.32869000  0.43472000  0.32122000  1.0
  C  C33  1  0.82869000  0.06528000  0.67878000  1.0
  C  C34  1  0.67131000  0.56529000  0.67878000  1.0
  C  C35  1  0.17131000  0.93472000  0.32122000  1.0
  C  C36  1  0.60686000  0.36618000  0.34178000  1.0
  C  C37  1  0.10686000  0.13382000  0.65822000  1.0
  C  C38  1  0.39314000  0.63382000  0.65822000  1.0
  C  C39  1  0.89314000  0.86618000  0.34178000  1.0
  C  C40  1  0.68626000  0.46326000  0.33517000  1.0
  C  C41  1  0.18626000  0.03674000  0.66483000  1.0
  C  C42  1  0.31374000  0.53673000  0.66483000  1.0
  C  C43  1  0.81374000  0.96327000  0.33517000  1.0
  C  C44  1  0.57414000  0.54528000  0.32112000  1.0
  C  C45  1  0.07414000  0.95472000  0.67887000  1.0
  C  C46  1  0.42587000  0.45472000  0.67888000  1.0
  C  C47  1  0.92586000  0.04528000  0.32112000  1.0
  C  C48  1  0.47137000  0.67722000  0.08135000  1.0
  C  C49  1  0.97137000  0.82278000  0.91865000  1.0
  C  C50  1  0.52863000  0.32278000  0.91865000  1.0
  C  C51  1  0.02863000  0.17722000  0.08135000  1.0
  C  C52  1  0.58949000  0.68135000  0.99390000  1.0
  C  C53  1  0.08949000  0.81865000  0.00610000  1.0
  C  C54  1  0.41051000  0.31865000  0.00610000  1.0
  C  C55  1  0.91051000  0.18135000  0.99390000  1.0
  N  N56  1  0.93337000  0.52082000  0.14065000  1.0
  N  N57  1  0.43337000  0.97918000  0.85935000  1.0
  N  N58  1  0.06663000  0.47918000  0.85935000  1.0
  N  N59  1  0.56663000  0.02082000  0.14065000  1.0
  N  N60  1  0.95419000  0.67211000  0.51824000  1.0
  N  N61  1  0.45419000  0.82789000  0.48176000  1.0
  N  N62  1  0.04581000  0.32789000  0.48176000  1.0
  N  N63  1  0.54581000  0.17211000  0.51824000  1.0
  N  N64  1  0.39529000  0.53107000  0.31527000  1.0
  N  N65  1  0.89529000  0.96893000  0.68473000  1.0
  N  N66  1  0.60471000  0.46894000  0.68473000  1.0
  N  N67  1  0.10471000  0.03107000  0.31527000  1.0
  N  N68  1  0.42762000  0.35153000  0.33371000  1.0
  N  N69  1  0.92763000  0.14846000  0.66629000  1.0
  N  N70  1  0.57238000  0.64847000  0.66629000  1.0
  N  N71  1  0.07238000  0.85153000  0.33371000  1.0
  N  N72  1  0.37290000  0.67408000  0.15049000  1.0
  N  N73  1  0.87290000  0.82592000  0.84951000  1.0
  N  N74  1  0.62710000  0.32592000  0.84951000  1.0
  N  N75  1  0.12710000  0.17408000  0.15049000  1.0
  O  O76  1  0.92823000  0.63024000  0.19225000  1.0
  O  O77  1  0.42823000  0.86976000  0.80775000  1.0
  O  O78  1  0.07177000  0.36976000  0.80776000  1.0
  O  O79  1  0.57177000  0.13024000  0.19225000  1.0
  O  O80  1  0.06605000  0.46704000  0.15905000  1.0
  O  O81  1  0.56605000  0.03296000  0.84095000  1.0
  O  O82  1  0.93396000  0.53296000  0.84095000  1.0
  O  O83  1  0.43395000  0.96704000  0.15905000  1.0
  O  O84  1  0.80901000  0.47149000  0.07599000  1.0
  O  O85  1  0.30901000  0.02851000  0.92401000  1.0
  O  O86  1  0.19099000  0.52850000  0.92401000  1.0
  O  O87  1  0.69099000  0.97149000  0.07599000  1.0
  O  O88  1  0.04771000  0.60452000  0.43893000  1.0
  O  O89  1  0.54772000  0.89548000  0.56107000  1.0
  O  O90  1  0.95228000  0.39548000  0.56107000  1.0
  O  O91  1  0.45229000  0.10452000  0.43893000  1.0
  O  O92  1  0.82375000  0.72587000  0.49678000  1.0
  O  O93  1  0.32375000  0.77412000  0.50322000  1.0
  O  O94  1  0.17625000  0.27413000  0.50322000  1.0
  O  O95  1  0.67625000  0.22587000  0.49678000  1.0
  O  O96  1  0.98911000  0.68593000  0.61920000  1.0
  O  O97  1  0.48911000  0.81407000  0.38080000  1.0
  O  O98  1  0.01089000  0.31407000  0.38080000  1.0
  O  O99  1  0.51089000  0.18593000  0.61920000  1.0
