# generated using pymatgen
data_ZnH16C43(N3O13)2
_symmetry_space_group_name_H-M   'P 1'
_cell_length_a   17.95840000
_cell_length_b   19.19170000
_cell_length_c   27.86270000
_cell_angle_alpha   90.32420000
_cell_angle_beta   89.89700000
_cell_angle_gamma   89.97880000
_symmetry_Int_Tables_number   1
_chemical_formula_structural   ZnH16C43(N3O13)2
_chemical_formula_sum   'Zn2 H32 C86 N12 O52'
_cell_volume   9602.77161838
_cell_formula_units_Z   2
loop_
 _symmetry_equiv_pos_site_id
 _symmetry_equiv_pos_as_xyz
  1  'x, y, z'
loop_
 _atom_site_type_symbol
 _atom_site_label
 _atom_site_symmetry_multiplicity
 _atom_site_fract_x
 _atom_site_fract_y
 _atom_site_fract_z
 _atom_site_occupancy
  Zn  Zn0  1  0.42285000  0.50177000  0.49937000  1.0
  Zn  Zn1  1  0.57796000  0.49962000  0.49872000  1.0
  H  H2  1  0.37866000  0.46709000  0.35027000  1.0
  H  H3  1  0.30543000  0.43350000  0.44224000  1.0
  H  H4  1  0.83573000  0.38285000  0.36521000  1.0
  H  H5  1  0.16877000  0.64074000  0.62432000  1.0
  H  H6  1  0.82417000  0.63096000  0.62939000  1.0
  H  H7  1  0.17111000  0.36023000  0.37585000  1.0
  H  H8  1  0.37369000  0.46575000  0.26007000  1.0
  H  H9  1  0.37560000  0.52706000  0.73924000  1.0
  H  H10  1  0.62159000  0.25367000  0.12996000  1.0
  H  H11  1  0.60544000  0.74308000  0.87023000  1.0
  H  H12  1  0.61237000  0.47599000  0.65312000  1.0
  H  H13  1  0.38087000  0.53180000  0.64918000  1.0
  H  H14  1  0.61133000  0.51745000  0.34423000  1.0
  H  H15  1  0.61944000  0.56330000  0.77899000  1.0
  H  H16  1  0.61847000  0.42654000  0.21871000  1.0
  H  H17  1  0.47103000  0.23364000  0.83033000  1.0
  H  H18  1  0.44780000  0.75170000  0.16832000  1.0
  H  H19  1  0.41855000  0.20675000  0.97120000  1.0
  H  H20  1  0.39321000  0.77479000  0.02671000  1.0
  H  H21  1  0.50026000  0.32063000  0.02720000  1.0
  H  H22  1  0.48727000  0.66720000  0.97173000  1.0
  H  H23  1  0.38710000  0.28503000  0.37127000  1.0
  H  H24  1  0.48069000  0.10709000  0.36793000  1.0
  H  H25  1  0.67362000  0.67294000  0.59536000  1.0
  H  H26  1  0.45089000  0.66264000  0.37379000  1.0
  H  H27  1  0.50444000  0.33261000  0.65369000  1.0
  H  H28  1  0.52502000  0.91335000  0.64556000  1.0
  H  H29  1  0.31599000  0.90402000  0.42275000  1.0
  H  H30  1  0.59180000  0.15057000  0.65416000  1.0
  H  H31  1  0.69775000  0.43853000  0.43698000  1.0
  H  H32  1  0.30425000  0.57086000  0.55705000  1.0
  H  H33  1  0.69328000  0.55809000  0.56061000  1.0
  C  C34  1  0.50032000  0.36579000  0.50281000  1.0
  C  C35  1  0.45702000  0.43371000  0.87044000  1.0
  C  C36  1  0.49545000  0.49151000  0.35232000  1.0
  C  C37  1  0.49701000  0.50494000  0.64606000  1.0
  C  C38  1  0.45070000  0.42876000  0.97182000  1.0
  C  C39  1  0.44502000  0.55593000  0.02650000  1.0
  C  C40  1  0.46003000  0.55784000  0.97499000  1.0
  C  C41  1  0.46453000  0.42784000  0.02347000  1.0
  C  C42  1  0.45851000  0.49407000  0.94838000  1.0
  C  C43  1  0.45747000  0.49135000  0.05004000  1.0
  C  C44  1  0.43580000  0.36882000  0.94420000  1.0
  C  C45  1  0.50314000  0.63594000  0.49770000  1.0
  C  C46  1  0.42466000  0.61472000  0.05392000  1.0
  C  C47  1  0.44032000  0.37119000  0.89354000  1.0
  C  C48  1  0.42861000  0.61289000  0.10456000  1.0
  C  C49  1  0.49781000  0.49374000  0.40605000  1.0
  C  C50  1  0.49943000  0.50671000  0.59231000  1.0
  C  C51  1  0.48895000  0.36833000  0.04727000  1.0
  C  C52  1  0.48043000  0.61892000  0.95149000  1.0
  C  C53  1  0.47374000  0.24685000  0.46798000  1.0
  C  C54  1  0.53496000  0.74592000  0.54241000  1.0
  C  C55  1  0.45759000  0.75315000  0.47070000  1.0
  C  C56  1  0.46430000  0.49023000  0.10088000  1.0
  C  C57  1  0.51419000  0.25603000  0.55111000  1.0
  C  C58  1  0.46587000  0.17434000  0.47287000  1.0
  C  C59  1  0.52311000  0.81717000  0.55115000  1.0
  C  C60  1  0.44776000  0.82474000  0.47841000  1.0
  C  C61  1  0.50633000  0.18367000  0.55610000  1.0
  C  C62  1  0.48132000  0.14298000  0.51714000  1.0
  C  C63  1  0.48110000  0.85668000  0.51843000  1.0
  C  C64  1  0.49784000  0.28742000  0.50698000  1.0
  C  C65  1  0.50073000  0.71397000  0.50280000  1.0
  C  C66  1  0.47838000  0.93331000  0.52329000  1.0
  C  C67  1  0.46639000  0.49582000  0.89760000  1.0
  C  C68  1  0.47841000  0.06610000  0.52217000  1.0
  C  C69  1  0.73012000  0.46521000  0.46454000  1.0
  C  C70  1  0.27116000  0.54030000  0.53186000  1.0
  C  C71  1  0.72786000  0.53245000  0.53374000  1.0
  C  C72  1  0.27176000  0.46352000  0.46747000  1.0
  C  C73  1  0.80787000  0.46377000  0.46423000  1.0
  C  C74  1  0.19342000  0.54162000  0.53309000  1.0
  C  C75  1  0.80547000  0.53581000  0.53555000  1.0
  C  C76  1  0.19410000  0.46082000  0.46642000  1.0
  C  C77  1  0.84693000  0.49977000  0.50040000  1.0
  C  C78  1  0.48895000  0.42860000  0.12389000  1.0
  C  C79  1  0.15353000  0.50093000  0.49981000  1.0
  C  C80  1  0.07064000  0.50037000  0.49994000  1.0
  C  C81  1  0.92978000  0.50010000  0.50056000  1.0
  C  C82  1  0.50483000  0.42947000  0.17551000  1.0
  C  C83  1  0.50453000  0.55911000  0.82343000  1.0
  C  C84  1  0.45255000  0.54973000  0.18069000  1.0
  C  C85  1  0.46013000  0.43626000  0.81745000  1.0
  C  C86  1  0.55819000  0.50247000  0.27551000  1.0
  C  C87  1  0.55937000  0.48825000  0.72230000  1.0
  C  C88  1  0.55967000  0.50489000  0.32567000  1.0
  C  C89  1  0.48715000  0.55895000  0.87492000  1.0
  C  C90  1  0.56099000  0.48856000  0.67213000  1.0
  C  C91  1  0.42831000  0.47673000  0.32884000  1.0
  C  C92  1  0.43014000  0.51929000  0.67013000  1.0
  C  C93  1  0.42571000  0.47548000  0.27904000  1.0
  C  C94  1  0.42741000  0.51725000  0.71993000  1.0
  C  C95  1  0.49043000  0.48791000  0.25271000  1.0
  C  C96  1  0.49186000  0.50229000  0.74569000  1.0
  C  C97  1  0.44634000  0.12928000  0.43036000  1.0
  C  C98  1  0.55160000  0.84834000  0.59710000  1.0
  C  C99  1  0.40964000  0.86978000  0.44154000  1.0
  C  C100  1  0.50342000  0.36886000  0.09670000  1.0
  C  C101  1  0.52366000  0.14799000  0.60252000  1.0
  C  C102  1  0.84801000  0.42124000  0.42726000  1.0
  C  C103  1  0.15379000  0.58856000  0.56758000  1.0
  C  C104  1  0.84264000  0.58040000  0.57239000  1.0
  C  C105  1  0.15556000  0.41298000  0.43214000  1.0
  C  C106  1  0.53180000  0.30217000  0.11825000  1.0
  C  C107  1  0.51986000  0.68792000  0.88082000  1.0
  C  C108  1  0.63026000  0.47259000  0.74877000  1.0
  C  C109  1  0.62971000  0.51702000  0.24920000  1.0
  C  C110  1  0.42376000  0.30555000  0.86533000  1.0
  C  C111  1  0.49641000  0.61946000  0.90222000  1.0
  C  C112  1  0.40649000  0.67718000  0.13275000  1.0
  C  C113  1  0.40564000  0.30439000  0.96785000  1.0
  C  C114  1  0.38936000  0.67649000  0.02996000  1.0
  C  C115  1  0.45687000  0.28286000  0.42165000  1.0
  C  C116  1  0.57697000  0.70215000  0.57835000  1.0
  C  C117  1  0.42410000  0.71919000  0.42695000  1.0
  C  C118  1  0.53792000  0.30169000  0.59264000  1.0
  C  C119  1  0.44982000  0.55170000  0.12778000  1.0
  N  N120  1  0.48438000  0.48909000  0.20098000  1.0
  N  N121  1  0.03670000  0.53550000  0.46451000  1.0
  N  N122  1  0.96315000  0.53561000  0.46499000  1.0
  N  N123  1  0.03727000  0.46429000  0.53534000  1.0
  N  N124  1  0.48649000  0.49919000  0.79747000  1.0
  N  N125  1  0.54479000  0.03412000  0.52780000  1.0
  N  N126  1  0.41169000  0.96545000  0.52372000  1.0
  N  N127  1  0.54479000  0.96547000  0.52851000  1.0
  N  N128  1  0.41159000  0.03441000  0.52330000  1.0
  N  N129  1  0.69152000  0.49836000  0.49892000  1.0
  N  N130  1  0.30897000  0.50221000  0.49958000  1.0
  N  N131  1  0.96385000  0.46387000  0.53553000  1.0
  O  O132  1  0.43756000  0.39533000  0.50843000  1.0
  O  O133  1  0.53474000  0.60916000  0.80327000  1.0
  O  O134  1  0.44112000  0.38781000  0.79130000  1.0
  O  O135  1  0.42903000  0.59663000  0.20667000  1.0
  O  O136  1  0.39468000  0.08846000  0.42839000  1.0
  O  O137  1  0.49621000  0.13845000  0.39400000  1.0
  O  O138  1  0.60976000  0.83233000  0.61662000  1.0
  O  O139  1  0.50215000  0.89449000  0.61635000  1.0
  O  O140  1  0.44427000  0.90087000  0.41058000  1.0
  O  O141  1  0.33543000  0.87241000  0.44731000  1.0
  O  O142  1  0.48791000  0.09983000  0.61930000  1.0
  O  O143  1  0.56550000  0.60633000  0.50314000  1.0
  O  O144  1  0.58501000  0.17532000  0.62381000  1.0
  O  O145  1  0.90993000  0.39659000  0.43255000  1.0
  O  O146  1  0.80615000  0.41193000  0.38711000  1.0
  O  O147  1  0.08954000  0.60772000  0.56307000  1.0
  O  O148  1  0.19853000  0.60885000  0.60447000  1.0
  O  O149  1  0.90799000  0.59709000  0.57173000  1.0
  O  O150  1  0.79425000  0.60262000  0.60728000  1.0
  O  O151  1  0.09156000  0.39306000  0.43645000  1.0
  O  O152  1  0.20093000  0.39241000  0.39536000  1.0
  O  O153  1  0.49132000  0.25519000  0.13146000  1.0
  O  O154  1  0.44059000  0.60718000  0.48999000  1.0
  O  O155  1  0.60707000  0.29854000  0.11609000  1.0
  O  O156  1  0.47589000  0.73139000  0.86665000  1.0
  O  O157  1  0.59437000  0.69746000  0.88427000  1.0
  O  O158  1  0.66516000  0.41885000  0.74318000  1.0
  O  O159  1  0.65480000  0.52364000  0.77875000  1.0
  O  O160  1  0.66540000  0.57011000  0.25545000  1.0
  O  O161  1  0.65409000  0.46603000  0.21913000  1.0
  O  O162  1  0.36101000  0.28232000  0.86129000  1.0
  O  O163  1  0.48643000  0.27441000  0.84922000  1.0
  O  O164  1  0.34199000  0.69592000  0.13662000  1.0
  O  O165  1  0.56279000  0.39367000  0.49551000  1.0
  O  O166  1  0.46633000  0.71237000  0.14910000  1.0
  O  O167  1  0.35032000  0.30476000  0.99307000  1.0
  O  O168  1  0.44564000  0.24615000  0.95718000  1.0
  O  O169  1  0.33498000  0.67166000  0.00421000  1.0
  O  O170  1  0.42347000  0.73770000  0.04098000  1.0
  O  O171  1  0.49523000  0.32816000  0.40378000  1.0
  O  O172  1  0.39201000  0.26000000  0.40169000  1.0
  O  O173  1  0.54634000  0.67241000  0.61154000  1.0
  O  O174  1  0.65075000  0.69987000  0.56940000  1.0
  O  O175  1  0.35914000  0.72425000  0.41504000  1.0
  O  O176  1  0.43564000  0.48652000  0.42757000  1.0
  O  O177  1  0.47660000  0.68441000  0.40105000  1.0
  O  O178  1  0.59496000  0.33558000  0.59373000  1.0
  O  O179  1  0.48581000  0.30169000  0.62817000  1.0
  O  O180  1  0.56220000  0.49797000  0.57206000  1.0
  O  O181  1  0.43742000  0.51604000  0.57106000  1.0
  O  O182  1  0.56067000  0.50343000  0.42581000  1.0
  O  O183  1  0.53608000  0.38039000  0.19621000  1.0
