# generated using pymatgen
data_CoH11C18NO4
_symmetry_space_group_name_H-M   'P 1'
_cell_length_a   11.71950000
_cell_length_b   13.17800000
_cell_length_c   13.17820000
_cell_angle_alpha   103.62800000
_cell_angle_beta   105.10800000
_cell_angle_gamma   105.10400000
_symmetry_Int_Tables_number   1
_chemical_formula_structural   CoH11C18NO4
_chemical_formula_sum   'Co4 H44 C72 N4 O16'
_cell_volume   1793.60728977
_cell_formula_units_Z   4
loop_
 _symmetry_equiv_pos_site_id
 _symmetry_equiv_pos_as_xyz
  1  'x, y, z'
loop_
 _atom_site_type_symbol
 _atom_site_label
 _atom_site_symmetry_multiplicity
 _atom_site_fract_x
 _atom_site_fract_y
 _atom_site_fract_z
 _atom_site_occupancy
  Co  Co0  1  0.64370000  0.73844000  0.17434000  1.0
  Co  Co1  1  0.14376000  0.17436000  0.73848000  1.0
  Co  Co2  1  0.35630000  0.26158000  0.82562000  1.0
  Co  Co3  1  0.85624000  0.82559000  0.26154000  1.0
  H  H4  1  0.91234000  0.17907000  0.30098000  1.0
  H  H5  1  0.41242000  0.30096000  0.17912000  1.0
  H  H6  1  0.08761000  0.82091000  0.69904000  1.0
  H  H7  1  0.58758000  0.69904000  0.82088000  1.0
  H  H8  1  0.00878000  0.37817000  0.32440000  1.0
  H  H9  1  0.50884000  0.32436000  0.37818000  1.0
  H  H10  1  0.99119000  0.62181000  0.67561000  1.0
  H  H11  1  0.49117000  0.67562000  0.62181000  1.0
  H  H12  1  0.98300000  0.55425000  0.29973000  1.0
  H  H13  1  0.48309000  0.29971000  0.55428000  1.0
  H  H14  1  0.01698000  0.44574000  0.70028000  1.0
  H  H15  1  0.51694000  0.70028000  0.44573000  1.0
  H  H16  1  0.58583000  0.38505000  0.12659000  1.0
  H  H17  1  0.08592000  0.12664000  0.38511000  1.0
  H  H18  1  0.41415000  0.61493000  0.87338000  1.0
  H  H19  1  0.91408000  0.87338000  0.61491000  1.0
  H  H20  1  0.49395000  0.18098000  0.08621000  1.0
  H  H21  1  0.99398000  0.08628000  0.18103000  1.0
  H  H22  1  0.50603000  0.81898000  0.91375000  1.0
  H  H23  1  0.00602000  0.91376000  0.81899000  1.0
  H  H24  1  0.51907000  0.00596000  0.11206000  1.0
  H  H25  1  0.01913000  0.11212000  0.00599000  1.0
  H  H26  1  0.48091000  0.99401000  0.88793000  1.0
  H  H27  1  0.98088000  0.88792000  0.99402000  1.0
  H  H28  1  0.42666000  0.82726000  0.12056000  1.0
  H  H29  1  0.92670000  0.12059000  0.82727000  1.0
  H  H30  1  0.57334000  0.17276000  0.87947000  1.0
  H  H31  1  0.07329000  0.87946000  0.17275000  1.0
  H  H32  1  0.19084000  0.76105000  0.05878000  1.0
  H  H33  1  0.69088000  0.05880000  0.76106000  1.0
  H  H34  1  0.80914000  0.23895000  0.94125000  1.0
  H  H35  1  0.30909000  0.94123000  0.23892000  1.0
  H  H36  1  0.20082000  0.43139000  0.03976000  1.0
  H  H37  1  0.70084000  0.03976000  0.43137000  1.0
  H  H38  1  0.79920000  0.56860000  0.96019000  1.0
  H  H39  1  0.29922000  0.96025000  0.56863000  1.0
  H  H40  1  0.43308000  0.51112000  0.09877000  1.0
  H  H41  1  0.93310000  0.09877000  0.51111000  1.0
  H  H42  1  0.56694000  0.48889000  0.90119000  1.0
  H  H43  1  0.06696000  0.90124000  0.48892000  1.0
  H  H44  1  0.99616000  0.61658000  0.00234000  1.0
  H  H45  1  0.49618000  0.00233000  0.61657000  1.0
  H  H46  1  0.00385000  0.38343000  0.99768000  1.0
  H  H47  1  0.50384000  0.99767000  0.38339000  1.0
  C  C48  1  0.71761000  0.08320000  0.21048000  1.0
  C  C49  1  0.21767000  0.21050000  0.08324000  1.0
  C  C50  1  0.28237000  0.91679000  0.78954000  1.0
  C  C51  1  0.78232000  0.78953000  0.91678000  1.0
  C  C52  1  0.82119000  0.18025000  0.25474000  1.0
  C  C53  1  0.32126000  0.25472000  0.18030000  1.0
  C  C54  1  0.17877000  0.81974000  0.74528000  1.0
  C  C55  1  0.67875000  0.74530000  0.81971000  1.0
  C  C56  1  0.81054000  0.28061000  0.24025000  1.0
  C  C57  1  0.31060000  0.24025000  0.28066000  1.0
  C  C58  1  0.18943000  0.71937000  0.75975000  1.0
  C  C59  1  0.68941000  0.75976000  0.71935000  1.0
  C  C60  1  0.91644000  0.38025000  0.28175000  1.0
  C  C61  1  0.41652000  0.28174000  0.38027000  1.0
  C  C62  1  0.08353000  0.61975000  0.71826000  1.0
  C  C63  1  0.58349000  0.71826000  0.61974000  1.0
  C  C64  1  0.90274000  0.47731000  0.26843000  1.0
  C  C65  1  0.40283000  0.26843000  0.47734000  1.0
  C  C66  1  0.09723000  0.52269000  0.73157000  1.0
  C  C67  1  0.59717000  0.73155000  0.52267000  1.0
  C  C68  1  0.78193000  0.47953000  0.21412000  1.0
  C  C69  1  0.28202000  0.21413000  0.47957000  1.0
  C  C70  1  0.21803000  0.52046000  0.78587000  1.0
  C  C71  1  0.71798000  0.78587000  0.52045000  1.0
  C  C72  1  0.67759000  0.38309000  0.17052000  1.0
  C  C73  1  0.17766000  0.17053000  0.38315000  1.0
  C  C74  1  0.32239000  0.61688000  0.82947000  1.0
  C  C75  1  0.82235000  0.82948000  0.61685000  1.0
  C  C76  1  0.68929000  0.28170000  0.18111000  1.0
  C  C77  1  0.18931000  0.18112000  0.28174000  1.0
  C  C78  1  0.31071000  0.71827000  0.81889000  1.0
  C  C79  1  0.81070000  0.81892000  0.71826000  1.0
  C  C80  1  0.58479000  0.18057000  0.13467000  1.0
  C  C81  1  0.08483000  0.13471000  0.18058000  1.0
  C  C82  1  0.41519000  0.81940000  0.86531000  1.0
  C  C83  1  0.91517000  0.86532000  0.81943000  1.0
  C  C84  1  0.59850000  0.08378000  0.14888000  1.0
  C  C85  1  0.09857000  0.14891000  0.08380000  1.0
  C  C86  1  0.40147000  0.91619000  0.85112000  1.0
  C  C87  1  0.90142000  0.85111000  0.91621000  1.0
  C  C88  1  0.73159000  0.97770000  0.22355000  1.0
  C  C89  1  0.23164000  0.22356000  0.97772000  1.0
  C  C90  1  0.26842000  0.02229000  0.77646000  1.0
  C  C91  1  0.76838000  0.77644000  0.02227000  1.0
  C  C92  1  0.76854000  0.58683000  0.20674000  1.0
  C  C93  1  0.26864000  0.20678000  0.58690000  1.0
  C  C94  1  0.23143000  0.41315000  0.79328000  1.0
  C  C95  1  0.73137000  0.79322000  0.41310000  1.0
  C  C96  1  0.37139000  0.74043000  0.10188000  1.0
  C  C97  1  0.87142000  0.10189000  0.74043000  1.0
  C  C98  1  0.62861000  0.25958000  0.89814000  1.0
  C  C99  1  0.12857000  0.89813000  0.25958000  1.0
  C  C100  1  0.24111000  0.70300000  0.06818000  1.0
  C  C101  1  0.74113000  0.06820000  0.70300000  1.0
  C  C102  1  0.75890000  0.29700000  0.93183000  1.0
  C  C103  1  0.25887000  0.93183000  0.29698000  1.0
  C  C104  1  0.17421000  0.59020000  0.04547000  1.0
  C  C105  1  0.67421000  0.04547000  0.59020000  1.0
  C  C106  1  0.82580000  0.40980000  0.95452000  1.0
  C  C107  1  0.32580000  0.95453000  0.40979000  1.0
  C  C108  1  0.24568000  0.52013000  0.05756000  1.0
  C  C109  1  0.74570000  0.05756000  0.52012000  1.0
  C  C110  1  0.75432000  0.47987000  0.94240000  1.0
  C  C111  1  0.25433000  0.94244000  0.47987000  1.0
  C  C112  1  0.37570000  0.56389000  0.09059000  1.0
  C  C113  1  0.87572000  0.09060000  0.56389000  1.0
  C  C114  1  0.62431000  0.43612000  0.90940000  1.0
  C  C115  1  0.12431000  0.90941000  0.43613000  1.0
  C  C116  1  0.03776000  0.55243000  0.01061000  1.0
  C  C117  1  0.53777000  0.01061000  0.55241000  1.0
  C  C118  1  0.96225000  0.44756000  0.98938000  1.0
  C  C119  1  0.46225000  0.98940000  0.44755000  1.0
  N  N120  1  0.43848000  0.67263000  0.11306000  1.0
  N  N121  1  0.93852000  0.11309000  0.67264000  1.0
  N  N122  1  0.56154000  0.32738000  0.88693000  1.0
  N  N123  1  0.06149000  0.88693000  0.32737000  1.0
  O  O124  1  0.63261000  0.89103000  0.18279000  1.0
  O  O125  1  0.13264000  0.18283000  0.89105000  1.0
  O  O126  1  0.36739000  0.10897000  0.81722000  1.0
  O  O127  1  0.86736000  0.81718000  0.10896000  1.0
  O  O128  1  0.84096000  0.97725000  0.27300000  1.0
  O  O129  1  0.34102000  0.27302000  0.97731000  1.0
  O  O130  1  0.15906000  0.02273000  0.72698000  1.0
  O  O131  1  0.65901000  0.72696000  0.02269000  1.0
  O  O132  1  0.65803000  0.58940000  0.16515000  1.0
  O  O133  1  0.15812000  0.16518000  0.58946000  1.0
  O  O134  1  0.34194000  0.41058000  0.83485000  1.0
  O  O135  1  0.84188000  0.83484000  0.41054000  1.0
  O  O136  1  0.86815000  0.67237000  0.24436000  1.0
  O  O137  1  0.36828000  0.24441000  0.67243000  1.0
  O  O138  1  0.13183000  0.32759000  0.75561000  1.0
  O  O139  1  0.63174000  0.75557000  0.32756000  1.0
