# generated using pymatgen
data_Zr3H10C26S10O33
_symmetry_space_group_name_H-M   'P 1'
_cell_length_a   16.45150000
_cell_length_b   16.47956384
_cell_length_c   16.48610000
_cell_angle_alpha   89.18684870
_cell_angle_beta   60.34980000
_cell_angle_gamma   60.47812495
_symmetry_Int_Tables_number   1
_chemical_formula_structural   Zr3H10C26S10O33
_chemical_formula_sum   'Zr6 H20 C52 S20 O66'
_cell_volume   3220.52865078
_cell_formula_units_Z   2
loop_
 _symmetry_equiv_pos_site_id
 _symmetry_equiv_pos_as_xyz
  1  'x, y, z'
loop_
 _atom_site_type_symbol
 _atom_site_label
 _atom_site_symmetry_multiplicity
 _atom_site_fract_x
 _atom_site_fract_y
 _atom_site_fract_z
 _atom_site_occupancy
  Zr  Zr0  1  0.48980000  0.39841000  0.89945000  1.0
  Zr  Zr1  1  0.50647000  0.60415000  0.10497000  1.0
  Zr  Zr2  1  0.70814000  0.39588000  0.89591000  1.0
  Zr  Zr3  1  0.28798000  0.60884000  0.10632000  1.0
  Zr  Zr4  1  0.49947000  0.60904000  0.89342000  1.0
  Zr  Zr5  1  0.49644000  0.39478000  0.11039000  1.0
  H  H6  1  0.65869000  0.42219000  0.75277000  1.0
  H  H7  1  0.33989000  0.75061000  0.07934000  1.0
  H  H8  1  0.66910000  0.41332000  0.08434000  1.0
  H  H9  1  0.32493000  0.42078000  0.09021000  1.0
  H  H10  1  0.69450000  0.14351000  0.65956000  1.0
  H  H11  1  0.30162000  0.84474000  0.35894000  1.0
  H  H12  1  0.60715000  0.25834000  0.24291000  1.0
  H  H13  1  0.56989000  0.61777000  0.67496000  1.0
  H  H14  1  0.42586000  0.82845000  0.88538000  1.0
  H  H15  1  0.38700000  0.24087000  0.28979000  1.0
  H  H16  1  0.94254000  0.25234000  0.87800000  1.0
  H  H17  1  0.96026000  0.94059000  0.28738000  1.0
  H  H18  1  0.03348000  0.21569000  0.56354000  1.0
  H  H19  1  0.04961000  0.63056000  0.25448000  1.0
  H  H20  1  0.67252000  0.64318000  0.30208000  1.0
  H  H21  1  0.32386000  0.20257000  0.86177000  1.0
  H  H22  1  0.12980000  0.04689000  0.56602000  1.0
  H  H23  1  0.92175000  0.19748000  0.69024000  1.0
  H  H24  1  0.86614000  0.93703000  0.45692000  1.0
  H  H25  1  0.07480000  0.81453000  0.30421000  1.0
  C  C26  1  0.48782000  0.51201000  0.73211000  1.0
  C  C27  1  0.51116000  0.77007000  0.99052000  1.0
  C  C28  1  0.49756000  0.49160000  0.27378000  1.0
  C  C29  1  0.49564000  0.23156000  0.01354000  1.0
  C  C30  1  0.74872000  0.23478000  0.73700000  1.0
  C  C31  1  0.22563000  0.50519000  0.99841000  1.0
  C  C32  1  0.24745000  0.76758000  0.26754000  1.0
  C  C33  1  0.77083000  0.50362000  0.99966000  1.0
  C  C34  1  0.77115000  0.50221000  0.73206000  1.0
  C  C35  1  0.77686000  0.22245000  0.99394000  1.0
  C  C36  1  0.21659000  0.51410000  0.28113000  1.0
  C  C37  1  0.22825000  0.77155000  0.99844000  1.0
  C  C38  1  0.48994000  0.42912000  0.42142000  1.0
  C  C39  1  0.49021000  0.57291000  0.58512000  1.0
  C  C40  1  0.49103000  0.49353000  0.36566000  1.0
  C  C41  1  0.48761000  0.51037000  0.64303000  1.0
  C  C42  1  0.48903000  0.54382000  0.50588000  1.0
  C  C43  1  0.48812000  0.45860000  0.50318000  1.0
  C  C44  1  0.50626000  0.91829000  0.93114000  1.0
  C  C45  1  0.50324000  0.08355000  0.07661000  1.0
  C  C46  1  0.51029000  0.85967000  0.99292000  1.0
  C  C47  1  0.50104000  0.14001000  0.01282000  1.0
  C  C48  1  0.50665000  0.00104000  0.04618000  1.0
  C  C49  1  0.50543000  0.99852000  0.96120000  1.0
  C  C50  1  0.98432000  0.07876000  0.92425000  1.0
  C  C51  1  0.01908000  0.90981000  0.06600000  1.0
  C  C52  1  0.86707000  0.13103000  0.98991000  1.0
  C  C53  1  0.13643000  0.85795000  0.99920000  1.0
  C  C54  1  0.96388000  0.98876000  0.03634000  1.0
  C  C55  1  0.03964000  0.99692000  0.95053000  1.0
  C  C56  1  0.97967000  0.43586000  0.59146000  1.0
  C  C57  1  0.00969000  0.58166000  0.42599000  1.0
  C  C58  1  0.86223000  0.50225000  0.64533000  1.0
  C  C59  1  0.12700000  0.51683000  0.37218000  1.0
  C  C60  1  0.95612000  0.55361000  0.50720000  1.0
  C  C61  1  0.03324000  0.46704000  0.51308000  1.0
  C  C62  1  0.94338000  0.11046000  0.59478000  1.0
  C  C63  1  0.78455000  0.11241000  0.61667000  1.0
  C  C64  1  0.85571000  0.03345000  0.53352000  1.0
  C  C65  1  0.97552000  0.98986000  0.47828000  1.0
  C  C66  1  0.05267000  0.90927000  0.39232000  1.0
  C  C67  1  0.21155000  0.88747000  0.39029000  1.0
  C  C68  1  0.14037000  0.97021000  0.46964000  1.0
  C  C69  1  0.02053000  0.02506000  0.51363000  1.0
  C  C70  1  0.82727000  0.15205000  0.64742000  1.0
  C  C71  1  0.16880000  0.85688000  0.35054000  1.0
  C  C72  1  0.84614000  0.57326000  0.06419000  1.0
  C  C73  1  0.15016000  0.43966000  0.93003000  1.0
  C  C74  1  0.85786000  0.50819000  0.99935000  1.0
  C  C75  1  0.13848000  0.50510000  0.99443000  1.0
  C  C76  1  0.04307000  0.46563000  0.95477000  1.0
  C  C77  1  0.95322000  0.54898000  0.03777000  1.0
  S  S78  1  0.49060000  0.58816000  0.41078000  1.0
  S  S79  1  0.48641000  0.41556000  0.59913000  1.0
  S  S80  1  0.51135000  0.90367000  0.08777000  1.0
  S  S81  1  0.50196000  0.09462000  0.91800000  1.0
  S  S82  1  0.82561000  0.07890000  0.08225000  1.0
  S  S83  1  0.17788000  0.90607000  0.90323000  1.0
  S  S84  1  0.81865000  0.59960000  0.59949000  1.0
  S  S85  1  0.17067000  0.42282000  0.42166000  1.0
  S  S86  1  0.99705000  0.41879000  0.90768000  1.0
  S  S87  1  0.99933000  0.59683000  0.08380000  1.0
  S  S88  1  0.49676000  0.31963000  0.39874000  1.0
  S  S89  1  0.49620000  0.67657000  0.59769000  1.0
  S  S90  1  0.50094000  0.90522000  0.82729000  1.0
  S  S91  1  0.50544000  0.10006000  0.18204000  1.0
  S  S92  1  0.06680000  0.10114000  0.81876000  1.0
  S  S93  1  0.93041000  0.90389000  0.18319000  1.0
  S  S94  1  0.06895000  0.31771000  0.59471000  1.0
  S  S95  1  0.92561000  0.68791000  0.40575000  1.0
  S  S96  1  0.72352000  0.67718000  0.16709000  1.0
  S  S97  1  0.27286000  0.33663000  0.82636000  1.0
  O  O98  1  0.48061000  0.44781000  0.77291000  1.0
  O  O99  1  0.51819000  0.72918000  0.05475000  1.0
  O  O100  1  0.49800000  0.56104000  0.23897000  1.0
  O  O101  1  0.49485000  0.26590000  0.94382000  1.0
  O  O102  1  0.78880000  0.26500000  0.77097000  1.0
  O  O103  1  0.19292000  0.57392000  0.06546000  1.0
  O  O104  1  0.20739000  0.73398000  0.23688000  1.0
  O  O105  1  0.80358000  0.43601000  0.93135000  1.0
  O  O106  1  0.66908000  0.57257000  0.76514000  1.0
  O  O107  1  0.67503000  0.25623000  0.06300000  1.0
  O  O108  1  0.31831000  0.44682000  0.24864000  1.0
  O  O109  1  0.33042000  0.73868000  0.92832000  1.0
  O  O110  1  0.80698000  0.26408000  0.92784000  1.0
  O  O111  1  0.18612000  0.57916000  0.23874000  1.0
  O  O112  1  0.20007000  0.73533000  0.06849000  1.0
  O  O113  1  0.79911000  0.43213000  0.76819000  1.0
  O  O114  1  0.64355000  0.27349000  0.77767000  1.0
  O  O115  1  0.66864000  0.56691000  0.06942000  1.0
  O  O116  1  0.35258000  0.72669000  0.22914000  1.0
  O  O117  1  0.32776000  0.43522000  0.93531000  1.0
  O  O118  1  0.49075000  0.27054000  0.08385000  1.0
  O  O119  1  0.49720000  0.57726000  0.76250000  1.0
  O  O120  1  0.50252000  0.73944000  0.92488000  1.0
  O  O121  1  0.50427000  0.41983000  0.23454000  1.0
  O  O122  1  0.37362000  0.44446000  0.06582000  1.0
  O  O123  1  0.62067000  0.43801000  0.06051000  1.0
  O  O124  1  0.38585000  0.67965000  0.05730000  1.0
  O  O125  1  0.61203000  0.44482000  0.82378000  1.0
  O  O126  1  0.58968000  0.54523000  0.95485000  1.0
  O  O127  1  0.40800000  0.54849000  0.95707000  1.0
  O  O128  1  0.41315000  0.54406000  0.13290000  1.0
  O  O129  1  0.58205000  0.37023000  0.96060000  1.0
  O  O130  1  0.61701000  0.25202000  0.29739000  1.0
  O  O131  1  0.41031000  0.33741000  0.38481000  1.0
  O  O132  1  0.50740000  0.27723000  0.47225000  1.0
  O  O133  1  0.59554000  0.63621000  0.61296000  1.0
  O  O134  1  0.39137000  0.75334000  0.68325000  1.0
  O  O135  1  0.53755000  0.69164000  0.50285000  1.0
  O  O136  1  0.40065000  0.89085000  0.86796000  1.0
  O  O137  1  0.60535000  0.81918000  0.75085000  1.0
  O  O138  1  0.46069000  0.99965000  0.81149000  1.0
  O  O139  1  0.38176000  0.19694000  0.25558000  1.0
  O  O140  1  0.58728000  0.12070000  0.16376000  1.0
  O  O141  1  0.50918000  0.01824000  0.21585000  1.0
  O  O142  1  0.02167000  0.21146000  0.85936000  1.0
  O  O143  1  0.04148000  0.09207000  0.74873000  1.0
  O  O144  1  0.18016000  0.04311000  0.79367000  1.0
  O  O145  1  0.92630000  0.97564000  0.25080000  1.0
  O  O146  1  0.97803000  0.80865000  0.19579000  1.0
  O  O147  1  0.82195000  0.95426000  0.19720000  1.0
  O  O148  1  0.06652000  0.25250000  0.52696000  1.0
  O  O149  1  0.02465000  0.30529000  0.69034000  1.0
  O  O150  1  0.17882000  0.30141000  0.53948000  1.0
  O  O151  1  0.97040000  0.64896000  0.29525000  1.0
  O  O152  1  0.95016000  0.75825000  0.41613000  1.0
  O  O153  1  0.81274000  0.71165000  0.46400000  1.0
  O  O154  1  0.67208000  0.62778000  0.24490000  1.0
  O  O155  1  0.64390000  0.73646000  0.14391000  1.0
  O  O156  1  0.76452000  0.71706000  0.20294000  1.0
  O  O157  1  0.32491000  0.25973000  0.87587000  1.0
  O  O158  1  0.35207000  0.36011000  0.76613000  1.0
  O  O159  1  0.23200000  0.29968000  0.78733000  1.0
  O  O160  1  0.18830000  0.99251000  0.50460000  1.0
  O  O161  1  0.98511000  0.15149000  0.62142000  1.0
  O  O162  1  0.80778000  0.99850000  0.51120000  1.0
  O  O163  1  0.01105000  0.88291000  0.35100000  1.0
