# generated using pymatgen
data_CdH8(C2O)8
_symmetry_space_group_name_H-M   'P 1'
_cell_length_a   9.00489000
_cell_length_b   10.02100000
_cell_length_c   16.07550000
_cell_angle_alpha   90.00010000
_cell_angle_beta   90.00000000
_cell_angle_gamma   90.00000000
_symmetry_Int_Tables_number   1
_chemical_formula_structural   CdH8(C2O)8
_chemical_formula_sum   'Cd4 H32 C64 O32'
_cell_volume   1450.62101224
_cell_formula_units_Z   4
loop_
 _symmetry_equiv_pos_site_id
 _symmetry_equiv_pos_as_xyz
  1  'x, y, z'
loop_
 _atom_site_type_symbol
 _atom_site_label
 _atom_site_symmetry_multiplicity
 _atom_site_fract_x
 _atom_site_fract_y
 _atom_site_fract_z
 _atom_site_occupancy
  Cd  Cd0  1  0.04580000  0.75000000  0.00000000  1.0
  Cd  Cd1  1  0.45421000  0.25000000  0.50000000  1.0
  Cd  Cd2  1  0.95420000  0.25000000  0.00000000  1.0
  Cd  Cd3  1  0.54579000  0.75000000  0.50000000  1.0
  H  H4  1  0.73701000  0.49331000  0.18317000  1.0
  H  H5  1  0.76299000  0.99331000  0.31683000  1.0
  H  H6  1  0.73701000  0.00669000  0.81683000  1.0
  H  H7  1  0.76299000  0.50669000  0.68317000  1.0
  H  H8  1  0.26298000  0.50669000  0.81683000  1.0
  H  H9  1  0.23701000  0.00669000  0.68317000  1.0
  H  H10  1  0.26298000  0.99331000  0.18317000  1.0
  H  H11  1  0.23701000  0.49331000  0.31683000  1.0
  H  H12  1  0.47875000  0.84797000  0.22729000  1.0
  H  H13  1  0.02125000  0.34797000  0.27271000  1.0
  H  H14  1  0.47875000  0.65203000  0.77271000  1.0
  H  H15  1  0.02125000  0.15203000  0.72729000  1.0
  H  H16  1  0.52125000  0.15203000  0.77271000  1.0
  H  H17  1  0.97875000  0.65204000  0.72729000  1.0
  H  H18  1  0.52125000  0.34797000  0.22729000  1.0
  H  H19  1  0.97875000  0.84796000  0.27271000  1.0
  H  H20  1  0.49449000  0.90353000  0.07669000  1.0
  H  H21  1  0.00551000  0.40353000  0.42331000  1.0
  H  H22  1  0.49449000  0.59647000  0.92331000  1.0
  H  H23  1  0.00551000  0.09647000  0.57669000  1.0
  H  H24  1  0.50551000  0.09647000  0.92330000  1.0
  H  H25  1  0.99449000  0.59647000  0.57670000  1.0
  H  H26  1  0.50551000  0.40353000  0.07670000  1.0
  H  H27  1  0.99449000  0.90353000  0.42330000  1.0
  H  H28  1  0.62634000  0.48324000  0.38353000  1.0
  H  H29  1  0.87365000  0.98324000  0.11647000  1.0
  H  H30  1  0.62634000  0.01676000  0.61647000  1.0
  H  H31  1  0.87365000  0.51676000  0.88353000  1.0
  H  H32  1  0.37366000  0.51676000  0.61647000  1.0
  H  H33  1  0.12634000  0.01676000  0.88353000  1.0
  H  H34  1  0.37366000  0.98324000  0.38353000  1.0
  H  H35  1  0.12634000  0.48324000  0.11647000  1.0
  C  C36  1  0.69705000  0.61688000  0.07644000  1.0
  C  C37  1  0.80295000  0.11688000  0.42356000  1.0
  C  C38  1  0.69705000  0.88312000  0.92356000  1.0
  C  C39  1  0.80295000  0.38312000  0.57644000  1.0
  C  C40  1  0.30295000  0.38312000  0.92356000  1.0
  C  C41  1  0.19705000  0.88312000  0.57644000  1.0
  C  C42  1  0.30295000  0.11688000  0.07644000  1.0
  C  C43  1  0.19705000  0.61688000  0.42356000  1.0
  C  C44  1  0.68387000  0.58388000  0.16047000  1.0
  C  C45  1  0.81613000  0.08388000  0.33954000  1.0
  C  C46  1  0.68388000  0.91612000  0.83953000  1.0
  C  C47  1  0.81613000  0.41612000  0.66046000  1.0
  C  C48  1  0.31613000  0.41612000  0.83953000  1.0
  C  C49  1  0.18387000  0.91612000  0.66046000  1.0
  C  C50  1  0.31613000  0.08388000  0.16047000  1.0
  C  C51  1  0.18387000  0.58388000  0.33954000  1.0
  C  C52  1  0.60625000  0.66710000  0.21504000  1.0
  C  C53  1  0.89375000  0.16710000  0.28496000  1.0
  C  C54  1  0.60625000  0.83290000  0.78496000  1.0
  C  C55  1  0.89375000  0.33290000  0.71504000  1.0
  C  C56  1  0.39375000  0.33290000  0.78496000  1.0
  C  C57  1  0.10625000  0.83290000  0.71504000  1.0
  C  C58  1  0.39375000  0.16710000  0.21504000  1.0
  C  C59  1  0.10625000  0.66710000  0.28496000  1.0
  C  C60  1  0.54014000  0.78397000  0.18457000  1.0
  C  C61  1  0.95985000  0.28397000  0.31543000  1.0
  C  C62  1  0.54015000  0.71603000  0.81543000  1.0
  C  C63  1  0.95985000  0.21603000  0.68457000  1.0
  C  C64  1  0.45986000  0.21603000  0.81542000  1.0
  C  C65  1  0.04014000  0.71603000  0.68458000  1.0
  C  C66  1  0.45986000  0.28397000  0.18458000  1.0
  C  C67  1  0.04014000  0.78397000  0.31542000  1.0
  C  C68  1  0.55099000  0.81556000  0.10056000  1.0
  C  C69  1  0.94901000  0.31556000  0.39944000  1.0
  C  C70  1  0.55099000  0.68444000  0.89944000  1.0
  C  C71  1  0.94901000  0.18444000  0.60056000  1.0
  C  C72  1  0.44901000  0.18444000  0.89944000  1.0
  C  C73  1  0.05099000  0.68444000  0.60056000  1.0
  C  C74  1  0.44901000  0.31556000  0.10056000  1.0
  C  C75  1  0.05099000  0.81556000  0.39944000  1.0
  C  C76  1  0.62952000  0.73355000  0.04515000  1.0
  C  C77  1  0.87049000  0.23355000  0.45485000  1.0
  C  C78  1  0.62952000  0.76645000  0.95485000  1.0
  C  C79  1  0.87048000  0.26645000  0.54515000  1.0
  C  C80  1  0.37048000  0.26645000  0.95485000  1.0
  C  C81  1  0.12951000  0.76645000  0.54515000  1.0
  C  C82  1  0.37049000  0.23355000  0.04515000  1.0
  C  C83  1  0.12951000  0.73355000  0.45485000  1.0
  C  C84  1  0.78851000  0.52775000  0.02243000  1.0
  C  C85  1  0.71150000  0.02775000  0.47757000  1.0
  C  C86  1  0.78851000  0.97225000  0.97757000  1.0
  C  C87  1  0.71150000  0.47225000  0.52243000  1.0
  C  C88  1  0.21150000  0.47226000  0.97757000  1.0
  C  C89  1  0.28850000  0.97226000  0.52243000  1.0
  C  C90  1  0.21150000  0.02774000  0.02243000  1.0
  C  C91  1  0.28850000  0.52774000  0.47757000  1.0
  C  C92  1  0.59175000  0.63154000  0.30431000  1.0
  C  C93  1  0.90825000  0.13154000  0.19569000  1.0
  C  C94  1  0.59175000  0.86846000  0.69569000  1.0
  C  C95  1  0.90825000  0.36846000  0.80431000  1.0
  C  C96  1  0.40825000  0.36845000  0.69568000  1.0
  C  C97  1  0.09174000  0.86845000  0.80432000  1.0
  C  C98  1  0.40825000  0.13155000  0.30432000  1.0
  C  C99  1  0.09174000  0.63155000  0.19568000  1.0
  O  O100  1  0.87379000  0.58318000  0.96796000  1.0
  O  O101  1  0.62622000  0.08318000  0.53204000  1.0
  O  O102  1  0.87379000  0.91682000  0.03204000  1.0
  O  O103  1  0.62622000  0.41682000  0.46796000  1.0
  O  O104  1  0.12621000  0.41681000  0.03204000  1.0
  O  O105  1  0.37379000  0.91682000  0.46796000  1.0
  O  O106  1  0.12621000  0.08319000  0.96796000  1.0
  O  O107  1  0.37379000  0.58319000  0.53204000  1.0
  O  O108  1  0.77771000  0.40338000  0.03322000  1.0
  O  O109  1  0.72229000  0.90338000  0.46678000  1.0
  O  O110  1  0.77771000  0.09662000  0.96678000  1.0
  O  O111  1  0.72229000  0.59662000  0.53322000  1.0
  O  O112  1  0.22230000  0.59661000  0.96678000  1.0
  O  O113  1  0.27771000  0.09662000  0.53322000  1.0
  O  O114  1  0.22230000  0.90339000  0.03322000  1.0
  O  O115  1  0.27771000  0.40338000  0.46678000  1.0
  O  O116  1  0.64086000  0.51070000  0.32197000  1.0
  O  O117  1  0.85914000  0.01071000  0.17803000  1.0
  O  O118  1  0.64086000  0.98929000  0.67803000  1.0
  O  O119  1  0.85914000  0.48929000  0.82197000  1.0
  O  O120  1  0.35914000  0.48929000  0.67802000  1.0
  O  O121  1  0.14086000  0.98930000  0.82198000  1.0
  O  O122  1  0.35914000  0.01071000  0.32198000  1.0
  O  O123  1  0.14086000  0.51070000  0.17802000  1.0
  O  O124  1  0.53551000  0.70989000  0.35565000  1.0
  O  O125  1  0.96449000  0.20989000  0.14434000  1.0
  O  O126  1  0.53551000  0.79011000  0.64435000  1.0
  O  O127  1  0.96448000  0.29011000  0.85566000  1.0
  O  O128  1  0.46448000  0.29011000  0.64435000  1.0
  O  O129  1  0.03552000  0.79011000  0.85565000  1.0
  O  O130  1  0.46448000  0.20989000  0.35565000  1.0
  O  O131  1  0.03552000  0.70989000  0.14435000  1.0
