# generated using pymatgen
data_ZnH4C4(N2O)2
_symmetry_space_group_name_H-M   'P 1'
_cell_length_a   6.84659000
_cell_length_b   8.93708000
_cell_length_c   10.43270000
_cell_angle_alpha   89.99990000
_cell_angle_beta   90.00000000
_cell_angle_gamma   101.38400000
_symmetry_Int_Tables_number   1
_chemical_formula_structural   ZnH4C4(N2O)2
_chemical_formula_sum   'Zn4 H16 C16 N16 O8'
_cell_volume   625.80258755
_cell_formula_units_Z   4
loop_
 _symmetry_equiv_pos_site_id
 _symmetry_equiv_pos_as_xyz
  1  'x, y, z'
loop_
 _atom_site_type_symbol
 _atom_site_label
 _atom_site_symmetry_multiplicity
 _atom_site_fract_x
 _atom_site_fract_y
 _atom_site_fract_z
 _atom_site_occupancy
  Zn  Zn0  1  0.73041000  0.77601000  0.75651000  1.0
  Zn  Zn1  1  0.26959000  0.72399000  0.25651000  1.0
  Zn  Zn2  1  0.26959000  0.22399000  0.24349000  1.0
  Zn  Zn3  1  0.73041000  0.27601000  0.74349000  1.0
  H  H4  1  0.38242000  0.54747000  0.65973000  1.0
  H  H5  1  0.61758000  0.95254000  0.15973000  1.0
  H  H6  1  0.61758000  0.45254000  0.34027000  1.0
  H  H7  1  0.38242000  0.04746000  0.84027000  1.0
  H  H8  1  0.26553000  0.51022000  0.50897000  1.0
  H  H9  1  0.73446000  0.98978000  0.00897000  1.0
  H  H10  1  0.73447000  0.48978000  0.49103000  1.0
  H  H11  1  0.26553000  0.01022000  0.99103000  1.0
  H  H12  1  0.18262000  0.74473000  0.70912000  1.0
  H  H13  1  0.81738000  0.75527000  0.20912000  1.0
  H  H14  1  0.81739000  0.25527000  0.29087000  1.0
  H  H15  1  0.18262000  0.24473000  0.79088000  1.0
  H  H16  1  0.07433000  0.72550000  0.55606000  1.0
  H  H17  1  0.92566000  0.77450000  0.05606000  1.0
  H  H18  1  0.92567000  0.27450000  0.44394000  1.0
  H  H19  1  0.07434000  0.22549000  0.94394000  1.0
  C  C20  1  0.46568000  0.72316000  0.52149000  1.0
  C  C21  1  0.53432000  0.77684000  0.02149000  1.0
  C  C22  1  0.53432000  0.27684000  0.47851000  1.0
  C  C23  1  0.46568000  0.22316000  0.97851000  1.0
  C  C24  1  0.31496000  0.59977000  0.58025000  1.0
  C  C25  1  0.68504000  0.90023000  0.08025000  1.0
  C  C26  1  0.68504000  0.40023000  0.41975000  1.0
  C  C27  1  0.31496000  0.09977000  0.91975000  1.0
  C  C28  1  0.13687000  0.66229000  0.63132000  1.0
  C  C29  1  0.86313000  0.83771000  0.13132000  1.0
  C  C30  1  0.86313000  0.33771000  0.36868000  1.0
  C  C31  1  0.13687000  0.16229000  0.86868000  1.0
  C  C32  1  0.97091000  0.54011000  0.68148000  1.0
  C  C33  1  0.02909000  0.95989000  0.18148000  1.0
  C  C34  1  0.02909000  0.45989000  0.31852000  1.0
  C  C35  1  0.97091000  0.04011000  0.81852000  1.0
  N  N36  1  0.62320000  0.80639000  0.58233000  1.0
  N  N37  1  0.37680000  0.69361000  0.08233000  1.0
  N  N38  1  0.37680000  0.19361000  0.41767000  1.0
  N  N39  1  0.62320000  0.30639000  0.91767000  1.0
  N  N40  1  0.71862000  0.91174000  0.49755000  1.0
  N  N41  1  0.28138000  0.58827000  0.99755000  1.0
  N  N42  1  0.28138000  0.08826000  0.50245000  1.0
  N  N43  1  0.71862000  0.41173000  0.00245000  1.0
  N  N44  1  0.62288000  0.89368000  0.38950000  1.0
  N  N45  1  0.37712000  0.60632000  0.88950000  1.0
  N  N46  1  0.37712000  0.10632000  0.61050000  1.0
  N  N47  1  0.62288000  0.39368000  0.11050000  1.0
  N  N48  1  0.46340000  0.77584000  0.40114000  1.0
  N  N49  1  0.53659000  0.72416000  0.90114000  1.0
  N  N50  1  0.53660000  0.22416000  0.59886000  1.0
  N  N51  1  0.46340000  0.27584000  0.09886000  1.0
  O  O52  1  0.81021000  0.57405000  0.72421000  1.0
  O  O53  1  0.18979000  0.92596000  0.22421000  1.0
  O  O54  1  0.18979000  0.42595000  0.27579000  1.0
  O  O55  1  0.81021000  0.07404000  0.77579000  1.0
  O  O56  1  0.98766000  0.40033000  0.67705000  1.0
  O  O57  1  0.01234000  0.09968000  0.17705000  1.0
  O  O58  1  0.01234000  0.59967000  0.32295000  1.0
  O  O59  1  0.98766000  0.90033000  0.82295000  1.0
