# generated using pymatgen
data_SmP2H12C6NO11
_symmetry_space_group_name_H-M   'P 1'
_cell_length_a   8.97308000
_cell_length_b   10.93030000
_cell_length_c   15.23520000
_cell_angle_alpha   93.02020000
_cell_angle_beta   90.00000000
_cell_angle_gamma   90.00000000
_symmetry_Int_Tables_number   1
_chemical_formula_structural   SmP2H12C6NO11
_chemical_formula_sum   'Sm4 P8 H48 C24 N4 O44'
_cell_volume   1492.16942347
_cell_formula_units_Z   4
loop_
 _symmetry_equiv_pos_site_id
 _symmetry_equiv_pos_as_xyz
  1  'x, y, z'
loop_
 _atom_site_type_symbol
 _atom_site_label
 _atom_site_symmetry_multiplicity
 _atom_site_fract_x
 _atom_site_fract_y
 _atom_site_fract_z
 _atom_site_occupancy
  Sm  Sm0  1  0.24875000  0.40372000  0.61752000  1.0
  Sm  Sm1  1  0.74875000  0.59628000  0.88248000  1.0
  Sm  Sm2  1  0.75125000  0.59628000  0.38248000  1.0
  Sm  Sm3  1  0.25125000  0.40372000  0.11752000  1.0
  P  P4  1  0.15257000  0.63695000  0.45529000  1.0
  P  P5  1  0.65256000  0.36305000  0.04471000  1.0
  P  P6  1  0.84744000  0.36305000  0.54471000  1.0
  P  P7  1  0.34743000  0.63695000  0.95529000  1.0
  P  P8  1  0.19331000  0.06060000  0.60428000  1.0
  P  P9  1  0.69331000  0.93940000  0.89572000  1.0
  P  P10  1  0.80669000  0.93940000  0.39572000  1.0
  P  P11  1  0.30669000  0.06060000  0.10428000  1.0
  H  H12  1  0.18567000  0.92423000  0.69959000  1.0
  H  H13  1  0.68567000  0.07577000  0.80041000  1.0
  H  H14  1  0.81433000  0.07577000  0.30041000  1.0
  H  H15  1  0.31432000  0.92423000  0.19959000  1.0
  H  H16  1  0.47452000  0.37269000  0.45279000  1.0
  H  H17  1  0.97452000  0.62731000  0.04721000  1.0
  H  H18  1  0.52548000  0.62731000  0.54721000  1.0
  H  H19  1  0.02548000  0.37269000  0.95279000  1.0
  H  H20  1  0.55194000  0.39618000  0.54200000  1.0
  H  H21  1  0.05194000  0.60382000  0.95800000  1.0
  H  H22  1  0.44806000  0.60382000  0.45800000  1.0
  H  H23  1  0.94806000  0.39618000  0.04200000  1.0
  H  H24  1  0.10627000  0.91338000  0.44135000  1.0
  H  H25  1  0.60627000  0.08662000  0.05865000  1.0
  H  H26  1  0.89373000  0.08662000  0.55865000  1.0
  H  H27  1  0.39373000  0.91338000  0.94135000  1.0
  H  H28  1  0.12967000  0.79832000  0.56802000  1.0
  H  H29  1  0.62967000  0.20168000  0.93198000  1.0
  H  H30  1  0.87033000  0.20168000  0.43198000  1.0
  H  H31  1  0.37033000  0.79832000  0.06802000  1.0
  H  H32  1  0.32203000  0.76490000  0.54472000  1.0
  H  H33  1  0.82202000  0.23510000  0.95528000  1.0
  H  H34  1  0.67798000  0.23510000  0.45528000  1.0
  H  H35  1  0.17798000  0.76490000  0.04472000  1.0
  H  H36  1  0.29150000  0.06915000  0.45912000  1.0
  H  H37  1  0.79150000  0.93085000  0.04088000  1.0
  H  H38  1  0.70850000  0.93085000  0.54088000  1.0
  H  H39  1  0.20850000  0.06915000  0.95912000  1.0
  H  H40  1  0.40257000  0.97187000  0.52354000  1.0
  H  H41  1  0.90256000  0.02813000  0.97646000  1.0
  H  H42  1  0.59744000  0.02813000  0.47646000  1.0
  H  H43  1  0.09744000  0.97187000  0.02354000  1.0
  H  H44  1  0.29694000  0.94584000  0.33975000  1.0
  H  H45  1  0.79694000  0.05416000  0.16025000  1.0
  H  H46  1  0.70306000  0.05416000  0.66025000  1.0
  H  H47  1  0.20305000  0.94584000  0.83975000  1.0
  H  H48  1  0.41515000  0.83475000  0.38833000  1.0
  H  H49  1  0.91515000  0.16525000  0.11167000  1.0
  H  H50  1  0.58485000  0.16525000  0.61167000  1.0
  H  H51  1  0.08484000  0.83475000  0.88833000  1.0
  H  H52  1  0.10434000  0.77996000  0.30787000  1.0
  H  H53  1  0.60434000  0.22004000  0.19213000  1.0
  H  H54  1  0.89567000  0.22004000  0.69213000  1.0
  H  H55  1  0.39566000  0.77996000  0.80787000  1.0
  H  H56  1  0.27864000  0.74433000  0.25553000  1.0
  H  H57  1  0.77864000  0.25567000  0.24446000  1.0
  H  H58  1  0.72136000  0.25567000  0.74447000  1.0
  H  H59  1  0.22136000  0.74433000  0.75554000  1.0
  C  C60  1  0.21175000  0.77853000  0.51585000  1.0
  C  C61  1  0.71175000  0.22147000  0.98415000  1.0
  C  C62  1  0.78825000  0.22147000  0.48415000  1.0
  C  C63  1  0.28825000  0.77853000  0.01585000  1.0
  C  C64  1  0.28817000  0.99592000  0.50574000  1.0
  C  C65  1  0.78817000  0.00408000  0.99427000  1.0
  C  C66  1  0.71183000  0.00408000  0.49426000  1.0
  C  C67  1  0.21183000  0.99592000  0.00573000  1.0
  C  C68  1  0.29932000  0.85998000  0.37403000  1.0
  C  C69  1  0.79931000  0.14002000  0.12597000  1.0
  C  C70  1  0.70069000  0.14002000  0.62597000  1.0
  C  C71  1  0.20068000  0.85998000  0.87403000  1.0
  C  C72  1  0.22252000  0.75915000  0.31924000  1.0
  C  C73  1  0.72252000  0.24085000  0.18076000  1.0
  C  C74  1  0.77748000  0.24085000  0.68076000  1.0
  C  C75  1  0.27748000  0.75915000  0.81924000  1.0
  C  C76  1  0.52808000  0.55792000  0.71348000  1.0
  C  C77  1  0.02808000  0.44208000  0.78652000  1.0
  C  C78  1  0.47192000  0.44208000  0.28652000  1.0
  C  C79  1  0.97192000  0.55792000  0.21348000  1.0
  C  C80  1  0.52354000  0.43313000  0.75790000  1.0
  C  C81  1  0.02354000  0.56687000  0.74209000  1.0
  C  C82  1  0.47646000  0.56687000  0.24210000  1.0
  C  C83  1  0.97646000  0.43313000  0.25790000  1.0
  N  N84  1  0.21879000  0.88681000  0.45949000  1.0
  N  N85  1  0.71878000  0.11319000  0.04051000  1.0
  N  N86  1  0.78122000  0.11319000  0.54051000  1.0
  N  N87  1  0.28121000  0.88681000  0.95949000  1.0
  O  O88  1  0.22694000  0.53039000  0.49585000  1.0
  O  O89  1  0.72694000  0.46961000  0.00415000  1.0
  O  O90  1  0.77306000  0.46961000  0.50415000  1.0
  O  O91  1  0.27306000  0.53039000  0.99585000  1.0
  O  O92  1  0.23685000  0.64440000  0.36159000  1.0
  O  O93  1  0.73685000  0.35560000  0.13841000  1.0
  O  O94  1  0.76316000  0.35560000  0.63841000  1.0
  O  O95  1  0.26315000  0.64440000  0.86159000  1.0
  O  O96  1  0.98690000  0.64464000  0.44367000  1.0
  O  O97  1  0.48690000  0.35536000  0.05634000  1.0
  O  O98  1  0.01310000  0.35536000  0.55634000  1.0
  O  O99  1  0.51310000  0.64463000  0.94366000  1.0
  O  O100  1  0.02899000  0.03300000  0.59924000  1.0
  O  O101  1  0.52899000  0.96699000  0.90076000  1.0
  O  O102  1  0.97101000  0.96699000  0.40076000  1.0
  O  O103  1  0.47101000  0.03301000  0.09924000  1.0
  O  O104  1  0.25456000  0.18818000  0.61268000  1.0
  O  O105  1  0.75455000  0.81182000  0.88733000  1.0
  O  O106  1  0.74545000  0.81182000  0.38733000  1.0
  O  O107  1  0.24544000  0.18818000  0.11268000  1.0
  O  O108  1  0.26015000  0.98438000  0.68395000  1.0
  O  O109  1  0.76014000  0.01561000  0.81605000  1.0
  O  O110  1  0.73986000  0.01561000  0.31605000  1.0
  O  O111  1  0.23985000  0.98438000  0.18395000  1.0
  O  O112  1  0.44781000  0.56552000  0.64456000  1.0
  O  O113  1  0.94781000  0.43449000  0.85544000  1.0
  O  O114  1  0.55219000  0.43449000  0.35544000  1.0
  O  O115  1  0.05219000  0.56552000  0.14456000  1.0
  O  O116  1  0.61040000  0.64041000  0.74769000  1.0
  O  O117  1  0.11040000  0.35960000  0.75231000  1.0
  O  O118  1  0.38960000  0.35960000  0.25232000  1.0
  O  O119  1  0.88960000  0.64041000  0.24769000  1.0
  O  O120  1  0.43557000  0.35257000  0.72580000  1.0
  O  O121  1  0.93556000  0.64743000  0.77420000  1.0
  O  O122  1  0.56444000  0.64743000  0.27420000  1.0
  O  O123  1  0.06442000  0.35257000  0.22580000  1.0
  O  O124  1  0.61227000  0.42100000  0.82179000  1.0
  O  O125  1  0.11225000  0.57900000  0.67821000  1.0
  O  O126  1  0.38774000  0.57900000  0.17821000  1.0
  O  O127  1  0.88772000  0.42100000  0.32179000  1.0
  O  O128  1  0.46678000  0.35177000  0.51549000  1.0
  O  O129  1  0.96678000  0.64823000  0.98451000  1.0
  O  O130  1  0.53323000  0.64823000  0.48451000  1.0
  O  O131  1  0.03322000  0.35177000  0.01549000  1.0
