# generated using pymatgen
data_AgH13C17SN3ClO4
_symmetry_space_group_name_H-M   'P 1'
_cell_length_a   7.42806000
_cell_length_b   10.82010000
_cell_length_c   11.25170000
_cell_angle_alpha   77.07060000
_cell_angle_beta   71.26650000
_cell_angle_gamma   76.85470000
_symmetry_Int_Tables_number   1
_chemical_formula_structural   AgH13C17SN3ClO4
_chemical_formula_sum   'Ag2 H26 C34 S2 N6 Cl2 O8'
_cell_volume   822.76375374
_cell_formula_units_Z   2
loop_
 _symmetry_equiv_pos_site_id
 _symmetry_equiv_pos_as_xyz
  1  'x, y, z'
loop_
 _atom_site_type_symbol
 _atom_site_label
 _atom_site_symmetry_multiplicity
 _atom_site_fract_x
 _atom_site_fract_y
 _atom_site_fract_z
 _atom_site_occupancy
  Ag  Ag0  1  0.40472000  0.44493000  0.42316000  1.0
  Ag  Ag1  1  0.59527000  0.55507000  0.57685000  1.0
  H  H2  1  0.28381000  0.82102000  0.21617000  1.0
  H  H3  1  0.71619000  0.17898000  0.78383000  1.0
  H  H4  1  0.45566000  0.88912000  0.08758000  1.0
  H  H5  1  0.54434000  0.11088000  0.91242000  1.0
  H  H6  1  0.85114000  0.11667000  0.32355000  1.0
  H  H7  1  0.14886000  0.88333000  0.67645000  1.0
  H  H8  1  0.41859000  0.11708000  0.46582000  1.0
  H  H9  1  0.58141000  0.88291000  0.53418000  1.0
  H  H10  1  0.08593000  0.19474000  0.59519000  1.0
  H  H11  1  0.91407000  0.80526000  0.40481000  1.0
  H  H12  1  0.51324000  0.64391000  0.17603000  1.0
  H  H13  1  0.48676000  0.35609000  0.82397000  1.0
  H  H14  1  0.72319000  0.64459000  0.95403000  1.0
  H  H15  1  0.27681000  0.35541000  0.04597000  1.0
  H  H16  1  0.82940000  0.22706000  0.04037000  1.0
  H  H17  1  0.17060000  0.77294000  0.95963000  1.0
  H  H18  1  0.62945000  0.24762000  0.26104000  1.0
  H  H19  1  0.37055000  0.75238000  0.73896000  1.0
  H  H20  1  0.03251000  0.60445000  0.54835000  1.0
  H  H21  1  0.96749000  0.39555000  0.45165000  1.0
  H  H22  1  0.79633000  0.61496000  0.75996000  1.0
  H  H23  1  0.20367000  0.38505000  0.24004000  1.0
  H  H24  1  0.10061000  0.24301000  0.89139000  1.0
  H  H25  1  0.89938000  0.75699000  0.10861000  1.0
  H  H26  1  0.33416000  0.25552000  0.67436000  1.0
  H  H27  1  0.66584000  0.74448000  0.32564000  1.0
  C  C28  1  0.94703000  0.16540000  0.46572000  1.0
  C  C29  1  0.05297000  0.83460000  0.53428000  1.0
  C  C30  1  0.97517000  0.11915000  0.35366000  1.0
  C  C31  1  0.02483000  0.88085000  0.64634000  1.0
  C  C32  1  0.16028000  0.07450000  0.28009000  1.0
  C  C33  1  0.83972000  0.92550000  0.71991000  1.0
  C  C34  1  0.32048000  0.07446000  0.32084000  1.0
  C  C35  1  0.67952000  0.92554000  0.67916000  1.0
  C  C36  1  0.29367000  0.11693000  0.43490000  1.0
  C  C37  1  0.70633000  0.88306000  0.56510000  1.0
  C  C38  1  0.10817000  0.16144000  0.50628000  1.0
  C  C39  1  0.89184000  0.83856000  0.49372000  1.0
  C  C40  1  0.74710000  0.22472000  0.53790000  1.0
  C  C41  1  0.25290000  0.77528000  0.46210000  1.0
  C  C42  1  0.58856000  0.55458000  0.14109000  1.0
  C  C43  1  0.41144000  0.44542000  0.85891000  1.0
  C  C44  1  0.70382000  0.55293000  0.01660000  1.0
  C  C45  1  0.29617000  0.44707000  0.98340000  1.0
  C  C46  1  0.79787000  0.43494000  0.97629000  1.0
  C  C47  1  0.20213000  0.56506000  0.02371000  1.0
  C  C48  1  0.76725000  0.32237000  0.06544000  1.0
  C  C49  1  0.23275000  0.67763000  0.93456000  1.0
  C  C50  1  0.65290000  0.33235000  0.18863000  1.0
  C  C51  1  0.34709000  0.66765000  0.81137000  1.0
  C  C52  1  0.04350000  0.52792000  0.62795000  1.0
  C  C53  1  0.95650000  0.47208000  0.37205000  1.0
  C  C54  1  0.91123000  0.53208000  0.74686000  1.0
  C  C55  1  0.08877000  0.46792000  0.25314000  1.0
  C  C56  1  0.92787000  0.43001000  0.84655000  1.0
  C  C57  1  0.07213000  0.56999000  0.15345000  1.0
  C  C58  1  0.07793000  0.32562000  0.81884000  1.0
  C  C59  1  0.92207000  0.67439000  0.18116000  1.0
  C  C60  1  0.20893000  0.33062000  0.69845000  1.0
  C  C61  1  0.79107000  0.66938000  0.30155000  1.0
  S  S62  1  0.17833000  0.02385000  0.13494000  1.0
  S  S63  1  0.82167000  0.97615000  0.86506000  1.0
  N  N64  1  0.31210000  0.88323000  0.12888000  1.0
  N  N65  1  0.68790000  0.11677000  0.87112000  1.0
  N  N66  1  0.56520000  0.44634000  0.22700000  1.0
  N  N67  1  0.43481000  0.55366000  0.77300000  1.0
  N  N68  1  0.19313000  0.43101000  0.60435000  1.0
  N  N69  1  0.80687000  0.56899000  0.39565000  1.0
  Cl  Cl70  1  0.55374000  0.02287000  0.23459000  1.0
  Cl  Cl71  1  0.44626000  0.97712000  0.76541000  1.0
  O  O72  1  0.73395000  0.27343000  0.63469000  1.0
  O  O73  1  0.26605000  0.72657000  0.36531000  1.0
  O  O74  1  0.60916000  0.22659000  0.49406000  1.0
  O  O75  1  0.39084000  0.77341000  0.50594000  1.0
  O  O76  1  0.98468000  0.01220000  0.14338000  1.0
  O  O77  1  0.01532000  0.98780000  0.85662000  1.0
  O  O78  1  0.27700000  0.11372000  0.03011000  1.0
  O  O79  1  0.72300000  0.88628000  0.96989000  1.0
