# generated using pymatgen
data_NiH16C24(N3O7)2
_symmetry_space_group_name_H-M   'P 1'
_cell_length_a   11.26250000
_cell_length_b   11.26250000
_cell_length_c   30.97130000
_cell_angle_alpha   90.00000000
_cell_angle_beta   90.00000000
_cell_angle_gamma   119.61100000
_symmetry_Int_Tables_number   1
_chemical_formula_structural   NiH16C24(N3O7)2
_chemical_formula_sum   'Ni4 H64 C96 N24 O56'
_cell_volume   3415.45620150
_cell_formula_units_Z   4
loop_
 _symmetry_equiv_pos_site_id
 _symmetry_equiv_pos_as_xyz
  1  'x, y, z'
loop_
 _atom_site_type_symbol
 _atom_site_label
 _atom_site_symmetry_multiplicity
 _atom_site_fract_x
 _atom_site_fract_y
 _atom_site_fract_z
 _atom_site_occupancy
  Ni  Ni0  1  0.23975000  0.68601000  0.42643000  1.0
  Ni  Ni1  1  0.18600000  0.73975000  0.92643000  1.0
  Ni  Ni2  1  0.68601000  0.23975000  0.57357000  1.0
  Ni  Ni3  1  0.73975000  0.18600000  0.07357000  1.0
  H  H4  1  0.11492000  0.43960000  0.40632000  1.0
  H  H5  1  0.06788000  0.42947000  0.45734000  1.0
  H  H6  1  0.44276000  0.92479000  0.40587000  1.0
  H  H7  1  0.37465000  0.93743000  0.45012000  1.0
  H  H8  1  0.10001000  0.36520000  0.27323000  1.0
  H  H9  1  0.27607000  0.79721000  0.29433000  1.0
  H  H10  1  0.46610000  0.70735000  0.07139000  1.0
  H  H11  1  0.09398000  0.72678000  0.06379000  1.0
  H  H12  1  0.35578000  0.53140000  0.38292000  1.0
  H  H13  1  0.57364000  0.52990000  0.37763000  1.0
  H  H14  1  0.73428000  0.84569000  0.47575000  1.0
  H  H15  1  0.50956000  0.83543000  0.47606000  1.0
  H  H16  1  0.93294000  0.90475000  0.44302000  1.0
  H  H17  1  0.14809000  0.89529000  0.44231000  1.0
  H  H18  1  0.94888000  0.49423000  0.39984000  1.0
  H  H19  1  0.72363000  0.48234000  0.40193000  1.0
  H  H20  1  0.93960000  0.61491000  0.90632000  1.0
  H  H21  1  0.92946000  0.56788000  0.95734000  1.0
  H  H22  1  0.42479000  0.94276000  0.90586000  1.0
  H  H23  1  0.43743000  0.87465000  0.95012000  1.0
  H  H24  1  0.86519000  0.60000000  0.77323000  1.0
  H  H25  1  0.29721000  0.77607000  0.79434000  1.0
  H  H26  1  0.20734000  0.96611000  0.57139000  1.0
  H  H27  1  0.22677000  0.59398000  0.56379000  1.0
  H  H28  1  0.03139000  0.85578000  0.88291000  1.0
  H  H29  1  0.02989000  0.07364000  0.87763000  1.0
  H  H30  1  0.34569000  0.23428000  0.97575000  1.0
  H  H31  1  0.33543000  0.00956000  0.97606000  1.0
  H  H32  1  0.40475000  0.43294000  0.94302000  1.0
  H  H33  1  0.39529000  0.64810000  0.94231000  1.0
  H  H34  1  0.99423000  0.44888000  0.89984000  1.0
  H  H35  1  0.98234000  0.22363000  0.90193000  1.0
  H  H36  1  0.43960000  0.11491000  0.59368000  1.0
  H  H37  1  0.42947000  0.06788000  0.54266000  1.0
  H  H38  1  0.92480000  0.44276000  0.59414000  1.0
  H  H39  1  0.93743000  0.37465000  0.54988000  1.0
  H  H40  1  0.36519000  0.10000000  0.72676000  1.0
  H  H41  1  0.79721000  0.27607000  0.70566000  1.0
  H  H42  1  0.70735000  0.46610000  0.92861000  1.0
  H  H43  1  0.72677000  0.09398000  0.93621000  1.0
  H  H44  1  0.53140000  0.35578000  0.61708000  1.0
  H  H45  1  0.52989000  0.57363000  0.62237000  1.0
  H  H46  1  0.84569000  0.73428000  0.52425000  1.0
  H  H47  1  0.83543000  0.50956000  0.52394000  1.0
  H  H48  1  0.90475000  0.93294000  0.55698000  1.0
  H  H49  1  0.89528000  0.14809000  0.55769000  1.0
  H  H50  1  0.49423000  0.94888000  0.60016000  1.0
  H  H51  1  0.48234000  0.72363000  0.59808000  1.0
  H  H52  1  0.61492000  0.93959000  0.09368000  1.0
  H  H53  1  0.56788000  0.92946000  0.04266000  1.0
  H  H54  1  0.94277000  0.42479000  0.09413000  1.0
  H  H55  1  0.87465000  0.43742000  0.04988000  1.0
  H  H56  1  0.60001000  0.86519000  0.22677000  1.0
  H  H57  1  0.77607000  0.29720000  0.20566000  1.0
  H  H58  1  0.96611000  0.20736000  0.42861000  1.0
  H  H59  1  0.59397000  0.22676000  0.43621000  1.0
  H  H60  1  0.85578000  0.03139000  0.11708000  1.0
  H  H61  1  0.07364000  0.02990000  0.12237000  1.0
  H  H62  1  0.23429000  0.34569000  0.02425000  1.0
  H  H63  1  0.00956000  0.33543000  0.02394000  1.0
  H  H64  1  0.43295000  0.40476000  0.05698000  1.0
  H  H65  1  0.64810000  0.39529000  0.05769000  1.0
  H  H66  1  0.44888000  0.99424000  0.10016000  1.0
  H  H67  1  0.22364000  0.98234000  0.09807000  1.0
  C  C68  1  0.17594000  0.55898000  0.33761000  1.0
  C  C69  1  0.18841000  0.57914000  0.28931000  1.0
  C  C70  1  0.14455000  0.46920000  0.26097000  1.0
  C  C71  1  0.15592000  0.49240000  0.21659000  1.0
  C  C72  1  0.21073000  0.62366000  0.19830000  1.0
  C  C73  1  0.25115000  0.73122000  0.22816000  1.0
  C  C74  1  0.24222000  0.71055000  0.27256000  1.0
  C  C75  1  0.23222000  0.64995000  0.15092000  1.0
  C  C76  1  0.34730000  0.66178000  0.12926000  1.0
  C  C77  1  0.37405000  0.69833000  0.08593000  1.0
  C  C78  1  0.28451000  0.72437000  0.06221000  1.0
  C  C79  1  0.16636000  0.70908000  0.08203000  1.0
  C  C80  1  0.14314000  0.67427000  0.12529000  1.0
  C  C81  1  0.31191000  0.77130000  0.01607000  1.0
  C  C82  1  0.44246000  0.60004000  0.40278000  1.0
  C  C83  1  0.56491000  0.59898000  0.40036000  1.0
  C  C84  1  0.67513000  0.68907000  0.42613000  1.0
  C  C85  1  0.65440000  0.77554000  0.45396000  1.0
  C  C86  1  0.52860000  0.77005000  0.45449000  1.0
  C  C87  1  0.80701000  0.69174000  0.42429000  1.0
  C  C88  1  0.93004000  0.80908000  0.43514000  1.0
  C  C89  1  0.05144000  0.80534000  0.43416000  1.0
  C  C90  1  0.94034000  0.58170000  0.41061000  1.0
  C  C91  1  0.81468000  0.57648000  0.41133000  1.0
  C  C92  1  0.05898000  0.67593000  0.83761000  1.0
  C  C93  1  0.07913000  0.68841000  0.78931000  1.0
  C  C94  1  0.96919000  0.64455000  0.76097000  1.0
  C  C95  1  0.99240000  0.65592000  0.71659000  1.0
  C  C96  1  0.12366000  0.71073000  0.69831000  1.0
  C  C97  1  0.23122000  0.75116000  0.72817000  1.0
  C  C98  1  0.21055000  0.74222000  0.77257000  1.0
  C  C99  1  0.14995000  0.73222000  0.65093000  1.0
  C  C100  1  0.16178000  0.84731000  0.62926000  1.0
  C  C101  1  0.19833000  0.87406000  0.58593000  1.0
  C  C102  1  0.22437000  0.78452000  0.56221000  1.0
  C  C103  1  0.20908000  0.66637000  0.58203000  1.0
  C  C104  1  0.17427000  0.64315000  0.62529000  1.0
  C  C105  1  0.27130000  0.81191000  0.51607000  1.0
  C  C106  1  0.10003000  0.94246000  0.90278000  1.0
  C  C107  1  0.09898000  0.06491000  0.90036000  1.0
  C  C108  1  0.18907000  0.17513000  0.92614000  1.0
  C  C109  1  0.27553000  0.15440000  0.95396000  1.0
  C  C110  1  0.27004000  0.02860000  0.95449000  1.0
  C  C111  1  0.19174000  0.30701000  0.92429000  1.0
  C  C112  1  0.30908000  0.43004000  0.93514000  1.0
  C  C113  1  0.30534000  0.55144000  0.93417000  1.0
  C  C114  1  0.08171000  0.44034000  0.91061000  1.0
  C  C115  1  0.07648000  0.31468000  0.91133000  1.0
  C  C116  1  0.55898000  0.17593000  0.66239000  1.0
  C  C117  1  0.57913000  0.18841000  0.71069000  1.0
  C  C118  1  0.46919000  0.14455000  0.73903000  1.0
  C  C119  1  0.49240000  0.15592000  0.78341000  1.0
  C  C120  1  0.62366000  0.21073000  0.80170000  1.0
  C  C121  1  0.73122000  0.25116000  0.77184000  1.0
  C  C122  1  0.71055000  0.24222000  0.72744000  1.0
  C  C123  1  0.64995000  0.23222000  0.84907000  1.0
  C  C124  1  0.66177000  0.34731000  0.87074000  1.0
  C  C125  1  0.69834000  0.37405000  0.91407000  1.0
  C  C126  1  0.72437000  0.28451000  0.93779000  1.0
  C  C127  1  0.70908000  0.16636000  0.91797000  1.0
  C  C128  1  0.67427000  0.14315000  0.87471000  1.0
  C  C129  1  0.77130000  0.31191000  0.98393000  1.0
  C  C130  1  0.60004000  0.44246000  0.59722000  1.0
  C  C131  1  0.59898000  0.56491000  0.59964000  1.0
  C  C132  1  0.68907000  0.67513000  0.57387000  1.0
  C  C133  1  0.77553000  0.65440000  0.54604000  1.0
  C  C134  1  0.77005000  0.52861000  0.54551000  1.0
  C  C135  1  0.69174000  0.80701000  0.57571000  1.0
  C  C136  1  0.80908000  0.93004000  0.56487000  1.0
  C  C137  1  0.80533000  0.05144000  0.56583000  1.0
  C  C138  1  0.58170000  0.94034000  0.58939000  1.0
  C  C139  1  0.57648000  0.81468000  0.58867000  1.0
  C  C140  1  0.67594000  0.05897000  0.16239000  1.0
  C  C141  1  0.68841000  0.07912000  0.21069000  1.0
  C  C142  1  0.64455000  0.96919000  0.23903000  1.0
  C  C143  1  0.65592000  0.99239000  0.28341000  1.0
  C  C144  1  0.71073000  0.12365000  0.30170000  1.0
  C  C145  1  0.75115000  0.23121000  0.27184000  1.0
  C  C146  1  0.74222000  0.21054000  0.22743000  1.0
  C  C147  1  0.73222000  0.14995000  0.34907000  1.0
  C  C148  1  0.84731000  0.16178000  0.37074000  1.0
  C  C149  1  0.87405000  0.19834000  0.41407000  1.0
  C  C150  1  0.78451000  0.22437000  0.43779000  1.0
  C  C151  1  0.66636000  0.20907000  0.41797000  1.0
  C  C152  1  0.64314000  0.17426000  0.37471000  1.0
  C  C153  1  0.81191000  0.27130000  0.48393000  1.0
  C  C154  1  0.94246000  0.10004000  0.09722000  1.0
  C  C155  1  0.06492000  0.09899000  0.09964000  1.0
  C  C156  1  0.17514000  0.18908000  0.07387000  1.0
  C  C157  1  0.15441000  0.27554000  0.04604000  1.0
  C  C158  1  0.02861000  0.27005000  0.04551000  1.0
  C  C159  1  0.30701000  0.19175000  0.07571000  1.0
  C  C160  1  0.43005000  0.30908000  0.06486000  1.0
  C  C161  1  0.55145000  0.30534000  0.06583000  1.0
  C  C162  1  0.44035000  0.08171000  0.08939000  1.0
  C  C163  1  0.31468000  0.07648000  0.08867000  1.0
  N  N164  1  0.30765000  0.87424000  0.21398000  1.0
  N  N165  1  0.10239000  0.37155000  0.18833000  1.0
  N  N166  1  0.44565000  0.63190000  0.15149000  1.0
  N  N167  1  0.02082000  0.66839000  0.14464000  1.0
  N  N168  1  0.42422000  0.68481000  0.42903000  1.0
  N  N169  1  0.05716000  0.69288000  0.42272000  1.0
  N  N170  1  0.37424000  0.80766000  0.71399000  1.0
  N  N171  1  0.87154000  0.60239000  0.68833000  1.0
  N  N172  1  0.13189000  0.94565000  0.65149000  1.0
  N  N173  1  0.16839000  0.52082000  0.64464000  1.0
  N  N174  1  0.18480000  0.92422000  0.92903000  1.0
  N  N175  1  0.19288000  0.55716000  0.92272000  1.0
  N  N176  1  0.87424000  0.30766000  0.78601000  1.0
  N  N177  1  0.37154000  0.10239000  0.81167000  1.0
  N  N178  1  0.63190000  0.44565000  0.84851000  1.0
  N  N179  1  0.66839000  0.02082000  0.85536000  1.0
  N  N180  1  0.68481000  0.42422000  0.57097000  1.0
  N  N181  1  0.69288000  0.05716000  0.57728000  1.0
  N  N182  1  0.80765000  0.37423000  0.28601000  1.0
  N  N183  1  0.60240000  0.87154000  0.31167000  1.0
  N  N184  1  0.94565000  0.13191000  0.34851000  1.0
  N  N185  1  0.52081000  0.16838000  0.35536000  1.0
  N  N186  1  0.92422000  0.18481000  0.07097000  1.0
  N  N187  1  0.55717000  0.19288000  0.07728000  1.0
  O  O188  1  0.23906000  0.66927000  0.35944000  1.0
  O  O189  1  0.10679000  0.43887000  0.35231000  1.0
  O  O190  1  0.43552000  0.84431000  0.00377000  1.0
  O  O191  1  0.20529000  0.73417000  0.99354000  1.0
  O  O192  1  0.14557000  0.47147000  0.43672000  1.0
  O  O193  1  0.35796000  0.91114000  0.41870000  1.0
  O  O194  1  0.27343000  0.89664000  0.17808000  1.0
  O  O195  1  0.38469000  0.96439000  0.23925000  1.0
  O  O196  1  0.05231000  0.25779000  0.20543000  1.0
  O  O197  1  0.10872000  0.39009000  0.14849000  1.0
  O  O198  1  0.45393000  0.64172000  0.19134000  1.0
  O  O199  1  0.51314000  0.59723000  0.12842000  1.0
  O  O200  1  0.96395000  0.58587000  0.17435000  1.0
  O  O201  1  0.98334000  0.74636000  0.12955000  1.0
  O  O202  1  0.16927000  0.73906000  0.85944000  1.0
  O  O203  1  0.93887000  0.60678000  0.85231000  1.0
  O  O204  1  0.34431000  0.93552000  0.50377000  1.0
  O  O205  1  0.23418000  0.70530000  0.49354000  1.0
  O  O206  1  0.97146000  0.64557000  0.93672000  1.0
  O  O207  1  0.41114000  0.85796000  0.91870000  1.0
  O  O208  1  0.39664000  0.77344000  0.67808000  1.0
  O  O209  1  0.46439000  0.88468000  0.73926000  1.0
  O  O210  1  0.75779000  0.55231000  0.70543000  1.0
  O  O211  1  0.89009000  0.60873000  0.64849000  1.0
  O  O212  1  0.14172000  0.95393000  0.69134000  1.0
  O  O213  1  0.09722000  0.01314000  0.62842000  1.0
  O  O214  1  0.08586000  0.46395000  0.67435000  1.0
  O  O215  1  0.24636000  0.48334000  0.62956000  1.0
  O  O216  1  0.66927000  0.23906000  0.64056000  1.0
  O  O217  1  0.43887000  0.10677000  0.64769000  1.0
  O  O218  1  0.84430000  0.43552000  0.99623000  1.0
  O  O219  1  0.73417000  0.20529000  0.00646000  1.0
  O  O220  1  0.47147000  0.14557000  0.56328000  1.0
  O  O221  1  0.91115000  0.35796000  0.58130000  1.0
  O  O222  1  0.89664000  0.27343000  0.82192000  1.0
  O  O223  1  0.96439000  0.38469000  0.76074000  1.0
  O  O224  1  0.25779000  0.05231000  0.79457000  1.0
  O  O225  1  0.39009000  0.10873000  0.85151000  1.0
  O  O226  1  0.64171000  0.45393000  0.80866000  1.0
  O  O227  1  0.59721000  0.51313000  0.87158000  1.0
  O  O228  1  0.58586000  0.96395000  0.82565000  1.0
  O  O229  1  0.74635000  0.98333000  0.87045000  1.0
  O  O230  1  0.73906000  0.16927000  0.14056000  1.0
  O  O231  1  0.60679000  0.93886000  0.14769000  1.0
  O  O232  1  0.93551000  0.34431000  0.49623000  1.0
  O  O233  1  0.70529000  0.23417000  0.50646000  1.0
  O  O234  1  0.64557000  0.97146000  0.06328000  1.0
  O  O235  1  0.85796000  0.41114000  0.08130000  1.0
  O  O236  1  0.77343000  0.39664000  0.32191000  1.0
  O  O237  1  0.88468000  0.46438000  0.26074000  1.0
  O  O238  1  0.55233000  0.75779000  0.29457000  1.0
  O  O239  1  0.60873000  0.89010000  0.35151000  1.0
  O  O240  1  0.95392000  0.14172000  0.30866000  1.0
  O  O241  1  0.01315000  0.09724000  0.37158000  1.0
  O  O242  1  0.46394000  0.08585000  0.32565000  1.0
  O  O243  1  0.48332000  0.24634000  0.37044000  1.0
