# generated using pymatgen
data_FeH18Pd(C13N5)2
_symmetry_space_group_name_H-M   'P 1'
_cell_length_a   6.85537000
_cell_length_b   7.24231000
_cell_length_c   12.84650000
_cell_angle_alpha   77.94670000
_cell_angle_beta   78.48790000
_cell_angle_gamma   89.93470000
_symmetry_Int_Tables_number   1
_chemical_formula_structural   FeH18Pd(C13N5)2
_chemical_formula_sum   'Fe1 H18 Pd1 C26 N10'
_cell_volume   610.65552724
_cell_formula_units_Z   1
loop_
 _symmetry_equiv_pos_site_id
 _symmetry_equiv_pos_as_xyz
  1  'x, y, z'
loop_
 _atom_site_type_symbol
 _atom_site_label
 _atom_site_symmetry_multiplicity
 _atom_site_fract_x
 _atom_site_fract_y
 _atom_site_fract_z
 _atom_site_occupancy
  Fe  Fe0  1  0.50000000  0.50001000  0.00000000  1.0
  H  H1  1  0.91195000  0.50464000  0.87591000  1.0
  H  H2  1  0.08805000  0.49536000  0.12409000  1.0
  H  H3  1  0.36234000  0.62427000  0.79444000  1.0
  H  H4  1  0.63766000  0.37573000  0.20556000  1.0
  H  H5  1  0.08108000  0.54951000  0.68104000  1.0
  H  H6  1  0.91892000  0.45049000  0.31895000  1.0
  H  H7  1  0.87388000  0.63595000  0.53658000  1.0
  H  H8  1  0.12611000  0.36404000  0.46342000  1.0
  H  H9  1  0.66929000  0.81607000  0.27758000  1.0
  H  H10  1  0.33070000  0.18392000  0.72243000  1.0
  H  H11  1  0.16330000  0.82195000  0.53514000  1.0
  H  H12  1  0.83669000  0.17805000  0.46486000  1.0
  H  H13  1  0.45894000  0.92509000  0.13966000  1.0
  H  H14  1  0.54106000  0.07490000  0.86034000  1.0
  H  H15  1  0.94999000  0.92610000  0.39832000  1.0
  H  H16  1  0.05000000  0.07391000  0.60168000  1.0
  H  H17  1  0.10132000  0.98125000  0.20045000  1.0
  H  H18  1  0.89868000  0.01876000  0.79955000  1.0
  Pd  Pd19  1  0.00000000  0.00001000  0.00000000  1.0
  C  C20  1  0.21303000  0.81998000  0.97985000  1.0
  C  C21  1  0.78698000  0.18003000  0.02015000  1.0
  C  C22  1  0.80346000  0.78985000  0.02054000  1.0
  C  C23  1  0.19655000  0.21017000  0.97946000  1.0
  C  C24  1  0.82824000  0.54194000  0.81163000  1.0
  C  C25  1  0.17176000  0.45807000  0.18837000  1.0
  C  C26  1  0.52091000  0.60846000  0.76695000  1.0
  C  C27  1  0.47909000  0.39153000  0.23305000  1.0
  C  C28  1  0.92099000  0.56732000  0.70246000  1.0
  C  C29  1  0.07901000  0.43268000  0.29754000  1.0
  C  C30  1  0.60491000  0.64207000  0.65586000  1.0
  C  C31  1  0.39508000  0.35792000  0.34414000  1.0
  C  C32  1  0.80889000  0.61616000  0.62282000  1.0
  C  C33  1  0.19110000  0.38383000  0.37718000  1.0
  C  C34  1  0.42713000  0.81104000  0.41412000  1.0
  C  C35  1  0.57287000  0.18896000  0.58588000  1.0
  C  C36  1  0.51187000  0.84216000  0.30259000  1.0
  C  C37  1  0.48813000  0.15784000  0.69741000  1.0
  C  C38  1  0.22449000  0.84368000  0.44843000  1.0
  C  C39  1  0.77551000  0.15631000  0.55157000  1.0
  C  C40  1  0.39408000  0.90238000  0.22610000  1.0
  C  C41  1  0.60591000  0.09762000  0.77390000  1.0
  C  C42  1  0.10802000  0.90364000  0.37188000  1.0
  C  C43  1  0.89197000  0.09636000  0.62812000  1.0
  C  C44  1  0.19267000  0.93302000  0.26069000  1.0
  C  C45  1  0.80733000  0.06697000  0.73931000  1.0
  N  N46  1  0.32917000  0.70143000  0.97879000  1.0
  N  N47  1  0.67084000  0.29859000  0.02121000  1.0
  N  N48  1  0.68789000  0.66972000  0.02236000  1.0
  N  N49  1  0.31213000  0.33030000  0.97763000  1.0
  N  N50  1  0.62974000  0.55760000  0.84379000  1.0
  N  N51  1  0.37026000  0.44240000  0.15621000  1.0
  N  N52  1  0.47200000  0.69906000  0.58539000  1.0
  N  N53  1  0.52800000  0.30093000  0.41461000  1.0
  N  N54  1  0.55640000  0.74948000  0.48595000  1.0
  N  N55  1  0.44359000  0.25051000  0.51405000  1.0
