# generated using pymatgen
data_Zn2H17C25SN8O3
_symmetry_space_group_name_H-M   'P 1'
_cell_length_a   14.98850000
_cell_length_b   15.05630000
_cell_length_c   24.15270000
_cell_angle_alpha   89.99760000
_cell_angle_beta   89.99960000
_cell_angle_gamma   102.15900000
_symmetry_Int_Tables_number   1
_chemical_formula_structural   Zn2H17C25SN8O3
_chemical_formula_sum   'Zn8 H68 C100 S4 N32 O12'
_cell_volume   5328.29904250
_cell_formula_units_Z   4
loop_
 _symmetry_equiv_pos_site_id
 _symmetry_equiv_pos_as_xyz
  1  'x, y, z'
loop_
 _atom_site_type_symbol
 _atom_site_label
 _atom_site_symmetry_multiplicity
 _atom_site_fract_x
 _atom_site_fract_y
 _atom_site_fract_z
 _atom_site_occupancy
  Zn  Zn0  1  0.53747000  0.44511000  0.55676000  1.0
  Zn  Zn1  1  0.39444000  0.58147000  0.56148000  1.0
  Zn  Zn2  1  0.10560000  0.91857000  0.06152000  1.0
  Zn  Zn3  1  0.96254000  0.05488000  0.05678000  1.0
  Zn  Zn4  1  0.38440000  0.57137000  0.42169000  1.0
  Zn  Zn5  1  0.53183000  0.44217000  0.42106000  1.0
  Zn  Zn6  1  0.96818000  0.05787000  0.92108000  1.0
  Zn  Zn7  1  0.11558000  0.92861000  0.92172000  1.0
  H  H8  1  0.41734000  0.26875000  0.61226000  1.0
  H  H9  1  0.66693000  0.10363000  0.35689000  1.0
  H  H10  1  0.83281000  0.39639000  0.85703000  1.0
  H  H11  1  0.97100000  0.57831000  0.85137000  1.0
  H  H12  1  0.25072000  0.13440000  0.32835000  1.0
  H  H13  1  0.63575000  0.81178000  0.29222000  1.0
  H  H14  1  0.86411000  0.68822000  0.79234000  1.0
  H  H15  1  0.24934000  0.36560000  0.82836000  1.0
  H  H16  1  0.73077000  0.60111000  0.74335000  1.0
  H  H17  1  0.29328000  0.42601000  0.73501000  1.0
  H  H18  1  0.20676000  0.07400000  0.23500000  1.0
  H  H19  1  0.50091000  0.72175000  0.66110000  1.0
  H  H20  1  0.76911000  0.89888000  0.24325000  1.0
  H  H21  1  0.30239000  0.40593000  0.26194000  1.0
  H  H22  1  0.67939000  0.56768000  0.21433000  1.0
  H  H23  1  0.82063000  0.93228000  0.71430000  1.0
  H  H24  1  0.19760000  0.09408000  0.76193000  1.0
  H  H25  1  0.88216000  0.66109000  0.40001000  1.0
  H  H26  1  0.04739000  0.67197000  0.40323000  1.0
  H  H27  1  0.45262000  0.82802000  0.90324000  1.0
  H  H28  1  0.61785000  0.83891000  0.90002000  1.0
  H  H29  1  0.03369000  0.63896000  0.58054000  1.0
  H  H30  1  0.99915000  0.77829000  0.16117000  1.0
  H  H31  1  0.86920000  0.62943000  0.57746000  1.0
  H  H32  1  0.63079000  0.87055000  0.07746000  1.0
  H  H33  1  0.46630000  0.86100000  0.08054000  1.0
  H  H34  1  0.23142000  0.43460000  0.36036000  1.0
  H  H35  1  0.63752000  0.50260000  0.30846000  1.0
  H  H36  1  0.86249000  0.99741000  0.80846000  1.0
  H  H37  1  0.26855000  0.06535000  0.86032000  1.0
  H  H38  1  0.19228000  0.64194000  0.58209000  1.0
  H  H39  1  0.71700000  0.59609000  0.57516000  1.0
  H  H40  1  0.78299000  0.90388000  0.07516000  1.0
  H  H41  1  0.08265000  0.23127000  0.11227000  1.0
  H  H42  1  0.30776000  0.85812000  0.08211000  1.0
  H  H43  1  0.18457000  0.62120000  0.40348000  1.0
  H  H44  1  0.72053000  0.58858000  0.39611000  1.0
  H  H45  1  0.77946000  0.91151000  0.89611000  1.0
  H  H46  1  0.31539000  0.87873000  0.90348000  1.0
  H  H47  1  0.41555000  0.25428000  0.39166000  1.0
  H  H48  1  0.46195000  0.69646000  0.30764000  1.0
  H  H49  1  0.03794000  0.80346000  0.80773000  1.0
  H  H50  1  0.08452000  0.24575000  0.89168000  1.0
  H  H51  1  0.23494000  0.45486000  0.63041000  1.0
  H  H52  1  0.65000000  0.93473000  0.35557000  1.0
  H  H53  1  0.67563000  0.52763000  0.65929000  1.0
  H  H54  1  0.82433000  0.97232000  0.15924000  1.0
  H  H55  1  0.26510000  0.04520000  0.13040000  1.0
  H  H56  1  0.57872000  0.08386000  0.57382000  1.0
  H  H57  1  0.55082000  0.92156000  0.57114000  1.0
  H  H58  1  0.94948000  0.57846000  0.07122000  1.0
  H  H59  1  0.92158000  0.41616000  0.07389000  1.0
  H  H60  1  0.68453000  0.87801000  0.56145000  1.0
  H  H61  1  0.22102000  0.21629000  0.58855000  1.0
  H  H62  1  0.27899000  0.28376000  0.08855000  1.0
  H  H63  1  0.54554000  0.08940000  0.35439000  1.0
  H  H64  1  0.81572000  0.62166000  0.06155000  1.0
  H  H65  1  0.59769000  0.24805000  0.39759000  1.0
  H  H66  1  0.52664000  0.75906000  0.39445000  1.0
  H  H67  1  0.97330000  0.74096000  0.89455000  1.0
  H  H68  1  0.90239000  0.25204000  0.89764000  1.0
  H  H69  1  0.57945000  0.23903000  0.57638000  1.0
  H  H70  1  0.52150000  0.77165000  0.57344000  1.0
  H  H71  1  0.97857000  0.72839000  0.07353000  1.0
  H  H72  1  0.92048000  0.26093000  0.07643000  1.0
  H  H73  1  0.95421000  0.41066000  0.85443000  1.0
  H  H74  1  0.84967000  0.56527000  0.85574000  1.0
  H  H75  1  0.52866000  0.92173000  0.35134000  1.0
  C  C76  1  0.38075000  0.32351000  0.60920000  1.0
  C  C77  1  0.76166000  0.61136000  0.48604000  1.0
  C  C78  1  0.19283000  0.16117000  0.14169000  1.0
  C  C79  1  0.73833000  0.88867000  0.98604000  1.0
  C  C80  1  0.35200000  0.85951000  0.99263000  1.0
  C  C81  1  0.59267000  0.20195000  0.48662000  1.0
  C  C82  1  0.53997000  0.80841000  0.48300000  1.0
  C  C83  1  0.96006000  0.69162000  0.98310000  1.0
  C  C84  1  0.90736000  0.29806000  0.98668000  1.0
  C  C85  1  0.59690000  0.05593000  0.43653000  1.0
  C  C86  1  0.58560000  0.96155000  0.43520000  1.0
  C  C87  1  0.91432000  0.53848000  0.93529000  1.0
  C  C88  1  0.53294000  0.66453000  0.65465000  1.0
  C  C89  1  0.90303000  0.44410000  0.93661000  1.0
  C  C90  1  0.59378000  0.10564000  0.48521000  1.0
  C  C91  1  0.56785000  0.90710000  0.48252000  1.0
  C  C92  1  0.93220000  0.59293000  0.98262000  1.0
  C  C93  1  0.90626000  0.39438000  0.98529000  1.0
  C  C94  1  0.58202000  0.05180000  0.53361000  1.0
  C  C95  1  0.56842000  0.95747000  0.53220000  1.0
  C  C96  1  0.93176000  0.54254000  0.03229000  1.0
  C  C97  1  0.91816000  0.44821000  0.03369000  1.0
  C  C98  1  0.59079000  0.95821000  0.37240000  1.0
  C  C99  1  0.96709000  0.83548000  0.15469000  1.0
  C  C100  1  0.60224000  0.06486000  0.37385000  1.0
  C  C101  1  0.89754000  0.43517000  0.87394000  1.0
  C  C102  1  0.90894000  0.54181000  0.87250000  1.0
  C  C103  1  0.25264000  0.18139000  0.29377000  1.0
  C  C104  1  0.67326000  0.77659000  0.26391000  1.0
  C  C105  1  0.82663000  0.72340000  0.76400000  1.0
  C  C106  1  0.24741000  0.31861000  0.79378000  1.0
  C  C107  1  0.75090000  0.67413000  0.73623000  1.0
  C  C108  1  0.27149000  0.35280000  0.74092000  1.0
  C  C109  1  0.22854000  0.14721000  0.24092000  1.0
  C  C110  1  0.11926000  0.17652000  0.10921000  1.0
  C  C111  1  0.74902000  0.82585000  0.23616000  1.0
  C  C112  1  0.69572000  0.71438000  0.70071000  1.0
  C  C113  1  0.27317000  0.29607000  0.69468000  1.0
  C  C114  1  0.22684000  0.20395000  0.19469000  1.0
  C  C115  1  0.80427000  0.78559000  0.20069000  1.0
  C  C116  1  0.28387000  0.40056000  0.37535000  1.0
  C  C117  1  0.58421000  0.54066000  0.31459000  1.0
  C  C118  1  0.91577000  0.95934000  0.81461000  1.0
  C  C119  1  0.21612000  0.09941000  0.87533000  1.0
  C  C120  1  0.72523000  0.80986000  0.69397000  1.0
  C  C121  1  0.30565000  0.31952000  0.35625000  1.0
  C  C122  1  0.24570000  0.20181000  0.70438000  1.0
  C  C123  1  0.25430000  0.29821000  0.20438000  1.0
  C  C124  1  0.77480000  0.69009000  0.19398000  1.0
  C  C125  1  0.27823000  0.33289000  0.25702000  1.0
  C  C126  1  0.69899000  0.64048000  0.22183000  1.0
  C  C127  1  0.80101000  0.85948000  0.72184000  1.0
  C  C128  1  0.22178000  0.16712000  0.75701000  1.0
  C  C129  1  0.27636000  0.27542000  0.30308000  1.0
  C  C130  1  0.64758000  0.68179000  0.25823000  1.0
  C  C131  1  0.85236000  0.81818000  0.75828000  1.0
  C  C132  1  0.57733000  0.62481000  0.29199000  1.0
  C  C133  1  0.22367000  0.22458000  0.80308000  1.0
  C  C134  1  0.91479000  0.65619000  0.43996000  1.0
  C  C135  1  0.00862000  0.66195000  0.44179000  1.0
  C  C136  1  0.49138000  0.83804000  0.94179000  1.0
  C  C137  1  0.58521000  0.84381000  0.93996000  1.0
  C  C138  1  0.05350000  0.65159000  0.49182000  1.0
  C  C139  1  0.86118000  0.63989000  0.48817000  1.0
  C  C140  1  0.63882000  0.86011000  0.98817000  1.0
  C  C141  1  0.44650000  0.84839000  0.99183000  1.0
  C  C142  1  0.00124000  0.64457000  0.54062000  1.0
  C  C143  1  0.92263000  0.87516000  0.79204000  1.0
  C  C144  1  0.90766000  0.63915000  0.53882000  1.0
  C  C145  1  0.59233000  0.86083000  0.03883000  1.0
  C  C146  1  0.49875000  0.85540000  0.04063000  1.0
  C  C147  1  0.20462000  0.63379000  0.53826000  1.0
  C  C148  1  0.70315000  0.58610000  0.53136000  1.0
  C  C149  1  0.79684000  0.91390000  0.03137000  1.0
  C  C150  1  0.29540000  0.86623000  0.03827000  1.0
  C  C151  1  0.59192000  0.26082000  0.44156000  1.0
  C  C152  1  0.51861000  0.74718000  0.43862000  1.0
  C  C153  1  0.98136000  0.75285000  0.93871000  1.0
  C  C154  1  0.19438000  0.18047000  0.85625000  1.0
  C  C155  1  0.90814000  0.23923000  0.94161000  1.0
  C  C156  1  0.20119000  0.62437000  0.44730000  1.0
  C  C157  1  0.70499000  0.58314000  0.44003000  1.0
  C  C158  1  0.79500000  0.91692000  0.94004000  1.0
  C  C159  1  0.29879000  0.87559000  0.94732000  1.0
  C  C160  1  0.58261000  0.25630000  0.53267000  1.0
  C  C161  1  0.51598000  0.75341000  0.53002000  1.0
  C  C162  1  0.98408000  0.74662000  0.03011000  1.0
  C  C163  1  0.91738000  0.24369000  0.03272000  1.0
  C  C164  1  0.37662000  0.30754000  0.39149000  1.0
  C  C165  1  0.14799000  0.64047000  0.49263000  1.0
  C  C166  1  0.49618000  0.64077000  0.31513000  1.0
  C  C167  1  0.00375000  0.85918000  0.81519000  1.0
  C  C168  1  0.12342000  0.19246000  0.89150000  1.0
  C  C169  1  0.28787000  0.41890000  0.61891000  1.0
  C  C170  1  0.62145000  0.56501000  0.65468000  1.0
  C  C171  1  0.87853000  0.93496000  0.15467000  1.0
  C  C172  1  0.21216000  0.08115000  0.11891000  1.0
  C  C173  1  0.30719000  0.33887000  0.64169000  1.0
  C  C174  1  0.61960000  0.65376000  0.67253000  1.0
  C  C175  1  0.88041000  0.84622000  0.17253000  1.0
  S  S176  1  0.67458000  0.87979000  0.64981000  1.0
  S  S177  1  0.23741000  0.11972000  0.65033000  1.0
  S  S178  1  0.26257000  0.38031000  0.15034000  1.0
  S  S179  1  0.82556000  0.62011000  0.14991000  1.0
  N  N180  1  0.40413000  0.39061000  0.57156000  1.0
  N  N181  1  0.61961000  0.54399000  0.51369000  1.0
  N  N182  1  0.88038000  0.95603000  0.01370000  1.0
  N  N183  1  0.21549000  0.88447000  0.02137000  1.0
  N  N184  1  0.58185000  0.34281000  0.45933000  1.0
  N  N185  1  0.48289000  0.66315000  0.45821000  1.0
  N  N186  1  0.01707000  0.83688000  0.95829000  1.0
  N  N187  1  0.91820000  0.15724000  0.95936000  1.0
  N  N188  1  0.28226000  0.60983000  0.46455000  1.0
  N  N189  1  0.62073000  0.54245000  0.45742000  1.0
  N  N190  1  0.87925000  0.95761000  0.95743000  1.0
  N  N191  1  0.48919000  0.59030000  0.62715000  1.0
  N  N192  1  0.21773000  0.89015000  0.96457000  1.0
  N  N193  1  0.57615000  0.34010000  0.51614000  1.0
  N  N194  1  0.48202000  0.66738000  0.51437000  1.0
  N  N195  1  0.01799000  0.83266000  0.01444000  1.0
  N  N196  1  0.92385000  0.15990000  0.01618000  1.0
  N  N197  1  0.39813000  0.37856000  0.42718000  1.0
  N  N198  1  0.45894000  0.57237000  0.34949000  1.0
  N  N199  1  0.04100000  0.92759000  0.84954000  1.0
  N  N200  1  0.10189000  0.12143000  0.92719000  1.0
  N  N201  1  0.34636000  0.44900000  0.57729000  1.0
  N  N202  1  0.01085000  0.90972000  0.12720000  1.0
  N  N203  1  0.54501000  0.52805000  0.62676000  1.0
  N  N204  1  0.95500000  0.97195000  0.12677000  1.0
  N  N205  1  0.15366000  0.05104000  0.07730000  1.0
  N  N206  1  0.09587000  0.10941000  0.07157000  1.0
  N  N207  1  0.33959000  0.43537000  0.41733000  1.0
  N  N208  1  0.51447000  0.51011000  0.34939000  1.0
  N  N209  1  0.98551000  0.98988000  0.84941000  1.0
  N  N210  1  0.16041000  0.06460000  0.91731000  1.0
  N  N211  1  0.28453000  0.61555000  0.52134000  1.0
  O  O212  1  0.57656000  0.86110000  0.65698000  1.0
  O  O213  1  0.92359000  0.63890000  0.15709000  1.0
  O  O214  1  0.77731000  0.52687000  0.15429000  1.0
  O  O215  1  0.80033000  0.66046000  0.09155000  1.0
  O  O216  1  0.72291000  0.97302000  0.65409000  1.0
  O  O217  1  0.69978000  0.83923000  0.59150000  1.0
  O  O218  1  0.32788000  0.11931000  0.63004000  1.0
  O  O219  1  0.17771000  0.03703000  0.66766000  1.0
  O  O220  1  0.18142000  0.16053000  0.60316000  1.0
  O  O221  1  0.17210000  0.38072000  0.13005000  1.0
  O  O222  1  0.32226000  0.46300000  0.16767000  1.0
  O  O223  1  0.31858000  0.33952000  0.10317000  1.0
