# generated using pymatgen
data_CoPH13C12N3O5
_symmetry_space_group_name_H-M   'P 1'
_cell_length_a   5.15515000
_cell_length_b   10.51550000
_cell_length_c   14.40330000
_cell_angle_alpha   74.76190000
_cell_angle_beta   82.71860000
_cell_angle_gamma   81.49570000
_symmetry_Int_Tables_number   1
_chemical_formula_structural   CoPH13C12N3O5
_chemical_formula_sum   'Co2 P2 H26 C24 N6 O10'
_cell_volume   741.88819106
_cell_formula_units_Z   2
loop_
 _symmetry_equiv_pos_site_id
 _symmetry_equiv_pos_as_xyz
  1  'x, y, z'
loop_
 _atom_site_type_symbol
 _atom_site_label
 _atom_site_symmetry_multiplicity
 _atom_site_fract_x
 _atom_site_fract_y
 _atom_site_fract_z
 _atom_site_occupancy
  Co  Co0  1  0.99999000  0.50001000  0.49999000  1.0
  Co  Co1  1  0.49999000  0.99999000  0.50001000  1.0
  P  P2  1  0.91800000  0.19701000  0.46957000  1.0
  P  P3  1  0.08201000  0.80299000  0.53044000  1.0
  H  H4  1  0.41233000  0.91388000  0.35213000  1.0
  H  H5  1  0.70346000  0.71571000  0.47974000  1.0
  H  H6  1  0.48254000  0.62330000  0.49097000  1.0
  H  H7  1  0.20974000  0.25147000  0.27942000  1.0
  H  H8  1  0.18662000  0.16642000  0.13262000  1.0
  H  H9  1  0.84757000  0.01386000  0.13938000  1.0
  H  H10  1  0.11686000  0.25594000  0.68936000  1.0
  H  H11  1  0.75961000  0.20979000  0.85384000  1.0
  H  H12  1  0.46581000  0.55381000  0.65020000  1.0
  H  H13  1  0.19247000  0.49239000  0.80188000  1.0
  H  H14  1  0.23144000  0.32595000  0.86958000  1.0
  H  H15  1  0.72873000  0.56615000  0.83541000  1.0
  H  H16  1  0.13552000  0.36043000  0.03000000  1.0
  H  H17  1  0.58764000  0.08612000  0.64787000  1.0
  H  H18  1  0.29652000  0.28430000  0.52024000  1.0
  H  H19  1  0.51743000  0.37673000  0.50902000  1.0
  H  H20  1  0.79025000  0.74853000  0.72060000  1.0
  H  H21  1  0.81339000  0.83357000  0.86740000  1.0
  H  H22  1  0.15244000  0.98612000  0.86062000  1.0
  H  H23  1  0.88313000  0.74405000  0.31063000  1.0
  H  H24  1  0.24036000  0.79021000  0.14614000  1.0
  H  H25  1  0.53421000  0.44620000  0.34979000  1.0
  H  H26  1  0.80753000  0.50762000  0.19812000  1.0
  H  H27  1  0.76859000  0.67406000  0.13043000  1.0
  H  H28  1  0.27131000  0.43387000  0.16458000  1.0
  H  H29  1  0.86455000  0.63958000  0.96999000  1.0
  C  C30  1  0.88554000  0.15123000  0.35802000  1.0
  C  C31  1  0.05889000  0.19057000  0.27660000  1.0
  C  C32  1  0.04629000  0.14176000  0.19604000  1.0
  C  C33  1  0.86152000  0.05715000  0.19926000  1.0
  C  C34  1  0.69216000  0.02131000  0.28427000  1.0
  C  C35  1  0.92967000  0.31118000  0.70586000  1.0
  C  C36  1  0.75722000  0.28797000  0.78767000  1.0
  C  C37  1  0.60296000  0.46960000  0.68244000  1.0
  C  C38  1  0.33387000  0.41474000  0.84161000  1.0
  C  C39  1  0.42304000  0.45781000  0.92346000  1.0
  C  C40  1  0.62740000  0.53716000  0.90757000  1.0
  C  C41  1  0.29700000  0.42109000  0.01674000  1.0
  C  C42  1  0.11446000  0.84875000  0.64199000  1.0
  C  C43  1  0.94112000  0.80941000  0.72342000  1.0
  C  C44  1  0.95370000  0.85823000  0.80398000  1.0
  C  C45  1  0.13850000  0.94282000  0.80076000  1.0
  C  C46  1  0.30785000  0.97868000  0.71574000  1.0
  C  C47  1  0.07031000  0.68881000  0.29412000  1.0
  C  C48  1  0.24279000  0.71203000  0.21232000  1.0
  C  C49  1  0.39702000  0.53040000  0.31755000  1.0
  C  C50  1  0.66613000  0.58528000  0.15839000  1.0
  C  C51  1  0.57696000  0.54220000  0.07653000  1.0
  C  C52  1  0.37262000  0.46286000  0.09242000  1.0
  C  C53  1  0.70301000  0.57893000  0.98326000  1.0
  N  N54  1  0.70205000  0.06945000  0.36178000  1.0
  N  N55  1  0.83117000  0.42476000  0.64084000  1.0
  N  N56  1  0.55065000  0.38885000  0.77162000  1.0
  N  N57  1  0.29792000  0.93053000  0.63824000  1.0
  N  N58  1  0.16884000  0.57525000  0.35915000  1.0
  N  N59  1  0.44936000  0.61116000  0.22837000  1.0
  O  O60  1  0.82612000  0.34595000  0.45616000  1.0
  O  O61  1  0.74202000  0.10669000  0.54609000  1.0
  O  O62  1  0.21245000  0.16710000  0.48496000  1.0
  O  O63  1  0.52412000  0.93502000  0.28729000  1.0
  O  O64  1  0.66953000  0.63156000  0.46444000  1.0
  O  O65  1  0.17387000  0.65405000  0.54383000  1.0
  O  O66  1  0.25795000  0.89331000  0.45391000  1.0
  O  O67  1  0.78756000  0.83289000  0.51505000  1.0
  O  O68  1  0.47586000  0.06498000  0.71271000  1.0
  O  O69  1  0.33045000  0.36846000  0.53554000  1.0
