# generated using pymatgen
data_Sn3P2H12C6NO8
_symmetry_space_group_name_H-M   'P 1'
_cell_length_a   6.73586000
_cell_length_b   10.70720000
_cell_length_c   11.27980000
_cell_angle_alpha   86.88550000
_cell_angle_beta   82.42650000
_cell_angle_gamma   72.55300000
_symmetry_Int_Tables_number   1
_chemical_formula_structural   Sn3P2H12C6NO8
_chemical_formula_sum   'Sn6 P4 H24 C12 N2 O16'
_cell_volume   769.23295686
_cell_formula_units_Z   2
loop_
 _symmetry_equiv_pos_site_id
 _symmetry_equiv_pos_as_xyz
  1  'x, y, z'
loop_
 _atom_site_type_symbol
 _atom_site_label
 _atom_site_symmetry_multiplicity
 _atom_site_fract_x
 _atom_site_fract_y
 _atom_site_fract_z
 _atom_site_occupancy
  Sn  Sn0  1  0.91645000  0.81332000  0.32762000  1.0
  Sn  Sn1  1  0.08359000  0.18666000  0.67238000  1.0
  Sn  Sn2  1  0.66545000  0.91900000  0.62348000  1.0
  Sn  Sn3  1  0.33457000  0.08103000  0.37651000  1.0
  Sn  Sn4  1  0.67733000  0.60090000  0.53004000  1.0
  Sn  Sn5  1  0.32268000  0.39911000  0.46995000  1.0
  P  P6  1  0.20660000  0.83476000  0.54865000  1.0
  P  P7  1  0.79342000  0.16524000  0.45135000  1.0
  P  P8  1  0.90337000  0.50675000  0.77165000  1.0
  P  P9  1  0.09662000  0.49324000  0.22837000  1.0
  H  H10  1  0.04440000  0.75575000  0.76510000  1.0
  H  H11  1  0.95560000  0.24426000  0.23490000  1.0
  H  H12  1  0.24553000  0.54508000  0.72979000  1.0
  H  H13  1  0.75448000  0.45491000  0.27021000  1.0
  H  H14  1  0.19480000  0.49718000  0.88299000  1.0
  H  H15  1  0.80519000  0.50283000  0.11702000  1.0
  H  H16  1  0.75898000  0.71801000  0.90540000  1.0
  H  H17  1  0.24101000  0.28199000  0.09460000  1.0
  H  H18  1  0.93533000  0.68173000  0.01677000  1.0
  H  H19  1  0.06467000  0.31827000  0.98323000  1.0
  H  H20  1  0.36139000  0.88134000  0.93572000  1.0
  H  H21  1  0.63860000  0.11866000  0.06428000  1.0
  H  H22  1  0.20344000  0.92109000  0.81821000  1.0
  H  H23  1  0.79656000  0.07891000  0.18178000  1.0
  H  H24  1  0.05966000  0.88014000  0.08275000  1.0
  H  H25  1  0.94035000  0.11986000  0.91725000  1.0
  H  H26  1  0.78405000  0.94368000  0.87940000  1.0
  H  H27  1  0.21594000  0.05632000  0.12061000  1.0
  H  H28  1  0.70771000  0.91205000  0.03121000  1.0
  H  H29  1  0.29229000  0.08795000  0.96880000  1.0
  H  H30  1  0.29066000  0.66434000  0.96854000  1.0
  H  H31  1  0.70933000  0.33567000  0.03146000  1.0
  H  H32  1  0.39778000  0.68538000  0.81717000  1.0
  H  H33  1  0.60223000  0.31462000  0.18282000  1.0
  C  C34  1  0.12680000  0.55819000  0.80837000  1.0
  C  C35  1  0.87321000  0.44182000  0.19163000  1.0
  C  C36  1  0.89074000  0.74143000  0.93677000  1.0
  C  C37  1  0.10925000  0.25857000  0.06322000  1.0
  C  C38  1  0.22120000  0.86813000  0.90457000  1.0
  C  C39  1  0.77879000  0.13187000  0.09543000  1.0
  C  C40  1  0.02617000  0.92538000  0.99422000  1.0
  C  C41  1  0.97379000  0.07463000  0.00579000  1.0
  C  C42  1  0.83993000  0.88698000  0.95949000  1.0
  C  C43  1  0.16006000  0.11301000  0.04050000  1.0
  C  C44  1  0.26435000  0.72256000  0.88566000  1.0
  C  C45  1  0.73564000  0.27743000  0.11433000  1.0
  N  N46  1  0.07644000  0.69797000  0.84291000  1.0
  N  N47  1  0.92356000  0.30203000  0.15709000  1.0
  O  O48  1  0.17875000  0.79714000  0.42286000  1.0
  O  O49  1  0.82126000  0.20285000  0.57715000  1.0
  O  O50  1  0.76568000  0.62712000  0.70467000  1.0
  O  O51  1  0.23433000  0.37289000  0.29533000  1.0
  O  O52  1  0.37132000  0.72379000  0.60628000  1.0
  O  O53  1  0.62869000  0.27620000  0.39373000  1.0
  O  O54  1  0.73321000  0.78236000  0.48580000  1.0
  O  O55  1  0.26678000  0.21764000  0.51420000  1.0
  O  O56  1  0.27826000  0.96222000  0.53642000  1.0
  O  O57  1  0.72172000  0.03779000  0.46358000  1.0
  O  O58  1  0.00328000  0.86312000  0.63919000  1.0
  O  O59  1  0.99675000  0.13688000  0.36083000  1.0
  O  O60  1  0.01109000  0.39920000  0.67586000  1.0
  O  O61  1  0.98892000  0.60079000  0.32413000  1.0
  O  O62  1  0.79524000  0.46244000  0.88339000  1.0
  O  O63  1  0.20477000  0.53756000  0.11661000  1.0
