# generated using pymatgen
data_CdH14C14N2O5
_symmetry_space_group_name_H-M   'P 1'
_cell_length_a   6.19271000
_cell_length_b   7.93013000
_cell_length_c   16.48003612
_cell_angle_alpha   83.36586847
_cell_angle_beta   86.38727493
_cell_angle_gamma   68.43000000
_symmetry_Int_Tables_number   1
_chemical_formula_structural   CdH14C14N2O5
_chemical_formula_sum   'Cd2 H28 C28 N4 O10'
_cell_volume   747.41633452
_cell_formula_units_Z   2
loop_
 _symmetry_equiv_pos_site_id
 _symmetry_equiv_pos_as_xyz
  1  'x, y, z'
loop_
 _atom_site_type_symbol
 _atom_site_label
 _atom_site_symmetry_multiplicity
 _atom_site_fract_x
 _atom_site_fract_y
 _atom_site_fract_z
 _atom_site_occupancy
  Cd  Cd0  1  0.75072000  0.76237000  0.24579000  1.0
  Cd  Cd1  1  0.24929000  0.23763000  0.75421000  1.0
  H  H2  1  0.89365000  0.23651000  0.44801000  1.0
  H  H3  1  0.10636000  0.76348000  0.55200000  1.0
  H  H4  1  0.07199000  0.05427000  0.57744000  1.0
  H  H5  1  0.92803000  0.94572000  0.42256000  1.0
  H  H6  1  0.62202000  0.26666000  0.54337000  1.0
  H  H7  1  0.37798000  0.73333000  0.45663000  1.0
  H  H8  1  0.44909000  0.44113000  0.41315000  1.0
  H  H9  1  0.55090000  0.55890000  0.58685000  1.0
  H  H10  1  0.42379000  0.93778000  0.65885000  1.0
  H  H11  1  0.57623000  0.06220000  0.34115000  1.0
  H  H12  1  0.62057000  0.03585000  0.65009000  1.0
  H  H13  1  0.37944000  0.96415000  0.34991000  1.0
  H  H14  1  0.56241000  0.31553000  0.03392000  1.0
  H  H15  1  0.43757000  0.68447000  0.96608000  1.0
  H  H16  1  0.70796000  0.46318000  0.91152000  1.0
  H  H17  1  0.29204000  0.53682000  0.08847000  1.0
  H  H18  1  0.40926000  0.16314000  0.98814000  1.0
  H  H19  1  0.59074000  0.83686000  0.01185000  1.0
  H  H20  1  0.26569000  0.02444000  0.10951000  1.0
  H  H21  1  0.73430000  0.97558000  0.89049000  1.0
  H  H22  1  0.03674000  0.53332000  0.85363000  1.0
  H  H23  1  0.96324000  0.46668000  0.14637000  1.0
  H  H24  1  0.31045000  0.40962000  0.87861000  1.0
  H  H25  1  0.68953000  0.59040000  0.12139000  1.0
  H  H26  1  0.25351000  0.82077000  0.20372000  1.0
  H  H27  1  0.74649000  0.17923000  0.79628000  1.0
  H  H28  1  0.34957000  0.64289000  0.26084000  1.0
  H  H29  1  0.65044000  0.35711000  0.73916000  1.0
  C  C30  1  0.03245000  0.47754000  0.35217000  1.0
  C  C31  1  0.96756000  0.52245000  0.64784000  1.0
  C  C32  1  0.15793000  0.35106000  0.42259000  1.0
  C  C33  1  0.84206000  0.64894000  0.57742000  1.0
  C  C34  1  0.05602000  0.23875000  0.46873000  1.0
  C  C35  1  0.94395000  0.76126000  0.53128000  1.0
  C  C36  1  0.15485000  0.13807000  0.54068000  1.0
  C  C37  1  0.84517000  0.86192000  0.45932000  1.0
  C  C38  1  0.35892000  0.14838000  0.56796000  1.0
  C  C39  1  0.64110000  0.85160000  0.43205000  1.0
  C  C40  1  0.46478000  0.25709000  0.52146000  1.0
  C  C41  1  0.53523000  0.74292000  0.47855000  1.0
  C  C42  1  0.36627000  0.35633000  0.44909000  1.0
  C  C43  1  0.63373000  0.64366000  0.55092000  1.0
  C  C44  1  0.81707000  0.05545000  0.14775000  1.0
  C  C45  1  0.18291000  0.94456000  0.85225000  1.0
  C  C46  1  0.90246000  0.15840000  0.08002000  1.0
  C  C47  1  0.09752000  0.84161000  0.91998000  1.0
  C  C48  1  0.74767000  0.28465000  0.02375000  1.0
  C  C49  1  0.25232000  0.71535000  0.97625000  1.0
  C  C50  1  0.82796000  0.36732000  0.95589000  1.0
  C  C51  1  0.17203000  0.63268000  0.04410000  1.0
  C  C52  1  0.06717000  0.32560000  0.94286000  1.0
  C  C53  1  0.93282000  0.67441000  0.05714000  1.0
  C  C54  1  0.22293000  0.19995000  0.99845000  1.0
  C  C55  1  0.77707000  0.80003000  0.00155000  1.0
  C  C56  1  0.14095000  0.11928000  0.06664000  1.0
  C  C57  1  0.85904000  0.88072000  0.93336000  1.0
  N  N58  1  0.44886000  0.05805000  0.64463000  1.0
  N  N59  1  0.55116000  0.94195000  0.35538000  1.0
  N  N60  1  0.14900000  0.40592000  0.87274000  1.0
  N  N61  1  0.85098000  0.59408000  0.12725000  1.0
  O  O62  1  0.83363000  0.48057000  0.33399000  1.0
  O  O63  1  0.16636000  0.51944000  0.66602000  1.0
  O  O64  1  0.12169000  0.58812000  0.31472000  1.0
  O  O65  1  0.87831000  0.41189000  0.68528000  1.0
  O  O66  1  0.60634000  0.06985000  0.15220000  1.0
  O  O67  1  0.39366000  0.93016000  0.84780000  1.0
  O  O68  1  0.96731000  0.94410000  0.19893000  1.0
  O  O69  1  0.03268000  0.05590000  0.80107000  1.0
  O  O70  1  0.40352000  0.72014000  0.21924000  1.0
  O  O71  1  0.59648000  0.27985000  0.78077000  1.0
