# generated using pymatgen
data_ErH16C15O11
_symmetry_space_group_name_H-M   'P 1'
_cell_length_a   7.40543000
_cell_length_b   9.30796000
_cell_length_c   13.10020000
_cell_angle_alpha   101.63900000
_cell_angle_beta   100.76300000
_cell_angle_gamma   107.71300000
_symmetry_Int_Tables_number   1
_chemical_formula_structural   ErH16C15O11
_chemical_formula_sum   'Er2 H32 C30 O22'
_cell_volume   812.15452720
_cell_formula_units_Z   2
loop_
 _symmetry_equiv_pos_site_id
 _symmetry_equiv_pos_as_xyz
  1  'x, y, z'
loop_
 _atom_site_type_symbol
 _atom_site_label
 _atom_site_symmetry_multiplicity
 _atom_site_fract_x
 _atom_site_fract_y
 _atom_site_fract_z
 _atom_site_occupancy
  Er  Er0  1  0.84942000  0.78625000  0.98883000  1.0
  Er  Er1  1  0.15061000  0.21375000  0.01118000  1.0
  H  H2  1  0.80481000  0.43810000  0.90975000  1.0
  H  H3  1  0.19519000  0.56189000  0.09024000  1.0
  H  H4  1  0.60983000  0.46366000  0.84708000  1.0
  H  H5  1  0.39017000  0.53636000  0.15292000  1.0
  H  H6  1  0.49630000  0.77921000  0.01712000  1.0
  H  H7  1  0.50368000  0.22078000  0.98287000  1.0
  H  H8  1  0.42482000  0.59770000  0.99715000  1.0
  H  H9  1  0.57519000  0.40230000  0.00285000  1.0
  H  H10  1  0.80735000  0.23315000  0.27657000  1.0
  H  H11  1  0.19268000  0.76683000  0.72342000  1.0
  H  H12  1  0.59967000  0.22805000  0.18269000  1.0
  H  H13  1  0.40036000  0.77195000  0.81731000  1.0
  H  H14  1  0.40096000  0.76014000  0.25565000  1.0
  H  H15  1  0.59899000  0.23985000  0.74436000  1.0
  H  H16  1  0.45560000  0.67795000  0.42722000  1.0
  H  H17  1  0.54439000  0.32207000  0.57279000  1.0
  H  H18  1  0.91804000  0.12686000  0.58090000  1.0
  H  H19  1  0.08197000  0.87311000  0.41909000  1.0
  H  H20  1  0.85207000  0.20956000  0.41842000  1.0
  H  H21  1  0.14793000  0.79044000  0.58158000  1.0
  H  H22  1  0.78514000  0.06328000  0.71558000  1.0
  H  H23  1  0.21488000  0.93674000  0.28444000  1.0
  H  H24  1  0.98188000  0.99378000  0.70636000  1.0
  H  H25  1  0.01812000  0.00624000  0.29362000  1.0
  H  H26  1  0.97484000  0.44866000  0.19472000  1.0
  H  H27  1  0.02515000  0.55133000  0.80527000  1.0
  H  H28  1  0.14444000  0.63351000  0.28190000  1.0
  H  H29  1  0.85556000  0.36647000  0.71812000  1.0
  H  H30  1  0.72070000  0.59485000  0.46952000  1.0
  H  H31  1  0.27928000  0.40515000  0.53047000  1.0
  H  H32  1  0.16813000  0.45265000  0.35593000  1.0
  H  H33  1  0.83185000  0.54736000  0.64408000  1.0
  C  C34  1  0.77166000  0.10501000  0.11521000  1.0
  C  C35  1  0.22835000  0.89498000  0.88479000  1.0
  C  C36  1  0.68499000  0.15644000  0.20659000  1.0
  C  C37  1  0.31501000  0.84356000  0.79340000  1.0
  C  C38  1  0.61965000  0.98910000  0.32513000  1.0
  C  C39  1  0.38033000  0.01090000  0.67487000  1.0
  C  C40  1  0.51300000  0.83816000  0.32860000  1.0
  C  C41  1  0.48696000  0.16184000  0.67141000  1.0
  C  C42  1  0.54450000  0.79275000  0.42312000  1.0
  C  C43  1  0.45548000  0.20726000  0.57688000  1.0
  C  C44  1  0.68776000  0.89670000  0.51612000  1.0
  C  C45  1  0.31222000  0.10329000  0.48388000  1.0
  C  C46  1  0.80138000  0.04449000  0.51145000  1.0
  C  C47  1  0.19860000  0.95550000  0.48855000  1.0
  C  C48  1  0.76599000  0.09108000  0.41680000  1.0
  C  C49  1  0.23401000  0.90893000  0.58320000  1.0
  C  C50  1  0.82441000  0.95707000  0.70513000  1.0
  C  C51  1  0.17560000  0.04294000  0.29487000  1.0
  C  C52  1  0.80258000  0.89668000  0.80267000  1.0
  C  C53  1  0.19744000  0.10332000  0.19734000  1.0
  C  C54  1  0.94025000  0.64873000  0.15274000  1.0
  C  C55  1  0.05979000  0.35128000  0.84727000  1.0
  C  C56  1  0.98901000  0.56863000  0.23696000  1.0
  C  C57  1  0.01098000  0.43137000  0.76305000  1.0
  C  C58  1  0.93651000  0.53004000  0.40174000  1.0
  C  C59  1  0.06345000  0.46994000  0.59825000  1.0
  C  C60  1  0.84113000  0.55118000  0.48280000  1.0
  C  C61  1  0.15884000  0.44881000  0.51719000  1.0
  C  C62  1  0.09533000  0.47714000  0.41877000  1.0
  C  C63  1  0.90464000  0.52284000  0.58123000  1.0
  O  O64  1  0.71236000  0.96007000  0.06630000  1.0
  O  O65  1  0.28764000  0.03992000  0.93368000  1.0
  O  O66  1  0.90210000  0.21322000  0.09576000  1.0
  O  O67  1  0.09791000  0.78677000  0.90424000  1.0
  O  O68  1  0.55864000  0.02644000  0.23111000  1.0
  O  O69  1  0.44136000  0.97357000  0.76890000  1.0
  O  O70  1  0.70445000  0.84330000  0.60721000  1.0
  O  O71  1  0.29554000  0.15672000  0.39280000  1.0
  O  O72  1  0.89557000  0.99826000  0.89543000  1.0
  O  O73  1  0.10448000  0.00174000  0.10458000  1.0
  O  O74  1  0.70942000  0.75638000  0.79789000  1.0
  O  O75  1  0.29059000  0.24363000  0.20213000  1.0
  O  O76  1  0.04996000  0.66070000  0.08678000  1.0
  O  O77  1  0.95011000  0.33933000  0.91324000  1.0
  O  O78  1  0.80223000  0.70229000  0.14521000  1.0
  O  O79  1  0.19779000  0.29770000  0.85478000  1.0
  O  O80  1  0.86809000  0.56676000  0.30899000  1.0
  O  O81  1  0.13189000  0.43322000  0.69100000  1.0
  O  O82  1  0.71691000  0.50395000  0.91324000  1.0
  O  O83  1  0.28309000  0.49605000  0.08676000  1.0
  O  O84  1  0.49077000  0.68220000  0.96742000  1.0
  O  O85  1  0.50923000  0.31780000  0.03257000  1.0
