# generated using pymatgen
data_CuH6C5NO4
_symmetry_space_group_name_H-M   'P 1'
_cell_length_a   7.11881000
_cell_length_b   8.45373000
_cell_length_c   12.56010000
_cell_angle_alpha   87.18190000
_cell_angle_beta   89.99880000
_cell_angle_gamma   65.12700000
_symmetry_Int_Tables_number   1
_chemical_formula_structural   CuH6C5NO4
_chemical_formula_sum   'Cu4 H24 C20 N4 O16'
_cell_volume   684.75269727
_cell_formula_units_Z   4
loop_
 _symmetry_equiv_pos_site_id
 _symmetry_equiv_pos_as_xyz
  1  'x, y, z'
loop_
 _atom_site_type_symbol
 _atom_site_label
 _atom_site_symmetry_multiplicity
 _atom_site_fract_x
 _atom_site_fract_y
 _atom_site_fract_z
 _atom_site_occupancy
  Cu  Cu0  1  0.51897000  0.34905000  0.04807000  1.0
  Cu  Cu1  1  0.86791000  0.65083000  0.45186000  1.0
  Cu  Cu2  1  0.48101000  0.65090000  0.95195000  1.0
  Cu  Cu3  1  0.13190000  0.34932000  0.54811000  1.0
  H  H4  1  0.76698000  0.59151000  0.22000000  1.0
  H  H5  1  0.35837000  0.40860000  0.27993000  1.0
  H  H6  1  0.23300000  0.40852000  0.77999000  1.0
  H  H7  1  0.64177000  0.59129000  0.72011000  1.0
  H  H8  1  0.01306000  0.27583000  0.88963000  1.0
  H  H9  1  0.28848000  0.72481000  0.61021000  1.0
  H  H10  1  0.98691000  0.72421000  0.11035000  1.0
  H  H11  1  0.71163000  0.27505000  0.38984000  1.0
  H  H12  1  0.88177000  0.10480000  0.16859000  1.0
  H  H13  1  0.98650000  0.89525000  0.33137000  1.0
  H  H14  1  0.11823000  0.89522000  0.83139000  1.0
  H  H15  1  0.01353000  0.10475000  0.66860000  1.0
  H  H16  1  0.23273000  0.19462000  0.07843000  1.0
  H  H17  1  0.42783000  0.80492000  0.42166000  1.0
  H  H18  1  0.76728000  0.80538000  0.92158000  1.0
  H  H19  1  0.57218000  0.19509000  0.57834000  1.0
  H  H20  1  0.12178000  0.19133000  0.20511000  1.0
  H  H21  1  0.31328000  0.80815000  0.29506000  1.0
  H  H22  1  0.87822000  0.80867000  0.79490000  1.0
  H  H23  1  0.68672000  0.19186000  0.70495000  1.0
  H  H24  1  0.21841000  0.00010000  0.13042000  1.0
  H  H25  1  0.21894000  0.99934000  0.36982000  1.0
  H  H26  1  0.78160000  0.99990000  0.86959000  1.0
  H  H27  1  0.78108000  0.00068000  0.63018000  1.0
  C  C28  1  0.68063000  0.57225000  0.15247000  1.0
  C  C29  1  0.25277000  0.42791000  0.34746000  1.0
  C  C30  1  0.31935000  0.42775000  0.84752000  1.0
  C  C31  1  0.74726000  0.57208000  0.65255000  1.0
  C  C32  1  0.85595000  0.34155000  0.92201000  1.0
  C  C33  1  0.19721000  0.65890000  0.57786000  1.0
  C  C34  1  0.14403000  0.65844000  0.07798000  1.0
  C  C35  1  0.80280000  0.34108000  0.42215000  1.0
  C  C36  1  0.45264000  0.05672000  0.20332000  1.0
  C  C37  1  0.50948000  0.94303000  0.29675000  1.0
  C  C38  1  0.54736000  0.94328000  0.79667000  1.0
  C  C39  1  0.49054000  0.05697000  0.70324000  1.0
  C  C40  1  0.77620000  0.05683000  0.20540000  1.0
  C  C41  1  0.83303000  0.94312000  0.29459000  1.0
  C  C42  1  0.22380000  0.94318000  0.79459000  1.0
  C  C43  1  0.16700000  0.05688000  0.70540000  1.0
  C  C44  1  0.24459000  0.11429000  0.15119000  1.0
  C  C45  1  0.35918000  0.88525000  0.34894000  1.0
  C  C46  1  0.75542000  0.88571000  0.84882000  1.0
  C  C47  1  0.64084000  0.11476000  0.65106000  1.0
  N  N48  1  0.58618000  0.11410000  0.15983000  1.0
  N  N49  1  0.70034000  0.88576000  0.34020000  1.0
  N  N50  1  0.41382000  0.88591000  0.84017000  1.0
  N  N51  1  0.29968000  0.11425000  0.65978000  1.0
  O  O52  1  0.65471000  0.43271000  0.16001000  1.0
  O  O53  1  0.08724000  0.56729000  0.33987000  1.0
  O  O54  1  0.34526000  0.56729000  0.83999000  1.0
  O  O55  1  0.91279000  0.43274000  0.66013000  1.0
  O  O56  1  0.79312000  0.24351000  0.97618000  1.0
  O  O57  1  0.03643000  0.75676000  0.52363000  1.0
  O  O58  1  0.20688000  0.75648000  0.02383000  1.0
  O  O59  1  0.96356000  0.24326000  0.47636000  1.0
  O  O60  1  0.62150000  0.69208000  0.07886000  1.0
  O  O61  1  0.31356000  0.30826000  0.42118000  1.0
  O  O62  1  0.37850000  0.30791000  0.92115000  1.0
  O  O63  1  0.68639000  0.69174000  0.57882000  1.0
  O  O64  1  0.76509000  0.50445000  0.89985000  1.0
  O  O65  1  0.26924000  0.49605000  0.60016000  1.0
  O  O66  1  0.23486000  0.49554000  0.10013000  1.0
  O  O67  1  0.73069000  0.50396000  0.39984000  1.0
