# generated using pymatgen
data_Zn8H58C61O31
_symmetry_space_group_name_H-M   'P 1'
_cell_length_a   18.38390000
_cell_length_b   18.55740000
_cell_length_c   18.55807074
_cell_angle_alpha   90.70299987
_cell_angle_beta   119.42160269
_cell_angle_gamma   119.27800000
_symmetry_Int_Tables_number   1
_chemical_formula_structural   Zn8H58C61O31
_chemical_formula_sum   'Zn8 H58 C61 O31'
_cell_volume   4536.78747321
_cell_formula_units_Z   1
loop_
 _symmetry_equiv_pos_site_id
 _symmetry_equiv_pos_as_xyz
  1  'x, y, z'
loop_
 _atom_site_type_symbol
 _atom_site_label
 _atom_site_symmetry_multiplicity
 _atom_site_fract_x
 _atom_site_fract_y
 _atom_site_fract_z
 _atom_site_occupancy
  Zn  Zn0  1  0.90780000  0.45636000  0.04172000  1.0
  Zn  Zn1  1  0.92160000  0.46335000  0.87552000  1.0
  Zn  Zn2  1  0.08740000  0.46017000  0.04904000  1.0
  Zn  Zn3  1  0.08507000  0.63117000  0.04471000  1.0
  Zn  Zn4  1  0.08397000  0.04269000  0.45650000  1.0
  Zn  Zn5  1  0.91129000  0.04228000  0.45646000  1.0
  Zn  Zn6  1  0.08602000  0.03980000  0.63105000  1.0
  Zn  Zn7  1  0.91242000  0.87221000  0.45698000  1.0
  H  H8  1  0.92038000  0.18486000  0.26722000  1.0
  H  H9  1  0.02982000  0.76782000  0.84714000  1.0
  H  H10  1  0.06063000  0.16156000  0.80756000  1.0
  H  H11  1  0.00238000  0.32672000  0.75413000  1.0
  H  H12  1  0.40458000  0.21977000  0.80279000  1.0
  H  H13  1  0.88968000  0.81254000  0.98294000  1.0
  H  H14  1  0.93764000  0.90522000  0.22536000  1.0
  H  H15  1  0.06620000  0.78987000  0.46924000  1.0
  H  H16  1  0.12572000  0.69708000  0.52563000  1.0
  H  H17  1  0.06321000  0.59644000  0.27729000  1.0
  H  H18  1  0.12576000  0.22443000  0.31650000  1.0
  H  H19  1  0.10692000  0.29833000  0.20456000  1.0
  H  H20  1  0.12420000  0.59973000  0.42962000  1.0
  H  H21  1  0.59315000  0.68963000  0.28911000  1.0
  H  H22  1  0.76632000  0.71404000  0.58077000  1.0
  H  H23  1  0.73086000  0.61015000  0.59707000  1.0
  H  H24  1  0.70405000  0.64760000  0.42800000  1.0
  H  H25  1  0.66579000  0.54391000  0.44212000  1.0
  H  H26  1  0.54340000  0.54674000  0.46852000  1.0
  H  H27  1  0.51636000  0.55422000  0.36419000  1.0
  H  H28  1  0.58056000  0.64955000  0.45126000  1.0
  H  H29  1  0.93435000  0.20330000  0.65214000  1.0
  H  H30  1  0.95742000  0.30921000  0.22810000  1.0
  H  H31  1  0.98429000  0.13190000  0.95531000  1.0
  H  H32  1  0.91925000  0.09578000  0.83892000  1.0
  H  H33  1  0.90497000  0.21198000  0.94371000  1.0
  H  H34  1  0.84331000  0.18108000  0.82861000  1.0
  H  H35  1  0.74388000  0.02108000  0.81537000  1.0
  H  H36  1  0.72157000  0.08380000  0.86419000  1.0
  H  H37  1  0.80290000  0.05263000  0.93051000  1.0
  H  H38  1  0.44648000  0.13262000  0.56010000  1.0
  H  H39  1  0.33066000  0.12426000  0.51615000  1.0
  H  H40  1  0.38178000  0.00116000  0.60418000  1.0
  H  H41  1  0.57832000  0.84570000  0.31259000  1.0
  H  H42  1  0.26437000  0.98920000  0.55737000  1.0
  H  H43  1  0.23488000  0.97138000  0.40922000  1.0
  H  H44  1  0.25362000  0.89223000  0.45085000  1.0
  H  H45  1  0.35358000  0.98561000  0.45421000  1.0
  H  H46  1  0.59262000  0.29122000  0.89818000  1.0
  H  H47  1  0.53053000  0.28282000  0.60130000  1.0
  H  H48  1  0.65248000  0.31052000  0.68746000  1.0
  H  H49  1  0.59900000  0.44095000  0.62569000  1.0
  H  H50  1  0.72151000  0.46944000  0.70956000  1.0
  H  H51  1  0.72312000  0.38893000  0.60003000  1.0
  H  H52  1  0.40658000  0.59745000  0.21894000  1.0
  H  H53  1  0.70488000  0.47082000  0.56582000  1.0
  H  H54  1  0.60020000  0.35948000  0.51543000  1.0
  H  H55  1  0.90694000  0.01871000  0.02322000  1.0
  H  H56  1  0.97314000  0.97257000  0.02556000  1.0
  H  H57  1  0.01801000  0.07947000  0.18728000  1.0
  H  H58  1  0.08402000  0.03410000  0.19050000  1.0
  H  H59  1  0.14201000  0.12861000  0.10685000  1.0
  H  H60  1  0.18304000  0.19251000  0.20726000  1.0
  H  H61  1  0.07870000  0.17636000  0.10715000  1.0
  H  H62  1  0.41689000  0.76381000  0.18672000  1.0
  H  H63  1  0.06963000  0.83493000  0.75651000  1.0
  H  H64  1  0.89553000  0.59542000  0.69431000  1.0
  H  H65  1  0.94056000  0.71343000  0.03763000  1.0
  C  C66  1  0.99638000  0.64251000  0.86780000  1.0
  C  C67  1  0.09903000  0.69632000  0.45840000  1.0
  C  C68  1  0.09811000  0.64103000  0.40388000  1.0
  C  C69  1  0.00140000  0.36866000  0.14350000  1.0
  C  C70  1  0.06440000  0.63940000  0.31909000  1.0
  C  C71  1  0.06133000  0.22998000  0.28476000  1.0
  C  C72  1  0.98827000  0.18455000  0.29875000  1.0
  C  C73  1  0.05907000  0.28355000  0.22844000  1.0
  C  C74  1  0.00351000  0.31742000  0.20399000  1.0
  C  C75  1  0.55420000  0.72186000  0.27897000  1.0
  C  C76  1  0.61179000  0.80958000  0.31719000  1.0
  C  C77  1  0.93885000  0.86247000  0.18595000  1.0
  C  C78  1  0.44420000  0.66717000  0.22672000  1.0
  C  C79  1  0.38497000  0.69602000  0.18526000  1.0
  C  C80  1  0.93007000  0.71605000  0.66412000  1.0
  C  C81  1  0.72818000  0.37600000  0.86330000  1.0
  C  C82  1  0.00254000  0.80263000  0.68922000  1.0
  C  C83  1  0.93735000  0.66603000  0.72458000  1.0
  C  C84  1  0.98991000  0.69883000  0.81245000  1.0
  C  C85  1  0.02065000  0.19189000  0.77513000  1.0
  C  C86  1  0.97922000  0.17831000  0.68883000  1.0
  C  C87  1  0.02012000  0.24674000  0.83195000  1.0
  C  C88  1  0.97007000  0.80708000  0.22065000  1.0
  C  C89  1  0.01173000  0.31407000  0.81427000  1.0
  C  C90  1  0.44524000  0.22528000  0.77356000  1.0
  C  C91  1  0.38581000  0.17245000  0.68818000  1.0
  C  C92  1  0.55417000  0.28130000  0.82803000  1.0
  C  C93  1  0.27322000  0.63865000  0.13437000  1.0
  C  C94  1  0.61583000  0.32843000  0.80171000  1.0
  C  C95  1  0.72358000  0.86320000  0.36782000  1.0
  C  C96  1  0.27335000  0.12794000  0.63653000  1.0
  C  C97  1  0.99389000  0.13143000  0.35738000  1.0
  C  C98  1  0.99990000  0.85962000  0.63492000  1.0
  C  C99  1  0.97046000  0.75149000  0.16580000  1.0
  C  C100  1  0.99024000  0.12871000  0.63645000  1.0
  C  C101  1  0.00046000  0.86238000  0.36335000  1.0
  C  C102  1  0.00899000  0.37011000  0.86865000  1.0
  C  C103  1  0.99908000  0.63756000  0.14095000  1.0
  C  C104  1  0.94068000  0.75519000  0.07956000  1.0
  C  C105  1  0.91302000  0.81059000  0.04904000  1.0
  C  C106  1  0.91204000  0.86476000  0.10314000  1.0
  C  C107  1  0.75406000  0.65094000  0.55965000  1.0
  C  C108  1  0.67504000  0.60568000  0.46161000  1.0
  C  C109  1  0.57340000  0.58816000  0.43514000  1.0
  C  C110  1  0.00024000  0.80455000  0.30614000  1.0
  C  C111  1  0.95100000  0.14823000  0.89601000  1.0
  C  C112  1  0.86970000  0.15917000  0.88547000  1.0
  C  C113  1  0.77975000  0.07454000  0.87325000  1.0
  C  C114  1  0.38243000  0.11033000  0.56555000  1.0
  C  C115  1  0.32876000  0.01269000  0.55210000  1.0
  C  C116  1  0.29072000  0.96273000  0.46159000  1.0
  C  C117  1  0.60244000  0.33324000  0.66300000  1.0
  C  C118  1  0.65050000  0.41952000  0.64728000  1.0
  C  C119  1  0.67065000  0.40917000  0.57838000  1.0
  C  C120  1  0.95068000  0.99326000  0.06278000  1.0
  C  C121  1  0.03098000  0.74931000  0.33936000  1.0
  C  C122  1  0.04378000  0.06249000  0.15157000  1.0
  C  C123  1  0.11551000  0.14426000  0.14252000  1.0
  C  C124  1  0.03043000  0.69328000  0.28412000  1.0
  C  C125  1  0.99935000  0.69532000  0.19851000  1.0
  C  C126  1  0.06616000  0.74855000  0.42703000  1.0
  O  O127  1  0.00011000  0.50265000  0.00389000  1.0
  O  O128  1  0.07169000  0.94139000  0.67617000  1.0
  O  O129  1  0.94342000  0.12049000  0.55492000  1.0
  O  O130  1  0.04500000  0.68036000  0.95008000  1.0
  O  O131  1  0.94184000  0.82406000  0.38809000  1.0
  O  O132  1  0.04412000  0.09923000  0.67510000  1.0
  O  O133  1  0.05926000  0.94497000  0.38274000  1.0
  O  O134  1  0.06346000  0.11771000  0.38626000  1.0
  O  O135  1  0.92852000  0.82562000  0.55319000  1.0
  O  O136  1  0.76711000  0.94608000  0.39486000  1.0
  O  O137  1  0.23197000  0.11232000  0.67827000  1.0
  O  O138  1  0.76528000  0.37603000  0.94264000  1.0
  O  O139  1  0.94485000  0.39615000  0.12600000  1.0
  O  O140  1  0.77980000  0.41309000  0.83164000  1.0
  O  O141  1  0.23092000  0.55784000  0.12811000  1.0
  O  O142  1  0.94344000  0.38805000  0.82594000  1.0
  O  O143  1  0.07027000  0.67586000  0.12973000  1.0
  O  O144  1  0.07095000  0.39647000  0.95149000  1.0
  O  O145  1  0.92818000  0.55628000  0.10855000  1.0
  O  O146  1  0.84863000  0.66822000  0.57887000  1.0
  O  O147  1  0.03540000  0.22980000  0.90805000  1.0
  O  O148  1  0.43219000  0.16603000  0.65250000  1.0
  O  O149  1  0.22821000  0.67655000  0.10069000  1.0
  O  O150  1  0.57523000  0.34020000  0.72269000  1.0
  O  O151  1  0.88011000  0.91793000  0.07103000  1.0
  O  O152  1  0.95431000  0.56207000  0.83018000  1.0
  O  O153  1  0.05461000  0.38088000  0.11357000  1.0
  O  O154  1  0.99987000  0.00065000  0.50167000  1.0
  O  O155  1  0.76741000  0.82384000  0.38039000  1.0
  O  O156  1  0.22767000  0.11109000  0.55354000  1.0
  O  O157  1  0.92667000  0.10331000  0.37388000  1.0
