# generated using pymatgen
data_Cu3H18(C3N)7
_symmetry_space_group_name_H-M   'P 1'
_cell_length_a   28.92860000
_cell_length_b   29.56590000
_cell_length_c   30.76650000
_cell_angle_alpha   91.44340000
_cell_angle_beta   91.06740000
_cell_angle_gamma   90.09670000
_symmetry_Int_Tables_number   1
_chemical_formula_structural   Cu3H18(C3N)7
_chemical_formula_sum   'Cu12 H72 C84 N28'
_cell_volume   26301.61456428
_cell_formula_units_Z   4
loop_
 _symmetry_equiv_pos_site_id
 _symmetry_equiv_pos_as_xyz
  1  'x, y, z'
loop_
 _atom_site_type_symbol
 _atom_site_label
 _atom_site_symmetry_multiplicity
 _atom_site_fract_x
 _atom_site_fract_y
 _atom_site_fract_z
 _atom_site_occupancy
  Cu  Cu0  1  0.32653000  0.62751000  0.58115000  1.0
  Cu  Cu1  1  0.41833000  0.67027000  0.62223000  1.0
  Cu  Cu2  1  0.37263000  0.58486000  0.66536000  1.0
  Cu  Cu3  1  0.84264000  0.37943000  0.92047000  1.0
  Cu  Cu4  1  0.92553000  0.33201000  0.87190000  1.0
  Cu  Cu5  1  0.87858000  0.41921000  0.83179000  1.0
  Cu  Cu6  1  0.16768000  0.11896000  0.41382000  1.0
  Cu  Cu7  1  0.07410000  0.15836000  0.37519000  1.0
  Cu  Cu8  1  0.12856000  0.08124000  0.32337000  1.0
  Cu  Cu9  1  0.66313000  0.88066000  0.08357000  1.0
  Cu  Cu10  1  0.59031000  0.82231000  0.13493000  1.0
  Cu  Cu11  1  0.62935000  0.91522000  0.17526000  1.0
  H  H12  1  0.30906000  0.69254000  0.50209000  1.0
  H  H13  1  0.43628000  0.74940000  0.55657000  1.0
  H  H14  1  0.30302000  0.50434000  0.68137000  1.0
  H  H15  1  0.24073000  0.56153000  0.56600000  1.0
  H  H16  1  0.50397000  0.68749000  0.68632000  1.0
  H  H17  1  0.44307000  0.56959000  0.74376000  1.0
  H  H18  1  0.83526000  0.31765000  0.00323000  1.0
  H  H19  1  0.94500000  0.24931000  0.93383000  1.0
  H  H20  1  0.80553000  0.49746000  0.81713000  1.0
  H  H21  1  0.75820000  0.44491000  0.93879000  1.0
  H  H22  1  0.00516000  0.31398000  0.80442000  1.0
  H  H23  1  0.94276000  0.43396000  0.75066000  1.0
  H  H24  1  0.18318000  0.18425000  0.49614000  1.0
  H  H25  1  0.05269000  0.23497000  0.44616000  1.0
  H  H26  1  0.19897000  0.00093000  0.30481000  1.0
  H  H27  1  0.25168000  0.05202000  0.42943000  1.0
  H  H28  1  0.98653000  0.16965000  0.31262000  1.0
  H  H29  1  0.06700000  0.07375000  0.23695000  1.0
  H  H30  1  0.67415000  0.81935000  0.99881000  1.0
  H  H31  1  0.58257000  0.73524000  0.07212000  1.0
  H  H32  1  0.69661000  0.99941000  0.19231000  1.0
  H  H33  1  0.73618000  0.95739000  0.06231000  1.0
  H  H34  1  0.51398000  0.79941000  0.20384000  1.0
  H  H35  1  0.56472000  0.92781000  0.25661000  1.0
  H  H36  1  0.86985000  0.27625000  0.06847000  1.0
  H  H37  1  0.88359000  0.22182000  0.12609000  1.0
  H  H38  1  0.91229000  0.20373000  0.00810000  1.0
  H  H39  1  0.86638000  0.14993000  0.05313000  1.0
  H  H40  1  0.30485000  0.76187000  0.45852000  1.0
  H  H41  1  0.30378000  0.82384000  0.40842000  1.0
  H  H42  1  0.40474000  0.79088000  0.48129000  1.0
  H  H43  1  0.41019000  0.81465000  0.40729000  1.0
  H  H44  1  0.61733000  0.67026000  0.02288000  1.0
  H  H45  1  0.63874000  0.61525000  0.96453000  1.0
  H  H46  1  0.64576000  0.73930000  0.95525000  1.0
  H  H47  1  0.59788000  0.68847000  0.90539000  1.0
  H  H48  1  0.04684000  0.27521000  0.51870000  1.0
  H  H49  1  0.04671000  0.32478000  0.58353000  1.0
  H  H50  1  0.14918000  0.25903000  0.54228000  1.0
  H  H51  1  0.15093000  0.33564000  0.56621000  1.0
  H  H52  1  0.76157000  0.04262000  0.05884000  1.0
  H  H53  1  0.80203000  0.11675000  0.06540000  1.0
  H  H54  1  0.77302000  0.04698000  0.15832000  1.0
  H  H55  1  0.85389000  0.07085000  0.14134000  1.0
  H  H56  1  0.22704000  0.46292000  0.68774000  1.0
  H  H57  1  0.15680000  0.41653000  0.68754000  1.0
  H  H58  1  0.19691000  0.48372000  0.59397000  1.0
  H  H59  1  0.17382000  0.40544000  0.58919000  1.0
  H  H60  1  0.27004000  0.95376000  0.30265000  1.0
  H  H61  1  0.33481000  0.90167000  0.30288000  1.0
  H  H62  1  0.29799000  0.97654000  0.39769000  1.0
  H  H63  1  0.32399000  0.90038000  0.40264000  1.0
  H  H64  1  0.72834000  0.53471000  0.81306000  1.0
  H  H65  1  0.65700000  0.57704000  0.81175000  1.0
  H  H66  1  0.70791000  0.51915000  0.90925000  1.0
  H  H67  1  0.67759000  0.59622000  0.90904000  1.0
  H  H68  1  0.91799000  0.13461000  0.26360000  1.0
  H  H69  1  0.86133000  0.11725000  0.20344000  1.0
  H  H70  1  0.98795000  0.10888000  0.19327000  1.0
  H  H71  1  0.93743000  0.15808000  0.14702000  1.0
  H  H72  1  0.51851000  0.56177000  0.78144000  1.0
  H  H73  1  0.58615000  0.55904000  0.82887000  1.0
  H  H74  1  0.54839000  0.65937000  0.76375000  1.0
  H  H75  1  0.57082000  0.66145000  0.84276000  1.0
  H  H76  1  0.01371000  0.43871000  0.70656000  1.0
  H  H77  1  0.07928000  0.44031000  0.65878000  1.0
  H  H78  1  0.04588000  0.34267000  0.72842000  1.0
  H  H79  1  0.07046000  0.33624000  0.65338000  1.0
  H  H80  1  0.47024000  0.79415000  0.27242000  1.0
  H  H81  1  0.41813000  0.79269000  0.33353000  1.0
  H  H82  1  0.49006000  0.89298000  0.30060000  1.0
  H  H83  1  0.41234000  0.89638000  0.32400000  1.0
  C  C84  1  0.34000000  0.70143000  0.52092000  1.0
  C  C85  1  0.37253000  0.73613000  0.51475000  1.0
  C  C86  1  0.40512000  0.73015000  0.54865000  1.0
  C  C87  1  0.29323000  0.52397000  0.65333000  1.0
  C  C88  1  0.25567000  0.51814000  0.62388000  1.0
  C  C89  1  0.26178000  0.55302000  0.59420000  1.0
  C  C90  1  0.48326000  0.65858000  0.69511000  1.0
  C  C91  1  0.48991000  0.62847000  0.72934000  1.0
  C  C92  1  0.45250000  0.59809000  0.72419000  1.0
  C  C93  1  0.86218000  0.30669000  0.98125000  1.0
  C  C94  1  0.89186000  0.26905000  0.98360000  1.0
  C  C95  1  0.91766000  0.27138000  0.94539000  1.0
  C  C96  1  0.79959000  0.47916000  0.84666000  1.0
  C  C97  1  0.76517000  0.48544000  0.87807000  1.0
  C  C98  1  0.77580000  0.45255000  0.90897000  1.0
  C  C99  1  0.98445000  0.34340000  0.79671000  1.0
  C  C100  1  0.98918000  0.37383000  0.76261000  1.0
  C  C101  1  0.95292000  0.40488000  0.76940000  1.0
  C  C102  1  0.15138000  0.19129000  0.47827000  1.0
  C  C103  1  0.11723000  0.22390000  0.48716000  1.0
  C  C104  1  0.08455000  0.21700000  0.45307000  1.0
  C  C105  1  0.20655000  0.01911000  0.33520000  1.0
  C  C106  1  0.24139000  0.01152000  0.36683000  1.0
  C  C107  1  0.23317000  0.04514000  0.39895000  1.0
  C  C108  1  0.01143000  0.14554000  0.29991000  1.0
  C  C109  1  0.01119000  0.12148000  0.25981000  1.0
  C  C110  1  0.05299000  0.09721000  0.26099000  1.0
  C  C111  1  0.65139000  0.80443000  0.02220000  1.0
  C  C112  1  0.62946000  0.76190000  0.02059000  1.0
  C  C113  1  0.60526000  0.76107000  0.05987000  1.0
  C  C114  1  0.70109000  0.98308000  0.16068000  1.0
  C  C115  1  0.73041000  0.99501000  0.12682000  1.0
  C  C116  1  0.72071000  0.96217000  0.09397000  1.0
  C  C117  1  0.53197000  0.83092000  0.21159000  1.0
  C  C118  1  0.52498000  0.86262000  0.24583000  1.0
  C  C119  1  0.55778000  0.89660000  0.23826000  1.0
  C  C120  1  0.89583000  0.23582000  0.01720000  1.0
  C  C121  1  0.88187000  0.24246000  0.05877000  1.0
  C  C122  1  0.88128000  0.20929000  0.09237000  1.0
  C  C123  1  0.87474000  0.16423000  0.08541000  1.0
  C  C124  1  0.37311000  0.77061000  0.48236000  1.0
  C  C125  1  0.33744000  0.78007000  0.45469000  1.0
  C  C126  1  0.33746000  0.81246000  0.42048000  1.0
  C  C127  1  0.37578000  0.82838000  0.40094000  1.0
  C  C128  1  0.63322000  0.72768000  0.98642000  1.0
  C  C129  1  0.62505000  0.68278000  0.99061000  1.0
  C  C130  1  0.62751000  0.64918000  0.95580000  1.0
  C  C131  1  0.61554000  0.65714000  0.91393000  1.0
  C  C132  1  0.11692000  0.25605000  0.52326000  1.0
  C  C133  1  0.08002000  0.28146000  0.53548000  1.0
  C  C134  1  0.07995000  0.31615000  0.56926000  1.0
  C  C135  1  0.11818000  0.33968000  0.58290000  1.0
  C  C136  1  0.76195000  0.03304000  0.12649000  1.0
  C  C137  1  0.77664000  0.05357000  0.09031000  1.0
  C  C138  1  0.80859000  0.09129000  0.08987000  1.0
  C  C139  1  0.84523000  0.09653000  0.11773000  1.0
  C  C140  1  0.21867000  0.48527000  0.62346000  1.0
  C  C141  1  0.20805000  0.45808000  0.65686000  1.0
  C  C142  1  0.17217000  0.42420000  0.65642000  1.0
  C  C143  1  0.15660000  0.40149000  0.62016000  1.0
  C  C144  1  0.27761000  0.97803000  0.36743000  1.0
  C  C145  1  0.28841000  0.94963000  0.33370000  1.0
  C  C146  1  0.32241000  0.91410000  0.33431000  1.0
  C  C147  1  0.33870000  0.89384000  0.37068000  1.0
  C  C148  1  0.72680000  0.51666000  0.87880000  1.0
  C  C149  1  0.71167000  0.54079000  0.84431000  1.0
  C  C150  1  0.67368000  0.57222000  0.84338000  1.0
  C  C151  1  0.65855000  0.59683000  0.87819000  1.0
  C  C152  1  0.97631000  0.11996000  0.22546000  1.0
  C  C153  1  0.93057000  0.12859000  0.23061000  1.0
  C  C154  1  0.89635000  0.12814000  0.19584000  1.0
  C  C155  1  0.90534000  0.14069000  0.15464000  1.0
  C  C156  1  0.52700000  0.62880000  0.76144000  1.0
  C  C157  1  0.53746000  0.59350000  0.78724000  1.0
  C  C158  1  0.57230000  0.59230000  0.82124000  1.0
  C  C159  1  0.58742000  0.62842000  0.84552000  1.0
  C  C160  1  0.02421000  0.37295000  0.72978000  1.0
  C  C161  1  0.03304000  0.40716000  0.70234000  1.0
  C  C162  1  0.06697000  0.40723000  0.66867000  1.0
  C  C163  1  0.08446000  0.37001000  0.64827000  1.0
  C  C164  1  0.49227000  0.86188000  0.28067000  1.0
  C  C165  1  0.46512000  0.82610000  0.29040000  1.0
  C  C166  1  0.42932000  0.82567000  0.32234000  1.0
  C  C167  1  0.40700000  0.86307000  0.33761000  1.0
  N  N168  1  0.39275000  0.69506000  0.57307000  1.0
  N  N169  1  0.35232000  0.67721000  0.55577000  1.0
  N  N170  1  0.29963000  0.57768000  0.60529000  1.0
  N  N171  1  0.31916000  0.55956000  0.64201000  1.0
  N  N172  1  0.42614000  0.60925000  0.68955000  1.0
  N  N173  1  0.44526000  0.64678000  0.67140000  1.0
  N  N174  1  0.90468000  0.30770000  0.92253000  1.0
  N  N175  1  0.87009000  0.32952000  0.94476000  1.0
  N  N176  1  0.81317000  0.42852000  0.89674000  1.0
  N  N177  1  0.82794000  0.44513000  0.85802000  1.0
  N  N178  1  0.92902000  0.39375000  0.80475000  1.0
  N  N179  1  0.94860000  0.35555000  0.82178000  1.0
  N  N180  1  0.09823000  0.18287000  0.42647000  1.0
  N  N181  1  0.13974000  0.16686000  0.44212000  1.0
  N  N182  1  0.19670000  0.07068000  0.38723000  1.0
  N  N183  1  0.18020000  0.05450000  0.34761000  1.0
  N  N184  1  0.07585000  0.10572000  0.29891000  1.0
  N  N185  1  0.05012000  0.13597000  0.32299000  1.0
  N  N186  1  0.61265000  0.79991000  0.08291000  1.0
  N  N187  1  0.64146000  0.82680000  0.05956000  1.0
  N  N188  1  0.68804000  0.93333000  0.10732000  1.0
  N  N189  1  0.67569000  0.94643000  0.14868000  1.0
  N  N190  1  0.58235000  0.88584000  0.20269000  1.0
  N  N191  1  0.56625000  0.84502000  0.18612000  1.0
  N  N192  1  0.87612000  0.13290000  0.11863000  1.0
  N  N193  1  0.37496000  0.86285000  0.37086000  1.0
  N  N194  1  0.62173000  0.62725000  0.87831000  1.0
  N  N195  1  0.11988000  0.37058000  0.61782000  1.0
