# generated using pymatgen
data_DyH6C6(NO4)2
_symmetry_space_group_name_H-M   'P 1'
_cell_length_a   7.75313000
_cell_length_b   8.43976000
_cell_length_c   17.27700000
_cell_angle_alpha   89.99960000
_cell_angle_beta   90.00000000
_cell_angle_gamma   107.59800000
_symmetry_Int_Tables_number   1
_chemical_formula_structural   DyH6C6(NO4)2
_chemical_formula_sum   'Dy4 H24 C24 N8 O32'
_cell_volume   1077.60621260
_cell_formula_units_Z   4
loop_
 _symmetry_equiv_pos_site_id
 _symmetry_equiv_pos_as_xyz
  1  'x, y, z'
loop_
 _atom_site_type_symbol
 _atom_site_label
 _atom_site_symmetry_multiplicity
 _atom_site_fract_x
 _atom_site_fract_y
 _atom_site_fract_z
 _atom_site_occupancy
  Dy  Dy0  1  0.25689000  0.23626000  0.47667000  1.0
  Dy  Dy1  1  0.24312000  0.76375000  0.97667000  1.0
  Dy  Dy2  1  0.74311000  0.76375000  0.52333000  1.0
  Dy  Dy3  1  0.75689000  0.23626000  0.02334000  1.0
  H  H4  1  0.36487000  0.39823000  0.22889000  1.0
  H  H5  1  0.13513000  0.60178000  0.72888000  1.0
  H  H6  1  0.63513000  0.60177000  0.77111000  1.0
  H  H7  1  0.86487000  0.39823000  0.27111000  1.0
  H  H8  1  0.65315000  0.89132000  0.28881000  1.0
  H  H9  1  0.84685000  0.10868000  0.78881000  1.0
  H  H10  1  0.34686000  0.10868000  0.71118000  1.0
  H  H11  1  0.15314000  0.89133000  0.21119000  1.0
  H  H12  1  0.02353000  0.17502000  0.34899000  1.0
  H  H13  1  0.47647000  0.82496000  0.84899000  1.0
  H  H14  1  0.97646000  0.82497000  0.65101000  1.0
  H  H15  1  0.52353000  0.17502000  0.15101000  1.0
  H  H16  1  0.88245000  0.15548000  0.41636000  1.0
  H  H17  1  0.61755000  0.84451000  0.91636000  1.0
  H  H18  1  0.11754000  0.84451000  0.58365000  1.0
  H  H19  1  0.38245000  0.15549000  0.08364000  1.0
  H  H20  1  0.29016000  0.59547000  0.51830000  1.0
  H  H21  1  0.20983000  0.40452000  0.01829000  1.0
  H  H22  1  0.70985000  0.40452000  0.48171000  1.0
  H  H23  1  0.79015000  0.59548000  0.98170000  1.0
  H  H24  1  0.12847000  0.47017000  0.56240000  1.0
  H  H25  1  0.37152000  0.52983000  0.06240000  1.0
  H  H26  1  0.87153000  0.52984000  0.43760000  1.0
  H  H27  1  0.62848000  0.47017000  0.93759000  1.0
  C  C28  1  0.48095000  0.55819000  0.36783000  1.0
  C  C29  1  0.01905000  0.44180000  0.86783000  1.0
  C  C30  1  0.51904000  0.44180000  0.63217000  1.0
  C  C31  1  0.98095000  0.55820000  0.13217000  1.0
  C  C32  1  0.50337000  0.62242000  0.28786000  1.0
  C  C33  1  0.99664000  0.37759000  0.78786000  1.0
  C  C34  1  0.49662000  0.37758000  0.71214000  1.0
  C  C35  1  0.00337000  0.62243000  0.21214000  1.0
  C  C36  1  0.58292000  0.77982000  0.25711000  1.0
  C  C37  1  0.91708000  0.22018000  0.75711000  1.0
  C  C38  1  0.41707000  0.22018000  0.74289000  1.0
  C  C39  1  0.08292000  0.77983000  0.24289000  1.0
  C  C40  1  0.54563000  0.76187000  0.17715000  1.0
  C  C41  1  0.95437000  0.23813000  0.67716000  1.0
  C  C42  1  0.45437000  0.23812000  0.82284000  1.0
  C  C43  1  0.04563000  0.76188000  0.32285000  1.0
  C  C44  1  0.58184000  0.88914000  0.11533000  1.0
  C  C45  1  0.91816000  0.11086000  0.61533000  1.0
  C  C46  1  0.41816000  0.11085000  0.88467000  1.0
  C  C47  1  0.08184000  0.88916000  0.38467000  1.0
  C  C48  1  0.42709000  0.94110000  0.52600000  1.0
  C  C49  1  0.07291000  0.05891000  0.02599000  1.0
  C  C50  1  0.57291000  0.05891000  0.47401000  1.0
  C  C51  1  0.92710000  0.94109000  0.97401000  1.0
  N  N52  1  0.42906000  0.52244000  0.22670000  1.0
  N  N53  1  0.07094000  0.47756000  0.72670000  1.0
  N  N54  1  0.57094000  0.47756000  0.77330000  1.0
  N  N55  1  0.92906000  0.52245000  0.27330000  1.0
  N  N56  1  0.45180000  0.60300000  0.15960000  1.0
  N  N57  1  0.04821000  0.39700000  0.65960000  1.0
  N  N58  1  0.54821000  0.39699000  0.84040000  1.0
  N  N59  1  0.95180000  0.60301000  0.34041000  1.0
  O  O60  1  0.38465000  0.40746000  0.37575000  1.0
  O  O61  1  0.11534000  0.59255000  0.87576000  1.0
  O  O62  1  0.61533000  0.59255000  0.62424000  1.0
  O  O63  1  0.88467000  0.40746000  0.12424000  1.0
  O  O64  1  0.55508000  0.65635000  0.42172000  1.0
  O  O65  1  0.94493000  0.34365000  0.92172000  1.0
  O  O66  1  0.44490000  0.34364000  0.57828000  1.0
  O  O67  1  0.05509000  0.65637000  0.07829000  1.0
  O  O68  1  0.70352000  0.02741000  0.12600000  1.0
  O  O69  1  0.79648000  0.97258000  0.62601000  1.0
  O  O70  1  0.29648000  0.97258000  0.87400000  1.0
  O  O71  1  0.20352000  0.02742000  0.37399000  1.0
  O  O72  1  0.48459000  0.85400000  0.05477000  1.0
  O  O73  1  0.01540000  0.14598000  0.55477000  1.0
  O  O74  1  0.51540000  0.14599000  0.94523000  1.0
  O  O75  1  0.98458000  0.85403000  0.44522000  1.0
  O  O76  1  0.29076000  0.98862000  0.54190000  1.0
  O  O77  1  0.20925000  0.01138000  0.04189000  1.0
  O  O78  1  0.70925000  0.01137000  0.45810000  1.0
  O  O79  1  0.79076000  0.98861000  0.95810000  1.0
  O  O80  1  0.45349000  0.80783000  0.54830000  1.0
  O  O81  1  0.04651000  0.19216000  0.04830000  1.0
  O  O82  1  0.54652000  0.19216000  0.45171000  1.0
  O  O83  1  0.95351000  0.80783000  0.95170000  1.0
  O  O84  1  0.99441000  0.23473000  0.39296000  1.0
  O  O85  1  0.50559000  0.76526000  0.89297000  1.0
  O  O86  1  0.00558000  0.76526000  0.60704000  1.0
  O  O87  1  0.49442000  0.23474000  0.10703000  1.0
  O  O88  1  0.19563000  0.48826000  0.51230000  1.0
  O  O89  1  0.30436000  0.51173000  0.01229000  1.0
  O  O90  1  0.80437000  0.51175000  0.48771000  1.0
  O  O91  1  0.69563000  0.48826000  0.98770000  1.0
