# generated using pymatgen
data_ZnH10C17NO4
_symmetry_space_group_name_H-M   'P 1'
_cell_length_a   13.10330000
_cell_length_b   13.23180000
_cell_length_c   13.89290000
_cell_angle_alpha   84.45710000
_cell_angle_beta   70.27360000
_cell_angle_gamma   82.19920000
_symmetry_Int_Tables_number   1
_chemical_formula_structural   ZnH10C17NO4
_chemical_formula_sum   'Zn4 H40 C68 N4 O16'
_cell_volume   2243.08202088
_cell_formula_units_Z   4
loop_
 _symmetry_equiv_pos_site_id
 _symmetry_equiv_pos_as_xyz
  1  'x, y, z'
loop_
 _atom_site_type_symbol
 _atom_site_label
 _atom_site_symmetry_multiplicity
 _atom_site_fract_x
 _atom_site_fract_y
 _atom_site_fract_z
 _atom_site_occupancy
  Zn  Zn0  1  0.18619000  0.31873000  0.66724000  1.0
  Zn  Zn1  1  0.12523000  0.32417000  0.88470000  1.0
  Zn  Zn2  1  0.81381000  0.68126000  0.33276000  1.0
  Zn  Zn3  1  0.87476000  0.67583000  0.11530000  1.0
  H  H4  1  0.75895000  0.35039000  0.98116000  1.0
  H  H5  1  0.56705000  0.34905000  0.98727000  1.0
  H  H6  1  0.87398000  0.30530000  0.65815000  1.0
  H  H7  1  0.43383000  0.33283000  0.89720000  1.0
  H  H8  1  0.54888000  0.29125000  0.57387000  1.0
  H  H9  1  0.74135000  0.29086000  0.56869000  1.0
  H  H10  1  0.18994000  0.99463000  0.64070000  1.0
  H  H11  1  0.10586000  0.81393000  0.98651000  1.0
  H  H12  1  0.11297000  0.00248000  0.96601000  1.0
  H  H13  1  0.12263000  0.64976000  0.90909000  1.0
  H  H14  1  0.19113000  0.64057000  0.58493000  1.0
  H  H15  1  0.20131000  0.82917000  0.56310000  1.0
  H  H16  1  0.12213000  0.16510000  0.05083000  1.0
  H  H17  1  0.13243000  0.15354000  0.22760000  1.0
  H  H18  1  0.13344000  0.48207000  0.20112000  1.0
  H  H19  1  0.11586000  0.47986000  0.02900000  1.0
  H  H20  1  0.22324000  0.16025000  0.33276000  1.0
  H  H21  1  0.24617000  0.16775000  0.50315000  1.0
  H  H22  1  0.11458000  0.46964000  0.52771000  1.0
  H  H23  1  0.07855000  0.47493000  0.36172000  1.0
  H  H24  1  0.24105000  0.64962000  0.01883000  1.0
  H  H25  1  0.43295000  0.65097000  0.01272000  1.0
  H  H26  1  0.12602000  0.69470000  0.34185000  1.0
  H  H27  1  0.56617000  0.66717000  0.10280000  1.0
  H  H28  1  0.45112000  0.70874000  0.42613000  1.0
  H  H29  1  0.25864000  0.70913000  0.43131000  1.0
  H  H30  1  0.81006000  0.00536000  0.35930000  1.0
  H  H31  1  0.89413000  0.18607000  0.01349000  1.0
  H  H32  1  0.88702000  0.99752000  0.03399000  1.0
  H  H33  1  0.87737000  0.35024000  0.09092000  1.0
  H  H34  1  0.80886000  0.35942000  0.41507000  1.0
  H  H35  1  0.79869000  0.17083000  0.43691000  1.0
  H  H36  1  0.87789000  0.83490000  0.94917000  1.0
  H  H37  1  0.86758000  0.84646000  0.77240000  1.0
  H  H38  1  0.86654000  0.51793000  0.79888000  1.0
  H  H39  1  0.88414000  0.52015000  0.97100000  1.0
  H  H40  1  0.77676000  0.83975000  0.66724000  1.0
  H  H41  1  0.75382000  0.83226000  0.49686000  1.0
  H  H42  1  0.88543000  0.53036000  0.47229000  1.0
  H  H43  1  0.92145000  0.52506000  0.63828000  1.0
  C  C44  1  0.94339000  0.33029000  0.81269000  1.0
  C  C45  1  0.82745000  0.32829000  0.81813000  1.0
  C  C46  1  0.74032000  0.34035000  0.91216000  1.0
  C  C47  1  0.63428000  0.33949000  0.91529000  1.0
  C  C48  1  0.60991000  0.32593000  0.82537000  1.0
  C  C49  1  0.69793000  0.31335000  0.73034000  1.0
  C  C50  1  0.80581000  0.31501000  0.72941000  1.0
  C  C51  1  0.50212000  0.32405000  0.82598000  1.0
  C  C52  1  0.48079000  0.31149000  0.73700000  1.0
  C  C53  1  0.56788000  0.30006000  0.64296000  1.0
  C  C54  1  0.67378000  0.30025000  0.64033000  1.0
  C  C55  1  0.36476000  0.31134000  0.74162000  1.0
  C  C56  1  0.15787000  0.12228000  0.79033000  1.0
  C  C57  1  0.15353000  0.00893000  0.80133000  1.0
  C  C58  1  0.17184000  0.95430000  0.71583000  1.0
  C  C59  1  0.16702000  0.84759000  0.72480000  1.0
  C  C60  1  0.14459000  0.79584000  0.82431000  1.0
  C  C61  1  0.12538000  0.85358000  0.91101000  1.0
  C  C62  1  0.12915000  0.95761000  0.89974000  1.0
  C  C63  1  0.14019000  0.68896000  0.83355000  1.0
  C  C64  1  0.15589000  0.63449000  0.74856000  1.0
  C  C65  1  0.17781000  0.68597000  0.65032000  1.0
  C  C66  1  0.18347000  0.78968000  0.63874000  1.0
  C  C67  1  0.15019000  0.52141000  0.75939000  1.0
  C  C68  1  0.12420000  0.23300000  0.08846000  1.0
  C  C69  1  0.13125000  0.22769000  0.18632000  1.0
  C  C70  1  0.13508000  0.31775000  0.23019000  1.0
  C  C71  1  0.14807000  0.31723000  0.33178000  1.0
  C  C72  1  0.12931000  0.40981000  0.17232000  1.0
  C  C73  1  0.12096000  0.40939000  0.07543000  1.0
  C  C74  1  0.19548000  0.23026000  0.37374000  1.0
  C  C75  1  0.21043000  0.23387000  0.46766000  1.0
  C  C76  1  0.13581000  0.40295000  0.48158000  1.0
  C  C77  1  0.11704000  0.40501000  0.38886000  1.0
  C  C78  1  0.05660000  0.66971000  0.18731000  1.0
  C  C79  1  0.17255000  0.67171000  0.18187000  1.0
  C  C80  1  0.25968000  0.65965000  0.08784000  1.0
  C  C81  1  0.36572000  0.66052000  0.08471000  1.0
  C  C82  1  0.39009000  0.67408000  0.17462000  1.0
  C  C83  1  0.30207000  0.68665000  0.26965000  1.0
  C  C84  1  0.19419000  0.68499000  0.27058000  1.0
  C  C85  1  0.49788000  0.67595000  0.17402000  1.0
  C  C86  1  0.51921000  0.68851000  0.26300000  1.0
  C  C87  1  0.43212000  0.69994000  0.35705000  1.0
  C  C88  1  0.32622000  0.69975000  0.35967000  1.0
  C  C89  1  0.63524000  0.68865000  0.25838000  1.0
  C  C90  1  0.84213000  0.87772000  0.20967000  1.0
  C  C91  1  0.84647000  0.99107000  0.19867000  1.0
  C  C92  1  0.82816000  0.04570000  0.28417000  1.0
  C  C93  1  0.83298000  0.15241000  0.27520000  1.0
  C  C94  1  0.85542000  0.20415000  0.17569000  1.0
  C  C95  1  0.87462000  0.14642000  0.08899000  1.0
  C  C96  1  0.87085000  0.04239000  0.10026000  1.0
  C  C97  1  0.85981000  0.31103000  0.16646000  1.0
  C  C98  1  0.84410000  0.36551000  0.25144000  1.0
  C  C99  1  0.82218000  0.31403000  0.34968000  1.0
  C  C100  1  0.81653000  0.21031000  0.36126000  1.0
  C  C101  1  0.84981000  0.47859000  0.24061000  1.0
  C  C102  1  0.87582000  0.76701000  0.91153000  1.0
  C  C103  1  0.86876000  0.77231000  0.81367000  1.0
  C  C104  1  0.86492000  0.68225000  0.76980000  1.0
  C  C105  1  0.85193000  0.68278000  0.66822000  1.0
  C  C106  1  0.87069000  0.59019000  0.82768000  1.0
  C  C107  1  0.87904000  0.59062000  0.92456000  1.0
  C  C108  1  0.80452000  0.76974000  0.62626000  1.0
  C  C109  1  0.78956000  0.76613000  0.53234000  1.0
  C  C110  1  0.86419000  0.59706000  0.51842000  1.0
  C  C111  1  0.88296000  0.59499000  0.61114000  1.0
  N  N112  1  0.11944000  0.32221000  0.03381000  1.0
  N  N113  1  0.18176000  0.31900000  0.52052000  1.0
  N  N114  1  0.88057000  0.67780000  0.96619000  1.0
  N  N115  1  0.81825000  0.68101000  0.47948000  1.0
  O  O116  1  0.96195000  0.33673000  0.89634000  1.0
  O  O117  1  0.01505000  0.32668000  0.72416000  1.0
  O  O118  1  0.29353000  0.31061000  0.83054000  1.0
  O  O119  1  0.34588000  0.31262000  0.65722000  1.0
  O  O120  1  0.18885000  0.16335000  0.69983000  1.0
  O  O121  1  0.12915000  0.16924000  0.87289000  1.0
  O  O122  1  0.16815000  0.47583000  0.67746000  1.0
  O  O123  1  0.12741000  0.47910000  0.84940000  1.0
  O  O124  1  0.03805000  0.66327000  0.10365000  1.0
  O  O125  1  0.98495000  0.67332000  0.27584000  1.0
  O  O126  1  0.70647000  0.68938000  0.16946000  1.0
  O  O127  1  0.65412000  0.68737000  0.34279000  1.0
  O  O128  1  0.81115000  0.83664000  0.30016000  1.0
  O  O129  1  0.87086000  0.83076000  0.12711000  1.0
  O  O130  1  0.83186000  0.52417000  0.32254000  1.0
  O  O131  1  0.87259000  0.52089000  0.15060000  1.0
