# generated using pymatgen
data_NiH2C4SN2O5
_symmetry_space_group_name_H-M   'P 1'
_cell_length_a   7.15148000
_cell_length_b   7.17180000
_cell_length_c   12.96220000
_cell_angle_alpha   91.01440000
_cell_angle_beta   89.99090000
_cell_angle_gamma   89.99200000
_symmetry_Int_Tables_number   1
_chemical_formula_structural   NiH2C4SN2O5
_chemical_formula_sum   'Ni4 H8 C16 S4 N8 O20'
_cell_volume   664.71386462
_cell_formula_units_Z   4
loop_
 _symmetry_equiv_pos_site_id
 _symmetry_equiv_pos_as_xyz
  1  'x, y, z'
loop_
 _atom_site_type_symbol
 _atom_site_label
 _atom_site_symmetry_multiplicity
 _atom_site_fract_x
 _atom_site_fract_y
 _atom_site_fract_z
 _atom_site_occupancy
  Ni  Ni0  1  0.50319000  0.72461000  0.67969000  1.0
  Ni  Ni1  1  0.00326000  0.27534000  0.32033000  1.0
  Ni  Ni2  1  0.49876000  0.79215000  0.18082000  1.0
  Ni  Ni3  1  0.99874000  0.20784000  0.81921000  1.0
  H  H4  1  0.16973000  0.59426000  0.73412000  1.0
  H  H5  1  0.66988000  0.40588000  0.26583000  1.0
  H  H6  1  0.14364000  0.71776000  0.63044000  1.0
  H  H7  1  0.64372000  0.28242000  0.36951000  1.0
  H  H8  1  0.49191000  0.14345000  0.13384000  1.0
  H  H9  1  0.99191000  0.85657000  0.86610000  1.0
  H  H10  1  0.37083000  0.11690000  0.23816000  1.0
  H  H11  1  0.87067000  0.88321000  0.76186000  1.0
  C  C12  1  0.83915000  0.79609000  0.56457000  1.0
  C  C13  1  0.33932000  0.20401000  0.43541000  1.0
  C  C14  1  0.68655000  0.77282000  0.48527000  1.0
  C  C15  1  0.18670000  0.22731000  0.51474000  1.0
  C  C16  1  0.67549000  0.80951000  0.37828000  1.0
  C  C17  1  0.17558000  0.19058000  0.62174000  1.0
  C  C18  1  0.80578000  0.90856000  0.30727000  1.0
  C  C19  1  0.30581000  0.09137000  0.69273000  1.0
  C  C20  1  0.58513000  0.45084000  0.07191000  1.0
  C  C21  1  0.08515000  0.54911000  0.92811000  1.0
  C  C22  1  0.56877000  0.59539000  0.98966000  1.0
  C  C23  1  0.06878000  0.40452000  0.01033000  1.0
  C  C24  1  0.56592000  0.58092000  0.88038000  1.0
  C  C25  1  0.06600000  0.41897000  0.11963000  1.0
  C  C26  1  0.63365000  0.43054000  0.80676000  1.0
  C  C27  1  0.13374000  0.56937000  0.19323000  1.0
  S  S28  1  0.37123000  0.68384000  0.42840000  1.0
  S  S29  1  0.87131000  0.31622000  0.57166000  1.0
  S  S30  1  0.48096000  0.90332000  0.92590000  1.0
  S  S31  1  0.98103000  0.09660000  0.07413000  1.0
  N  N32  1  0.52602000  0.70340000  0.52102000  1.0
  N  N33  1  0.02612000  0.29669000  0.47899000  1.0
  N  N34  1  0.50833000  0.76531000  0.33799000  1.0
  N  N35  1  0.00838000  0.23476000  0.66207000  1.0
  N  N36  1  0.52963000  0.76942000  0.02286000  1.0
  N  N37  1  0.02959000  0.23049000  0.97713000  1.0
  N  N38  1  0.51394000  0.74139000  0.83680000  1.0
  N  N39  1  0.01407000  0.25850000  0.16324000  1.0
  O  O40  1  0.77891000  0.79125000  0.65838000  1.0
  O  O41  1  0.27898000  0.20882000  0.34162000  1.0
  O  O42  1  0.00695000  0.81046000  0.53955000  1.0
  O  O43  1  0.50713000  0.18967000  0.46041000  1.0
  O  O44  1  0.93404000  0.00435000  0.34831000  1.0
  O  O45  1  0.43398000  0.99548000  0.65163000  1.0
  O  O46  1  0.76596000  0.89642000  0.21134000  1.0
  O  O47  1  0.26592000  0.10343000  0.78866000  1.0
  O  O48  1  0.23219000  0.63753000  0.66990000  1.0
  O  O49  1  0.73231000  0.36265000  0.33007000  1.0
  O  O50  1  0.58461000  0.51862000  0.16494000  1.0
  O  O51  1  0.08479000  0.48131000  0.83507000  1.0
  O  O52  1  0.58946000  0.28123000  0.04874000  1.0
  O  O53  1  0.08937000  0.71870000  0.95132000  1.0
  O  O54  1  0.72816000  0.29960000  0.84343000  1.0
  O  O55  1  0.22831000  0.70021000  0.15652000  1.0
  O  O56  1  0.59731000  0.45664000  0.71167000  1.0
  O  O57  1  0.09726000  0.54331000  0.28831000  1.0
  O  O58  1  0.40527000  0.05694000  0.17059000  1.0
  O  O59  1  0.90515000  0.94310000  0.82944000  1.0
