# generated using pymatgen
data_ZnH11C8N7
_symmetry_space_group_name_H-M   'P 1'
_cell_length_a   6.15451000
_cell_length_b   9.48123000
_cell_length_c   9.62716000
_cell_angle_alpha   85.67780000
_cell_angle_beta   76.14120000
_cell_angle_gamma   81.86020000
_symmetry_Int_Tables_number   1
_chemical_formula_structural   ZnH11C8N7
_chemical_formula_sum   'Zn2 H22 C16 N14'
_cell_volume   539.41644674
_cell_formula_units_Z   2
loop_
 _symmetry_equiv_pos_site_id
 _symmetry_equiv_pos_as_xyz
  1  'x, y, z'
loop_
 _atom_site_type_symbol
 _atom_site_label
 _atom_site_symmetry_multiplicity
 _atom_site_fract_x
 _atom_site_fract_y
 _atom_site_fract_z
 _atom_site_occupancy
  Zn  Zn0  1  0.71824000  0.04594000  0.54581000  1.0
  Zn  Zn1  1  0.28176000  0.95406000  0.45419000  1.0
  H  H2  1  0.96530000  0.25802000  0.61037000  1.0
  H  H3  1  0.03471000  0.74198000  0.38962000  1.0
  H  H4  1  0.65227000  0.39959000  0.03552000  1.0
  H  H5  1  0.34773000  0.60040000  0.96447000  1.0
  H  H6  1  0.35709000  0.24316000  0.04387000  1.0
  H  H7  1  0.64292000  0.75684000  0.95613000  1.0
  H  H8  1  0.26977000  0.08132000  0.74193000  1.0
  H  H9  1  0.73022000  0.91868000  0.25808000  1.0
  H  H10  1  0.19728000  0.08177000  0.93282000  1.0
  H  H11  1  0.80272000  0.91823000  0.06718000  1.0
  H  H12  1  0.41301000  0.95333000  0.84350000  1.0
  H  H13  1  0.58699000  0.04667000  0.15650000  1.0
  H  H14  1  0.09742000  0.40482000  0.90155000  1.0
  H  H15  1  0.90257000  0.59518000  0.09845000  1.0
  H  H16  1  0.92327000  0.54802000  0.84327000  1.0
  H  H17  1  0.07674000  0.45199000  0.15672000  1.0
  H  H18  1  0.28522000  0.34935000  0.64451000  1.0
  H  H19  1  0.71479000  0.65065000  0.35549000  1.0
  H  H20  1  0.30279000  0.52639000  0.68161000  1.0
  H  H21  1  0.69723000  0.47361000  0.31839000  1.0
  H  H22  1  0.10453000  0.49231000  0.58519000  1.0
  H  H23  1  0.89549000  0.50769000  0.41481000  1.0
  C  C24  1  0.83527000  0.25857000  0.70982000  1.0
  C  C25  1  0.16474000  0.74143000  0.29016000  1.0
  C  C26  1  0.83518000  0.34433000  0.82102000  1.0
  C  C27  1  0.16481000  0.65568000  0.17899000  1.0
  C  C28  1  0.65986000  0.33651000  0.94392000  1.0
  C  C29  1  0.34016000  0.66350000  0.05606000  1.0
  C  C30  1  0.49614000  0.24828000  0.94990000  1.0
  C  C31  1  0.50384000  0.75173000  0.05010000  1.0
  C  C32  1  0.50752000  0.16414000  0.83450000  1.0
  C  C33  1  0.49249000  0.83587000  0.16549000  1.0
  C  C34  1  0.33724000  0.06520000  0.83854000  1.0
  C  C35  1  0.66276000  0.93481000  0.16146000  1.0
  C  C36  1  0.01131000  0.44115000  0.81476000  1.0
  C  C37  1  0.98869000  0.55885000  0.18524000  1.0
  C  C38  1  0.18464000  0.45259000  0.67348000  1.0
  C  C39  1  0.81537000  0.54740000  0.32652000  1.0
  N  N40  1  0.98048000  0.09777000  0.38912000  1.0
  N  N41  1  0.01952000  0.90223000  0.61089000  1.0
  N  N42  1  0.97502000  0.14608000  0.26985000  1.0
  N  N43  1  0.02497000  0.85393000  0.73016000  1.0
  N  N44  1  0.97612000  0.19215000  0.15436000  1.0
  N  N45  1  0.02387000  0.80786000  0.84564000  1.0
  N  N46  1  0.43755000  0.13096000  0.45300000  1.0
  N  N47  1  0.56245000  0.86904000  0.54700000  1.0
  N  N48  1  0.40535000  0.23973000  0.38177000  1.0
  N  N49  1  0.59465000  0.76026000  0.61824000  1.0
  N  N50  1  0.37320000  0.34420000  0.31496000  1.0
  N  N51  1  0.62680000  0.65580000  0.68505000  1.0
  N  N52  1  0.67776000  0.17044000  0.71637000  1.0
  N  N53  1  0.32223000  0.82957000  0.28363000  1.0
