# generated using pymatgen
data_Zn2H45C56I3(N2O3)4
_symmetry_space_group_name_H-M   'P 1'
_cell_length_a   14.61530000
_cell_length_b   16.01020000
_cell_length_c   23.76070000
_cell_angle_alpha   89.82170000
_cell_angle_beta   90.14340000
_cell_angle_gamma   89.81850000
_symmetry_Int_Tables_number   1
_chemical_formula_structural   Zn2H45C56I3(N2O3)4
_chemical_formula_sum   'Zn2 H45 C56 I3 N8 O12'
_cell_volume   5559.78592296
_cell_formula_units_Z   1
loop_
 _symmetry_equiv_pos_site_id
 _symmetry_equiv_pos_as_xyz
  1  'x, y, z'
loop_
 _atom_site_type_symbol
 _atom_site_label
 _atom_site_symmetry_multiplicity
 _atom_site_fract_x
 _atom_site_fract_y
 _atom_site_fract_z
 _atom_site_occupancy
  Zn  Zn0  1  0.40397000  0.50171000  0.49817000  1.0
  Zn  Zn1  1  0.59486000  0.50116000  0.50025000  1.0
  H  H2  1  0.35684000  0.48700000  0.31933000  1.0
  H  H3  1  0.64796000  0.51782000  0.32154000  1.0
  H  H4  1  0.64945000  0.52102000  0.21566000  1.0
  H  H5  1  0.42413000  0.07608000  0.42667000  1.0
  H  H6  1  0.59985000  0.07316000  0.43883000  1.0
  H  H7  1  0.43331000  0.92994000  0.42544000  1.0
  H  H8  1  0.59751000  0.92728000  0.43943000  1.0
  H  H9  1  0.64870000  0.92658000  0.50607000  1.0
  H  H10  1  0.35617000  0.92713000  0.48286000  1.0
  H  H11  1  0.64709000  0.07370000  0.50725000  1.0
  H  H12  1  0.35471000  0.07282000  0.48742000  1.0
  H  H13  1  0.42425000  0.07732000  0.58348000  1.0
  H  H14  1  0.54377000  0.07192000  0.59229000  1.0
  H  H15  1  0.07794000  0.62844000  0.51594000  1.0
  H  H16  1  0.91851000  0.62831000  0.52016000  1.0
  H  H17  1  0.46172000  0.71250000  0.94360000  1.0
  H  H18  1  0.91758000  0.45131000  0.41556000  1.0
  H  H19  1  0.07763000  0.44669000  0.41634000  1.0
  H  H20  1  0.92021000  0.56080000  0.42192000  1.0
  H  H21  1  0.08001000  0.55628000  0.42021000  1.0
  H  H22  1  0.92228000  0.41241000  0.57340000  1.0
  H  H23  1  0.07528000  0.41464000  0.57450000  1.0
  H  H24  1  0.92185000  0.56347000  0.58037000  1.0
  H  H25  1  0.08139000  0.56820000  0.57829000  1.0
  H  H26  1  0.55208000  0.30089000  0.94787000  1.0
  H  H27  1  0.54909000  0.30249000  0.05452000  1.0
  H  H28  1  0.38232000  0.42732000  0.78774000  1.0
  H  H29  1  0.61982000  0.57201000  0.67542000  1.0
  H  H30  1  0.62485000  0.57873000  0.78061000  1.0
  H  H31  1  0.39986000  0.85950000  0.59436000  1.0
  H  H32  1  0.28851000  0.92174000  0.64450000  1.0
  H  H33  1  0.30758000  0.02038000  0.61357000  1.0
  H  H34  1  0.38120000  0.98410000  0.66820000  1.0
  H  H35  1  0.61972000  0.92849000  0.58609000  1.0
  H  H36  1  0.62108000  0.90991000  0.68170000  1.0
  H  H37  1  0.50058000  0.90323000  0.68404000  1.0
  H  H38  1  0.55370000  0.00216000  0.67301000  1.0
  H  H39  1  0.91527000  0.32770000  0.46418000  1.0
  H  H40  1  0.81525000  0.23686000  0.51240000  1.0
  H  H41  1  0.75955000  0.33497000  0.52024000  1.0
  H  H42  1  0.83079000  0.29450000  0.57506000  1.0
  H  H43  1  0.10054000  0.33434000  0.46557000  1.0
  H  H44  1  0.18988000  0.23932000  0.51855000  1.0
  H  H45  1  0.15728000  0.29003000  0.58139000  1.0
  H  H46  1  0.23815000  0.33799000  0.53517000  1.0
  C  C47  1  0.49765000  0.66289000  0.49944000  1.0
  C  C48  1  0.47598000  0.65872000  0.02744000  1.0
  C  C49  1  0.47480000  0.65598000  0.96801000  1.0
  C  C50  1  0.49025000  0.58213000  0.93955000  1.0
  C  C51  1  0.50702000  0.50740000  0.96983000  1.0
  C  C52  1  0.52368000  0.43166000  0.94112000  1.0
  C  C53  1  0.53928000  0.35830000  0.97112000  1.0
  C  C54  1  0.53793000  0.35929000  0.03002000  1.0
  C  C55  1  0.48790000  0.58260000  0.87702000  1.0
  C  C56  1  0.52503000  0.42943000  0.87871000  1.0
  C  C57  1  0.43330000  0.46040000  0.76299000  1.0
  C  C58  1  0.49884000  0.50113000  0.60892000  1.0
  C  C59  1  0.42998000  0.45885000  0.70427000  1.0
  C  C60  1  0.49714000  0.49942000  0.67223000  1.0
  C  C61  1  0.56742000  0.54152000  0.70066000  1.0
  C  C62  1  0.57069000  0.54480000  0.75907000  1.0
  C  C63  1  0.50325000  0.50385000  0.78987000  1.0
  C  C64  1  0.42126000  0.49694000  0.23745000  1.0
  C  C65  1  0.42033000  0.49459000  0.29606000  1.0
  C  C66  1  0.50233000  0.50203000  0.32615000  1.0
  C  C67  1  0.58501000  0.51186000  0.29732000  1.0
  C  C68  1  0.58566000  0.51379000  0.23882000  1.0
  C  C69  1  0.49972000  0.33924000  0.50255000  1.0
  C  C70  1  0.50409000  0.50638000  0.20866000  1.0
  C  C71  1  0.42106000  0.95326000  0.46820000  1.0
  C  C72  1  0.59053000  0.95228000  0.48222000  1.0
  C  C73  1  0.59070000  0.04871000  0.48170000  1.0
  C  C74  1  0.41901000  0.04961000  0.46925000  1.0
  C  C75  1  0.49955000  0.24904000  0.50465000  1.0
  C  C76  1  0.49895000  0.91924000  0.50630000  1.0
  C  C77  1  0.49929000  0.08245000  0.50545000  1.0
  C  C78  1  0.48674000  0.04944000  0.56621000  1.0
  C  C79  1  0.48393000  0.95205000  0.56854000  1.0
  C  C80  1  0.49939000  0.17313000  0.50550000  1.0
  C  C81  1  0.49853000  0.82861000  0.50541000  1.0
  C  C82  1  0.50104000  0.49979000  0.38949000  1.0
  C  C83  1  0.49723000  0.75293000  0.50193000  1.0
  C  C84  1  0.94700000  0.56978000  0.53705000  1.0
  C  C85  1  0.05258000  0.57082000  0.53559000  1.0
  C  C86  1  0.94623000  0.50253000  0.44060000  1.0
  C  C87  1  0.05174000  0.50025000  0.44038000  1.0
  C  C88  1  0.91143000  0.49546000  0.50185000  1.0
  C  C89  1  0.08747000  0.49482000  0.50169000  1.0
  C  C90  1  0.05475000  0.41098000  0.53001000  1.0
  C  C91  1  0.94465000  0.41022000  0.52921000  1.0
  C  C92  1  0.18642000  0.49676000  0.50061000  1.0
  C  C93  1  0.81258000  0.49812000  0.50142000  1.0
  C  C94  1  0.52095000  0.43028000  0.12133000  1.0
  C  C95  1  0.49378000  0.58552000  0.12156000  1.0
  C  C96  1  0.49178000  0.58600000  0.05903000  1.0
  C  C97  1  0.50687000  0.50930000  0.02985000  1.0
  C  C98  1  0.52216000  0.43317000  0.05916000  1.0
  C  C99  1  0.34241000  0.96462000  0.63051000  1.0
  C  C100  1  0.55777000  0.93459000  0.66295000  1.0
  C  C101  1  0.82332000  0.30033000  0.52911000  1.0
  C  C102  1  0.17487000  0.30067000  0.53694000  1.0
  I  I103  1  0.45210000  0.77802000  0.06072000  1.0
  I  I104  1  0.32431000  0.38760000  0.66752000  1.0
  I  I105  1  0.29724000  0.48623000  0.19291000  1.0
  N  N106  1  0.50684000  0.50736000  0.14810000  1.0
  N  N107  1  0.50544000  0.50543000  0.85059000  1.0
  N  N108  1  0.26547000  0.50038000  0.49895000  1.0
  N  N109  1  0.73344000  0.50198000  0.50089000  1.0
  N  N110  1  0.39494000  0.92208000  0.58709000  1.0
  N  N111  1  0.55762000  0.91483000  0.60315000  1.0
  N  N112  1  0.90692000  0.33595000  0.50611000  1.0
  N  N113  1  0.09551000  0.33641000  0.50814000  1.0
  O  O114  1  0.42176000  0.62745000  0.48821000  1.0
  O  O115  1  0.57414000  0.62680000  0.50883000  1.0
  O  O116  1  0.42397000  0.51703000  0.58391000  1.0
  O  O117  1  0.57625000  0.48804000  0.58629000  1.0
  O  O118  1  0.42298000  0.37560000  0.50997000  1.0
  O  O119  1  0.57653000  0.37419000  0.49331000  1.0
  O  O120  1  0.42440000  0.48585000  0.41292000  1.0
  O  O121  1  0.57700000  0.51223000  0.41431000  1.0
  O  O122  1  0.53154000  0.36574000  0.14870000  1.0
  O  O123  1  0.48478000  0.64831000  0.15057000  1.0
  O  O124  1  0.47146000  0.64584000  0.84942000  1.0
  O  O125  1  0.54199000  0.36559000  0.85218000  1.0
