# generated using pymatgen
data_Zn4H21C39N3O16
_symmetry_space_group_name_H-M   'P 1'
_cell_length_a   17.70598099
_cell_length_b   17.77860000
_cell_length_c   18.26620000
_cell_angle_alpha   63.52500000
_cell_angle_beta   63.40778981
_cell_angle_gamma   62.25365937
_symmetry_Int_Tables_number   1
_chemical_formula_structural   Zn4H21C39N3O16
_chemical_formula_sum   'Zn8 H42 C78 N6 O32'
_cell_volume   4340.92772668
_cell_formula_units_Z   2
loop_
 _symmetry_equiv_pos_site_id
 _symmetry_equiv_pos_as_xyz
  1  'x, y, z'
loop_
 _atom_site_type_symbol
 _atom_site_label
 _atom_site_symmetry_multiplicity
 _atom_site_fract_x
 _atom_site_fract_y
 _atom_site_fract_z
 _atom_site_occupancy
  Zn  Zn0  1  0.95733000  0.14634000  0.96809000  1.0
  Zn  Zn1  1  0.95372000  0.97432000  0.13299000  1.0
  Zn  Zn2  1  0.12977000  0.97127000  0.97733000  1.0
  Zn  Zn3  1  0.95396000  0.96775000  0.96116000  1.0
  Zn  Zn4  1  0.54159000  0.38729000  0.54652000  1.0
  Zn  Zn5  1  0.53328000  0.55730000  0.38437000  1.0
  Zn  Zn6  1  0.55050000  0.56604000  0.54705000  1.0
  Zn  Zn7  1  0.36705000  0.56025000  0.55401000  1.0
  H  H8  1  0.90009000  0.07182000  0.33878000  1.0
  H  H9  1  0.81276000  0.86985000  0.41214000  1.0
  H  H10  1  0.65729000  0.94154000  0.37151000  1.0
  H  H11  1  0.62968000  0.12033000  0.29852000  1.0
  H  H12  1  0.66342000  0.20066000  0.40830000  1.0
  H  H13  1  0.72990000  0.42636000  0.20414000  1.0
  H  H14  1  0.82742000  0.33031000  0.10701000  1.0
  H  H15  1  0.32050000  0.08561000  0.71131000  1.0
  H  H16  1  0.46010000  0.87382000  0.86589000  1.0
  H  H17  1  0.44912000  0.93327000  0.98452000  1.0
  H  H18  1  0.34602000  0.11002000  0.94780000  1.0
  H  H19  1  0.41684000  0.20297000  0.73263000  1.0
  H  H20  1  0.17775000  0.42541000  0.69877000  1.0
  H  H21  1  0.08606000  0.32630000  0.80279000  1.0
  H  H22  1  0.67818000  0.11845000  0.78012000  1.0
  H  H23  1  0.87835000  0.89873000  0.72816000  1.0
  H  H24  1  0.03352000  0.91686000  0.70350000  1.0
  H  H25  1  0.98702000  0.08024000  0.71671000  1.0
  H  H26  1  0.74843000  0.21319000  0.64846000  1.0
  H  H27  1  0.68615000  0.42742000  0.73818000  1.0
  H  H28  1  0.78388000  0.32310000  0.83313000  1.0
  H  H29  1  0.42055000  0.77837000  0.11253000  1.0
  H  H30  1  0.45513000  0.70156000  0.92108000  1.0
  H  H31  1  0.30308000  0.67197000  0.95536000  1.0
  H  H32  1  0.19621000  0.69660000  0.11262000  1.0
  H  H33  1  0.38728000  0.63986000  0.22338000  1.0
  H  H34  1  0.17199000  0.75042000  0.42167000  1.0
  H  H35  1  0.07912000  0.84311000  0.32201000  1.0
  H  H36  1  0.78923000  0.68885000  0.10262000  1.0
  H  H37  1  0.69734000  0.88026000  0.90637000  1.0
  H  H38  1  0.65047000  0.03840000  0.93089000  1.0
  H  H39  1  0.67911000  0.99740000  0.08099000  1.0
  H  H40  1  0.63753000  0.75415000  0.20530000  1.0
  H  H41  1  0.74174000  0.70274000  0.40116000  1.0
  H  H42  1  0.83102000  0.80417000  0.29619000  1.0
  H  H43  1  0.09874000  0.76450000  0.72261000  1.0
  H  H44  1  0.92494000  0.66861000  0.93875000  1.0
  H  H45  1  0.96514000  0.65576000  0.07310000  1.0
  H  H46  1  0.11480000  0.70347000  0.00151000  1.0
  H  H47  1  0.22249000  0.63948000  0.77021000  1.0
  H  H48  1  0.40830000  0.77877000  0.67194000  1.0
  H  H49  1  0.30618000  0.86843000  0.77237000  1.0
  C  C50  1  0.89278000  0.00537000  0.36069000  1.0
  C  C51  1  0.81212000  0.00790000  0.35643000  1.0
  C  C52  1  0.77978000  0.93906000  0.38160000  1.0
  C  C53  1  0.69963000  0.97631000  0.36090000  1.0
  C  C54  1  0.68384000  0.06754000  0.32327000  1.0
  C  C55  1  0.75399000  0.17544000  0.28841000  1.0
  C  C56  1  0.70006000  0.22900000  0.34249000  1.0
  C  C57  1  0.69202000  0.31901000  0.31252000  1.0
  C  C58  1  0.73763000  0.35594000  0.22735000  1.0
  C  C59  1  0.79171000  0.30254000  0.17345000  1.0
  C  C60  1  0.80158000  0.21185000  0.20298000  1.0
  C  C61  1  0.86341000  0.15756000  0.14244000  1.0
  C  C62  1  0.63355000  0.37620000  0.37076000  1.0
  C  C63  1  0.36049000  0.01778000  0.74385000  1.0
  C  C64  1  0.37673000  0.01227000  0.81674000  1.0
  C  C65  1  0.42419000  0.94058000  0.87187000  1.0
  C  C66  1  0.41793000  0.97143000  0.93371000  1.0
  C  C67  1  0.36654000  0.06153000  0.91605000  1.0
  C  C68  1  0.29342000  0.17539000  0.80616000  1.0
  C  C69  1  0.34424000  0.23058000  0.74761000  1.0
  C  C70  1  0.30310000  0.32039000  0.70864000  1.0
  C  C71  1  0.20961000  0.35527000  0.72874000  1.0
  C  C72  1  0.15878000  0.30019000  0.78672000  1.0
  C  C73  1  0.19912000  0.20973000  0.82641000  1.0
  C  C74  1  0.13978000  0.15410000  0.88677000  1.0
  C  C75  1  0.35963000  0.37812000  0.64684000  1.0
  C  C76  1  0.72130000  0.05532000  0.76238000  1.0
  C  C77  1  0.81656000  0.03362000  0.74191000  1.0
  C  C78  1  0.88646000  0.95573000  0.72798000  1.0
  C  C79  1  0.96648000  0.96467000  0.71628000  1.0
  C  C80  1  0.94482000  0.04729000  0.72354000  1.0
  C  C81  1  0.80837000  0.17770000  0.74421000  1.0
  C  C82  1  0.75429000  0.23648000  0.69097000  1.0
  C  C83  1  0.70908000  0.32535000  0.68990000  1.0
  C  C84  1  0.72035000  0.35761000  0.74041000  1.0
  C  C85  1  0.77467000  0.29961000  0.79291000  1.0
  C  C86  1  0.81786000  0.20894000  0.79741000  1.0
  C  C87  1  0.86865000  0.15076000  0.86169000  1.0
  C  C88  1  0.64923000  0.38425000  0.63431000  1.0
  C  C89  1  0.44756000  0.75403000  0.05592000  1.0
  C  C90  1  0.38819000  0.72623000  0.04663000  1.0
  C  C91  1  0.39713000  0.70436000  0.97792000  1.0
  C  C92  1  0.31813000  0.68989000  0.99563000  1.0
  C  C93  1  0.26179000  0.70329000  0.07468000  1.0
  C  C94  1  0.26902000  0.73742000  0.18795000  1.0
  C  C95  1  0.32060000  0.68609000  0.24393000  1.0
  C  C96  1  0.28672000  0.69257000  0.32712000  1.0
  C  C97  1  0.19877000  0.74742000  0.35612000  1.0
  C  C98  1  0.14692000  0.79869000  0.30047000  1.0
  C  C99  1  0.18240000  0.79649000  0.21529000  1.0
  C  C100  1  0.12838000  0.86225000  0.15534000  1.0
  C  C101  1  0.34624000  0.64067000  0.38314000  1.0
  C  C102  1  0.76350000  0.72669000  0.04581000  1.0
  C  C103  1  0.72685000  0.82227000  0.02930000  1.0
  C  C104  1  0.69884000  0.89033000  0.96003000  1.0
  C  C105  1  0.67588000  0.97218000  0.97213000  1.0
  C  C106  1  0.69052000  0.95354000  0.04796000  1.0
  C  C107  1  0.73229000  0.81886000  0.16572000  1.0
  C  C108  1  0.68177000  0.76323000  0.22477000  1.0
  C  C109  1  0.68574000  0.72077000  0.30886000  1.0
  C  C110  1  0.73974000  0.73527000  0.33522000  1.0
  C  C111  1  0.78921000  0.79140000  0.27690000  1.0
  C  C112  1  0.78755000  0.83303000  0.19133000  1.0
  C  C113  1  0.84675000  0.88907000  0.13276000  1.0
  C  C114  1  0.63045000  0.66184000  0.36962000  1.0
  C  C115  1  0.04648000  0.73415000  0.77251000  1.0
  C  C116  1  0.04329000  0.71038000  0.86048000  1.0
  C  C117  1  0.98025000  0.68156000  0.93637000  1.0
  C  C118  1  0.00085000  0.67585000  0.00524000  1.0
  C  C119  1  0.07627000  0.70103000  0.97068000  1.0
  C  C120  1  0.18140000  0.74187000  0.82580000  1.0
  C  C121  1  0.23955000  0.69124000  0.76952000  1.0
  C  C122  1  0.31989000  0.70572000  0.71252000  1.0
  C  C123  1  0.34493000  0.76839000  0.71497000  1.0
  C  C124  1  0.28737000  0.81859000  0.77157000  1.0
  C  C125  1  0.20405000  0.80813000  0.82563000  1.0
  C  C126  1  0.14201000  0.87082000  0.87832000  1.0
  C  C127  1  0.37570000  0.65384000  0.64959000  1.0
  N  N128  1  0.75181000  0.08665000  0.32040000  1.0
  N  N129  1  0.34168000  0.08612000  0.84572000  1.0
  N  N130  1  0.85427000  0.08931000  0.73944000  1.0
  N  N131  1  0.30380000  0.72548000  0.10565000  1.0
  N  N132  1  0.72152000  0.86298000  0.08277000  1.0
  N  N133  1  0.10212000  0.72207000  0.88316000  1.0
  O  O134  1  0.99830000  0.01574000  0.00736000  1.0
  O  O135  1  0.95108000  0.93642000  0.38580000  1.0
  O  O136  1  0.90612000  0.07664000  0.17496000  1.0
  O  O137  1  0.87015000  0.19743000  0.06296000  1.0
  O  O138  1  0.62196000  0.45938000  0.33632000  1.0
  O  O139  1  0.60006000  0.33761000  0.44961000  1.0
  O  O140  1  0.38667000  0.95466000  0.71650000  1.0
  O  O141  1  0.17717000  0.06999000  0.90894000  1.0
  O  O142  1  0.05580000  0.19605000  0.91006000  1.0
  O  O143  1  0.31865000  0.46096000  0.61847000  1.0
  O  O144  1  0.44436000  0.33926000  0.62798000  1.0
  O  O145  1  0.68674000  0.00919000  0.76216000  1.0
  O  O146  1  0.87477000  0.06889000  0.89449000  1.0
  O  O147  1  0.89965000  0.19031000  0.87969000  1.0
  O  O148  1  0.62040000  0.46773000  0.62356000  1.0
  O  O149  1  0.63193000  0.34500000  0.60273000  1.0
  O  O150  1  0.52265000  0.75330000  0.00520000  1.0
  O  O151  1  0.16993000  0.90094000  0.08022000  1.0
  O  O152  1  0.04410000  0.87649000  0.18604000  1.0
  O  O153  1  0.31139000  0.63875000  0.46186000  1.0
  O  O154  1  0.42844000  0.60273000  0.34676000  1.0
  O  O155  1  0.76916000  0.68690000  0.00201000  1.0
  O  O156  1  0.88348000  0.89085000  0.05427000  1.0
  O  O157  1  0.85688000  0.92908000  0.16920000  1.0
  O  O158  1  0.63019000  0.62907000  0.44769000  1.0
  O  O159  1  0.58764000  0.64937000  0.33769000  1.0
  O  O160  1  0.99581000  0.72385000  0.75124000  1.0
  O  O161  1  0.05849000  0.89811000  0.88782000  1.0
  O  O162  1  0.17990000  0.89297000  0.90691000  1.0
  O  O163  1  0.45770000  0.64910000  0.61286000  1.0
  O  O164  1  0.33518000  0.61867000  0.63767000  1.0
  O  O165  1  0.49840000  0.51778000  0.50987000  1.0
