# generated using pymatgen
data_CuH16C16(NO)4
_symmetry_space_group_name_H-M   'P 1'
_cell_length_a   10.22300000
_cell_length_b   13.83070000
_cell_length_c   22.82230000
_cell_angle_alpha   82.00460000
_cell_angle_beta   89.98970000
_cell_angle_gamma   68.33400000
_symmetry_Int_Tables_number   1
_chemical_formula_structural   CuH16C16(NO)4
_chemical_formula_sum   'Cu6 H96 C96 N24 O24'
_cell_volume   2965.15468203
_cell_formula_units_Z   6
loop_
 _symmetry_equiv_pos_site_id
 _symmetry_equiv_pos_as_xyz
  1  'x, y, z'
loop_
 _atom_site_type_symbol
 _atom_site_label
 _atom_site_symmetry_multiplicity
 _atom_site_fract_x
 _atom_site_fract_y
 _atom_site_fract_z
 _atom_site_occupancy
  Cu  Cu0  1  0.10925000  0.59100000  0.54206000  1.0
  Cu  Cu1  1  0.70055000  0.40897000  0.95791000  1.0
  Cu  Cu2  1  0.89074000  0.40900000  0.45794000  1.0
  Cu  Cu3  1  0.29945000  0.59103000  0.04209000  1.0
  Cu  Cu4  1  0.39131000  0.99996000  0.74999000  1.0
  Cu  Cu5  1  0.60869000  0.00004000  0.25001000  1.0
  H  H6  1  0.76655000  0.72398000  0.63202000  1.0
  H  H7  1  0.55118000  0.59629000  0.52032000  1.0
  H  H8  1  0.32460000  0.78591000  0.64895000  1.0
  H  H9  1  0.42426000  0.20318000  0.68131000  1.0
  H  H10  1  0.30054000  0.97419000  0.62054000  1.0
  H  H11  1  0.36825000  0.25399000  0.55776000  1.0
  H  H12  1  0.25245000  0.03896000  0.51296000  1.0
  H  H13  1  0.23703000  0.16924000  0.48547000  1.0
  H  H14  1  0.42632000  0.04136000  0.43743000  1.0
  H  H15  1  0.49625000  0.11185000  0.47841000  1.0
  H  H16  1  0.00552000  0.61440000  0.67096000  1.0
  H  H17  1  0.37378000  0.39581000  0.61402000  1.0
  H  H18  1  0.38155000  0.36038000  0.73813000  1.0
  H  H19  1  0.03189000  0.56512000  0.77906000  1.0
  H  H20  1  0.15027000  0.43723000  0.80896000  1.0
  H  H21  1  0.34470000  0.50144000  0.81732000  1.0
  H  H22  1  0.19888000  0.56923000  0.85604000  1.0
  H  H23  1  0.26837000  0.65326000  0.73209000  1.0
  H  H24  1  0.12139000  0.72039000  0.77100000  1.0
  H  H25  1  0.31509000  0.78583000  0.78274000  1.0
  H  H26  1  0.43397000  0.65789000  0.81008000  1.0
  H  H27  1  0.44397000  0.58514000  0.91648000  1.0
  H  H28  1  0.09383000  0.86365000  0.85450000  1.0
  H  H29  1  0.08317000  0.80774000  0.97671000  1.0
  H  H30  1  0.49081000  0.27594000  0.86790000  1.0
  H  H31  1  0.14786000  0.40356000  0.97966000  1.0
  H  H32  1  0.11072000  0.21405000  0.85101000  1.0
  H  H33  1  0.62753000  0.79679000  0.81865000  1.0
  H  H34  1  0.27478000  0.02556000  0.87943000  1.0
  H  H35  1  0.62237000  0.74608000  0.94221000  1.0
  H  H36  1  0.29155000  0.96094000  0.98701000  1.0
  H  H37  1  0.40626000  0.83068000  0.01452000  1.0
  H  H38  1  0.46773000  0.95852000  0.06256000  1.0
  H  H39  1  0.60812000  0.88819000  0.02154000  1.0
  H  H40  1  0.62027000  0.38547000  0.82901000  1.0
  H  H41  1  0.76954000  0.60434000  0.88598000  1.0
  H  H42  1  0.74187000  0.63985000  0.76185000  1.0
  H  H43  1  0.59742000  0.43484000  0.72090000  1.0
  H  H44  1  0.58783000  0.56279000  0.69103000  1.0
  H  H45  1  0.84655000  0.49870000  0.68273000  1.0
  H  H46  1  0.76851000  0.43096000  0.64393000  1.0
  H  H47  1  0.92166000  0.34677000  0.76791000  1.0
  H  H48  1  0.84171000  0.27976000  0.72894000  1.0
  H  H49  1  0.10088000  0.21425000  0.71727000  1.0
  H  H50  1  0.09198000  0.34218000  0.68990000  1.0
  H  H51  1  0.02949000  0.41484000  0.58351000  1.0
  H  H52  1  0.95722000  0.13646000  0.64553000  1.0
  H  H53  1  0.89100000  0.19229000  0.52331000  1.0
  H  H54  1  0.23345000  0.27602000  0.36797000  1.0
  H  H55  1  0.44882000  0.40371000  0.47968000  1.0
  H  H56  1  0.67540000  0.21408000  0.35105000  1.0
  H  H57  1  0.57575000  0.79682000  0.31869000  1.0
  H  H58  1  0.69946000  0.02581000  0.37946000  1.0
  H  H59  1  0.63175000  0.74601000  0.44224000  1.0
  H  H60  1  0.74756000  0.96104000  0.48704000  1.0
  H  H61  1  0.76297000  0.83077000  0.51453000  1.0
  H  H62  1  0.57368000  0.95864000  0.56257000  1.0
  H  H63  1  0.50375000  0.88816000  0.52159000  1.0
  H  H64  1  0.99448000  0.38560000  0.32904000  1.0
  H  H65  1  0.62622000  0.60419000  0.38597000  1.0
  H  H66  1  0.61845000  0.63962000  0.26187000  1.0
  H  H67  1  0.96811000  0.43488000  0.22094000  1.0
  H  H68  1  0.84973000  0.56277000  0.19104000  1.0
  H  H69  1  0.65530000  0.49856000  0.18268000  1.0
  H  H70  1  0.80112000  0.43077000  0.14396000  1.0
  H  H71  1  0.73162000  0.34674000  0.26791000  1.0
  H  H72  1  0.87861000  0.27960000  0.22900000  1.0
  H  H73  1  0.68491000  0.21417000  0.21726000  1.0
  H  H74  1  0.56603000  0.34211000  0.18992000  1.0
  H  H75  1  0.55603000  0.41486000  0.08352000  1.0
  H  H76  1  0.90617000  0.13635000  0.14550000  1.0
  H  H77  1  0.91683000  0.19226000  0.02330000  1.0
  H  H78  1  0.50919000  0.72406000  0.13211000  1.0
  H  H79  1  0.85214000  0.59644000  0.02034000  1.0
  H  H80  1  0.88928000  0.78595000  0.14899000  1.0
  H  H81  1  0.37248000  0.20321000  0.18135000  1.0
  H  H82  1  0.72522000  0.97444000  0.12057000  1.0
  H  H83  1  0.37763000  0.25393000  0.05779000  1.0
  H  H84  1  0.70845000  0.03906000  0.01299000  1.0
  H  H85  1  0.59374000  0.16932000  0.98548000  1.0
  H  H86  1  0.53227000  0.04148000  0.93744000  1.0
  H  H87  1  0.39188000  0.11181000  0.97846000  1.0
  H  H88  1  0.37973000  0.61453000  0.17099000  1.0
  H  H89  1  0.23046000  0.39565000  0.11402000  1.0
  H  H90  1  0.25813000  0.36014000  0.23815000  1.0
  H  H91  1  0.40259000  0.56516000  0.27910000  1.0
  H  H92  1  0.41217000  0.43721000  0.30897000  1.0
  H  H93  1  0.15345000  0.50130000  0.31727000  1.0
  H  H94  1  0.23149000  0.56904000  0.35607000  1.0
  H  H95  1  0.07835000  0.65323000  0.23209000  1.0
  H  H96  1  0.15829000  0.72024000  0.27106000  1.0
  H  H97  1  0.89912000  0.78575000  0.28273000  1.0
  H  H98  1  0.90802000  0.65782000  0.31010000  1.0
  H  H99  1  0.97050000  0.58516000  0.41649000  1.0
  H  H100  1  0.04278000  0.86355000  0.35446000  1.0
  H  H101  1  0.10900000  0.80771000  0.47669000  1.0
  C  C102  1  0.67095000  0.71372000  0.61843000  1.0
  C  C103  1  0.67224000  0.65677000  0.57210000  1.0
  C  C104  1  0.54891000  0.64358000  0.55505000  1.0
  C  C105  1  0.42397000  0.69060000  0.58293000  1.0
  C  C106  1  0.42324000  0.74934000  0.62823000  1.0
  C  C107  1  0.54696000  0.75976000  0.64703000  1.0
  C  C108  1  0.80580000  0.60943000  0.54055000  1.0
  C  C109  1  0.28818000  0.67945000  0.56654000  1.0
  C  C110  1  0.54820000  0.82146000  0.69645000  1.0
  C  C111  1  0.38993000  0.16458000  0.64972000  1.0
  C  C112  1  0.32589000  0.04352000  0.62100000  1.0
  C  C113  1  0.36556000  0.18848000  0.58927000  1.0
  C  C114  1  0.30672000  0.09458000  0.51112000  1.0
  C  C115  1  0.44869000  0.05168000  0.48284000  1.0
  C  C116  1  0.10607000  0.54974000  0.67183000  1.0
  C  C117  1  0.29911000  0.43551000  0.64473000  1.0
  C  C118  1  0.30524000  0.41912000  0.70576000  1.0
  C  C119  1  0.14303000  0.51164000  0.78231000  1.0
  C  C120  1  0.23538000  0.55893000  0.81113000  1.0
  C  C121  1  0.23108000  0.66327000  0.77696000  1.0
  C  C122  1  0.32235000  0.71000000  0.80750000  1.0
  C  C123  1  0.34682000  0.65255000  0.91682000  1.0
  C  C124  1  0.16311000  0.79831000  0.88567000  1.0
  C  C125  1  0.15827000  0.77018000  0.94552000  1.0
  C  C126  1  0.38497000  0.28619000  0.88150000  1.0
  C  C127  1  0.32937000  0.34310000  0.92786000  1.0
  C  C128  1  0.19286000  0.35630000  0.94491000  1.0
  C  C129  1  0.11487000  0.30933000  0.91703000  1.0
  C  C130  1  0.17285000  0.25057000  0.87175000  1.0
  C  C131  1  0.30700000  0.24012000  0.85293000  1.0
  C  C132  1  0.41552000  0.39044000  0.95946000  1.0
  C  C133  1  0.96787000  0.32057000  0.93338000  1.0
  C  C134  1  0.36973000  0.17845000  0.80350000  1.0
  C  C135  1  0.55460000  0.83540000  0.85023000  1.0
  C  C136  1  0.36947000  0.95629000  0.87897000  1.0
  C  C137  1  0.55416000  0.81152000  0.91069000  1.0
  C  C138  1  0.40140000  0.90532000  0.98886000  1.0
  C  C139  1  0.50041000  0.94829000  0.01714000  1.0
  C  C140  1  0.65609000  0.45020000  0.82815000  1.0
  C  C141  1  0.73461000  0.56463000  0.85526000  1.0
  C  C142  1  0.72435000  0.58105000  0.79423000  1.0
  C  C143  1  0.65501000  0.48840000  0.71768000  1.0
  C  C144  1  0.79464000  0.44122000  0.68887000  1.0
  C  C145  1  0.89441000  0.33683000  0.72302000  1.0
  C  C146  1  0.03240000  0.29007000  0.69251000  1.0
  C  C147  1  0.99968000  0.34744000  0.58317000  1.0
  C  C148  1  0.96136000  0.20176000  0.61436000  1.0
  C  C149  1  0.92859000  0.22983000  0.55449000  1.0
  C  C150  1  0.32905000  0.28628000  0.38157000  1.0
  C  C151  1  0.32776000  0.34323000  0.42790000  1.0
  C  C152  1  0.45109000  0.35642000  0.44495000  1.0
  C  C153  1  0.57603000  0.30940000  0.41707000  1.0
  C  C154  1  0.57676000  0.25065000  0.37177000  1.0
  C  C155  1  0.45303000  0.24024000  0.35297000  1.0
  C  C156  1  0.19420000  0.39057000  0.45944000  1.0
  C  C157  1  0.71183000  0.32055000  0.43346000  1.0
  C  C158  1  0.45179000  0.17854000  0.30356000  1.0
  C  C159  1  0.61007000  0.83542000  0.35028000  1.0
  C  C160  1  0.67411000  0.95648000  0.37900000  1.0
  C  C161  1  0.63444000  0.81152000  0.41073000  1.0
  C  C162  1  0.69328000  0.90542000  0.48888000  1.0
  C  C163  1  0.55131000  0.94832000  0.51716000  1.0
  C  C164  1  0.89393000  0.45026000  0.32817000  1.0
  C  C165  1  0.70089000  0.56449000  0.35527000  1.0
  C  C166  1  0.69476000  0.58088000  0.29424000  1.0
  C  C167  1  0.85697000  0.48836000  0.21769000  1.0
  C  C168  1  0.76462000  0.44107000  0.18887000  1.0
  C  C169  1  0.76892000  0.33673000  0.22304000  1.0
  C  C170  1  0.67766000  0.29000000  0.19250000  1.0
  C  C171  1  0.65318000  0.34744000  0.08318000  1.0
  C  C172  1  0.83689000  0.20169000  0.11434000  1.0
  C  C173  1  0.84173000  0.22982000  0.05448000  1.0
  C  C174  1  0.61503000  0.71381000  0.11850000  1.0
  C  C175  1  0.67062000  0.65690000  0.07214000  1.0
  C  C176  1  0.80713000  0.64370000  0.05509000  1.0
  C  C177  1  0.88514000  0.69067000  0.08297000  1.0
  C  C178  1  0.82715000  0.74943000  0.12826000  1.0
  C  C179  1  0.69300000  0.75988000  0.14707000  1.0
  C  C180  1  0.58447000  0.60957000  0.04054000  1.0
  C  C181  1  0.03214000  0.67943000  0.06662000  1.0
  C  C182  1  0.63027000  0.82155000  0.19650000  1.0
  C  C183  1  0.44540000  0.16460000  0.14977000  1.0
  C  C184  1  0.63053000  0.04371000  0.12103000  1.0
  C  C185  1  0.44585000  0.18848000  0.08931000  1.0
  C  C186  1  0.59860000  0.09468000  0.01114000  1.0
  C  C187  1  0.49959000  0.05172000  0.98286000  1.0
  C  C188  1  0.34391000  0.54980000  0.17185000  1.0
  C  C189  1  0.26540000  0.43537000  0.14474000  1.0
  C  C190  1  0.27565000  0.41895000  0.20577000  1.0
  C  C191  1  0.34499000  0.51160000  0.28233000  1.0
  C  C192  1  0.20536000  0.55878000  0.31113000  1.0
  C  C193  1  0.10559000  0.66317000  0.27698000  1.0
  C  C194  1  0.96760000  0.70993000  0.30749000  1.0
  C  C195  1  0.00032000  0.65257000  0.41683000  1.0
  C  C196  1  0.03864000  0.79825000  0.38564000  1.0
  C  C197  1  0.07141000  0.77017000  0.44550000  1.0
  N  N198  1  0.36506000  0.07399000  0.66879000  1.0
  N  N199  1  0.32458000  0.11136000  0.57199000  1.0
  N  N200  1  0.17425000  0.51632000  0.62443000  1.0
  N  N201  1  0.18163000  0.49233000  0.72210000  1.0
  N  N202  1  0.28320000  0.72323000  0.86826000  1.0
  N  N203  1  0.27341000  0.67903000  0.96419000  1.0
  N  N204  1  0.43910000  0.92588000  0.83117000  1.0
  N  N205  1  0.43606000  0.88854000  0.92799000  1.0
  N  N206  1  0.69073000  0.48367000  0.87556000  1.0
  N  N207  1  0.67415000  0.50772000  0.77789000  1.0
  N  N208  1  0.00652000  0.27681000  0.63175000  1.0
  N  N209  1  0.95276000  0.32095000  0.53580000  1.0
  N  N210  1  0.63494000  0.92601000  0.33121000  1.0
  N  N211  1  0.67542000  0.88864000  0.42802000  1.0
  N  N212  1  0.82575000  0.48368000  0.37558000  1.0
  N  N213  1  0.81837000  0.50767000  0.27790000  1.0
  N  N214  1  0.71680000  0.27677000  0.13175000  1.0
  N  N215  1  0.72659000  0.32097000  0.03580000  1.0
  N  N216  1  0.56090000  0.07412000  0.16883000  1.0
  N  N217  1  0.56394000  0.11146000  0.07201000  1.0
  N  N218  1  0.30927000  0.51632000  0.12444000  1.0
  N  N219  1  0.32585000  0.49229000  0.22211000  1.0
  N  N220  1  0.99348000  0.72319000  0.36825000  1.0
  N  N221  1  0.04724000  0.67905000  0.46419000  1.0
  O  O222  1  0.91725000  0.60779000  0.56775000  1.0
  O  O223  1  0.79922000  0.57699000  0.49235000  1.0
  O  O224  1  0.29986000  0.60346000  0.53697000  1.0
  O  O225  1  0.17438000  0.74089000  0.58300000  1.0
  O  O226  1  0.42405000  0.86972000  0.71554000  1.0
  O  O227  1  0.66144000  0.82368000  0.71539000  1.0
  O  O228  1  0.52539000  0.39205000  0.93229000  1.0
  O  O229  1  0.37642000  0.42288000  0.00765000  1.0
  O  O230  1  0.90360000  0.39663000  0.96291000  1.0
  O  O231  1  0.91541000  0.25913000  0.91695000  1.0
  O  O232  1  0.29375000  0.13018000  0.78445000  1.0
  O  O233  1  0.48512000  0.17627000  0.78448000  1.0
  O  O234  1  0.08275000  0.39220000  0.43225000  1.0
  O  O235  1  0.20077000  0.42301000  0.50765000  1.0
  O  O236  1  0.70014000  0.39654000  0.46303000  1.0
  O  O237  1  0.82563000  0.25910000  0.41700000  1.0
  O  O238  1  0.57595000  0.13028000  0.28446000  1.0
  O  O239  1  0.33856000  0.17631000  0.28461000  1.0
  O  O240  1  0.47461000  0.60795000  0.06771000  1.0
  O  O241  1  0.62358000  0.57712000  0.99235000  1.0
  O  O242  1  0.09640000  0.60337000  0.03709000  1.0
  O  O243  1  0.08459000  0.74087000  0.08305000  1.0
  O  O244  1  0.70625000  0.86982000  0.21555000  1.0
  O  O245  1  0.51488000  0.82373000  0.21552000  1.0
