# generated using pymatgen
data_CdH17C21N3O8
_symmetry_space_group_name_H-M   'P 1'
_cell_length_a   8.62699000
_cell_length_b   9.91515918
_cell_length_c   29.51430000
_cell_angle_alpha   86.42518921
_cell_angle_beta   81.68520000
_cell_angle_gamma   64.22490122
_symmetry_Int_Tables_number   1
_chemical_formula_structural   CdH17C21N3O8
_chemical_formula_sum   'Cd4 H68 C84 N12 O32'
_cell_volume   2249.51882190
_cell_formula_units_Z   4
loop_
 _symmetry_equiv_pos_site_id
 _symmetry_equiv_pos_as_xyz
  1  'x, y, z'
loop_
 _atom_site_type_symbol
 _atom_site_label
 _atom_site_symmetry_multiplicity
 _atom_site_fract_x
 _atom_site_fract_y
 _atom_site_fract_z
 _atom_site_occupancy
  Cd  Cd0  1  0.04906000  0.48861000  0.91165000  1.0
  Cd  Cd1  1  0.96192000  0.48877000  0.58827000  1.0
  Cd  Cd2  1  0.95093000  0.51139000  0.08835000  1.0
  Cd  Cd3  1  0.03808000  0.51123000  0.41173000  1.0
  H  H4  1  0.23787000  0.34366000  0.97872000  1.0
  H  H5  1  0.91873000  0.34320000  0.52124000  1.0
  H  H6  1  0.76212000  0.65634000  0.02128000  1.0
  H  H7  1  0.08127000  0.65680000  0.47876000  1.0
  H  H8  1  0.35872000  0.28836000  0.92990000  1.0
  H  H9  1  0.85292000  0.28808000  0.57006000  1.0
  H  H10  1  0.64127000  0.71164000  0.07011000  1.0
  H  H11  1  0.14710000  0.71191000  0.42994000  1.0
  H  H12  1  0.00804000  0.99493000  0.91460000  1.0
  H  H13  1  0.49699000  0.99499000  0.58538000  1.0
  H  H14  1  0.99196000  0.00506000  0.08540000  1.0
  H  H15  1  0.50300000  0.00500000  0.41461000  1.0
  H  H16  1  0.64153000  0.34987000  0.00395000  1.0
  H  H17  1  0.50808000  0.34992000  0.49606000  1.0
  H  H18  1  0.35846000  0.65013000  0.99605000  1.0
  H  H19  1  0.49193000  0.65008000  0.50394000  1.0
  H  H20  1  0.68009000  0.90168000  0.02320000  1.0
  H  H21  1  0.91840000  0.90208000  0.47682000  1.0
  H  H22  1  0.31990000  0.09833000  0.97680000  1.0
  H  H23  1  0.08161000  0.09792000  0.52318000  1.0
  H  H24  1  0.38603000  0.27838000  0.04992000  1.0
  H  H25  1  0.83510000  0.27866000  0.45016000  1.0
  H  H26  1  0.61396000  0.72162000  0.95008000  1.0
  H  H27  1  0.16490000  0.72134000  0.54984000  1.0
  H  H28  1  0.46762000  0.08937000  0.07003000  1.0
  H  H29  1  0.94287000  0.08958000  0.43005000  1.0
  H  H30  1  0.53237000  0.91063000  0.92997000  1.0
  H  H31  1  0.05714000  0.91042000  0.56995000  1.0
  H  H32  1  0.41682000  0.45021000  0.08436000  1.0
  H  H33  1  0.63305000  0.45009000  0.41574000  1.0
  H  H34  1  0.58320000  0.54978000  0.91563000  1.0
  H  H35  1  0.36695000  0.54991000  0.58426000  1.0
  H  H36  1  0.52520000  0.53101000  0.14746000  1.0
  H  H37  1  0.44385000  0.53077000  0.35266000  1.0
  H  H38  1  0.47479000  0.46900000  0.85253000  1.0
  H  H39  1  0.55616000  0.46923000  0.64734000  1.0
  H  H40  1  0.82194000  0.06163000  0.17746000  1.0
  H  H41  1  0.61639000  0.06129000  0.32260000  1.0
  H  H42  1  0.17806000  0.93837000  0.82254000  1.0
  H  H43  1  0.38361000  0.93871000  0.67740000  1.0
  H  H44  1  0.71578000  0.99976000  0.11163000  1.0
  H  H45  1  0.78423000  0.99956000  0.38844000  1.0
  H  H46  1  0.28422000  0.00024000  0.88837000  1.0
  H  H47  1  0.21578000  0.00044000  0.61156000  1.0
  H  H48  1  0.68857000  0.47690000  0.20693000  1.0
  H  H49  1  0.33487000  0.47654000  0.29318000  1.0
  H  H50  1  0.31142000  0.52311000  0.79307000  1.0
  H  H51  1  0.66512000  0.52347000  0.70682000  1.0
  H  H52  1  0.88597000  0.14702000  0.23583000  1.0
  H  H53  1  0.46692000  0.14666000  0.26420000  1.0
  H  H54  1  0.11403000  0.85298000  0.76417000  1.0
  H  H55  1  0.53308000  0.85334000  0.73580000  1.0
  H  H56  1  0.74919000  0.56573000  0.25951000  1.0
  H  H57  1  0.18662000  0.56548000  0.24057000  1.0
  H  H58  1  0.25081000  0.43427000  0.74050000  1.0
  H  H59  1  0.81339000  0.43451000  0.75943000  1.0
  H  H60  1  0.84422000  0.64208000  0.32525000  1.0
  H  H61  1  0.01537000  0.64237000  0.17485000  1.0
  H  H62  1  0.15578000  0.35792000  0.67475000  1.0
  H  H63  1  0.98463000  0.35763000  0.82515000  1.0
  H  H64  1  0.13005000  0.20224000  0.36202000  1.0
  H  H65  1  0.16693000  0.20281000  0.13806000  1.0
  H  H66  1  0.86995000  0.79776000  0.63798000  1.0
  H  H67  1  0.83306000  0.79720000  0.86194000  1.0
  H  H68  1  0.03854000  0.10411000  0.30014000  1.0
  H  H69  1  0.35649000  0.10409000  0.19991000  1.0
  H  H70  1  0.96146000  0.89589000  0.69986000  1.0
  H  H71  1  0.64350000  0.89591000  0.80008000  1.0
  C  C72  1  0.92909000  0.77258000  0.95110000  1.0
  C  C73  1  0.79839000  0.77271000  0.54887000  1.0
  C  C74  1  0.07091000  0.22742000  0.04890000  1.0
  C  C75  1  0.20162000  0.22728000  0.45113000  1.0
  C  C76  1  0.85087000  0.93173000  0.96667000  1.0
  C  C77  1  0.71754000  0.93183000  0.53334000  1.0
  C  C78  1  0.14913000  0.06826000  0.03333000  1.0
  C  C79  1  0.28246000  0.06817000  0.46665000  1.0
  C  C80  1  0.90582000  0.03335000  0.94345000  1.0
  C  C81  1  0.56085000  0.03338000  0.55654000  1.0
  C  C82  1  0.09417000  0.96665000  0.05655000  1.0
  C  C83  1  0.43915000  0.96661000  0.44345000  1.0
  C  C84  1  0.83183000  0.18310000  0.95711000  1.0
  C  C85  1  0.48484000  0.18312000  0.54291000  1.0
  C  C86  1  0.16817000  0.81689000  0.04289000  1.0
  C  C87  1  0.51516000  0.81688000  0.45709000  1.0
  C  C88  1  0.69808000  0.23243000  0.99382000  1.0
  C  C89  1  0.56906000  0.23252000  0.50619000  1.0
  C  C90  1  0.30191000  0.76757000  0.00618000  1.0
  C  C91  1  0.43094000  0.76748000  0.49381000  1.0
  C  C92  1  0.64276000  0.13108000  0.01752000  1.0
  C  C93  1  0.72590000  0.13121000  0.48251000  1.0
  C  C94  1  0.35723000  0.86893000  0.98248000  1.0
  C  C95  1  0.27411000  0.86879000  0.51749000  1.0
  C  C96  1  0.72050000  0.98114000  0.00417000  1.0
  C  C97  1  0.79837000  0.98135000  0.49586000  1.0
  C  C98  1  0.27949000  0.01886000  0.99583000  1.0
  C  C99  1  0.20164000  0.01865000  0.50414000  1.0
  C  C100  1  0.90229000  0.28777000  0.93410000  1.0
  C  C101  1  0.30972000  0.28759000  0.56599000  1.0
  C  C102  1  0.09770000  0.71223000  0.06590000  1.0
  C  C103  1  0.69029000  0.71240000  0.43400000  1.0
  C  C104  1  0.50274000  0.18067000  0.05806000  1.0
  C  C105  1  0.81633000  0.18081000  0.44200000  1.0
  C  C106  1  0.49725000  0.81933000  0.94194000  1.0
  C  C107  1  0.18367000  0.81919000  0.55800000  1.0
  C  C108  1  0.50869000  0.37067000  0.10593000  1.0
  C  C109  1  0.62065000  0.37051000  0.39416000  1.0
  C  C110  1  0.49132000  0.62933000  0.89406000  1.0
  C  C111  1  0.37934000  0.62950000  0.60584000  1.0
  C  C112  1  0.56622000  0.41254000  0.14138000  1.0
  C  C113  1  0.52122000  0.41233000  0.35874000  1.0
  C  C114  1  0.43377000  0.58746000  0.85862000  1.0
  C  C115  1  0.47877000  0.58768000  0.64126000  1.0
  C  C116  1  0.68015000  0.30399000  0.16883000  1.0
  C  C117  1  0.51590000  0.30367000  0.33127000  1.0
  C  C118  1  0.31985000  0.69602000  0.83117000  1.0
  C  C119  1  0.48410000  0.69633000  0.66873000  1.0
  C  C120  1  0.73304000  0.15251000  0.15821000  1.0
  C  C121  1  0.61441000  0.15223000  0.34187000  1.0
  C  C122  1  0.26696000  0.84749000  0.84179000  1.0
  C  C123  1  0.38559000  0.84778000  0.65813000  1.0
  C  C124  1  0.67449000  0.11508000  0.12208000  1.0
  C  C125  1  0.71033000  0.11485000  0.37799000  1.0
  C  C126  1  0.32552000  0.88492000  0.87792000  1.0
  C  C127  1  0.28968000  0.88515000  0.62201000  1.0
  C  C128  1  0.73496000  0.35554000  0.20576000  1.0
  C  C129  1  0.40968000  0.35517000  0.29433000  1.0
  C  C130  1  0.26505000  0.64445000  0.79424000  1.0
  C  C131  1  0.59032000  0.64483000  0.70567000  1.0
  C  C132  1  0.83621000  0.26896000  0.23688000  1.0
  C  C133  1  0.39501000  0.26860000  0.26317000  1.0
  C  C134  1  0.16378000  0.73105000  0.76312000  1.0
  C  C135  1  0.60499000  0.73140000  0.73683000  1.0
  C  C136  1  0.88647000  0.32640000  0.27368000  1.0
  C  C137  1  0.28748000  0.32624000  0.22637000  1.0
  C  C138  1  0.11353000  0.67360000  0.72632000  1.0
  C  C139  1  0.71252000  0.67376000  0.77363000  1.0
  C  C140  1  0.83181000  0.48018000  0.28148000  1.0
  C  C141  1  0.18912000  0.48008000  0.21857000  1.0
  C  C142  1  0.16819000  0.51983000  0.71852000  1.0
  C  C143  1  0.81088000  0.51993000  0.78143000  1.0
  C  C144  1  0.88488000  0.52424000  0.31780000  1.0
  C  C145  1  0.09203000  0.52445000  0.18227000  1.0
  C  C146  1  0.11512000  0.47576000  0.68220000  1.0
  C  C147  1  0.90797000  0.47555000  0.81773000  1.0
  C  C148  1  0.04372000  0.27819000  0.33874000  1.0
  C  C149  1  0.17789000  0.27856000  0.16133000  1.0
  C  C150  1  0.95628000  0.72181000  0.66126000  1.0
  C  C151  1  0.82211000  0.72144000  0.83867000  1.0
  C  C152  1  0.99506000  0.22459000  0.30351000  1.0
  C  C153  1  0.28007000  0.22462000  0.19655000  1.0
  C  C154  1  0.00493000  0.77542000  0.69649000  1.0
  C  C155  1  0.71993000  0.77538000  0.80345000  1.0
  N  N156  1  0.98915000  0.42529000  0.34611000  1.0
  N  N157  1  0.08606000  0.42570000  0.15397000  1.0
  N  N158  1  0.01085000  0.57471000  0.65389000  1.0
  N  N159  1  0.91394000  0.57430000  0.84604000  1.0
  N  N160  1  0.56280000  0.22367000  0.09701000  1.0
  N  N161  1  0.71345000  0.22355000  0.40306000  1.0
  N  N162  1  0.43721000  0.77632000  0.90299000  1.0
  N  N163  1  0.28654000  0.77646000  0.59694000  1.0
  N  N164  1  0.39349000  0.20374000  0.84963000  1.0
  N  N165  1  0.90246000  0.20380000  0.65027000  1.0
  N  N166  1  0.60651000  0.79626000  0.15037000  1.0
  N  N167  1  0.09755000  0.79620000  0.34974000  1.0
  O  O168  1  0.03866000  0.73446000  0.91492000  1.0
  O  O169  1  0.72678000  0.73461000  0.58501000  1.0
  O  O170  1  0.96133000  0.26554000  0.08508000  1.0
  O  O171  1  0.27324000  0.26538000  0.41498000  1.0
  O  O172  1  0.87970000  0.67989000  0.97315000  1.0
  O  O173  1  0.94052000  0.68001000  0.52683000  1.0
  O  O174  1  0.12031000  0.32010000  0.02685000  1.0
  O  O175  1  0.05950000  0.31999000  0.47317000  1.0
  O  O176  1  0.04751000  0.23379000  0.90847000  1.0
  O  O177  1  0.21880000  0.23352000  0.59169000  1.0
  O  O178  1  0.95248000  0.76621000  0.09153000  1.0
  O  O179  1  0.78120000  0.76648000  0.40831000  1.0
  O  O180  1  0.81582000  0.42789000  0.94272000  1.0
  O  O181  1  0.25572000  0.42772000  0.55735000  1.0
  O  O182  1  0.18417000  0.57211000  0.05728000  1.0
  O  O183  1  0.74428000  0.57228000  0.44265000  1.0
  O  O184  1  0.29969000  0.34458000  0.84664000  1.0
  O  O185  1  0.85517000  0.34468000  0.65329000  1.0
  O  O186  1  0.70030000  0.65542000  0.15336000  1.0
  O  O187  1  0.14483000  0.65532000  0.34671000  1.0
  O  O188  1  0.45677000  0.14966000  0.88683000  1.0
  O  O189  1  0.89304000  0.14964000  0.61308000  1.0
  O  O190  1  0.54322000  0.85034000  0.11317000  1.0
  O  O191  1  0.10695000  0.85036000  0.38692000  1.0
  O  O192  1  0.42316000  0.12006000  0.81616000  1.0
  O  O193  1  0.95691000  0.12015000  0.68366000  1.0
  O  O194  1  0.57684000  0.87995000  0.18383000  1.0
  O  O195  1  0.04310000  0.87985000  0.31634000  1.0
  O  O196  1  0.28518000  0.37766000  0.94963000  1.0
  O  O197  1  0.83733000  0.37730000  0.55033000  1.0
  O  O198  1  0.71481000  0.62234000  0.05037000  1.0
  O  O199  1  0.16268000  0.62270000  0.44967000  1.0
