# generated using pymatgen
data_AgH6C3N4Cl
_symmetry_space_group_name_H-M   'P 1'
_cell_length_a   6.34968000
_cell_length_b   6.94830000
_cell_length_c   15.05620000
_cell_angle_alpha   89.99990000
_cell_angle_beta   90.00050000
_cell_angle_gamma   89.99880000
_symmetry_Int_Tables_number   1
_chemical_formula_structural   AgH6C3N4Cl
_chemical_formula_sum   'Ag4 H24 C12 N16 Cl4'
_cell_volume   664.27173785
_cell_formula_units_Z   4
loop_
 _symmetry_equiv_pos_site_id
 _symmetry_equiv_pos_as_xyz
  1  'x, y, z'
loop_
 _atom_site_type_symbol
 _atom_site_label
 _atom_site_symmetry_multiplicity
 _atom_site_fract_x
 _atom_site_fract_y
 _atom_site_fract_z
 _atom_site_occupancy
  Ag  Ag0  1  0.75001000  0.00638000  0.34139000  1.0
  Ag  Ag1  1  0.24998000  0.49362000  0.84139000  1.0
  Ag  Ag2  1  0.75001000  0.50637000  0.15861000  1.0
  Ag  Ag3  1  0.25000000  0.99362000  0.65861000  1.0
  H  H4  1  0.75000000  0.63956000  0.45661000  1.0
  H  H5  1  0.25000000  0.86045000  0.95661000  1.0
  H  H6  1  0.75001000  0.13956000  0.04339000  1.0
  H  H7  1  0.25000000  0.36044000  0.54339000  1.0
  H  H8  1  0.89210000  0.60782000  0.55862000  1.0
  H  H9  1  0.10791000  0.89219000  0.05862000  1.0
  H  H10  1  0.60790000  0.10782000  0.94139000  1.0
  H  H11  1  0.39210000  0.39217000  0.44138000  1.0
  H  H12  1  0.10790000  0.39217000  0.44138000  1.0
  H  H13  1  0.89211000  0.10783000  0.94139000  1.0
  H  H14  1  0.39208000  0.89218000  0.05861000  1.0
  H  H15  1  0.60790000  0.60783000  0.55861000  1.0
  H  H16  1  0.75003000  0.17633000  0.74749000  1.0
  H  H17  1  0.25001000  0.32369000  0.24749000  1.0
  H  H18  1  0.74995000  0.67632000  0.75251000  1.0
  H  H19  1  0.25002000  0.82368000  0.25251000  1.0
  H  H20  1  0.89319000  0.35011000  0.68384000  1.0
  H  H21  1  0.10683000  0.14988000  0.18385000  1.0
  H  H22  1  0.60679000  0.85011000  0.81615000  1.0
  H  H23  1  0.39320000  0.64989000  0.31615000  1.0
  H  H24  1  0.10683000  0.64989000  0.31615000  1.0
  H  H25  1  0.89315000  0.85011000  0.81614000  1.0
  H  H26  1  0.39319000  0.14989000  0.18385000  1.0
  H  H27  1  0.60683000  0.35012000  0.68384000  1.0
  C  C28  1  0.75000000  0.02126000  0.47903000  1.0
  C  C29  1  0.24999000  0.47871000  0.97904000  1.0
  C  C30  1  0.75002000  0.52124000  0.02096000  1.0
  C  C31  1  0.24999000  0.97878000  0.52096000  1.0
  C  C32  1  0.75000000  0.66837000  0.52811000  1.0
  C  C33  1  0.25000000  0.83163000  0.02810000  1.0
  C  C34  1  0.75000000  0.16837000  0.97189000  1.0
  C  C35  1  0.25000000  0.33162000  0.47189000  1.0
  C  C36  1  0.75002000  0.26158000  0.68674000  1.0
  C  C37  1  0.25000000  0.23841000  0.18675000  1.0
  C  C38  1  0.74997000  0.76157000  0.81326000  1.0
  C  C39  1  0.25001000  0.73843000  0.31326000  1.0
  N  N40  1  0.75000000  0.87583000  0.54115000  1.0
  N  N41  1  0.25000000  0.62416000  0.04115000  1.0
  N  N42  1  0.75000000  0.37582000  0.95885000  1.0
  N  N43  1  0.25000000  0.12419000  0.45885000  1.0
  N  N44  1  0.75000000  0.94343000  0.62394000  1.0
  N  N45  1  0.25001000  0.55658000  0.12394000  1.0
  N  N46  1  0.74999000  0.44342000  0.87606000  1.0
  N  N47  1  0.25001000  0.05658000  0.37606000  1.0
  N  N48  1  0.75001000  0.12954000  0.61201000  1.0
  N  N49  1  0.25000000  0.37047000  0.11202000  1.0
  N  N50  1  0.74998000  0.62952000  0.88800000  1.0
  N  N51  1  0.25001000  0.87048000  0.38800000  1.0
  N  N52  1  0.75001000  0.18571000  0.52690000  1.0
  N  N53  1  0.24999000  0.31427000  0.02691000  1.0
  N  N54  1  0.74999000  0.68569000  0.97310000  1.0
  N  N55  1  0.25001000  0.81433000  0.47310000  1.0
  Cl  Cl56  1  0.75001000  0.94194000  0.18732000  1.0
  Cl  Cl57  1  0.25000000  0.55805000  0.68732000  1.0
  Cl  Cl58  1  0.75001000  0.44194000  0.31268000  1.0
  Cl  Cl59  1  0.24997000  0.05805000  0.81268000  1.0
