# generated using pymatgen
data_ZnH3C7NO4
_symmetry_space_group_name_H-M   'P 1'
_cell_length_a   6.38901000
_cell_length_b   7.70074000
_cell_length_c   14.32650000
_cell_angle_alpha   90.00030000
_cell_angle_beta   89.99880000
_cell_angle_gamma   90.00000000
_symmetry_Int_Tables_number   1
_chemical_formula_structural   ZnH3C7NO4
_chemical_formula_sum   'Zn4 H12 C28 N4 O16'
_cell_volume   704.86530222
_cell_formula_units_Z   4
loop_
 _symmetry_equiv_pos_site_id
 _symmetry_equiv_pos_as_xyz
  1  'x, y, z'
loop_
 _atom_site_type_symbol
 _atom_site_label
 _atom_site_symmetry_multiplicity
 _atom_site_fract_x
 _atom_site_fract_y
 _atom_site_fract_z
 _atom_site_occupancy
  Zn  Zn0  1  0.00000000  0.75001000  0.71157000  1.0
  Zn  Zn1  1  0.50000000  0.25001000  0.78844000  1.0
  Zn  Zn2  1  0.00000000  0.25000000  0.28843000  1.0
  Zn  Zn3  1  0.50000000  0.74999000  0.21156000  1.0
  H  H4  1  0.72396000  0.58596000  0.03013000  1.0
  H  H5  1  0.77603000  0.08595000  0.46988000  1.0
  H  H6  1  0.22395000  0.41405000  0.46989000  1.0
  H  H7  1  0.27604000  0.91404000  0.03013000  1.0
  H  H8  1  0.27606000  0.41405000  0.96987000  1.0
  H  H9  1  0.22395000  0.91404000  0.53011000  1.0
  H  H10  1  0.77604000  0.58596000  0.53012000  1.0
  H  H11  1  0.72397000  0.08596000  0.96987000  1.0
  H  H12  1  0.99999000  0.75001000  0.11894000  1.0
  H  H13  1  0.49999000  0.25000000  0.38108000  1.0
  H  H14  1  0.00001000  0.25000000  0.88107000  1.0
  H  H15  1  0.49999000  0.75000000  0.61893000  1.0
  C  C16  1  0.71362000  0.55502000  0.83325000  1.0
  C  C17  1  0.78637000  0.05502000  0.66675000  1.0
  C  C18  1  0.21360000  0.44500000  0.66676000  1.0
  C  C19  1  0.28639000  0.94498000  0.83325000  1.0
  C  C20  1  0.28640000  0.44499000  0.16675000  1.0
  C  C21  1  0.21363000  0.94498000  0.33324000  1.0
  C  C22  1  0.78638000  0.55500000  0.33325000  1.0
  C  C23  1  0.71362000  0.05501000  0.16675000  1.0
  C  C24  1  0.85339000  0.65926000  0.89694000  1.0
  C  C25  1  0.64661000  0.15926000  0.60307000  1.0
  C  C26  1  0.35337000  0.34073000  0.60308000  1.0
  C  C27  1  0.14662000  0.84073000  0.89693000  1.0
  C  C28  1  0.14662000  0.34072000  0.10306000  1.0
  C  C29  1  0.35339000  0.84074000  0.39693000  1.0
  C  C30  1  0.64662000  0.65926000  0.39693000  1.0
  C  C31  1  0.85339000  0.15926000  0.10305000  1.0
  C  C32  1  0.84629000  0.65829000  0.99423000  1.0
  C  C33  1  0.65371000  0.15827000  0.50579000  1.0
  C  C34  1  0.34627000  0.34173000  0.50579000  1.0
  C  C35  1  0.15372000  0.84174000  0.99423000  1.0
  C  C36  1  0.15371000  0.34171000  0.00576000  1.0
  C  C37  1  0.34628000  0.84172000  0.49422000  1.0
  C  C38  1  0.65372000  0.65827000  0.49421000  1.0
  C  C39  1  0.84630000  0.15828000  0.00576000  1.0
  C  C40  1  0.00000000  0.74999000  0.04291000  1.0
  C  C41  1  0.49999000  0.25000000  0.45710000  1.0
  C  C42  1  0.00002000  0.25000000  0.95708000  1.0
  C  C43  1  0.49999000  0.75001000  0.54290000  1.0
  N  N44  1  0.00000000  0.75002000  0.85148000  1.0
  N  N45  1  0.50000000  0.25000000  0.64853000  1.0
  N  N46  1  0.00001000  0.24999000  0.14852000  1.0
  N  N47  1  0.50000000  0.75000000  0.35147000  1.0
  O  O48  1  0.71707000  0.58837000  0.74711000  1.0
  O  O49  1  0.78292000  0.08835000  0.75289000  1.0
  O  O50  1  0.21709000  0.41165000  0.75291000  1.0
  O  O51  1  0.28292000  0.91166000  0.74711000  1.0
  O  O52  1  0.28292000  0.41163000  0.25289000  1.0
  O  O53  1  0.21709000  0.91164000  0.24710000  1.0
  O  O54  1  0.78291000  0.58833000  0.24710000  1.0
  O  O55  1  0.71708000  0.08835000  0.25289000  1.0
  O  O56  1  0.60915000  0.43258000  0.87237000  1.0
  O  O57  1  0.89085000  0.93258000  0.62764000  1.0
  O  O58  1  0.10914000  0.56742000  0.62765000  1.0
  O  O59  1  0.39087000  0.06742000  0.87236000  1.0
  O  O60  1  0.39086000  0.56743000  0.12763000  1.0
  O  O61  1  0.10915000  0.06741000  0.37236000  1.0
  O  O62  1  0.89085000  0.43257000  0.37236000  1.0
  O  O63  1  0.60914000  0.93258000  0.12764000  1.0
