# generated using pymatgen
data_CdH13C17(NO2)3
_symmetry_space_group_name_H-M   'P 1'
_cell_length_a   7.70316000
_cell_length_b   8.81155000
_cell_length_c   15.26420000
_cell_angle_alpha   83.20790000
_cell_angle_beta   78.87210000
_cell_angle_gamma   78.78200000
_symmetry_Int_Tables_number   1
_chemical_formula_structural   CdH13C17(NO2)3
_chemical_formula_sum   'Cd2 H26 C34 N6 O12'
_cell_volume   993.66860589
_cell_formula_units_Z   2
loop_
 _symmetry_equiv_pos_site_id
 _symmetry_equiv_pos_as_xyz
  1  'x, y, z'
loop_
 _atom_site_type_symbol
 _atom_site_label
 _atom_site_symmetry_multiplicity
 _atom_site_fract_x
 _atom_site_fract_y
 _atom_site_fract_z
 _atom_site_occupancy
  Cd  Cd0  1  0.48233000  0.91796000  0.85919000  1.0
  Cd  Cd1  1  0.51766000  0.08204000  0.14081000  1.0
  H  H2  1  0.98465000  0.56657000  0.15474000  1.0
  H  H3  1  0.01534000  0.43342000  0.84526000  1.0
  H  H4  1  0.39680000  0.48760000  0.92045000  1.0
  H  H5  1  0.60319000  0.51241000  0.07954000  1.0
  H  H6  1  0.00883000  0.88488000  0.91523000  1.0
  H  H7  1  0.99116000  0.11512000  0.08476000  1.0
  H  H8  1  0.55466000  0.71855000  0.69451000  1.0
  H  H9  1  0.44534000  0.28145000  0.30549000  1.0
  H  H10  1  0.69813000  0.72686000  0.53397000  1.0
  H  H11  1  0.30188000  0.27314000  0.46603000  1.0
  H  H12  1  0.70366000  0.21402000  0.54722000  1.0
  H  H13  1  0.29634000  0.78598000  0.45278000  1.0
  H  H14  1  0.55427000  0.18400000  0.70659000  1.0
  H  H15  1  0.44574000  0.81599000  0.29341000  1.0
  H  H16  1  0.84649000  0.22194000  0.42269000  1.0
  H  H17  1  0.15351000  0.77806000  0.57731000  1.0
  H  H18  1  0.02341000  0.21920000  0.26812000  1.0
  H  H19  1  0.97659000  0.78080000  0.73188000  1.0
  H  H20  1  0.99094000  0.76018000  0.25450000  1.0
  H  H21  1  0.00907000  0.23982000  0.74550000  1.0
  H  H22  1  0.80876000  0.74214000  0.40574000  1.0
  H  H23  1  0.19125000  0.25786000  0.59426000  1.0
  H  H24  1  0.80546000  0.03834000  0.83001000  1.0
  H  H25  1  0.19454000  0.96166000  0.16999000  1.0
  H  H26  1  0.72053000  0.03361000  0.93445000  1.0
  H  H27  1  0.27947000  0.96638000  0.06555000  1.0
  C  C28  1  0.97178000  0.73802000  0.04110000  1.0
  C  C29  1  0.02822000  0.26197000  0.95890000  1.0
  C  C30  1  0.04691000  0.60198000  0.08711000  1.0
  C  C31  1  0.95308000  0.39802000  0.91289000  1.0
  C  C32  1  0.20114000  0.50979000  0.04466000  1.0
  C  C33  1  0.79886000  0.49021000  0.95534000  1.0
  C  C34  1  0.27853000  0.55510000  0.95784000  1.0
  C  C35  1  0.72147000  0.44491000  0.04215000  1.0
  C  C36  1  0.05513000  0.78000000  0.95499000  1.0
  C  C37  1  0.94486000  0.22000000  0.04501000  1.0
  C  C38  1  0.80661000  0.84119000  0.08503000  1.0
  C  C39  1  0.19338000  0.15881000  0.91497000  1.0
  C  C40  1  0.28740000  0.36222000  0.09168000  1.0
  C  C41  1  0.71261000  0.63779000  0.90832000  1.0
  C  C42  1  0.58867000  0.82596000  0.65805000  1.0
  C  C43  1  0.41133000  0.17404000  0.34195000  1.0
  C  C44  1  0.66964000  0.83253000  0.56842000  1.0
  C  C45  1  0.33037000  0.16747000  0.43158000  1.0
  C  C46  1  0.71696000  0.97197000  0.52465000  1.0
  C  C47  1  0.28304000  0.02803000  0.47535000  1.0
  C  C48  1  0.67238000  0.10123000  0.57563000  1.0
  C  C49  1  0.32762000  0.89877000  0.42437000  1.0
  C  C50  1  0.58981000  0.08625000  0.66490000  1.0
  C  C51  1  0.41019000  0.91374000  0.33510000  1.0
  C  C52  1  0.81316000  0.98033000  0.43073000  1.0
  C  C53  1  0.18684000  0.01967000  0.56927000  1.0
  C  C54  1  0.87322000  0.11594000  0.38858000  1.0
  C  C55  1  0.12678000  0.88407000  0.61142000  1.0
  C  C56  1  0.97256000  0.11613000  0.30204000  1.0
  C  C57  1  0.02744000  0.88387000  0.69796000  1.0
  C  C58  1  0.95602000  0.86006000  0.29438000  1.0
  C  C59  1  0.04399000  0.13994000  0.70562000  1.0
  C  C60  1  0.85409000  0.85096000  0.38000000  1.0
  C  C61  1  0.14591000  0.14904000  0.62000000  1.0
  N  N62  1  0.20831000  0.69080000  0.91492000  1.0
  N  N63  1  0.79168000  0.30920000  0.08508000  1.0
  N  N64  1  0.55083000  0.95044000  0.70584000  1.0
  N  N65  1  0.44917000  0.04955000  0.29416000  1.0
  N  N66  1  0.01658000  0.98914000  0.25617000  1.0
  N  N67  1  0.98342000  0.01086000  0.74384000  1.0
  O  O68  1  0.29063000  0.73889000  0.83528000  1.0
  O  O69  1  0.70936000  0.26112000  0.16472000  1.0
  O  O70  1  0.75373000  0.97083000  0.04045000  1.0
  O  O71  1  0.24625000  0.02917000  0.95956000  1.0
  O  O72  1  0.73232000  0.80220000  0.16275000  1.0
  O  O73  1  0.26767000  0.19779000  0.83726000  1.0
  O  O74  1  0.23073000  0.33140000  0.17375000  1.0
  O  O75  1  0.76928000  0.66860000  0.82625000  1.0
  O  O76  1  0.41665000  0.27847000  0.04302000  1.0
  O  O77  1  0.58334000  0.72152000  0.95697000  1.0
  O  O78  1  0.69071000  0.06666000  0.87373000  1.0
  O  O79  1  0.30929000  0.93334000  0.12628000  1.0
