# generated using pymatgen
data_Cd2H4C4S3(N3O2)2
_symmetry_space_group_name_H-M   'P 1'
_cell_length_a   7.12904000
_cell_length_b   12.47780000
_cell_length_c   13.19600000
_cell_angle_alpha   90.00000000
_cell_angle_beta   101.61000000
_cell_angle_gamma   90.00000000
_symmetry_Int_Tables_number   1
_chemical_formula_structural   Cd2H4C4S3(N3O2)2
_chemical_formula_sum   'Cd8 H16 C16 S12 N24 O16'
_cell_volume   1149.82994825
_cell_formula_units_Z   4
loop_
 _symmetry_equiv_pos_site_id
 _symmetry_equiv_pos_as_xyz
  1  'x, y, z'
loop_
 _atom_site_type_symbol
 _atom_site_label
 _atom_site_symmetry_multiplicity
 _atom_site_fract_x
 _atom_site_fract_y
 _atom_site_fract_z
 _atom_site_occupancy
  Cd  Cd0  1  0.21733000  0.38645000  0.48824000  1.0
  Cd  Cd1  1  0.28267000  0.88645000  0.01176000  1.0
  Cd  Cd2  1  0.78267000  0.61355000  0.51176000  1.0
  Cd  Cd3  1  0.71733000  0.11354000  0.98824000  1.0
  Cd  Cd4  1  0.37655000  0.38552000  0.80270000  1.0
  Cd  Cd5  1  0.12345000  0.88552000  0.69730000  1.0
  Cd  Cd6  1  0.62345000  0.61448000  0.19730000  1.0
  Cd  Cd7  1  0.87655000  0.11448000  0.30270000  1.0
  H  H8  1  0.99543000  0.19852000  0.62122000  1.0
  H  H9  1  0.50457000  0.69851000  0.87878000  1.0
  H  H10  1  0.00457000  0.80149000  0.37878000  1.0
  H  H11  1  0.49543000  0.30148000  0.12122000  1.0
  H  H12  1  0.66631000  0.22658000  0.66605000  1.0
  H  H13  1  0.83369000  0.72658000  0.83395000  1.0
  H  H14  1  0.33369000  0.77342000  0.33395000  1.0
  H  H15  1  0.16631000  0.27342000  0.16605000  1.0
  H  H16  1  0.45322000  0.01376000  0.35436000  1.0
  H  H17  1  0.04679000  0.51375000  0.14564000  1.0
  H  H18  1  0.54678000  0.98624000  0.64564000  1.0
  H  H19  1  0.95322000  0.48624000  0.85436000  1.0
  H  H20  1  0.63095000  0.32878000  0.38790000  1.0
  H  H21  1  0.86905000  0.82877000  0.11210000  1.0
  H  H22  1  0.36905000  0.67123000  0.61210000  1.0
  H  H23  1  0.13095000  0.17123000  0.88790000  1.0
  C  C24  1  0.91638000  0.27337000  0.61353000  1.0
  C  C25  1  0.58361000  0.77337000  0.88647000  1.0
  C  C26  1  0.08361000  0.72663000  0.38647000  1.0
  C  C27  1  0.41639000  0.22663000  0.11353000  1.0
  C  C28  1  0.69322000  0.39317000  0.61769000  1.0
  C  C29  1  0.80678000  0.89317000  0.88231000  1.0
  C  C30  1  0.30677000  0.60683000  0.38231000  1.0
  C  C31  1  0.19323000  0.10682000  0.11770000  1.0
  C  C32  1  0.32738000  0.14747000  0.41963000  1.0
  C  C33  1  0.17263000  0.64747000  0.08037000  1.0
  C  C34  1  0.67263000  0.85253000  0.58037000  1.0
  C  C35  1  0.82737000  0.35253000  0.91963000  1.0
  C  C36  1  0.54744000  0.25687000  0.39192000  1.0
  C  C37  1  0.95257000  0.75686000  0.10809000  1.0
  C  C38  1  0.45256000  0.74314000  0.60808000  1.0
  C  C39  1  0.04744000  0.24313000  0.89191000  1.0
  S  S40  1  0.49546000  0.46383000  0.63639000  1.0
  S  S41  1  0.00454000  0.96383000  0.86361000  1.0
  S  S42  1  0.50453000  0.53617000  0.36361000  1.0
  S  S43  1  0.99546000  0.03617000  0.13639000  1.0
  S  S44  1  0.90280000  0.36106000  0.24215000  1.0
  S  S45  1  0.59721000  0.86106000  0.25785000  1.0
  S  S46  1  0.09720000  0.63894000  0.75785000  1.0
  S  S47  1  0.40280000  0.13894000  0.74215000  1.0
  S  S48  1  0.13634000  0.08865000  0.45897000  1.0
  S  S49  1  0.36367000  0.58864000  0.04103000  1.0
  S  S50  1  0.86367000  0.91135000  0.54103000  1.0
  S  S51  1  0.63633000  0.41135000  0.95896000  1.0
  N  N52  1  0.97296000  0.36381000  0.57698000  1.0
  N  N53  1  0.52704000  0.86381000  0.92302000  1.0
  N  N54  1  0.02703000  0.63619000  0.42302000  1.0
  N  N55  1  0.47297000  0.13619000  0.07698000  1.0
  N  N56  1  0.83273000  0.43919000  0.57868000  1.0
  N  N57  1  0.66727000  0.93919000  0.92132000  1.0
  N  N58  1  0.16727000  0.56081000  0.42132000  1.0
  N  N59  1  0.33273000  0.06080000  0.07868000  1.0
  N  N60  1  0.74395000  0.28829000  0.63983000  1.0
  N  N61  1  0.75606000  0.78829000  0.86017000  1.0
  N  N62  1  0.25605000  0.71171000  0.36017000  1.0
  N  N63  1  0.24395000  0.21171000  0.13983000  1.0
  N  N64  1  0.59879000  0.16180000  0.36119000  1.0
  N  N65  1  0.90122000  0.66180000  0.13882000  1.0
  N  N66  1  0.40121000  0.83820000  0.63881000  1.0
  N  N67  1  0.09878000  0.33820000  0.86118000  1.0
  N  N68  1  0.45974000  0.09391000  0.37928000  1.0
  N  N69  1  0.04027000  0.59390000  0.12072000  1.0
  N  N70  1  0.54026000  0.90609000  0.62072000  1.0
  N  N71  1  0.95973000  0.40609000  0.87927000  1.0
  N  N72  1  0.38249000  0.25240000  0.42815000  1.0
  N  N73  1  0.11751000  0.75240000  0.07185000  1.0
  N  N74  1  0.61751000  0.74760000  0.57185000  1.0
  N  N75  1  0.88249000  0.24760000  0.92815000  1.0
  O  O76  1  0.82839000  0.25803000  0.19075000  1.0
  O  O77  1  0.67161000  0.75802000  0.30925000  1.0
  O  O78  1  0.17161000  0.74198000  0.80925000  1.0
  O  O79  1  0.32839000  0.24198000  0.69075000  1.0
  O  O80  1  0.07669000  0.39303000  0.20166000  1.0
  O  O81  1  0.42331000  0.89303000  0.29834000  1.0
  O  O82  1  0.92331000  0.60697000  0.79834000  1.0
  O  O83  1  0.57669000  0.10697000  0.70166000  1.0
  O  O84  1  0.95268000  0.34090000  0.35561000  1.0
  O  O85  1  0.54733000  0.84089000  0.14439000  1.0
  O  O86  1  0.04732000  0.65911000  0.64439000  1.0
  O  O87  1  0.45267000  0.15911000  0.85561000  1.0
  O  O88  1  0.75322000  0.44413000  0.21830000  1.0
  O  O89  1  0.74679000  0.94412000  0.28170000  1.0
  O  O90  1  0.24679000  0.55587000  0.78170000  1.0
  O  O91  1  0.25321000  0.05588000  0.71830000  1.0
