# generated using pymatgen
data_Ag2H10C18S2N4O7F6
_symmetry_space_group_name_H-M   'P 1'
_cell_length_a   10.80290000
_cell_length_b   10.80300000
_cell_length_c   12.89780062
_cell_angle_alpha   65.36958124
_cell_angle_beta   84.59658209
_cell_angle_gamma   112.95440000
_symmetry_Int_Tables_number   1
_chemical_formula_structural   Ag2H10C18S2N4O7F6
_chemical_formula_sum   'Ag4 H20 C36 S4 N8 O14 F12'
_cell_volume   1199.20947103
_cell_formula_units_Z   2
loop_
 _symmetry_equiv_pos_site_id
 _symmetry_equiv_pos_as_xyz
  1  'x, y, z'
loop_
 _atom_site_type_symbol
 _atom_site_label
 _atom_site_symmetry_multiplicity
 _atom_site_fract_x
 _atom_site_fract_y
 _atom_site_fract_z
 _atom_site_occupancy
  Ag  Ag0  1  0.24732000  0.68516000  0.84151000  1.0
  Ag  Ag1  1  0.52666000  0.58883000  0.65849000  1.0
  Ag  Ag2  1  0.75267000  0.31484000  0.15849000  1.0
  Ag  Ag3  1  0.47334000  0.41117000  0.34151000  1.0
  H  H4  1  0.69900000  0.99578000  0.84881000  1.0
  H  H5  1  0.84458000  0.04781000  0.65119000  1.0
  H  H6  1  0.30100000  0.00422000  0.15119000  1.0
  H  H7  1  0.15542000  0.95219000  0.34881000  1.0
  H  H8  1  0.47323000  0.24931000  0.85223000  1.0
  H  H9  1  0.10154000  0.82546000  0.64777000  1.0
  H  H10  1  0.52677000  0.75069000  0.14777000  1.0
  H  H11  1  0.89846000  0.17454000  0.35223000  1.0
  H  H12  1  0.68401000  0.44870000  0.85582000  1.0
  H  H13  1  0.30450000  0.03983000  0.64418000  1.0
  H  H14  1  0.31599000  0.55131000  0.14418000  1.0
  H  H15  1  0.69549000  0.96017000  0.35582000  1.0
  H  H16  1  0.91280000  0.19956000  0.84919000  1.0
  H  H17  1  0.04873000  0.26199000  0.65081000  1.0
  H  H18  1  0.08720000  0.80044000  0.15081000  1.0
  H  H19  1  0.95126000  0.73801000  0.34919000  1.0
  H  H20  1  0.54351000  0.72806000  0.80759000  1.0
  H  H21  1  0.53565000  0.85110000  0.69241000  1.0
  H  H22  1  0.45649000  0.27194000  0.19241000  1.0
  H  H23  1  0.46435000  0.14889000  0.30759000  1.0
  C  C24  1  0.45332000  0.99262000  0.85142000  1.0
  C  C25  1  0.84403000  0.80474000  0.64858000  1.0
  C  C26  1  0.54668000  0.00738000  0.14858000  1.0
  C  C27  1  0.15597000  0.19526000  0.35142000  1.0
  C  C28  1  0.69848000  0.09703000  0.84739000  1.0
  C  C29  1  0.94441000  0.04587000  0.65260000  1.0
  C  C30  1  0.30153000  0.90297000  0.15261000  1.0
  C  C31  1  0.05558000  0.95414000  0.34739000  1.0
  C  C32  1  0.56973000  0.23953000  0.84951000  1.0
  C  C33  1  0.08904000  0.91923000  0.65049000  1.0
  C  C34  1  0.43027000  0.76047000  0.15049000  1.0
  C  C35  1  0.91096000  0.08076000  0.34951000  1.0
  C  C36  1  0.81225000  0.33827000  0.84869000  1.0
  C  C37  1  0.18695000  0.16093000  0.65131000  1.0
  C  C38  1  0.18775000  0.66173000  0.15131000  1.0
  C  C39  1  0.81305000  0.83906000  0.34869000  1.0
  C  C40  1  0.93604000  0.45090000  0.85010000  1.0
  C  C41  1  0.30099000  0.28613000  0.64990000  1.0
  C  C42  1  0.06396000  0.54910000  0.14990000  1.0
  C  C43  1  0.69901000  0.71387000  0.35010000  1.0
  C  C44  1  0.68839000  0.35269000  0.85037000  1.0
  C  C45  1  0.20305000  0.03874000  0.64963000  1.0
  C  C46  1  0.31162000  0.64731000  0.14963000  1.0
  C  C47  1  0.79695000  0.96125000  0.35037000  1.0
  C  C48  1  0.57492000  0.11243000  0.84796000  1.0
  C  C49  1  0.96039000  0.92288000  0.65204000  1.0
  C  C50  1  0.42508000  0.88757000  0.15204000  1.0
  C  C51  1  0.03961000  0.07712000  0.34796000  1.0
  C  C52  1  0.81699000  0.21025000  0.84758000  1.0
  C  C53  1  0.05782000  0.16456000  0.65242000  1.0
  C  C54  1  0.18302000  0.78975000  0.15242000  1.0
  C  C55  1  0.94218000  0.83543000  0.34758000  1.0
  C  C56  1  0.16118000  0.21656000  0.97878000  1.0
  C  C57  1  0.19535000  0.63996000  0.52122000  1.0
  C  C58  1  0.83882000  0.78344000  0.02122000  1.0
  C  C59  1  0.80466000  0.36004000  0.47878000  1.0
  S  S60  1  0.31085000  0.34731000  0.00680000  1.0
  S  S61  1  0.35411000  0.81765000  0.49320000  1.0
  S  S62  1  0.68915000  0.65269000  0.99320000  1.0
  S  S63  1  0.64590000  0.18235000  0.50680000  1.0
  N  N64  1  0.35538000  0.88941000  0.85763000  1.0
  N  N65  1  0.74703000  0.71300000  0.64237000  1.0
  N  N66  1  0.64462000  0.11059000  0.14237000  1.0
  N  N67  1  0.25297000  0.28699000  0.35763000  1.0
  N  N68  1  0.04191000  0.53883000  0.84961000  1.0
  N  N69  1  0.38843000  0.39152000  0.65039000  1.0
  N  N70  1  0.95809000  0.46118000  0.15038000  1.0
  N  N71  1  0.61157000  0.60848000  0.34961000  1.0
  O  O72  1  0.48893000  0.73893000  0.75000000  1.0
  O  O73  1  0.51107000  0.26107000  0.25000000  1.0
  O  O74  1  0.31837000  0.23899000  0.11873000  1.0
  O  O75  1  0.35772000  0.93708000  0.38128000  1.0
  O  O76  1  0.68164000  0.76101000  0.88127000  1.0
  O  O77  1  0.64228000  0.06291000  0.61872000  1.0
  O  O78  1  0.43013000  0.41687000  0.90218000  1.0
  O  O79  1  0.31905000  0.83231000  0.59782000  1.0
  O  O80  1  0.56987000  0.58313000  0.09783000  1.0
  O  O81  1  0.68095000  0.16769000  0.40218000  1.0
  O  O82  1  0.26193000  0.45110000  0.01718000  1.0
  O  O83  1  0.46828000  0.77911000  0.48282000  1.0
  O  O84  1  0.73807000  0.54890000  0.98282000  1.0
  O  O85  1  0.53172000  0.22089000  0.51718000  1.0
  F  F86  1  0.18517000  0.10390000  0.97374000  1.0
  F  F87  1  0.07764000  0.65892000  0.52625000  1.0
  F  F88  1  0.81483000  0.89610000  0.02626000  1.0
  F  F89  1  0.92236000  0.34108000  0.47375000  1.0
  F  F90  1  0.14442000  0.29736000  0.87219000  1.0
  F  F91  1  0.16955000  0.51661000  0.62781000  1.0
  F  F92  1  0.85558000  0.70264000  0.12781000  1.0
  F  F93  1  0.83045000  0.48339000  0.37219000  1.0
  F  F94  1  0.03764000  0.14665000  0.06589000  1.0
  F  F95  1  0.21254000  0.60353000  0.43411000  1.0
  F  F96  1  0.96236000  0.85335000  0.93411000  1.0
  F  F97  1  0.78746000  0.39647000  0.56589000  1.0
