# generated using pymatgen
data_ZnH4C6N2O5
_symmetry_space_group_name_H-M   'P 1'
_cell_length_a   9.39439000
_cell_length_b   9.40291000
_cell_length_c   11.50540000
_cell_angle_alpha   107.31900000
_cell_angle_beta   107.26000000
_cell_angle_gamma   105.80700000
_symmetry_Int_Tables_number   1
_chemical_formula_structural   ZnH4C6N2O5
_chemical_formula_sum   'Zn4 H16 C24 N8 O20'
_cell_volume   850.93957041
_cell_formula_units_Z   4
loop_
 _symmetry_equiv_pos_site_id
 _symmetry_equiv_pos_as_xyz
  1  'x, y, z'
loop_
 _atom_site_type_symbol
 _atom_site_label
 _atom_site_symmetry_multiplicity
 _atom_site_fract_x
 _atom_site_fract_y
 _atom_site_fract_z
 _atom_site_occupancy
  Zn  Zn0  1  0.23090000  0.85519000  0.09400000  1.0
  Zn  Zn1  1  0.76109000  0.13717000  0.90584000  1.0
  Zn  Zn2  1  0.88772000  0.01220000  0.40596000  1.0
  Zn  Zn3  1  0.60642000  0.48187000  0.59406000  1.0
  H  H4  1  0.20537000  0.08474000  0.74786000  1.0
  H  H5  1  0.33731000  0.45765000  0.25166000  1.0
  H  H6  1  0.20878000  0.58762000  0.75254000  1.0
  H  H7  1  0.83634000  0.45701000  0.24810000  1.0
  H  H8  1  0.74604000  0.15733000  0.27438000  1.0
  H  H9  1  0.88266000  0.47089000  0.72594000  1.0
  H  H10  1  0.22063000  0.13205000  0.22532000  1.0
  H  H11  1  0.90591000  0.99464000  0.77422000  1.0
  H  H12  1  0.60362000  0.81284000  0.11170000  1.0
  H  H13  1  0.70042000  0.49149000  0.88837000  1.0
  H  H14  1  0.24387000  0.95180000  0.38913000  1.0
  H  H15  1  0.56171000  0.85374000  0.61072000  1.0
  H  H16  1  0.76388000  0.93838000  0.08734000  1.0
  H  H17  1  0.85009000  0.67611000  0.91264000  1.0
  H  H18  1  0.42743000  0.10180000  0.41204000  1.0
  H  H19  1  0.68806000  0.01435000  0.58738000  1.0
  C  C20  1  0.14876000  0.96621000  0.88723000  1.0
  C  C21  1  0.07934000  0.26174000  0.11236000  1.0
  C  C22  1  0.01274000  0.32996000  0.61306000  1.0
  C  C23  1  0.71815000  0.40042000  0.38741000  1.0
  C  C24  1  0.32252000  0.99776000  0.93062000  1.0
  C  C25  1  0.06722000  0.39214000  0.06928000  1.0
  C  C26  1  0.14329000  0.31787000  0.56990000  1.0
  C  C27  1  0.74871000  0.57384000  0.43051000  1.0
  C  C28  1  0.43734000  0.05958000  0.88590000  1.0
  C  C29  1  0.17370000  0.55161000  0.11403000  1.0
  C  C30  1  0.30296000  0.42421000  0.61478000  1.0
  C  C31  1  0.81001000  0.68860000  0.38564000  1.0
  C  C32  1  0.43143000  0.12059000  0.78256000  1.0
  C  C33  1  0.33830000  0.64895000  0.21714000  1.0
  C  C34  1  0.40024000  0.58876000  0.71787000  1.0
  C  C35  1  0.87143000  0.68281000  0.28248000  1.0
  C  C36  1  0.54726000  0.98037000  0.03658000  1.0
  C  C37  1  0.94344000  0.51076000  0.96361000  1.0
  C  C38  1  0.26184000  0.19426000  0.46378000  1.0
  C  C39  1  0.73008000  0.79787000  0.53618000  1.0
  C  C40  1  0.66583000  0.93555000  0.12113000  1.0
  C  C41  1  0.81379000  0.54445000  0.87901000  1.0
  C  C42  1  0.29567000  0.06481000  0.37902000  1.0
  C  C43  1  0.68477000  0.91604000  0.62070000  1.0
  N  N44  1  0.39315000  0.94944000  0.02552000  1.0
  N  N45  1  0.92378000  0.36785000  0.97458000  1.0
  N  N46  1  0.11882000  0.17460000  0.47484000  1.0
  N  N47  1  0.69992000  0.64406000  0.52532000  1.0
  N  N48  1  0.57800000  0.04865000  0.95389000  1.0
  N  N49  1  0.09451000  0.62418000  0.04621000  1.0
  N  N50  1  0.37545000  0.34516000  0.54663000  1.0
  N  N51  1  0.79837000  0.82883000  0.45349000  1.0
  O  O52  1  0.07157000  0.89181000  0.93886000  1.0
  O  O53  1  0.95328000  0.13294000  0.06068000  1.0
  O  O54  1  0.88367000  0.20410000  0.56107000  1.0
  O  O55  1  0.64398000  0.32314000  0.43914000  1.0
  O  O56  1  0.08568000  0.01488000  0.79869000  1.0
  O  O57  1  0.21676000  0.28714000  0.20068000  1.0
  O  O58  1  0.03830000  0.46717000  0.70177000  1.0
  O  O59  1  0.76723000  0.33754000  0.29899000  1.0
  O  O60  1  0.55400000  0.16311000  0.75878000  1.0
  O  O61  1  0.40466000  0.79515000  0.24083000  1.0
  O  O62  1  0.54646000  0.65524000  0.74143000  1.0
  O  O63  1  0.91397000  0.80529000  0.25876000  1.0
  O  O64  1  0.29481000  0.12813000  0.71576000  1.0
  O  O65  1  0.41279000  0.57920000  0.28382000  1.0
  O  O66  1  0.33030000  0.66316000  0.78454000  1.0
  O  O67  1  0.87947000  0.54644000  0.21591000  1.0
  O  O68  1  0.73149000  0.04137000  0.26106000  1.0
  O  O69  1  0.77986000  0.47011000  0.73910000  1.0
  O  O70  1  0.21999000  0.02964000  0.23899000  1.0
  O  O71  1  0.78996000  0.98095000  0.76069000  1.0
