# generated using pymatgen
data_Ho2H37C36N7O22
_symmetry_space_group_name_H-M   'P 1'
_cell_length_a   13.63300000
_cell_length_b   13.63300000
_cell_length_c   16.17620000
_cell_angle_alpha   67.19660000
_cell_angle_beta   67.19710000
_cell_angle_gamma   75.93390000
_symmetry_Int_Tables_number   1
_chemical_formula_structural   Ho2H37C36N7O22
_chemical_formula_sum   'Ho4 H74 C72 N14 O44'
_cell_volume   2539.59933169
_cell_formula_units_Z   2
loop_
 _symmetry_equiv_pos_site_id
 _symmetry_equiv_pos_as_xyz
  1  'x, y, z'
loop_
 _atom_site_type_symbol
 _atom_site_label
 _atom_site_symmetry_multiplicity
 _atom_site_fract_x
 _atom_site_fract_y
 _atom_site_fract_z
 _atom_site_occupancy
  Ho  Ho0  1  0.04868000  0.33106000  0.00079000  1.0
  Ho  Ho1  1  0.66894000  0.95132000  0.49920000  1.0
  Ho  Ho2  1  0.95132000  0.66894000  0.99920000  1.0
  Ho  Ho3  1  0.33106000  0.04868000  0.50079000  1.0
  H  H4  1  0.27027000  0.17139000  0.74699000  1.0
  H  H5  1  0.82861000  0.72973000  0.75301000  1.0
  H  H6  1  0.72973000  0.82861000  0.25301000  1.0
  H  H7  1  0.17138000  0.27027000  0.24699000  1.0
  H  H8  1  0.59549000  0.02836000  0.71901000  1.0
  H  H9  1  0.97164000  0.40450000  0.78099000  1.0
  H  H10  1  0.40451000  0.97164000  0.28099000  1.0
  H  H11  1  0.02837000  0.59550000  0.21900000  1.0
  H  H12  1  0.41305000  0.15740000  0.94704000  1.0
  H  H13  1  0.84260000  0.58695000  0.55295000  1.0
  H  H14  1  0.58695000  0.84260000  0.05295000  1.0
  H  H15  1  0.15740000  0.41305000  0.44704000  1.0
  H  H16  1  0.25664000  0.74336000  0.75000000  1.0
  H  H17  1  0.74336000  0.25664000  0.25000000  1.0
  H  H18  1  0.36560000  0.40907000  0.85500000  1.0
  H  H19  1  0.59092000  0.63439000  0.64501000  1.0
  H  H20  1  0.63440000  0.59092000  0.14501000  1.0
  H  H21  1  0.40908000  0.36560000  0.35499000  1.0
  H  H22  1  0.14105000  0.05174000  0.17040000  1.0
  H  H23  1  0.94826000  0.85895000  0.32960000  1.0
  H  H24  1  0.85895000  0.94826000  0.82960000  1.0
  H  H25  1  0.05174000  0.14105000  0.67040000  1.0
  H  H26  1  0.01580000  0.00743000  0.40422000  1.0
  H  H27  1  0.99256000  0.98420000  0.09578000  1.0
  H  H28  1  0.98420000  0.99257000  0.59577000  1.0
  H  H29  1  0.00744000  0.01580000  0.90422000  1.0
  H  H30  1  0.11622000  0.09582000  0.36207000  1.0
  H  H31  1  0.90417000  0.88378000  0.13794000  1.0
  H  H32  1  0.88378000  0.90418000  0.63794000  1.0
  H  H33  1  0.09583000  0.11622000  0.86206000  1.0
  H  H34  1  0.14142000  0.99100000  0.31502000  1.0
  H  H35  1  0.00900000  0.85858000  0.18499000  1.0
  H  H36  1  0.85858000  0.00900000  0.68498000  1.0
  H  H37  1  0.99100000  0.14142000  0.81501000  1.0
  H  H38  1  0.96192000  0.24567000  0.32200000  1.0
  H  H39  1  0.75433000  0.03809000  0.17801000  1.0
  H  H40  1  0.03808000  0.75434000  0.67800000  1.0
  H  H41  1  0.24567000  0.96192000  0.82199000  1.0
  H  H42  1  0.87459000  0.14830000  0.35287000  1.0
  H  H43  1  0.85170000  0.12542000  0.14713000  1.0
  H  H44  1  0.12541000  0.85170000  0.64713000  1.0
  H  H45  1  0.14830000  0.87458000  0.85287000  1.0
  H  H46  1  0.91545000  0.24247000  0.23411000  1.0
  H  H47  1  0.75753000  0.08455000  0.26589000  1.0
  H  H48  1  0.08455000  0.75753000  0.76589000  1.0
  H  H49  1  0.24247000  0.91545000  0.73411000  1.0
  H  H50  1  0.81221000  0.37728000  0.95710000  1.0
  H  H51  1  0.62271000  0.18780000  0.54290000  1.0
  H  H52  1  0.18780000  0.62271000  0.04290000  1.0
  H  H53  1  0.37729000  0.81220000  0.45710000  1.0
  H  H54  1  0.85805000  0.09365000  0.99560000  1.0
  H  H55  1  0.90635000  0.14195000  0.50440000  1.0
  H  H56  1  0.14195000  0.90635000  0.00440000  1.0
  H  H57  1  0.09364000  0.85805000  0.49560000  1.0
  H  H58  1  0.79272000  0.11419000  0.91168000  1.0
  H  H59  1  0.88582000  0.20728000  0.58832000  1.0
  H  H60  1  0.20727000  0.88582000  0.08832000  1.0
  H  H61  1  0.11417000  0.79273000  0.41168000  1.0
  H  H62  1  0.71655000  0.08699000  0.03338000  1.0
  H  H63  1  0.91301000  0.28345000  0.46661000  1.0
  H  H64  1  0.28344000  0.91301000  0.96662000  1.0
  H  H65  1  0.08698000  0.71655000  0.53339000  1.0
  H  H66  1  0.59855000  0.26899000  0.00045000  1.0
  H  H67  1  0.73101000  0.40146000  0.49955000  1.0
  H  H68  1  0.40145000  0.73101000  0.99955000  1.0
  H  H69  1  0.26898000  0.59855000  0.50046000  1.0
  H  H70  1  0.67008000  0.28994000  0.87769000  1.0
  H  H71  1  0.71007000  0.32991000  0.62232000  1.0
  H  H72  1  0.32991000  0.71007000  0.12232000  1.0
  H  H73  1  0.28993000  0.67008000  0.37769000  1.0
  H  H74  1  0.66939000  0.38476000  0.92939000  1.0
  H  H75  1  0.61524000  0.33061000  0.57062000  1.0
  H  H76  1  0.33060000  0.61524000  0.07062000  1.0
  H  H77  1  0.38476000  0.66939000  0.42939000  1.0
  C  C78  1  0.18782000  0.55177000  0.87815000  1.0
  C  C79  1  0.44823000  0.81218000  0.62185000  1.0
  C  C80  1  0.81218000  0.44824000  0.12185000  1.0
  C  C81  1  0.55176000  0.18782000  0.37815000  1.0
  C  C82  1  0.33049000  0.16876000  0.85345000  1.0
  C  C83  1  0.83125000  0.66951000  0.64654000  1.0
  C  C84  1  0.66951000  0.83124000  0.14655000  1.0
  C  C85  1  0.16876000  0.33049000  0.35346000  1.0
  C  C86  1  0.33804000  0.14738000  0.77312000  1.0
  C  C87  1  0.85263000  0.66196000  0.72688000  1.0
  C  C88  1  0.66197000  0.85262000  0.22688000  1.0
  C  C89  1  0.14738000  0.33803000  0.27312000  1.0
  C  C90  1  0.43269000  0.09558000  0.72516000  1.0
  C  C91  1  0.90442000  0.56731000  0.77484000  1.0
  C  C92  1  0.56731000  0.90442000  0.27484000  1.0
  C  C93  1  0.09559000  0.43269000  0.22516000  1.0
  C  C94  1  0.52159000  0.06825000  0.75582000  1.0
  C  C95  1  0.93176000  0.47841000  0.74418000  1.0
  C  C96  1  0.47842000  0.93175000  0.24419000  1.0
  C  C97  1  0.06825000  0.52159000  0.25581000  1.0
  C  C98  1  0.51276000  0.09228000  0.83480000  1.0
  C  C99  1  0.90772000  0.48724000  0.66520000  1.0
  C  C100  1  0.48724000  0.90771000  0.16520000  1.0
  C  C101  1  0.09228000  0.51277000  0.33480000  1.0
  C  C102  1  0.41847000  0.14007000  0.88517000  1.0
  C  C103  1  0.85993000  0.58153000  0.61483000  1.0
  C  C104  1  0.58153000  0.85993000  0.11483000  1.0
  C  C105  1  0.14006000  0.41847000  0.38517000  1.0
  C  C106  1  0.23053000  0.22337000  0.90721000  1.0
  C  C107  1  0.77663000  0.76947000  0.59279000  1.0
  C  C108  1  0.76947000  0.77663000  0.09279000  1.0
  C  C109  1  0.22337000  0.23053000  0.40721000  1.0
  C  C110  1  0.44015000  0.06964000  0.64027000  1.0
  C  C111  1  0.93036000  0.55985000  0.85972000  1.0
  C  C112  1  0.55985000  0.93036000  0.35972000  1.0
  C  C113  1  0.06964000  0.44015000  0.14027000  1.0
  C  C114  1  0.32148000  0.67852000  0.75000000  1.0
  C  C115  1  0.67852000  0.32148000  0.25000000  1.0
  C  C116  1  0.29958000  0.57458000  0.81078000  1.0
  C  C117  1  0.42542000  0.70042000  0.68922000  1.0
  C  C118  1  0.70043000  0.42542000  0.18922000  1.0
  C  C119  1  0.57458000  0.29957000  0.31078000  1.0
  C  C120  1  0.38218000  0.49056000  0.80940000  1.0
  C  C121  1  0.50944000  0.61782000  0.69060000  1.0
  C  C122  1  0.61782000  0.50944000  0.19060000  1.0
  C  C123  1  0.49056000  0.38218000  0.30939000  1.0
  C  C124  1  0.48563000  0.51437000  0.75000000  1.0
  C  C125  1  0.51437000  0.48563000  0.25000000  1.0
  C  C126  1  0.07039000  0.11108000  0.18212000  1.0
  C  C127  1  0.88892000  0.92961000  0.31788000  1.0
  C  C128  1  0.92961000  0.88892000  0.81788000  1.0
  C  C129  1  0.11108000  0.07039000  0.68212000  1.0
  C  C130  1  0.07906000  0.04941000  0.34187000  1.0
  C  C131  1  0.95059000  0.92094000  0.15814000  1.0
  C  C132  1  0.92094000  0.95060000  0.65813000  1.0
  C  C133  1  0.04941000  0.07905000  0.84187000  1.0
  C  C134  1  0.93979000  0.19341000  0.29616000  1.0
  C  C135  1  0.80659000  0.06022000  0.20384000  1.0
  C  C136  1  0.06021000  0.80659000  0.70384000  1.0
  C  C137  1  0.19341000  0.93979000  0.79616000  1.0
  C  C138  1  0.83700000  0.29122000  0.96773000  1.0
  C  C139  1  0.70878000  0.16301000  0.53227000  1.0
  C  C140  1  0.16300000  0.70878000  0.03227000  1.0
  C  C141  1  0.29122000  0.83700000  0.46773000  1.0
  C  C142  1  0.78511000  0.12703000  0.97697000  1.0
  C  C143  1  0.87297000  0.21489000  0.52303000  1.0
  C  C144  1  0.21489000  0.87297000  0.02303000  1.0
  C  C145  1  0.12703000  0.78510000  0.47697000  1.0
  C  C146  1  0.67068000  0.29946000  0.94186000  1.0
  C  C147  1  0.70054000  0.32932000  0.55815000  1.0
  C  C148  1  0.32932000  0.70054000  0.05815000  1.0
  C  C149  1  0.29946000  0.67068000  0.44186000  1.0
  N  N150  1  0.60665000  0.07011000  0.86479000  1.0
  N  N151  1  0.92989000  0.39335000  0.63521000  1.0
  N  N152  1  0.39335000  0.92989000  0.13521000  1.0
  N  N153  1  0.07011000  0.60666000  0.36478000  1.0
  N  N154  1  0.03218000  0.11852000  0.26893000  1.0
  N  N155  1  0.88148000  0.96782000  0.23108000  1.0
  N  N156  1  0.96782000  0.88148000  0.73108000  1.0
  N  N157  1  0.11852000  0.03218000  0.76892000  1.0
  N  N158  1  0.76667000  0.24088000  0.96398000  1.0
  N  N159  1  0.75912000  0.23333000  0.53602000  1.0
  N  N160  1  0.23333000  0.75912000  0.03602000  1.0
  N  N161  1  0.24087000  0.76667000  0.46398000  1.0
  N  N162  1  0.57303000  0.42696000  0.75000000  1.0
  N  N163  1  0.42697000  0.57303000  0.25000000  1.0
  O  O164  1  0.15098000  0.25768000  0.87602000  1.0
  O  O165  1  0.74233000  0.84902000  0.62398000  1.0
  O  O166  1  0.84902000  0.74233000  0.12398000  1.0
  O  O167  1  0.25767000  0.15098000  0.37602000  1.0
  O  O168  1  0.22797000  0.23423000  0.98256000  1.0
  O  O169  1  0.76577000  0.77203000  0.51744000  1.0
  O  O170  1  0.77204000  0.76577000  0.01743000  1.0
  O  O171  1  0.23423000  0.22797000  0.48256000  1.0
  O  O172  1  0.17085000  0.45451000  0.91537000  1.0
  O  O173  1  0.54549000  0.82915000  0.58463000  1.0
  O  O174  1  0.82915000  0.54549000  0.08463000  1.0
  O  O175  1  0.45451000  0.17085000  0.41537000  1.0
  O  O176  1  0.12134000  0.63163000  0.89245000  1.0
  O  O177  1  0.36837000  0.87865000  0.60755000  1.0
  O  O178  1  0.87866000  0.36837000  0.10755000  1.0
  O  O179  1  0.63162000  0.12134000  0.39245000  1.0
  O  O180  1  0.92370000  0.24751000  0.98178000  1.0
  O  O181  1  0.75250000  0.07630000  0.51822000  1.0
  O  O182  1  0.07630000  0.75249000  0.01822000  1.0
  O  O183  1  0.24750000  0.92370000  0.48178000  1.0
  O  O184  1  0.03079000  0.16524000  0.11720000  1.0
  O  O185  1  0.83477000  0.96921000  0.38281000  1.0
  O  O186  1  0.96921000  0.83476000  0.88280000  1.0
  O  O187  1  0.16524000  0.03079000  0.61719000  1.0
  O  O188  1  0.35605000  0.08920000  0.61847000  1.0
  O  O189  1  0.91079000  0.64395000  0.88153000  1.0
  O  O190  1  0.64395000  0.91080000  0.38152000  1.0
  O  O191  1  0.08921000  0.35605000  0.11847000  1.0
  O  O192  1  0.53083000  0.03002000  0.59646000  1.0
  O  O193  1  0.96998000  0.46917000  0.90354000  1.0
  O  O194  1  0.46917000  0.96998000  0.40354000  1.0
  O  O195  1  0.03002000  0.53083000  0.09646000  1.0
  O  O196  1  0.69543000  0.04760000  0.80950000  1.0
  O  O197  1  0.95239000  0.30457000  0.69050000  1.0
  O  O198  1  0.30457000  0.95239000  0.19050000  1.0
  O  O199  1  0.04760000  0.69543000  0.30949000  1.0
  O  O200  1  0.59329000  0.07662000  0.94290000  1.0
  O  O201  1  0.92339000  0.40671000  0.55710000  1.0
  O  O202  1  0.40670000  0.92339000  0.05710000  1.0
  O  O203  1  0.07661000  0.59330000  0.44290000  1.0
  O  O204  1  0.54958000  0.33333333  0.78906000  1.0
  O  O205  1  0.66671000  0.45041000  0.71095000  1.0
  O  O206  1  0.45041000  0.66672000  0.21094000  1.0
  O  O207  1  0.33333333  0.54958000  0.28906000  1.0
