# generated using pymatgen
data_V2H8C12N2O5
_symmetry_space_group_name_H-M   'P 1'
_cell_length_a   6.48852000
_cell_length_b   9.75650000
_cell_length_c   19.81460000
_cell_angle_alpha   100.14800000
_cell_angle_beta   89.98430000
_cell_angle_gamma   89.95030000
_symmetry_Int_Tables_number   1
_chemical_formula_structural   V2H8C12N2O5
_chemical_formula_sum   'V8 H32 C48 N8 O20'
_cell_volume   1234.74409887
_cell_formula_units_Z   4
loop_
 _symmetry_equiv_pos_site_id
 _symmetry_equiv_pos_as_xyz
  1  'x, y, z'
loop_
 _atom_site_type_symbol
 _atom_site_label
 _atom_site_symmetry_multiplicity
 _atom_site_fract_x
 _atom_site_fract_y
 _atom_site_fract_z
 _atom_site_occupancy
  V  V0  1  0.24959000  0.56147000  0.84365000  1.0
  V  V1  1  0.75041000  0.43853000  0.15635000  1.0
  V  V2  1  0.75027000  0.45609000  0.62950000  1.0
  V  V3  1  0.24973000  0.54391000  0.37050000  1.0
  V  V4  1  0.74967000  0.63094000  0.80214000  1.0
  V  V5  1  0.25033000  0.36906000  0.19786000  1.0
  V  V6  1  0.25011000  0.39610000  0.67563000  1.0
  V  V7  1  0.74989000  0.60390000  0.32437000  1.0
  H  H8  1  0.24940000  0.47555000  0.98814000  1.0
  H  H9  1  0.75060000  0.52445000  0.01186000  1.0
  H  H10  1  0.24941000  0.58684000  0.11176000  1.0
  H  H11  1  0.75059000  0.41316000  0.88824000  1.0
  H  H12  1  0.24987000  0.84931000  0.14218000  1.0
  H  H13  1  0.75013000  0.15069000  0.85782000  1.0
  H  H14  1  0.25063000  0.20650000  0.87483000  1.0
  H  H15  1  0.74937000  0.79350000  0.12517000  1.0
  H  H16  1  0.25029000  0.06617000  0.75777000  1.0
  H  H17  1  0.74972000  0.93383000  0.24223000  1.0
  H  H18  1  0.24954000  0.80216000  0.74387000  1.0
  H  H19  1  0.75046000  0.19784000  0.25613000  1.0
  H  H20  1  0.25021000  0.08030000  0.10115000  1.0
  H  H21  1  0.74979000  0.91970000  0.89885000  1.0
  H  H22  1  0.25056000  0.20995000  0.00440000  1.0
  H  H23  1  0.74944000  0.79005000  0.99560000  1.0
  H  H24  1  0.75074000  0.26344000  0.75307000  1.0
  H  H25  1  0.24926000  0.73656000  0.24693000  1.0
  H  H26  1  0.75084000  0.00581000  0.76171000  1.0
  H  H27  1  0.24916000  0.99419000  0.23829000  1.0
  H  H28  1  0.75051000  0.83002000  0.65530000  1.0
  H  H29  1  0.24948000  0.16999000  0.34470000  1.0
  H  H30  1  0.74918000  0.06963000  0.35298000  1.0
  H  H31  1  0.25082000  0.93037000  0.64702000  1.0
  H  H32  1  0.74887000  0.33079000  0.35971000  1.0
  H  H33  1  0.25112000  0.66921000  0.64029000  1.0
  H  H34  1  0.74956000  0.48428000  0.47413000  1.0
  H  H35  1  0.25044000  0.51572000  0.52587000  1.0
  H  H36  1  0.75032000  0.77918000  0.52555000  1.0
  H  H37  1  0.24968000  0.22083000  0.47445000  1.0
  H  H38  1  0.74987000  0.86912000  0.41491000  1.0
  H  H39  1  0.25013000  0.13088000  0.58509000  1.0
  C  C40  1  0.24952000  0.58844000  0.00357000  1.0
  C  C41  1  0.75048000  0.41155000  0.99643000  1.0
  C  C42  1  0.24957000  0.65244000  0.07276000  1.0
  C  C43  1  0.75044000  0.34756000  0.92724000  1.0
  C  C44  1  0.24979000  0.79620000  0.08900000  1.0
  C  C45  1  0.75021000  0.20379000  0.91100000  1.0
  C  C46  1  0.24992000  0.87592000  0.03609000  1.0
  C  C47  1  0.75008000  0.12408000  0.96391000  1.0
  C  C48  1  0.24986000  0.80238000  0.96765000  1.0
  C  C49  1  0.75013000  0.19762000  0.03235000  1.0
  C  C50  1  0.24992000  0.87731000  0.91159000  1.0
  C  C51  1  0.75007000  0.12269000  0.08841000  1.0
  C  C52  1  0.25022000  0.02486000  0.92493000  1.0
  C  C53  1  0.74978000  0.97513000  0.07507000  1.0
  C  C54  1  0.25036000  0.09289000  0.86765000  1.0
  C  C55  1  0.74964000  0.90711000  0.13235000  1.0
  C  C56  1  0.25019000  0.01433000  0.80230000  1.0
  C  C57  1  0.74982000  0.98567000  0.19770000  1.0
  C  C58  1  0.24979000  0.86809000  0.79435000  1.0
  C  C59  1  0.75021000  0.13191000  0.20565000  1.0
  C  C60  1  0.25016000  0.02504000  0.04819000  1.0
  C  C61  1  0.74985000  0.97495000  0.95181000  1.0
  C  C62  1  0.25035000  0.09631000  0.99466000  1.0
  C  C63  1  0.74965000  0.90369000  0.00535000  1.0
  C  C64  1  0.75056000  0.18211000  0.70754000  1.0
  C  C65  1  0.24943000  0.81789000  0.29246000  1.0
  C  C66  1  0.75063000  0.03993000  0.71230000  1.0
  C  C67  1  0.24936000  0.96007000  0.28770000  1.0
  C  C68  1  0.75044000  0.94096000  0.65304000  1.0
  C  C69  1  0.24955000  0.05904000  0.34696000  1.0
  C  C70  1  0.75019000  0.98474000  0.58880000  1.0
  C  C71  1  0.24981000  0.01526000  0.41120000  1.0
  C  C72  1  0.75011000  0.13037000  0.58927000  1.0
  C  C73  1  0.24988000  0.86963000  0.41073000  1.0
  C  C74  1  0.74988000  0.18143000  0.52580000  1.0
  C  C75  1  0.25012000  0.81857000  0.47420000  1.0
  C  C76  1  0.74971000  0.08588000  0.46307000  1.0
  C  C77  1  0.25028000  0.91412000  0.53693000  1.0
  C  C78  1  0.74935000  0.14118000  0.40189000  1.0
  C  C79  1  0.25065000  0.85883000  0.59811000  1.0
  C  C80  1  0.74925000  0.28370000  0.40548000  1.0
  C  C81  1  0.25075000  0.71630000  0.59452000  1.0
  C  C82  1  0.74958000  0.37150000  0.46981000  1.0
  C  C83  1  0.25042000  0.62850000  0.53019000  1.0
  C  C84  1  0.75014000  0.89068000  0.52460000  1.0
  C  C85  1  0.24987000  0.10933000  0.47540000  1.0
  C  C86  1  0.74990000  0.93970000  0.46411000  1.0
  C  C87  1  0.25010000  0.06030000  0.53589000  1.0
  N  N88  1  0.24967000  0.66127000  0.95255000  1.0
  N  N89  1  0.75033000  0.33872000  0.04745000  1.0
  N  N90  1  0.24970000  0.80157000  0.84745000  1.0
  N  N91  1  0.75030000  0.19843000  0.15255000  1.0
  N  N92  1  0.75030000  0.22595000  0.64774000  1.0
  N  N93  1  0.24970000  0.77405000  0.35225000  1.0
  N  N94  1  0.74989000  0.32155000  0.52828000  1.0
  N  N95  1  0.25011000  0.67846000  0.47172000  1.0
  O  O96  1  0.53362000  0.59642000  0.84924000  1.0
  O  O97  1  0.46638000  0.40358000  0.15076000  1.0
  O  O98  1  0.24962000  0.52746000  0.75046000  1.0
  O  O99  1  0.75038000  0.47254000  0.24954000  1.0
  O  O100  1  0.75020000  0.51729000  0.72196000  1.0
  O  O101  1  0.24979000  0.48271000  0.27804000  1.0
  O  O102  1  0.46660000  0.41992000  0.62660000  1.0
  O  O103  1  0.53340000  0.58008000  0.37340000  1.0
  O  O104  1  0.24982000  0.41262000  0.86865000  1.0
  O  O105  1  0.75017000  0.58738000  0.13135000  1.0
  O  O106  1  0.74937000  0.79282000  0.79152000  1.0
  O  O107  1  0.25063000  0.20718000  0.20848000  1.0
  O  O108  1  0.96566000  0.59663000  0.84937000  1.0
  O  O109  1  0.03434000  0.40337000  0.15063000  1.0
  O  O110  1  0.25046000  0.24200000  0.69664000  1.0
  O  O111  1  0.74954000  0.75800000  0.30336000  1.0
  O  O112  1  0.75009000  0.59230000  0.59341000  1.0
  O  O113  1  0.24991000  0.40770000  0.40659000  1.0
  O  O114  1  0.03380000  0.41965000  0.62644000  1.0
  O  O115  1  0.96620000  0.58035000  0.37356000  1.0
