# generated using pymatgen
data_CdH16C18(NO2)2
_symmetry_space_group_name_H-M   'P 1'
_cell_length_a   7.77430000
_cell_length_b   9.40007000
_cell_length_c   11.85410000
_cell_angle_alpha   112.88000000
_cell_angle_beta   100.78200000
_cell_angle_gamma   92.85460000
_symmetry_Int_Tables_number   1
_chemical_formula_structural   CdH16C18(NO2)2
_chemical_formula_sum   'Cd2 H32 C36 N4 O8'
_cell_volume   776.81781288
_cell_formula_units_Z   2
loop_
 _symmetry_equiv_pos_site_id
 _symmetry_equiv_pos_as_xyz
  1  'x, y, z'
loop_
 _atom_site_type_symbol
 _atom_site_label
 _atom_site_symmetry_multiplicity
 _atom_site_fract_x
 _atom_site_fract_y
 _atom_site_fract_z
 _atom_site_occupancy
  Cd  Cd0  1  0.66436000  0.85155000  0.50991000  1.0
  Cd  Cd1  1  0.33564000  0.14846000  0.49009000  1.0
  H  H2  1  0.47399000  0.62544000  0.00322000  1.0
  H  H3  1  0.52601000  0.37455000  0.99678000  1.0
  H  H4  1  0.47361000  0.64873000  0.21875000  1.0
  H  H5  1  0.52639000  0.35126000  0.78125000  1.0
  H  H6  1  0.82097000  0.06480000  0.17437000  1.0
  H  H7  1  0.17904000  0.93519000  0.82563000  1.0
  H  H8  1  0.80838000  0.06781000  0.38017000  1.0
  H  H9  1  0.19162000  0.93218000  0.61983000  1.0
  H  H10  1  0.04886000  0.29885000  0.25692000  1.0
  H  H11  1  0.95114000  0.70116000  0.74308000  1.0
  H  H12  1  0.84922000  0.33415000  0.30565000  1.0
  H  H13  1  0.15078000  0.66585000  0.69434000  1.0
  H  H14  1  0.13010000  0.53635000  0.43931000  1.0
  H  H15  1  0.86988000  0.46365000  0.56069000  1.0
  H  H16  1  0.92381000  0.73794000  0.23273000  1.0
  H  H17  1  0.07619000  0.26207000  0.76727000  1.0
  H  H18  1  0.07229000  0.68232000  0.13448000  1.0
  H  H19  1  0.92772000  0.31769000  0.86553000  1.0
  H  H20  1  0.21946000  0.53942000  0.25202000  1.0
  H  H21  1  0.78054000  0.46059000  0.74799000  1.0
  H  H22  1  0.46221000  0.62577000  0.82864000  1.0
  H  H23  1  0.53780000  0.37421000  0.17135000  1.0
  H  H24  1  0.85309000  0.04038000  0.00753000  1.0
  H  H25  1  0.14690000  0.95962000  0.99247000  1.0
  H  H26  1  0.47889000  0.63209000  0.62707000  1.0
  H  H27  1  0.52111000  0.36790000  0.37292000  1.0
  H  H28  1  0.84753000  0.03010000  0.79505000  1.0
  H  H29  1  0.15246000  0.96990000  0.20495000  1.0
  H  H30  1  0.81062000  0.48471000  0.01621000  1.0
  H  H31  1  0.18939000  0.51530000  0.98379000  1.0
  H  H32  1  0.77511000  0.26804000  0.07484000  1.0
  H  H33  1  0.22489000  0.73196000  0.92516000  1.0
  C  C34  1  0.54943000  0.72656000  0.08343000  1.0
  C  C35  1  0.45058000  0.27343000  0.91656000  1.0
  C  C36  1  0.64863000  0.84339000  0.06715000  1.0
  C  C37  1  0.35138000  0.15660000  0.93285000  1.0
  C  C38  1  0.54715000  0.73941000  0.20397000  1.0
  C  C39  1  0.45285000  0.26058000  0.79603000  1.0
  C  C40  1  0.74051000  0.96872000  0.17711000  1.0
  C  C41  1  0.25950000  0.03128000  0.82288000  1.0
  C  C42  1  0.73252000  0.97286000  0.29467000  1.0
  C  C43  1  0.26748000  0.02713000  0.70533000  1.0
  C  C44  1  0.94774000  0.37834000  0.26737000  1.0
  C  C45  1  0.05226000  0.62166000  0.73264000  1.0
  C  C46  1  0.88113000  0.49419000  0.10823000  1.0
  C  C47  1  0.11887000  0.50583000  0.89177000  1.0
  C  C48  1  0.86148000  0.37439000  0.14145000  1.0
  C  C49  1  0.13852000  0.62561000  0.85855000  1.0
  C  C50  1  0.89616000  0.64240000  0.42092000  1.0
  C  C51  1  0.10384000  0.35760000  0.57909000  1.0
  C  C52  1  0.03198000  0.54243000  0.36184000  1.0
  C  C53  1  0.96801000  0.45757000  0.63816000  1.0
  C  C54  1  0.00022000  0.64309000  0.19099000  1.0
  C  C55  1  0.99978000  0.35691000  0.80902000  1.0
  C  C56  1  0.13013000  0.62200000  0.29512000  1.0
  C  C57  1  0.86986000  0.37800000  0.70489000  1.0
  C  C58  1  0.25273000  0.77078000  0.38507000  1.0
  C  C59  1  0.74728000  0.22922000  0.61493000  1.0
  C  C60  1  0.65615000  0.83501000  0.94065000  1.0
  C  C61  1  0.34386000  0.16498000  0.05935000  1.0
  C  C62  1  0.55347000  0.71808000  0.82934000  1.0
  C  C63  1  0.44653000  0.28191000  0.17065000  1.0
  C  C64  1  0.76664000  0.94729000  0.92686000  1.0
  C  C65  1  0.23336000  0.05270000  0.07314000  1.0
  C  C66  1  0.56113000  0.72056000  0.71354000  1.0
  C  C67  1  0.43887000  0.27944000  0.28646000  1.0
  C  C68  1  0.76663000  0.94213000  0.80827000  1.0
  C  C69  1  0.23337000  0.05787000  0.19173000  1.0
  N  N70  1  0.63651000  0.85994000  0.30828000  1.0
  N  N71  1  0.36349000  0.14005000  0.69172000  1.0
  N  N72  1  0.66465000  0.83141000  0.70285000  1.0
  N  N73  1  0.33535000  0.16859000  0.29715000  1.0
  O  O74  1  0.73415000  0.58547000  0.39194000  1.0
  O  O75  1  0.26585000  0.41454000  0.60806000  1.0
  O  O76  1  0.95316000  0.78354000  0.49752000  1.0
  O  O77  1  0.04684000  0.21646000  0.50248000  1.0
  O  O78  1  0.23116000  0.89454000  0.36776000  1.0
  O  O79  1  0.76884000  0.10547000  0.63224000  1.0
  O  O80  1  0.37425000  0.75665000  0.46681000  1.0
  O  O81  1  0.62576000  0.24336000  0.53320000  1.0
