# generated using pymatgen
data_DyH31C27(NO3)2
_symmetry_space_group_name_H-M   'P 1'
_cell_length_a   7.95160000
_cell_length_b   8.46018000
_cell_length_c   19.59760000
_cell_angle_alpha   90.00000000
_cell_angle_beta   98.25560000
_cell_angle_gamma   90.00000000
_symmetry_Int_Tables_number   1
_chemical_formula_structural   DyH31C27(NO3)2
_chemical_formula_sum   'Dy2 H62 C54 N4 O12'
_cell_volume   1304.70731819
_cell_formula_units_Z   2
loop_
 _symmetry_equiv_pos_site_id
 _symmetry_equiv_pos_as_xyz
  1  'x, y, z'
loop_
 _atom_site_type_symbol
 _atom_site_label
 _atom_site_symmetry_multiplicity
 _atom_site_fract_x
 _atom_site_fract_y
 _atom_site_fract_z
 _atom_site_occupancy
  Dy  Dy0  1  0.50000000  0.66364000  0.75000000  1.0
  Dy  Dy1  1  0.50000000  0.33636000  0.25000000  1.0
  H  H2  1  0.47972000  0.87988000  0.59478000  1.0
  H  H3  1  0.52027000  0.87988000  0.90523000  1.0
  H  H4  1  0.52025000  0.12012000  0.40523000  1.0
  H  H5  1  0.47972000  0.12012000  0.09477000  1.0
  H  H6  1  0.09116000  0.76245000  0.63759000  1.0
  H  H7  1  0.90883000  0.76246000  0.86241000  1.0
  H  H8  1  0.90882000  0.23756000  0.36242000  1.0
  H  H9  1  0.09116000  0.23756000  0.13759000  1.0
  H  H10  1  0.50000000  0.23249000  0.75000000  1.0
  H  H11  1  0.50001000  0.76752000  0.25000000  1.0
  H  H12  1  0.52605000  0.33644000  0.55087000  1.0
  H  H13  1  0.47396000  0.33645000  0.94913000  1.0
  H  H14  1  0.47397000  0.66357000  0.44913000  1.0
  H  H15  1  0.52605000  0.66355000  0.05087000  1.0
  H  H16  1  0.91779000  0.33994000  0.67194000  1.0
  H  H17  1  0.08223000  0.33994000  0.82807000  1.0
  H  H18  1  0.08222000  0.66006000  0.32807000  1.0
  H  H19  1  0.91779000  0.66005000  0.17193000  1.0
  H  H20  1  0.81730000  0.27366000  0.58898000  1.0
  H  H21  1  0.18273000  0.27367000  0.91103000  1.0
  H  H22  1  0.18273000  0.72633000  0.41103000  1.0
  H  H23  1  0.81728000  0.72632000  0.08897000  1.0
  H  H24  1  0.78286000  0.17179000  0.66514000  1.0
  H  H25  1  0.21715000  0.17179000  0.83487000  1.0
  H  H26  1  0.21716000  0.82820000  0.33487000  1.0
  H  H27  1  0.78286000  0.82820000  0.16513000  1.0
  H  H28  1  0.88663000  0.66299000  0.71245000  1.0
  H  H29  1  0.11337000  0.66301000  0.78756000  1.0
  H  H30  1  0.11336000  0.33699000  0.28756000  1.0
  H  H31  1  0.88663000  0.33700000  0.21244000  1.0
  H  H32  1  0.90541000  0.08219000  0.81799000  1.0
  H  H33  1  0.09459000  0.08218000  0.68200000  1.0
  H  H34  1  0.09460000  0.91782000  0.18200000  1.0
  H  H35  1  0.90542000  0.91782000  0.31800000  1.0
  H  H36  1  0.77219000  0.13501000  0.87925000  1.0
  H  H37  1  0.22779000  0.13501000  0.62075000  1.0
  H  H38  1  0.22783000  0.86501000  0.12075000  1.0
  H  H39  1  0.77218000  0.86501000  0.37925000  1.0
  H  H40  1  0.77151000  0.25452000  0.80442000  1.0
  H  H41  1  0.22847000  0.25453000  0.69557000  1.0
  H  H42  1  0.22849000  0.74547000  0.19557000  1.0
  H  H43  1  0.77151000  0.74548000  0.30443000  1.0
  H  H44  1  0.14442000  0.89655000  0.53743000  1.0
  H  H45  1  0.85557000  0.89655000  0.96257000  1.0
  H  H46  1  0.85555000  0.10346000  0.46258000  1.0
  H  H47  1  0.14443000  0.10346000  0.03742000  1.0
  H  H48  1  0.14211000  0.57764000  0.53521000  1.0
  H  H49  1  0.85790000  0.57767000  0.96480000  1.0
  H  H50  1  0.85790000  0.42234000  0.46479000  1.0
  H  H51  1  0.14211000  0.42236000  0.03520000  1.0
  H  H52  1  0.14161000  0.37096000  0.54909000  1.0
  H  H53  1  0.85839000  0.37099000  0.95090000  1.0
  H  H54  1  0.85840000  0.62902000  0.45090000  1.0
  H  H55  1  0.14161000  0.62904000  0.04909000  1.0
  H  H56  1  0.27130000  0.45015000  0.49072000  1.0
  H  H57  1  0.72873000  0.45017000  0.00929000  1.0
  H  H58  1  0.72872000  0.54983000  0.50928000  1.0
  H  H59  1  0.27128000  0.54984000  0.99072000  1.0
  H  H60  1  0.66278000  0.98490000  0.51179000  1.0
  H  H61  1  0.33720000  0.98491000  0.98821000  1.0
  H  H62  1  0.33719000  0.01509000  0.48822000  1.0
  H  H63  1  0.66279000  0.01510000  0.01178000  1.0
  C  C64  1  0.64153000  0.02903000  0.78760000  1.0
  C  C65  1  0.35847000  0.02904000  0.71240000  1.0
  C  C66  1  0.35847000  0.97097000  0.21240000  1.0
  C  C67  1  0.64154000  0.97097000  0.28760000  1.0
  C  C68  1  0.61622000  0.85701000  0.60182000  1.0
  C  C69  1  0.38377000  0.85703000  0.89818000  1.0
  C  C70  1  0.38375000  0.14297000  0.39818000  1.0
  C  C71  1  0.61623000  0.14297000  0.10182000  1.0
  C  C72  1  0.65123000  0.39209000  0.65220000  1.0
  C  C73  1  0.34878000  0.39209000  0.84781000  1.0
  C  C74  1  0.34878000  0.60789000  0.34780000  1.0
  C  C75  1  0.65123000  0.60789000  0.15220000  1.0
  C  C76  1  0.36396000  0.48858000  0.59954000  1.0
  C  C77  1  0.63604000  0.48861000  0.90046000  1.0
  C  C78  1  0.63604000  0.51140000  0.40046000  1.0
  C  C79  1  0.36396000  0.51141000  0.09954000  1.0
  C  C80  1  0.95627000  0.79097000  0.62545000  1.0
  C  C81  1  0.04373000  0.79098000  0.87455000  1.0
  C  C82  1  0.04371000  0.20902000  0.37455000  1.0
  C  C83  1  0.95627000  0.20903000  0.12545000  1.0
  C  C84  1  0.50000000  0.10411000  0.75000000  1.0
  C  C85  1  0.50001000  0.89589000  0.25000000  1.0
  C  C86  1  0.51587000  0.40344000  0.59759000  1.0
  C  C87  1  0.48415000  0.40346000  0.90242000  1.0
  C  C88  1  0.48415000  0.59655000  0.40241000  1.0
  C  C89  1  0.51586000  0.59654000  0.09758000  1.0
  C  C90  1  0.80159000  0.28934000  0.64328000  1.0
  C  C91  1  0.19844000  0.28934000  0.85673000  1.0
  C  C92  1  0.19843000  0.71066000  0.35672000  1.0
  C  C93  1  0.80158000  0.71065000  0.14328000  1.0
  C  C94  1  0.84308000  0.73726000  0.66797000  1.0
  C  C95  1  0.15692000  0.73727000  0.83204000  1.0
  C  C96  1  0.15691000  0.26273000  0.33204000  1.0
  C  C97  1  0.84308000  0.26275000  0.16796000  1.0
  C  C98  1  0.78109000  0.13267000  0.82369000  1.0
  C  C99  1  0.21890000  0.13267000  0.67631000  1.0
  C  C100  1  0.21892000  0.86733000  0.17631000  1.0
  C  C101  1  0.78108000  0.86734000  0.32369000  1.0
  C  C102  1  0.01617000  0.94525000  0.52519000  1.0
  C  C103  1  0.98382000  0.94525000  0.97481000  1.0
  C  C104  1  0.98381000  0.05475000  0.47482000  1.0
  C  C105  1  0.01618000  0.05476000  0.02519000  1.0
  C  C106  1  0.89518000  0.88488000  0.56799000  1.0
  C  C107  1  0.10482000  0.88489000  0.93202000  1.0
  C  C108  1  0.10481000  0.11512000  0.43202000  1.0
  C  C109  1  0.89518000  0.11513000  0.06798000  1.0
  C  C110  1  0.22264000  0.47185000  0.53952000  1.0
  C  C111  1  0.77737000  0.47188000  0.96048000  1.0
  C  C112  1  0.77736000  0.52813000  0.46047000  1.0
  C  C113  1  0.22264000  0.52814000  0.03952000  1.0
  C  C114  1  0.71936000  0.91581000  0.55618000  1.0
  C  C115  1  0.28063000  0.91582000  0.94382000  1.0
  C  C116  1  0.28062000  0.08418000  0.44383000  1.0
  C  C117  1  0.71936000  0.08420000  0.05618000  1.0
  N  N118  1  0.67577000  0.76937000  0.65732000  1.0
  N  N119  1  0.32422000  0.76938000  0.84268000  1.0
  N  N120  1  0.32421000  0.23062000  0.34268000  1.0
  N  N121  1  0.67577000  0.23062000  0.15732000  1.0
  O  O122  1  0.65621000  0.46042000  0.71082000  1.0
  O  O123  1  0.34381000  0.46042000  0.78919000  1.0
  O  O124  1  0.34379000  0.53956000  0.28919000  1.0
  O  O125  1  0.65621000  0.53958000  0.21081000  1.0
  O  O126  1  0.66061000  0.87916000  0.79499000  1.0
  O  O127  1  0.33940000  0.87917000  0.70500000  1.0
  O  O128  1  0.33940000  0.12084000  0.20500000  1.0
  O  O129  1  0.66060000  0.12084000  0.29500000  1.0
  O  O130  1  0.33456000  0.57745000  0.64919000  1.0
  O  O131  1  0.66544000  0.57748000  0.85082000  1.0
  O  O132  1  0.66544000  0.42253000  0.35081000  1.0
  O  O133  1  0.33456000  0.42254000  0.14918000  1.0
