# generated using pymatgen
data_Cd3H26C44Br4(N4O9)2
_symmetry_space_group_name_H-M   'P 1'
_cell_length_a   8.67043000
_cell_length_b   10.21700000
_cell_length_c   14.75880000
_cell_angle_alpha   104.55250000
_cell_angle_beta   90.36310000
_cell_angle_gamma   107.72110000
_symmetry_Int_Tables_number   1
_chemical_formula_structural   Cd3H26C44Br4(N4O9)2
_chemical_formula_sum   'Cd3 H26 C44 Br4 N8 O18'
_cell_volume   1200.55448737
_cell_formula_units_Z   1
loop_
 _symmetry_equiv_pos_site_id
 _symmetry_equiv_pos_as_xyz
  1  'x, y, z'
loop_
 _atom_site_type_symbol
 _atom_site_label
 _atom_site_symmetry_multiplicity
 _atom_site_fract_x
 _atom_site_fract_y
 _atom_site_fract_z
 _atom_site_occupancy
  Cd  Cd0  1  0.50000000  0.00000000  0.50000000  1.0
  Cd  Cd1  1  0.86179000  0.55415000  0.60079000  1.0
  Cd  Cd2  1  0.13821000  0.44585000  0.39921000  1.0
  H  H3  1  0.62374000  0.58391000  0.94887000  1.0
  H  H4  1  0.37626000  0.41609000  0.05113000  1.0
  H  H5  1  0.02668000  0.14110000  0.64193000  1.0
  H  H6  1  0.97332000  0.85890000  0.35807000  1.0
  H  H7  1  0.49025000  0.16021000  0.74757000  1.0
  H  H8  1  0.50975000  0.83979000  0.25243000  1.0
  H  H9  1  0.19000000  0.65760000  0.62183000  1.0
  H  H10  1  0.81000000  0.34240000  0.37817000  1.0
  H  H11  1  0.16254000  0.80303000  0.61800000  1.0
  H  H12  1  0.83746000  0.19697000  0.38200000  1.0
  H  H13  1  0.52047000  0.49144000  0.39968000  1.0
  H  H14  1  0.47953000  0.50856000  0.60032000  1.0
  H  H15  1  0.68984000  0.54215000  0.26934000  1.0
  H  H16  1  0.31016000  0.45785000  0.73066000  1.0
  H  H17  1  0.60217000  0.09082000  0.15366000  1.0
  H  H18  1  0.39783000  0.90918000  0.84634000  1.0
  H  H19  1  0.42981000  0.04121000  0.28206000  1.0
  H  H20  1  0.57019000  0.95879000  0.71794000  1.0
  H  H21  1  0.64515000  0.82057000  0.95539000  1.0
  H  H22  1  0.35485000  0.17943000  0.04461000  1.0
  H  H23  1  0.74966000  0.08289000  0.98508000  1.0
  H  H24  1  0.25034000  0.91711000  0.01492000  1.0
  H  H25  1  0.13666000  0.04458000  0.80863000  1.0
  H  H26  1  0.86334000  0.95542000  0.19138000  1.0
  H  H27  1  0.03033000  0.78323000  0.77579000  1.0
  H  H28  1  0.96967000  0.21677000  0.22421000  1.0
  C  C29  1  0.17944000  0.03698000  0.58571000  1.0
  C  C30  1  0.82056000  0.96302000  0.41429000  1.0
  C  C31  1  0.23165000  0.14022000  0.53010000  1.0
  C  C32  1  0.76835000  0.85978000  0.46990000  1.0
  C  C33  1  0.17819000  0.25413000  0.52439000  1.0
  C  C34  1  0.82181000  0.74587000  0.47561000  1.0
  C  C35  1  0.06206000  0.31539000  0.57817000  1.0
  C  C36  1  0.93794000  0.68461000  0.42183000  1.0
  C  C37  1  0.35783000  0.23366000  0.42351000  1.0
  C  C38  1  0.64217000  0.76634000  0.57649000  1.0
  C  C39  1  0.46312000  0.26256000  0.34918000  1.0
  C  C40  1  0.53688000  0.73744000  0.65082000  1.0
  C  C41  1  0.53651000  0.40376000  0.34497000  1.0
  C  C42  1  0.46349000  0.59624000  0.65503000  1.0
  C  C43  1  0.63170000  0.43281000  0.27227000  1.0
  C  C44  1  0.36830000  0.56719000  0.72773000  1.0
  C  C45  1  0.65310000  0.31945000  0.20350000  1.0
  C  C46  1  0.34690000  0.68056000  0.79650000  1.0
  C  C47  1  0.58291000  0.17851000  0.20678000  1.0
  C  C48  1  0.41709000  0.82149000  0.79322000  1.0
  C  C49  1  0.48805000  0.15075000  0.27970000  1.0
  C  C50  1  0.51195000  0.84925000  0.72030000  1.0
  C  C51  1  0.63884000  0.29299000  0.65460000  1.0
  C  C52  1  0.36116000  0.70701000  0.34540000  1.0
  C  C53  1  0.67052000  0.40722000  0.74408000  1.0
  C  C54  1  0.32948000  0.59278000  0.25592000  1.0
  C  C55  1  0.60144000  0.40799000  0.82937000  1.0
  C  C56  1  0.39856000  0.59201000  0.17063000  1.0
  C  C57  1  0.49026000  0.29776000  0.86711000  1.0
  C  C58  1  0.50974000  0.70223000  0.13288000  1.0
  C  C59  1  0.75535000  0.62787000  0.83159000  1.0
  C  C60  1  0.24465000  0.37213000  0.16841000  1.0
  C  C61  1  0.82668000  0.78253000  0.86044000  1.0
  C  C62  1  0.17331000  0.21747000  0.13956000  1.0
  C  C63  1  0.75159000  0.86850000  0.92200000  1.0
  C  C64  1  0.24841000  0.13150000  0.07800000  1.0
  C  C65  1  0.81009000  0.01630000  0.93930000  1.0
  C  C66  1  0.18991000  0.98370000  0.06070000  1.0
  C  C67  1  0.94575000  0.07781000  0.89610000  1.0
  C  C68  1  0.05424000  0.92219000  0.10390000  1.0
  C  C69  1  0.02792000  0.99500000  0.83931000  1.0
  C  C70  1  0.97208000  0.00500000  0.16069000  1.0
  C  C71  1  0.96708000  0.84754000  0.82111000  1.0
  C  C72  1  0.03292000  0.15246000  0.17889000  1.0
  Br  Br73  1  0.78474000  0.35719000  0.10466000  1.0
  Br  Br74  1  0.21526000  0.64281000  0.89534000  1.0
  Br  Br75  1  0.01963000  0.27850000  0.91050000  1.0
  Br  Br76  1  0.98037000  0.72150000  0.08950000  1.0
  N  N77  1  0.34551000  0.12941000  0.46687000  1.0
  N  N78  1  0.65449000  0.87059000  0.53313000  1.0
  N  N79  1  0.25802000  0.31116000  0.45669000  1.0
  N  N80  1  0.74198000  0.68884000  0.54330000  1.0
  N  N81  1  0.76597000  0.54294000  0.74722000  1.0
  N  N82  1  0.23403000  0.45706000  0.25278000  1.0
  N  N83  1  0.65682000  0.54762000  0.88225000  1.0
  N  N84  1  0.34318000  0.45237000  0.11775000  1.0
  O  O85  1  0.24381000  0.93946000  0.57715000  1.0
  O  O86  1  0.75619000  0.06054000  0.42285000  1.0
  O  O87  1  0.06493000  0.04605000  0.64119000  1.0
  O  O88  1  0.93507000  0.95395000  0.35881000  1.0
  O  O89  1  0.98874000  0.25863000  0.64003000  1.0
  O  O90  1  0.01126000  0.74137000  0.35997000  1.0
  O  O91  1  0.04571000  0.42629000  0.55956000  1.0
  O  O92  1  0.95429000  0.57371000  0.44043000  1.0
  O  O93  1  0.68142000  0.32596000  0.57952000  1.0
  O  O94  1  0.31858000  0.67404000  0.42048000  1.0
  O  O95  1  0.56164000  0.16470000  0.65690000  1.0
  O  O96  1  0.43835000  0.83530000  0.34310000  1.0
  O  O97  1  0.44062000  0.16540000  0.81220000  1.0
  O  O98  1  0.55938000  0.83460000  0.18780000  1.0
  O  O99  1  0.44590000  0.32803000  0.94690000  1.0
  O  O100  1  0.55410000  0.67197000  0.05311000  1.0
  O  O101  1  0.11973000  0.71604000  0.64204000  1.0
  O  O102  1  0.88027000  0.28396000  0.35796000  1.0
