# generated using pymatgen
data_MnH4C9(NO2)2
_symmetry_space_group_name_H-M   'P 1'
_cell_length_a   5.84054000
_cell_length_b   10.35310000
_cell_length_c   13.50860000
_cell_angle_alpha   83.81190000
_cell_angle_beta   89.99940000
_cell_angle_gamma   89.99950000
_symmetry_Int_Tables_number   1
_chemical_formula_structural   MnH4C9(NO2)2
_chemical_formula_sum   'Mn4 H16 C36 N8 O16'
_cell_volume   812.07451405
_cell_formula_units_Z   4
loop_
 _symmetry_equiv_pos_site_id
 _symmetry_equiv_pos_as_xyz
  1  'x, y, z'
loop_
 _atom_site_type_symbol
 _atom_site_label
 _atom_site_symmetry_multiplicity
 _atom_site_fract_x
 _atom_site_fract_y
 _atom_site_fract_z
 _atom_site_occupancy
  Mn  Mn0  1  0.28181000  0.25520000  0.66492000  1.0
  Mn  Mn1  1  0.78180000  0.24481000  0.83507000  1.0
  Mn  Mn2  1  0.71747000  0.74458000  0.33463000  1.0
  Mn  Mn3  1  0.21746000  0.75541000  0.16537000  1.0
  H  H4  1  0.66960000  0.17292000  0.27060000  1.0
  H  H5  1  0.16958000  0.32708000  0.22940000  1.0
  H  H6  1  0.33022000  0.82624000  0.72912000  1.0
  H  H7  1  0.83020000  0.67377000  0.77087000  1.0
  H  H8  1  0.38794000  0.07478000  0.47163000  1.0
  H  H9  1  0.88793000  0.42522000  0.02837000  1.0
  H  H10  1  0.61237000  0.92572000  0.52807000  1.0
  H  H11  1  0.11237000  0.57429000  0.97193000  1.0
  H  H12  1  0.83929000  0.41492000  0.56623000  1.0
  H  H13  1  0.33927000  0.08509000  0.93377000  1.0
  H  H14  1  0.15906000  0.58486000  0.43333000  1.0
  H  H15  1  0.65911000  0.91510000  0.06668000  1.0
  H  H16  1  0.61399000  0.35997000  0.41739000  1.0
  H  H17  1  0.11397000  0.14004000  0.08261000  1.0
  H  H18  1  0.38534000  0.63962000  0.58212000  1.0
  H  H19  1  0.88534000  0.86037000  0.91788000  1.0
  C  C20  1  0.18172000  0.02951000  0.34647000  1.0
  C  C21  1  0.68170000  0.47048000  0.15354000  1.0
  C  C22  1  0.81861000  0.97037000  0.65340000  1.0
  C  C23  1  0.31860000  0.52965000  0.84660000  1.0
  C  C24  1  0.97777000  0.05671000  0.29052000  1.0
  C  C25  1  0.47775000  0.44328000  0.20949000  1.0
  C  C26  1  0.02238000  0.94270000  0.70942000  1.0
  C  C27  1  0.52236000  0.55730000  0.79056000  1.0
  C  C28  1  0.82428000  0.15172000  0.31446000  1.0
  C  C29  1  0.32426000  0.34828000  0.18555000  1.0
  C  C30  1  0.17554000  0.84766000  0.68532000  1.0
  C  C31  1  0.67553000  0.65235000  0.81467000  1.0
  C  C32  1  0.87628000  0.21611000  0.39728000  1.0
  C  C33  1  0.37627000  0.28390000  0.10272000  1.0
  C  C34  1  0.12325000  0.78348000  0.60240000  1.0
  C  C35  1  0.62325000  0.71651000  0.89759000  1.0
  C  C36  1  0.07611000  0.18738000  0.45538000  1.0
  C  C37  1  0.57610000  0.31262000  0.04463000  1.0
  C  C38  1  0.92339000  0.81248000  0.54437000  1.0
  C  C39  1  0.42339000  0.68752000  0.95563000  1.0
  C  C40  1  0.23098000  0.09430000  0.42946000  1.0
  C  C41  1  0.73097000  0.40570000  0.07054000  1.0
  C  C42  1  0.76906000  0.90578000  0.57034000  1.0
  C  C43  1  0.26905000  0.59423000  0.92967000  1.0
  C  C44  1  0.35430000  0.93769000  0.31266000  1.0
  C  C45  1  0.85429000  0.56230000  0.18734000  1.0
  C  C46  1  0.64685000  0.06293000  0.68678000  1.0
  C  C47  1  0.14684000  0.43708000  0.81321000  1.0
  C  C48  1  0.92229000  0.98208000  0.20453000  1.0
  C  C49  1  0.42227000  0.51791000  0.29549000  1.0
  C  C50  1  0.07839000  0.01714000  0.79548000  1.0
  C  C51  1  0.57838000  0.48287000  0.70451000  1.0
  C  C52  1  0.89227000  0.34093000  0.51969000  1.0
  C  C53  1  0.39225000  0.15907000  0.98031000  1.0
  C  C54  1  0.10659000  0.65886000  0.47990000  1.0
  C  C55  1  0.60662000  0.84112000  0.02010000  1.0
  N  N56  1  0.76587000  0.31324000  0.44071000  1.0
  N  N57  1  0.26584000  0.18677000  0.05929000  1.0
  N  N58  1  0.23332000  0.68635000  0.55886000  1.0
  N  N59  1  0.73334000  0.81364000  0.94114000  1.0
  N  N60  1  0.07989000  0.26724000  0.53232000  1.0
  N  N61  1  0.57988000  0.23275000  0.96768000  1.0
  N  N62  1  0.91918000  0.73270000  0.46736000  1.0
  N  N63  1  0.41921000  0.76728000  0.03264000  1.0
  O  O64  1  0.49337000  0.88313000  0.37719000  1.0
  O  O65  1  0.99338000  0.61685000  0.12282000  1.0
  O  O66  1  0.50908000  0.11790000  0.62190000  1.0
  O  O67  1  0.00906000  0.38211000  0.87810000  1.0
  O  O68  1  0.36116000  0.91909000  0.22036000  1.0
  O  O69  1  0.86114000  0.58090000  0.27965000  1.0
  O  O70  1  0.63937000  0.08184000  0.77903000  1.0
  O  O71  1  0.13937000  0.41817000  0.72097000  1.0
  O  O72  1  0.90813000  0.85515000  0.22229000  1.0
  O  O73  1  0.40812000  0.64485000  0.27772000  1.0
  O  O74  1  0.09351000  0.14387000  0.77775000  1.0
  O  O75  1  0.59350000  0.35614000  0.72224000  1.0
  O  O76  1  0.89002000  0.04134000  0.12012000  1.0
  O  O77  1  0.39000000  0.45866000  0.37988000  1.0
  O  O78  1  0.11012000  0.95775000  0.87993000  1.0
  O  O79  1  0.61014000  0.54225000  0.62007000  1.0
