# generated using pymatgen
data_ZnH17C27N4O5
_symmetry_space_group_name_H-M   'P 1'
_cell_length_a   15.99690000
_cell_length_b   16.34930000
_cell_length_c   19.99240000
_cell_angle_alpha   89.99990000
_cell_angle_beta   87.07940000
_cell_angle_gamma   89.99980000
_symmetry_Int_Tables_number   1
_chemical_formula_structural   ZnH17C27N4O5
_chemical_formula_sum   'Zn8 H136 C216 N32 O40'
_cell_volume   5221.98301165
_cell_formula_units_Z   8
loop_
 _symmetry_equiv_pos_site_id
 _symmetry_equiv_pos_as_xyz
  1  'x, y, z'
loop_
 _atom_site_type_symbol
 _atom_site_label
 _atom_site_symmetry_multiplicity
 _atom_site_fract_x
 _atom_site_fract_y
 _atom_site_fract_z
 _atom_site_occupancy
  Zn  Zn0  1  0.45390000  0.12244000  0.85367000  1.0
  Zn  Zn1  1  0.54610000  0.62244000  0.64633000  1.0
  Zn  Zn2  1  0.54610000  0.87756000  0.14633000  1.0
  Zn  Zn3  1  0.45390000  0.37756000  0.35367000  1.0
  Zn  Zn4  1  0.05740000  0.69744000  0.33359000  1.0
  Zn  Zn5  1  0.94260000  0.19744000  0.16640000  1.0
  Zn  Zn6  1  0.94260000  0.30256000  0.66641000  1.0
  Zn  Zn7  1  0.05739000  0.80256000  0.83360000  1.0
  H  H8  1  0.95953000  0.66245000  0.60746000  1.0
  H  H9  1  0.04047000  0.16245000  0.89254000  1.0
  H  H10  1  0.04047000  0.33755000  0.39254000  1.0
  H  H11  1  0.95954000  0.83755000  0.10746000  1.0
  H  H12  1  0.80014000  0.47555000  0.52970000  1.0
  H  H13  1  0.19985000  0.97554000  0.97030000  1.0
  H  H14  1  0.19985000  0.52446000  0.47030000  1.0
  H  H15  1  0.80014000  0.02445000  0.02970000  1.0
  H  H16  1  0.78360000  0.53306000  0.73932000  1.0
  H  H17  1  0.21641000  0.03307000  0.76068000  1.0
  H  H18  1  0.21640000  0.46693000  0.26068000  1.0
  H  H19  1  0.78359000  0.96693000  0.23932000  1.0
  H  H20  1  0.66055000  0.48516000  0.55221000  1.0
  H  H21  1  0.33945000  0.98516000  0.94779000  1.0
  H  H22  1  0.33945000  0.51484000  0.44779000  1.0
  H  H23  1  0.66054000  0.01483000  0.05221000  1.0
  H  H24  1  0.51989000  0.29558000  0.65462000  1.0
  H  H25  1  0.48011000  0.79558000  0.84539000  1.0
  H  H26  1  0.48011000  0.70441000  0.34538000  1.0
  H  H27  1  0.51989000  0.20441000  0.15461000  1.0
  H  H28  1  0.74697000  0.38537000  0.73637000  1.0
  H  H29  1  0.25303000  0.88537000  0.76363000  1.0
  H  H30  1  0.25303000  0.61462000  0.26363000  1.0
  H  H31  1  0.74697000  0.11462000  0.23637000  1.0
  H  H32  1  0.32556000  0.88036000  0.31480000  1.0
  H  H33  1  0.67444000  0.38036000  0.18520000  1.0
  H  H34  1  0.67445000  0.11965000  0.68520000  1.0
  H  H35  1  0.32556000  0.61964000  0.81480000  1.0
  H  H36  1  0.45959000  0.90320000  0.37230000  1.0
  H  H37  1  0.54041000  0.40319000  0.12770000  1.0
  H  H38  1  0.54042000  0.09681000  0.62771000  1.0
  H  H39  1  0.45958000  0.59680000  0.87230000  1.0
  H  H40  1  0.35178000  0.78789000  0.55018000  1.0
  H  H41  1  0.64821000  0.28789000  0.94982000  1.0
  H  H42  1  0.64821000  0.21211000  0.44982000  1.0
  H  H43  1  0.35179000  0.71211000  0.05018000  1.0
  H  H44  1  0.22363000  0.75430000  0.48893000  1.0
  H  H45  1  0.77637000  0.25430000  0.01107000  1.0
  H  H46  1  0.77636000  0.24570000  0.51107000  1.0
  H  H47  1  0.22364000  0.74570000  0.98893000  1.0
  H  H48  1  0.61790000  0.86019000  0.58103000  1.0
  H  H49  1  0.38210000  0.36019000  0.91897000  1.0
  H  H50  1  0.38209000  0.13981000  0.41897000  1.0
  H  H51  1  0.61790000  0.63981000  0.08103000  1.0
  H  H52  1  0.61925000  0.91673000  0.69776000  1.0
  H  H53  1  0.38075000  0.41673000  0.80224000  1.0
  H  H54  1  0.38075000  0.08327000  0.30224000  1.0
  H  H55  1  0.61925000  0.58327000  0.19776000  1.0
  H  H56  1  0.36912000  0.00619000  0.67941000  1.0
  H  H57  1  0.63088000  0.50620000  0.82059000  1.0
  H  H58  1  0.63088000  0.99380000  0.32059000  1.0
  H  H59  1  0.36912000  0.49380000  0.17941000  1.0
  H  H60  1  0.36540000  0.94532000  0.56538000  1.0
  H  H61  1  0.63460000  0.44532000  0.93462000  1.0
  H  H62  1  0.63460000  0.05468000  0.43462000  1.0
  H  H63  1  0.36540000  0.55467000  0.06538000  1.0
  H  H64  1  0.18791000  0.59469000  0.09216000  1.0
  H  H65  1  0.81210000  0.09469000  0.40784000  1.0
  H  H66  1  0.81209000  0.40532000  0.90784000  1.0
  H  H67  1  0.18791000  0.90531000  0.59216000  1.0
  H  H68  1  0.16535000  0.48734000  0.00618000  1.0
  H  H69  1  0.83467000  0.98735000  0.49382000  1.0
  H  H70  1  0.83466000  0.51266000  0.99382000  1.0
  H  H71  1  0.16534000  0.01266000  0.50618000  1.0
  H  H72  1  0.94787000  0.40193000  0.12269000  1.0
  H  H73  1  0.05213000  0.90193000  0.37731000  1.0
  H  H74  1  0.05213000  0.59807000  0.87731000  1.0
  H  H75  1  0.94787000  0.09807000  0.62269000  1.0
  H  H76  1  0.97533000  0.50525000  0.21025000  1.0
  H  H77  1  0.02468000  0.00525000  0.28975000  1.0
  H  H78  1  0.02468000  0.49475000  0.78975000  1.0
  H  H79  1  0.97533000  0.99475000  0.71025000  1.0
  H  H80  1  0.19586000  0.32935000  0.04539000  1.0
  H  H81  1  0.80414000  0.82935000  0.45461000  1.0
  H  H82  1  0.80414000  0.67065000  0.95461000  1.0
  H  H83  1  0.19586000  0.17065000  0.54539000  1.0
  H  H84  1  0.30739000  0.26282000  0.97356000  1.0
  H  H85  1  0.69261000  0.76282000  0.52644000  1.0
  H  H86  1  0.69261000  0.73717000  0.02644000  1.0
  H  H87  1  0.30739000  0.23718000  0.47356000  1.0
  H  H88  1  0.16629000  0.30599000  0.79975000  1.0
  H  H89  1  0.83371000  0.80598000  0.70024000  1.0
  H  H90  1  0.83371000  0.69402000  0.20024000  1.0
  H  H91  1  0.16628000  0.19402000  0.29976000  1.0
  H  H92  1  0.04561000  0.35615000  0.87408000  1.0
  H  H93  1  0.95439000  0.85613000  0.62591000  1.0
  H  H94  1  0.95440000  0.64386000  0.12591000  1.0
  H  H95  1  0.04560000  0.14387000  0.37409000  1.0
  H  H96  1  0.98450000  0.69681000  0.49794000  1.0
  H  H97  1  0.01551000  0.19682000  0.00206000  1.0
  H  H98  1  0.01551000  0.30319000  0.50206000  1.0
  H  H99  1  0.98450000  0.80319000  0.99794000  1.0
  H  H100  1  0.96330000  0.53248000  0.33744000  1.0
  H  H101  1  0.03670000  0.03249000  0.16255000  1.0
  H  H102  1  0.03671000  0.46752000  0.66256000  1.0
  H  H103  1  0.96329000  0.96752000  0.83744000  1.0
  H  H104  1  0.88180000  0.46473000  0.45035000  1.0
  H  H105  1  0.11819000  0.96473000  0.04965000  1.0
  H  H106  1  0.11820000  0.53527000  0.54965000  1.0
  H  H107  1  0.88180000  0.03527000  0.95035000  1.0
  H  H108  1  0.03115000  0.66847000  0.71579000  1.0
  H  H109  1  0.96884000  0.16846000  0.78422000  1.0
  H  H110  1  0.96884000  0.33154000  0.28422000  1.0
  H  H111  1  0.03116000  0.83153000  0.21578000  1.0
  H  H112  1  0.86460000  0.76289000  0.86664000  1.0
  H  H113  1  0.13537000  0.26289000  0.63336000  1.0
  H  H114  1  0.13537000  0.23711000  0.13336000  1.0
  H  H115  1  0.86463000  0.73711000  0.36664000  1.0
  H  H116  1  0.77378000  0.66754000  0.78136000  1.0
  H  H117  1  0.22621000  0.16754000  0.71863000  1.0
  H  H118  1  0.22621000  0.33246000  0.21863000  1.0
  H  H119  1  0.77379000  0.83246000  0.28137000  1.0
  H  H120  1  0.48204000  0.26975000  0.75916000  1.0
  H  H121  1  0.51796000  0.76975000  0.74084000  1.0
  H  H122  1  0.51796000  0.73025000  0.24084000  1.0
  H  H123  1  0.48204000  0.23025000  0.25916000  1.0
  H  H124  1  0.66252000  0.14206000  0.86466000  1.0
  H  H125  1  0.33748000  0.64206000  0.63534000  1.0
  H  H126  1  0.33748000  0.85794000  0.13534000  1.0
  H  H127  1  0.66252000  0.35794000  0.36466000  1.0
  H  H128  1  0.74540000  0.25572000  0.78286000  1.0
  H  H129  1  0.25460000  0.75572000  0.71715000  1.0
  H  H130  1  0.25460000  0.74428000  0.21715000  1.0
  H  H131  1  0.74540000  0.24428000  0.28285000  1.0
  H  H132  1  0.59979000  0.41273000  0.46051000  1.0
  H  H133  1  0.40021000  0.91272000  0.03949000  1.0
  H  H134  1  0.40021000  0.58727000  0.53949000  1.0
  H  H135  1  0.59978000  0.08727000  0.96051000  1.0
  H  H136  1  0.33930000  0.37826000  0.48775000  1.0
  H  H137  1  0.66070000  0.87826000  0.01225000  1.0
  H  H138  1  0.66070000  0.62174000  0.51225000  1.0
  H  H139  1  0.33930000  0.12174000  0.98775000  1.0
  H  H140  1  0.40998000  0.37946000  0.61344000  1.0
  H  H141  1  0.59002000  0.87946000  0.88656000  1.0
  H  H142  1  0.59002000  0.62054000  0.38656000  1.0
  H  H143  1  0.40997000  0.12054000  0.11344000  1.0
  C  C144  1  0.91262000  0.61461000  0.61479000  1.0
  C  C145  1  0.08738000  0.11461000  0.88521000  1.0
  C  C146  1  0.08737000  0.38540000  0.38521000  1.0
  C  C147  1  0.91263000  0.88539000  0.11479000  1.0
  C  C148  1  0.88593000  0.56801000  0.56131000  1.0
  C  C149  1  0.11407000  0.06801000  0.93869000  1.0
  C  C150  1  0.11406000  0.43199000  0.43869000  1.0
  C  C151  1  0.88594000  0.93199000  0.06131000  1.0
  C  C152  1  0.82205000  0.51070000  0.57147000  1.0
  C  C153  1  0.17794000  0.01070000  0.92853000  1.0
  C  C154  1  0.17794000  0.48930000  0.42853000  1.0
  C  C155  1  0.82206000  0.98930000  0.07147000  1.0
  C  C156  1  0.78452000  0.49728000  0.63523000  1.0
  C  C157  1  0.21548000  0.99727000  0.86477000  1.0
  C  C158  1  0.21548000  0.50272000  0.36477000  1.0
  C  C159  1  0.78452000  0.00272000  0.13523000  1.0
  C  C160  1  0.81227000  0.54203000  0.68932000  1.0
  C  C161  1  0.18773000  0.04203000  0.81069000  1.0
  C  C162  1  0.18773000  0.45797000  0.31069000  1.0
  C  C163  1  0.81227000  0.95796000  0.18931000  1.0
  C  C164  1  0.87478000  0.60074000  0.67837000  1.0
  C  C165  1  0.12522000  0.10074000  0.82163000  1.0
  C  C166  1  0.12522000  0.39926000  0.32163000  1.0
  C  C167  1  0.87478000  0.89926000  0.17837000  1.0
  C  C168  1  0.71330000  0.44009000  0.64259000  1.0
  C  C169  1  0.28670000  0.94009000  0.85741000  1.0
  C  C170  1  0.28670000  0.55991000  0.35741000  1.0
  C  C171  1  0.71329000  0.05991000  0.14259000  1.0
  C  C172  1  0.65416000  0.44173000  0.59336000  1.0
  C  C173  1  0.34584000  0.94173000  0.90665000  1.0
  C  C174  1  0.34584000  0.55827000  0.40665000  1.0
  C  C175  1  0.65415000  0.05826000  0.09336000  1.0
  C  C176  1  0.58390000  0.39179000  0.59959000  1.0
  C  C177  1  0.41610000  0.89179000  0.90041000  1.0
  C  C178  1  0.41610000  0.60820000  0.40041000  1.0
  C  C179  1  0.58390000  0.10820000  0.09959000  1.0
  C  C180  1  0.57222000  0.33809000  0.65298000  1.0
  C  C181  1  0.42778000  0.83809000  0.84702000  1.0
  C  C182  1  0.42778000  0.66191000  0.34702000  1.0
  C  C183  1  0.57222000  0.16191000  0.15298000  1.0
  C  C184  1  0.63099000  0.33740000  0.70214000  1.0
  C  C185  1  0.36901000  0.83740000  0.79786000  1.0
  C  C186  1  0.36901000  0.66259000  0.29786000  1.0
  C  C187  1  0.63099000  0.16259000  0.20214000  1.0
  C  C188  1  0.70127000  0.38806000  0.69785000  1.0
  C  C189  1  0.29873000  0.88806000  0.80216000  1.0
  C  C190  1  0.29873000  0.61194000  0.30215000  1.0
  C  C191  1  0.70127000  0.11194000  0.19785000  1.0
  C  C192  1  0.19073000  0.79360000  0.36147000  1.0
  C  C193  1  0.80927000  0.29360000  0.13852000  1.0
  C  C194  1  0.80928000  0.20641000  0.63852000  1.0
  C  C195  1  0.19072000  0.70640000  0.86148000  1.0
  C  C196  1  0.26760000  0.81432000  0.39812000  1.0
  C  C197  1  0.73240000  0.31432000  0.10188000  1.0
  C  C198  1  0.73241000  0.18569000  0.60187000  1.0
  C  C199  1  0.26760000  0.68568000  0.89812000  1.0
  C  C200  1  0.33307000  0.85835000  0.36566000  1.0
  C  C201  1  0.66693000  0.35834000  0.13434000  1.0
  C  C202  1  0.66693000  0.14166000  0.63434000  1.0
  C  C203  1  0.33307000  0.64166000  0.86566000  1.0
  C  C204  1  0.40700000  0.87185000  0.39778000  1.0
  C  C205  1  0.59300000  0.37185000  0.10222000  1.0
  C  C206  1  0.59300000  0.12815000  0.60223000  1.0
  C  C207  1  0.40700000  0.62815000  0.89777000  1.0
  C  C208  1  0.41414000  0.84707000  0.46445000  1.0
  C  C209  1  0.58586000  0.34707000  0.03555000  1.0
  C  C210  1  0.58586000  0.15293000  0.53555000  1.0
  C  C211  1  0.41414000  0.65293000  0.96445000  1.0
  C  C212  1  0.34698000  0.80642000  0.49805000  1.0
  C  C213  1  0.65302000  0.30642000  0.00194000  1.0
  C  C214  1  0.65301000  0.19359000  0.50194000  1.0
  C  C215  1  0.34698000  0.69358000  0.99805000  1.0
  C  C216  1  0.27530000  0.78800000  0.46431000  1.0
  C  C217  1  0.72470000  0.28800000  0.03569000  1.0
  C  C218  1  0.72470000  0.21201000  0.53569000  1.0
  C  C219  1  0.27530000  0.71200000  0.96431000  1.0
  C  C220  1  0.49451000  0.86265000  0.49723000  1.0
  C  C221  1  0.50549000  0.36265000  0.00277000  1.0
  C  C222  1  0.50548000  0.13735000  0.50277000  1.0
  C  C223  1  0.49452000  0.63735000  0.99723000  1.0
  C  C224  1  0.49133000  0.89649000  0.56666000  1.0
  C  C225  1  0.50867000  0.39649000  0.93334000  1.0
  C  C226  1  0.50867000  0.10351000  0.43335000  1.0
  C  C227  1  0.49133000  0.60351000  0.06665000  1.0
  C  C228  1  0.56309000  0.89037000  0.60398000  1.0
  C  C229  1  0.43691000  0.39037000  0.89602000  1.0
  C  C230  1  0.43691000  0.10963000  0.39602000  1.0
  C  C231  1  0.56309000  0.60963000  0.10398000  1.0
  C  C232  1  0.56413000  0.92255000  0.66823000  1.0
  C  C233  1  0.43588000  0.42255000  0.83177000  1.0
  C  C234  1  0.43587000  0.07745000  0.33177000  1.0
  C  C235  1  0.56413000  0.57745000  0.16823000  1.0
  C  C236  1  0.49367000  0.96392000  0.69582000  1.0
  C  C237  1  0.50633000  0.46392000  0.80418000  1.0
  C  C238  1  0.50633000  0.03608000  0.30418000  1.0
  C  C239  1  0.49368000  0.53608000  0.19582000  1.0
  C  C240  1  0.42238000  0.97176000  0.65822000  1.0
  C  C241  1  0.57762000  0.47177000  0.84178000  1.0
  C  C242  1  0.57762000  0.02823000  0.34178000  1.0
  C  C243  1  0.42238000  0.52823000  0.15822000  1.0
  C  C244  1  0.42066000  0.93771000  0.59450000  1.0
  C  C245  1  0.57934000  0.43771000  0.90551000  1.0
  C  C246  1  0.57934000  0.06229000  0.40551000  1.0
  C  C247  1  0.42066000  0.56229000  0.09449000  1.0
  C  C248  1  0.49691000  0.00336000  0.76367000  1.0
  C  C249  1  0.50309000  0.50336000  0.73633000  1.0
  C  C250  1  0.50309000  0.99663000  0.23633000  1.0
  C  C251  1  0.49691000  0.49664000  0.26367000  1.0
  C  C252  1  0.09864000  0.61998000  0.20885000  1.0
  C  C253  1  0.90136000  0.11999000  0.29116000  1.0
  C  C254  1  0.90137000  0.38002000  0.79116000  1.0
  C  C255  1  0.09864000  0.88001000  0.70885000  1.0
  C  C256  1  0.08479000  0.55468000  0.15739000  1.0
  C  C257  1  0.91522000  0.05468000  0.34262000  1.0
  C  C258  1  0.91522000  0.44532000  0.84261000  1.0
  C  C259  1  0.08479000  0.94532000  0.65739000  1.0
  C  C260  1  0.13750000  0.55020000  0.09931000  1.0
  C  C261  1  0.86251000  0.05021000  0.40070000  1.0
  C  C262  1  0.86251000  0.44980000  0.90069000  1.0
  C  C263  1  0.13749000  0.94980000  0.59931000  1.0
  C  C264  1  0.12423000  0.49060000  0.05129000  1.0
  C  C265  1  0.87578000  0.99061000  0.44872000  1.0
  C  C266  1  0.87578000  0.50940000  0.94871000  1.0
  C  C267  1  0.12423000  0.00940000  0.55129000  1.0
  C  C268  1  0.05619000  0.43637000  0.05962000  1.0
  C  C269  1  0.94382000  0.93637000  0.44039000  1.0
  C  C270  1  0.94382000  0.56363000  0.94038000  1.0
  C  C271  1  0.05619000  0.06363000  0.55962000  1.0
  C  C272  1  0.00146000  0.44291000  0.11661000  1.0
  C  C273  1  0.99855000  0.94291000  0.38338000  1.0
  C  C274  1  0.99855000  0.55709000  0.88338000  1.0
  C  C275  1  0.00145000  0.05709000  0.61662000  1.0
  C  C276  1  0.01691000  0.50042000  0.16556000  1.0
  C  C277  1  0.98310000  0.00043000  0.33444000  1.0
  C  C278  1  0.98310000  0.49958000  0.83444000  1.0
  C  C279  1  0.01691000  0.99957000  0.66556000  1.0
  C  C280  1  0.04068000  0.37200000  0.00923000  1.0
  C  C281  1  0.95933000  0.87200000  0.49076000  1.0
  C  C282  1  0.95933000  0.62800000  0.99076000  1.0
  C  C283  1  0.04067000  0.12800000  0.50924000  1.0
  C  C284  1  0.11262000  0.34465000  0.96427000  1.0
  C  C285  1  0.88739000  0.84464000  0.53572000  1.0
  C  C286  1  0.88739000  0.65536000  0.03572000  1.0
  C  C287  1  0.11261000  0.15536000  0.46428000  1.0
  C  C288  1  0.18768000  0.32093000  0.99200000  1.0
  C  C289  1  0.81232000  0.82093000  0.50799000  1.0
  C  C290  1  0.81232000  0.67907000  0.00799000  1.0
  C  C291  1  0.18768000  0.17907000  0.49201000  1.0
  C  C292  1  0.25054000  0.28462000  0.95169000  1.0
  C  C293  1  0.74947000  0.78462000  0.54830000  1.0
  C  C294  1  0.74946000  0.71538000  0.04831000  1.0
  C  C295  1  0.25053000  0.21539000  0.45169000  1.0
  C  C296  1  0.24257000  0.27805000  0.88232000  1.0
  C  C297  1  0.75743000  0.77805000  0.61767000  1.0
  C  C298  1  0.75743000  0.72194000  0.11767000  1.0
  C  C299  1  0.24257000  0.22195000  0.38233000  1.0
  C  C300  1  0.17031000  0.30784000  0.85399000  1.0
  C  C301  1  0.82970000  0.80783000  0.64600000  1.0
  C  C302  1  0.82970000  0.69217000  0.14600000  1.0
  C  C303  1  0.17030000  0.19218000  0.35400000  1.0
  C  C304  1  0.10399000  0.33709000  0.89508000  1.0
  C  C305  1  0.89601000  0.83708000  0.60492000  1.0
  C  C306  1  0.89601000  0.66292000  0.10492000  1.0
  C  C307  1  0.10398000  0.16292000  0.39509000  1.0
  C  C308  1  0.31165000  0.23731000  0.84017000  1.0
  C  C309  1  0.68836000  0.73732000  0.65982000  1.0
  C  C310  1  0.68835000  0.76268000  0.15983000  1.0
  C  C311  1  0.31164000  0.26269000  0.34018000  1.0
  C  C312  1  0.96801000  0.64272000  0.46981000  1.0
  C  C313  1  0.03199000  0.14272000  0.03019000  1.0
  C  C314  1  0.03199000  0.35728000  0.53019000  1.0
  C  C315  1  0.96801000  0.85728000  0.96981000  1.0
  C  C316  1  0.95393000  0.55608000  0.38791000  1.0
  C  C317  1  0.04607000  0.05608000  0.11209000  1.0
  C  C318  1  0.04607000  0.44392000  0.61209000  1.0
  C  C319  1  0.95393000  0.94392000  0.88791000  1.0
  C  C320  1  0.91322000  0.52280000  0.44314000  1.0
  C  C321  1  0.08678000  0.02280000  0.05686000  1.0
  C  C322  1  0.08678000  0.47720000  0.55686000  1.0
  C  C323  1  0.91322000  0.97720000  0.94314000  1.0
  C  C324  1  0.97384000  0.68156000  0.74512000  1.0
  C  C325  1  0.02616000  0.18155000  0.75489000  1.0
  C  C326  1  0.02615000  0.31845000  0.25489000  1.0
  C  C327  1  0.97385000  0.81844000  0.24511000  1.0
  C  C328  1  0.88572000  0.72751000  0.82324000  1.0
  C  C329  1  0.11427000  0.22751000  0.67676000  1.0
  C  C330  1  0.11427000  0.27249000  0.17676000  1.0
  C  C331  1  0.88573000  0.77249000  0.32324000  1.0
  C  C332  1  0.84044000  0.67879000  0.78283000  1.0
  C  C333  1  0.15955000  0.17879000  0.71717000  1.0
  C  C334  1  0.15955000  0.32121000  0.21717000  1.0
  C  C335  1  0.84045000  0.82121000  0.28283000  1.0
  C  C336  1  0.54207000  0.24994000  0.77640000  1.0
  C  C337  1  0.45792000  0.74994000  0.72360000  1.0
  C  C338  1  0.45792000  0.75006000  0.22361000  1.0
  C  C339  1  0.54207000  0.25006000  0.27640000  1.0
  C  C340  1  0.63704000  0.18692000  0.83154000  1.0
  C  C341  1  0.36296000  0.68692000  0.66846000  1.0
  C  C342  1  0.36296000  0.81307000  0.16847000  1.0
  C  C343  1  0.63704000  0.31307000  0.33154000  1.0
  C  C344  1  0.67914000  0.24209000  0.79079000  1.0
  C  C345  1  0.32086000  0.74209000  0.70922000  1.0
  C  C346  1  0.32086000  0.75791000  0.20922000  1.0
  C  C347  1  0.67914000  0.25791000  0.29078000  1.0
  C  C348  1  0.53788000  0.40406000  0.48378000  1.0
  C  C349  1  0.46213000  0.90406000  0.01622000  1.0
  C  C350  1  0.46213000  0.59593000  0.51622000  1.0
  C  C351  1  0.53787000  0.09593000  0.98378000  1.0
  C  C352  1  0.40340000  0.38678000  0.50132000  1.0
  C  C353  1  0.59661000  0.88678000  0.99868000  1.0
  C  C354  1  0.59661000  0.61322000  0.49868000  1.0
  C  C355  1  0.40339000  0.11322000  0.00132000  1.0
  C  C356  1  0.43728000  0.38415000  0.56285000  1.0
  C  C357  1  0.56272000  0.88415000  0.93715000  1.0
  C  C358  1  0.56272000  0.61585000  0.43715000  1.0
  C  C359  1  0.43728000  0.11585000  0.06285000  1.0
  N  N360  1  0.92203000  0.57814000  0.49522000  1.0
  N  N361  1  0.07797000  0.07814000  0.00478000  1.0
  N  N362  1  0.07797000  0.42187000  0.50478000  1.0
  N  N363  1  0.92203000  0.92187000  0.99522000  1.0
  N  N364  1  0.98772000  0.63048000  0.40513000  1.0
  N  N365  1  0.01229000  0.13049000  0.09487000  1.0
  N  N366  1  0.01229000  0.36952000  0.59487000  1.0
  N  N367  1  0.98771000  0.86952000  0.90513000  1.0
  N  N368  1  0.89695000  0.65012000  0.73324000  1.0
  N  N369  1  0.10305000  0.15012000  0.76676000  1.0
  N  N370  1  0.10305000  0.34988000  0.26676000  1.0
  N  N371  1  0.89696000  0.84988000  0.23324000  1.0
  N  N372  1  0.96840000  0.72844000  0.79942000  1.0
  N  N373  1  0.03159000  0.22843000  0.70059000  1.0
  N  N374  1  0.03158000  0.27157000  0.20059000  1.0
  N  N375  1  0.96842000  0.77156000  0.29941000  1.0
  N  N376  1  0.61806000  0.28132000  0.75567000  1.0
  N  N377  1  0.38194000  0.78132000  0.74434000  1.0
  N  N378  1  0.38194000  0.71867000  0.24434000  1.0
  N  N379  1  0.61806000  0.21867000  0.25566000  1.0
  N  N380  1  0.55197000  0.19270000  0.82234000  1.0
  N  N381  1  0.44803000  0.69270000  0.67766000  1.0
  N  N382  1  0.44803000  0.80729000  0.17766000  1.0
  N  N383  1  0.55197000  0.30729000  0.32234000  1.0
  N  N384  1  0.52271000  0.39466000  0.55088000  1.0
  N  N385  1  0.47729000  0.89466000  0.94912000  1.0
  N  N386  1  0.47729000  0.60534000  0.44912000  1.0
  N  N387  1  0.52271000  0.10533000  0.05088000  1.0
  N  N388  1  0.46685000  0.39943000  0.45248000  1.0
  N  N389  1  0.53315000  0.89943000  0.04752000  1.0
  N  N390  1  0.53315000  0.60057000  0.54752000  1.0
  N  N391  1  0.46685000  0.10057000  0.95248000  1.0
  O  O392  1  0.16770000  0.83669000  0.31435000  1.0
  O  O393  1  0.83230000  0.33669000  0.18565000  1.0
  O  O394  1  0.83231000  0.16332000  0.68564000  1.0
  O  O395  1  0.16769000  0.66331000  0.81435000  1.0
  O  O396  1  0.15323000  0.72680000  0.38286000  1.0
  O  O397  1  0.84677000  0.22680000  0.11714000  1.0
  O  O398  1  0.84677000  0.27321000  0.61714000  1.0
  O  O399  1  0.15323000  0.77320000  0.88286000  1.0
  O  O400  1  0.56207000  0.84837000  0.46649000  1.0
  O  O401  1  0.43793000  0.34837000  0.03351000  1.0
  O  O402  1  0.43793000  0.15163000  0.53351000  1.0
  O  O403  1  0.56207000  0.65163000  0.96649000  1.0
  O  O404  1  0.55857000  0.99375000  0.79895000  1.0
  O  O405  1  0.44143000  0.49375000  0.70106000  1.0
  O  O406  1  0.44143000  0.00625000  0.20106000  1.0
  O  O407  1  0.55857000  0.50625000  0.29894000  1.0
  O  O408  1  0.43211000  0.04852000  0.78044000  1.0
  O  O409  1  0.56789000  0.54852000  0.71956000  1.0
  O  O410  1  0.56789000  0.95148000  0.21956000  1.0
  O  O411  1  0.43211000  0.45148000  0.28044000  1.0
  O  O412  1  0.14378000  0.68041000  0.19409000  1.0
  O  O413  1  0.85622000  0.18041000  0.30591000  1.0
  O  O414  1  0.85622000  0.31959000  0.80591000  1.0
  O  O415  1  0.14378000  0.81959000  0.69409000  1.0
  O  O416  1  0.06025000  0.60762000  0.26686000  1.0
  O  O417  1  0.93975000  0.10763000  0.23314000  1.0
  O  O418  1  0.93976000  0.39238000  0.73314000  1.0
  O  O419  1  0.06024000  0.89237000  0.76686000  1.0
  O  O420  1  0.97161000  0.33847000  0.00538000  1.0
  O  O421  1  0.02840000  0.83847000  0.49462000  1.0
  O  O422  1  0.02840000  0.66153000  0.99462000  1.0
  O  O423  1  0.97160000  0.16152000  0.50538000  1.0
  O  O424  1  0.35139000  0.18397000  0.87459000  1.0
  O  O425  1  0.64861000  0.68397000  0.62541000  1.0
  O  O426  1  0.64861000  0.81603000  0.12542000  1.0
  O  O427  1  0.35139000  0.31603000  0.37459000  1.0
  O  O428  1  0.32564000  0.25524000  0.78004000  1.0
  O  O429  1  0.67436000  0.75524000  0.71996000  1.0
  O  O430  1  0.67436000  0.74475000  0.21996000  1.0
  O  O431  1  0.32564000  0.24476000  0.28004000  1.0
