# generated using pymatgen
data_PH16Pb2C16NO11
_symmetry_space_group_name_H-M   'P 1'
_cell_length_a   6.73278000
_cell_length_b   9.27711000
_cell_length_c   16.71960000
_cell_angle_alpha   102.11800000
_cell_angle_beta   91.81130000
_cell_angle_gamma   98.67630000
_symmetry_Int_Tables_number   1
_chemical_formula_structural   PH16Pb2C16NO11
_chemical_formula_sum   'P2 H32 Pb4 C32 N2 O22'
_cell_volume   1007.19855531
_cell_formula_units_Z   2
loop_
 _symmetry_equiv_pos_site_id
 _symmetry_equiv_pos_as_xyz
  1  'x, y, z'
loop_
 _atom_site_type_symbol
 _atom_site_label
 _atom_site_symmetry_multiplicity
 _atom_site_fract_x
 _atom_site_fract_y
 _atom_site_fract_z
 _atom_site_occupancy
  P  P0  1  0.80939000  0.21241000  0.07863000  1.0
  P  P1  1  0.19059000  0.78763000  0.92139000  1.0
  H  H2  1  0.25361000  0.79056000  0.50967000  1.0
  H  H3  1  0.74639000  0.20943000  0.49034000  1.0
  H  H4  1  0.11341000  0.39360000  0.19074000  1.0
  H  H5  1  0.88661000  0.60641000  0.80925000  1.0
  H  H6  1  0.90651000  0.45549000  0.04654000  1.0
  H  H7  1  0.09354000  0.54449000  0.95344000  1.0
  H  H8  1  0.09836000  0.34266000  0.02657000  1.0
  H  H9  1  0.90166000  0.65730000  0.97342000  1.0
  H  H10  1  0.29989000  0.60301000  0.09028000  1.0
  H  H11  1  0.70013000  0.39701000  0.90972000  1.0
  H  H12  1  0.38770000  0.43745000  0.10636000  1.0
  H  H13  1  0.61235000  0.56258000  0.89363000  1.0
  H  H14  1  0.57584000  0.66935000  0.19888000  1.0
  H  H15  1  0.42419000  0.33066000  0.80113000  1.0
  H  H16  1  0.45079000  0.54477000  0.25504000  1.0
  H  H17  1  0.54926000  0.45522000  0.74494000  1.0
  H  H18  1  0.39732000  0.79957000  0.31520000  1.0
  H  H19  1  0.60271000  0.20042000  0.68480000  1.0
  H  H20  1  0.01295000  0.76492000  0.29575000  1.0
  H  H21  1  0.98709000  0.23508000  0.70425000  1.0
  H  H22  1  0.10596000  0.60717000  0.31637000  1.0
  H  H23  1  0.89406000  0.39280000  0.68362000  1.0
  H  H24  1  0.84239000  0.52247000  0.20526000  1.0
  H  H25  1  0.15765000  0.47753000  0.79475000  1.0
  H  H26  1  0.96238000  0.65425000  0.14950000  1.0
  H  H27  1  0.03763000  0.34574000  0.85051000  1.0
  H  H28  1  0.22764000  0.49948000  0.42307000  1.0
  H  H29  1  0.77234000  0.50048000  0.57694000  1.0
  H  H30  1  0.28102000  0.28041000  0.62308000  1.0
  H  H31  1  0.71892000  0.71961000  0.37693000  1.0
  H  H32  1  0.26124000  0.02869000  0.37454000  1.0
  H  H33  1  0.73872000  0.97127000  0.62547000  1.0
  Pb  Pb34  1  0.72330000  0.17653000  0.27506000  1.0
  Pb  Pb35  1  0.27675000  0.82351000  0.72494000  1.0
  Pb  Pb36  1  0.28650000  0.06280000  0.09521000  1.0
  Pb  Pb37  1  0.71347000  0.93725000  0.90478000  1.0
  C  C38  1  0.98924000  0.37931000  0.07088000  1.0
  C  C39  1  0.01079000  0.62066000  0.92912000  1.0
  C  C40  1  0.31301000  0.53141000  0.13444000  1.0
  C  C41  1  0.68703000  0.46861000  0.86556000  1.0
  C  C42  1  0.42701000  0.61966000  0.21386000  1.0
  C  C43  1  0.57303000  0.38035000  0.78612000  1.0
  C  C44  1  0.31444000  0.74418000  0.25620000  1.0
  C  C45  1  0.68558000  0.25584000  0.74379000  1.0
  C  C46  1  0.10038000  0.67674000  0.27093000  1.0
  C  C47  1  0.89965000  0.32325000  0.72907000  1.0
  C  C48  1  0.98650000  0.58320000  0.19263000  1.0
  C  C49  1  0.01353000  0.41680000  0.80737000  1.0
  C  C50  1  0.32100000  0.86310000  0.20472000  1.0
  C  C51  1  0.67899000  0.13691000  0.79527000  1.0
  C  C52  1  0.24610000  0.26407000  0.38966000  1.0
  C  C53  1  0.75383000  0.73590000  0.61034000  1.0
  C  C54  1  0.24120000  0.39878000  0.44520000  1.0
  C  C55  1  0.75872000  0.60116000  0.55480000  1.0
  C  C56  1  0.25939000  0.40628000  0.52945000  1.0
  C  C57  1  0.74059000  0.59371000  0.47055000  1.0
  C  C58  1  0.27043000  0.27614000  0.55756000  1.0
  C  C59  1  0.72952000  0.72385000  0.44245000  1.0
  C  C60  1  0.26616000  0.13949000  0.50231000  1.0
  C  C61  1  0.73379000  0.86049000  0.49769000  1.0
  C  C62  1  0.25928000  0.13394000  0.41788000  1.0
  C  C63  1  0.74071000  0.86603000  0.58212000  1.0
  C  C64  1  0.23598000  0.26165000  0.29997000  1.0
  C  C65  1  0.76399000  0.73833000  0.70003000  1.0
  C  C66  1  0.26763000  0.55210000  0.58954000  1.0
  C  C67  1  0.73237000  0.44789000  0.41047000  1.0
  C  C68  1  0.27108000  0.00484000  0.53703000  1.0
  C  C69  1  0.72888000  0.99514000  0.46297000  1.0
  N  N70  1  0.10232000  0.46563000  0.14916000  1.0
  N  N71  1  0.89773000  0.53439000  0.85085000  1.0
  O  O72  1  0.67785000  0.26312000  0.14972000  1.0
  O  O73  1  0.32209000  0.73691000  0.85028000  1.0
  O  O74  1  0.93118000  0.09314000  0.09413000  1.0
  O  O75  1  0.06879000  0.90692000  0.90592000  1.0
  O  O76  1  0.68857000  0.17200000  0.99527000  1.0
  O  O77  1  0.31145000  0.82801000  0.00474000  1.0
  O  O78  1  0.15525000  0.89745000  0.18095000  1.0
  O  O79  1  0.84475000  0.10258000  0.81905000  1.0
  O  O80  1  0.49155000  0.92184000  0.18569000  1.0
  O  O81  1  0.50841000  0.07819000  0.81429000  1.0
  O  O82  1  0.09855000  0.32254000  0.27244000  1.0
  O  O83  1  0.90145000  0.67746000  0.72755000  1.0
  O  O84  1  0.36168000  0.19945000  0.25542000  1.0
  O  O85  1  0.63829000  0.80055000  0.74458000  1.0
  O  O86  1  0.24847000  0.66921000  0.56337000  1.0
  O  O87  1  0.75153000  0.33078000  0.43663000  1.0
  O  O88  1  0.29428000  0.55365000  0.66552000  1.0
  O  O89  1  0.70570000  0.44634000  0.33449000  1.0
  O  O90  1  0.29104000  0.01404000  0.61189000  1.0
  O  O91  1  0.70897000  0.98596000  0.38811000  1.0
  O  O92  1  0.25225000  0.87695000  0.48111000  1.0
  O  O93  1  0.74774000  0.12304000  0.51889000  1.0
