# generated using pymatgen
data_CaH10(C2O)8
_symmetry_space_group_name_H-M   'P 1'
_cell_length_a   5.96268000
_cell_length_b   7.52472000
_cell_length_c   18.44550000
_cell_angle_alpha   91.88860000
_cell_angle_beta   97.05060000
_cell_angle_gamma   96.47770000
_symmetry_Int_Tables_number   1
_chemical_formula_structural   CaH10(C2O)8
_chemical_formula_sum   'Ca2 H20 C32 O16'
_cell_volume   815.18182474
_cell_formula_units_Z   2
loop_
 _symmetry_equiv_pos_site_id
 _symmetry_equiv_pos_as_xyz
  1  'x, y, z'
loop_
 _atom_site_type_symbol
 _atom_site_label
 _atom_site_symmetry_multiplicity
 _atom_site_fract_x
 _atom_site_fract_y
 _atom_site_fract_z
 _atom_site_occupancy
  Ca  Ca0  1  0.02274000  0.27215000  0.04541000  1.0
  Ca  Ca1  1  0.97726000  0.72785000  0.95459000  1.0
  H  H2  1  0.86249000  0.39206000  0.80056000  1.0
  H  H3  1  0.13752000  0.60794000  0.19945000  1.0
  H  H4  1  0.08870000  0.05968000  0.74186000  1.0
  H  H5  1  0.91129000  0.94032000  0.25814000  1.0
  H  H6  1  0.14681000  0.10333000  0.47759000  1.0
  H  H7  1  0.85319000  0.89667000  0.52241000  1.0
  H  H8  1  0.36678000  0.20056000  0.37754000  1.0
  H  H9  1  0.63322000  0.79943000  0.62246000  1.0
  H  H10  1  0.76577000  0.35241000  0.40666000  1.0
  H  H11  1  0.23424000  0.64758000  0.59334000  1.0
  H  H12  1  0.93222000  0.41356000  0.53772000  1.0
  H  H13  1  0.06778000  0.58643000  0.46228000  1.0
  H  H14  1  0.76969000  0.54764000  0.09888000  1.0
  H  H15  1  0.23031000  0.45236000  0.90112000  1.0
  H  H16  1  0.78915000  0.42964000  0.16965000  1.0
  H  H17  1  0.21085000  0.57036000  0.83035000  1.0
  H  H18  1  0.51180000  0.26413000  0.09931000  1.0
  H  H19  1  0.48820000  0.73587000  0.90069000  1.0
  H  H20  1  0.38219000  0.06643000  0.08185000  1.0
  H  H21  1  0.61781000  0.93357000  0.91815000  1.0
  C  C22  1  0.69206000  0.32045000  0.78852000  1.0
  C  C23  1  0.30794000  0.67955000  0.21148000  1.0
  C  C24  1  0.56984000  0.26425000  0.84490000  1.0
  C  C25  1  0.43016000  0.73576000  0.15510000  1.0
  C  C26  1  0.34945000  0.17089000  0.82816000  1.0
  C  C27  1  0.65055000  0.82912000  0.17184000  1.0
  C  C28  1  0.25835000  0.13225000  0.75549000  1.0
  C  C29  1  0.74164000  0.86775000  0.24451000  1.0
  C  C30  1  0.38206000  0.18762000  0.69883000  1.0
  C  C31  1  0.61794000  0.81237000  0.30117000  1.0
  C  C32  1  0.27808000  0.14486000  0.62200000  1.0
  C  C33  1  0.72192000  0.85515000  0.37800000  1.0
  C  C34  1  0.41200000  0.20794000  0.56336000  1.0
  C  C35  1  0.58799000  0.79205000  0.43663000  1.0
  C  C36  1  0.31766000  0.17395000  0.49023000  1.0
  C  C37  1  0.68234000  0.82604000  0.50977000  1.0
  C  C38  1  0.44325000  0.22753000  0.43420000  1.0
  C  C39  1  0.55675000  0.77247000  0.56580000  1.0
  C  C40  1  0.66587000  0.31290000  0.45050000  1.0
  C  C41  1  0.33414000  0.68710000  0.54950000  1.0
  C  C42  1  0.75986000  0.34776000  0.52317000  1.0
  C  C43  1  0.24015000  0.65223000  0.47683000  1.0
  C  C44  1  0.63434000  0.29848000  0.58008000  1.0
  C  C45  1  0.36566000  0.70151000  0.41992000  1.0
  C  C46  1  0.73690000  0.34500000  0.65664000  1.0
  C  C47  1  0.26310000  0.65501000  0.34336000  1.0
  C  C48  1  0.60077000  0.28304000  0.71538000  1.0
  C  C49  1  0.39922000  0.71696000  0.28462000  1.0
  C  C50  1  0.68384000  0.28729000  0.92233000  1.0
  C  C51  1  0.31616000  0.71271000  0.07766000  1.0
  C  C52  1  0.20804000  0.12413000  0.88855000  1.0
  C  C53  1  0.79197000  0.87587000  0.11145000  1.0
  O  O54  1  0.08790000  0.05735000  0.60853000  1.0
  O  O55  1  0.91210000  0.94266000  0.39148000  1.0
  O  O56  1  0.92600000  0.43421000  0.67178000  1.0
  O  O57  1  0.07399000  0.56580000  0.32823000  1.0
  O  O58  1  0.68409000  0.14851000  0.95983000  1.0
  O  O59  1  0.31590000  0.85149000  0.04017000  1.0
  O  O60  1  0.78738000  0.43857000  0.94652000  1.0
  O  O61  1  0.21262000  0.56143000  0.05348000  1.0
  O  O62  1  0.19179000  0.25444000  0.93352000  1.0
  O  O63  1  0.80821000  0.74556000  0.06648000  1.0
  O  O64  1  0.11307000  0.96716000  0.89021000  1.0
  O  O65  1  0.88693000  0.03284000  0.10979000  1.0
  O  O66  1  0.77249000  0.42116000  0.11648000  1.0
  O  O67  1  0.22751000  0.57885000  0.88352000  1.0
  O  O68  1  0.36660000  0.18875000  0.10118000  1.0
  O  O69  1  0.63341000  0.81125000  0.89882000  1.0
