# generated using pymatgen
data_TlH8C12N2ClO4
_symmetry_space_group_name_H-M   'P 1'
_cell_length_a   13.89520000
_cell_length_b   15.26910000
_cell_length_c   15.29790000
_cell_angle_alpha   90.00070000
_cell_angle_beta   90.00000000
_cell_angle_gamma   89.99990000
_symmetry_Int_Tables_number   1
_chemical_formula_structural   TlH8C12N2ClO4
_chemical_formula_sum   'Tl8 H64 C96 N16 Cl8 O32'
_cell_volume   3245.71258293
_cell_formula_units_Z   8
loop_
 _symmetry_equiv_pos_site_id
 _symmetry_equiv_pos_as_xyz
  1  'x, y, z'
loop_
 _atom_site_type_symbol
 _atom_site_label
 _atom_site_symmetry_multiplicity
 _atom_site_fract_x
 _atom_site_fract_y
 _atom_site_fract_z
 _atom_site_occupancy
  Tl  Tl0  1  0.69460000  0.20171000  0.20133000  1.0
  Tl  Tl1  1  0.19459000  0.20171000  0.29867000  1.0
  Tl  Tl2  1  0.80540000  0.70171000  0.20133000  1.0
  Tl  Tl3  1  0.69459000  0.29829000  0.70133000  1.0
  Tl  Tl4  1  0.30540000  0.79829000  0.79867000  1.0
  Tl  Tl5  1  0.80541000  0.79829000  0.70133000  1.0
  Tl  Tl6  1  0.19460000  0.29830000  0.79867000  1.0
  Tl  Tl7  1  0.30541000  0.70171000  0.29867000  1.0
  H  H8  1  0.51354000  0.75819000  0.23699000  1.0
  H  H9  1  0.01353000  0.75818000  0.26300000  1.0
  H  H10  1  0.98645000  0.25819000  0.23699000  1.0
  H  H11  1  0.51354000  0.74182000  0.73698000  1.0
  H  H12  1  0.48646000  0.24181000  0.76301000  1.0
  H  H13  1  0.98646000  0.24182000  0.73699000  1.0
  H  H14  1  0.01354000  0.74181000  0.76301000  1.0
  H  H15  1  0.48646000  0.25818000  0.26302000  1.0
  H  H16  1  0.62382000  0.88633000  0.21773000  1.0
  H  H17  1  0.12382000  0.88631000  0.28226000  1.0
  H  H18  1  0.87618000  0.38633000  0.21773000  1.0
  H  H19  1  0.62382000  0.61368000  0.71773000  1.0
  H  H20  1  0.37617000  0.11368000  0.78227000  1.0
  H  H21  1  0.87619000  0.11367000  0.71774000  1.0
  H  H22  1  0.12382000  0.61368000  0.78227000  1.0
  H  H23  1  0.37618000  0.38632000  0.28227000  1.0
  H  H24  1  0.38909000  0.05390000  0.29785000  1.0
  H  H25  1  0.88910000  0.05390000  0.20215000  1.0
  H  H26  1  0.11090000  0.55391000  0.29785000  1.0
  H  H27  1  0.38910000  0.44610000  0.79785000  1.0
  H  H28  1  0.61090000  0.94609000  0.70215000  1.0
  H  H29  1  0.11092000  0.94610000  0.79785000  1.0
  H  H30  1  0.88910000  0.44610000  0.70214000  1.0
  H  H31  1  0.61091000  0.55390000  0.20215000  1.0
  H  H32  1  0.28602000  0.91953000  0.30828000  1.0
  H  H33  1  0.78602000  0.91953000  0.19172000  1.0
  H  H34  1  0.21397000  0.41953000  0.30829000  1.0
  H  H35  1  0.28603000  0.58047000  0.80829000  1.0
  H  H36  1  0.71397000  0.08047000  0.69172000  1.0
  H  H37  1  0.21398000  0.08047000  0.80828000  1.0
  H  H38  1  0.78603000  0.58047000  0.69171000  1.0
  H  H39  1  0.71398000  0.41953000  0.19172000  1.0
  H  H40  1  0.14250000  0.16996000  0.95713000  1.0
  H  H41  1  0.64248000  0.16996000  0.54287000  1.0
  H  H42  1  0.35750000  0.66995000  0.95712000  1.0
  H  H43  1  0.14249000  0.33005000  0.45712000  1.0
  H  H44  1  0.85751000  0.83004000  0.04287000  1.0
  H  H45  1  0.35751000  0.83004000  0.45712000  1.0
  H  H46  1  0.64251000  0.33005000  0.04288000  1.0
  H  H47  1  0.85752000  0.66996000  0.54288000  1.0
  H  H48  1  0.00227000  0.13293000  0.05545000  1.0
  H  H49  1  0.50224000  0.13292000  0.44456000  1.0
  H  H50  1  0.49773000  0.63292000  0.05544000  1.0
  H  H51  1  0.00225000  0.36708000  0.55544000  1.0
  H  H52  1  0.99775000  0.86708000  0.94456000  1.0
  H  H53  1  0.49775000  0.86707000  0.55544000  1.0
  H  H54  1  0.50227000  0.36708000  0.94456000  1.0
  H  H55  1  0.99776000  0.63293000  0.44456000  1.0
  H  H56  1  0.89150000  0.39169000  0.00636000  1.0
  H  H57  1  0.39150000  0.39169000  0.49364000  1.0
  H  H58  1  0.60850000  0.89168000  0.00636000  1.0
  H  H59  1  0.89150000  0.10831000  0.50636000  1.0
  H  H60  1  0.10850000  0.60831000  0.99364000  1.0
  H  H61  1  0.60850000  0.60830000  0.50636000  1.0
  H  H62  1  0.39150000  0.10832000  0.99364000  1.0
  H  H63  1  0.10849000  0.89170000  0.49364000  1.0
  H  H64  1  0.03506000  0.41825000  0.90956000  1.0
  H  H65  1  0.53506000  0.41825000  0.59044000  1.0
  H  H66  1  0.46494000  0.91825000  0.90956000  1.0
  H  H67  1  0.03505000  0.08175000  0.40956000  1.0
  H  H68  1  0.96494000  0.58174000  0.09043000  1.0
  H  H69  1  0.46495000  0.58174000  0.40956000  1.0
  H  H70  1  0.53505000  0.08175000  0.09044000  1.0
  H  H71  1  0.96494000  0.91826000  0.59044000  1.0
  C  C72  1  0.48889000  0.82490000  0.24825000  1.0
  C  C73  1  0.98889000  0.82489000  0.25174000  1.0
  C  C74  1  0.01110000  0.32490000  0.24826000  1.0
  C  C75  1  0.48889000  0.67510000  0.74825000  1.0
  C  C76  1  0.51111000  0.17510000  0.75175000  1.0
  C  C77  1  0.01112000  0.17510000  0.74826000  1.0
  C  C78  1  0.98889000  0.67510000  0.75174000  1.0
  C  C79  1  0.51111000  0.32490000  0.25174000  1.0
  C  C80  1  0.55012000  0.89622000  0.23928000  1.0
  C  C81  1  0.05011000  0.89622000  0.26071000  1.0
  C  C82  1  0.94988000  0.39622000  0.23928000  1.0
  C  C83  1  0.55012000  0.60378000  0.73927000  1.0
  C  C84  1  0.44988000  0.10378000  0.76071000  1.0
  C  C85  1  0.94989000  0.10378000  0.73929000  1.0
  C  C86  1  0.05012000  0.60378000  0.76072000  1.0
  C  C87  1  0.44989000  0.39622000  0.26072000  1.0
  C  C88  1  0.51481000  0.97988000  0.25715000  1.0
  C  C89  1  0.01481000  0.97988000  0.24285000  1.0
  C  C90  1  0.98519000  0.47988000  0.25715000  1.0
  C  C91  1  0.51481000  0.52012000  0.75715000  1.0
  C  C92  1  0.48519000  0.02012000  0.74285000  1.0
  C  C93  1  0.98520000  0.02012000  0.75716000  1.0
  C  C94  1  0.01481000  0.52012000  0.74285000  1.0
  C  C95  1  0.48519000  0.47988000  0.24285000  1.0
  C  C96  1  0.41862000  0.98961000  0.28265000  1.0
  C  C97  1  0.91862000  0.98960000  0.21736000  1.0
  C  C98  1  0.08137000  0.48961000  0.28265000  1.0
  C  C99  1  0.41863000  0.51039000  0.78265000  1.0
  C  C100  1  0.58138000  0.01039000  0.71735000  1.0
  C  C101  1  0.08138000  0.01039000  0.78265000  1.0
  C  C102  1  0.91862000  0.51039000  0.71735000  1.0
  C  C103  1  0.58138000  0.48960000  0.21736000  1.0
  C  C104  1  0.36125000  0.91506000  0.28875000  1.0
  C  C105  1  0.86125000  0.91505000  0.21125000  1.0
  C  C106  1  0.13874000  0.41506000  0.28874000  1.0
  C  C107  1  0.36126000  0.58494000  0.78874000  1.0
  C  C108  1  0.63874000  0.08494000  0.71126000  1.0
  C  C109  1  0.13875000  0.08494000  0.78875000  1.0
  C  C110  1  0.86126000  0.58494000  0.71126000  1.0
  C  C111  1  0.63875000  0.41505000  0.21126000  1.0
  C  C112  1  0.57862000  0.05836000  0.24552000  1.0
  C  C113  1  0.07863000  0.05835000  0.25448000  1.0
  C  C114  1  0.92137000  0.55836000  0.24552000  1.0
  C  C115  1  0.57863000  0.44164000  0.74552000  1.0
  C  C116  1  0.42137000  0.94164000  0.75448000  1.0
  C  C117  1  0.92138000  0.94164000  0.74552000  1.0
  C  C118  1  0.07862000  0.44164000  0.75448000  1.0
  C  C119  1  0.42137000  0.55836000  0.25448000  1.0
  C  C120  1  0.08443000  0.21639000  0.96916000  1.0
  C  C121  1  0.58442000  0.21639000  0.53084000  1.0
  C  C122  1  0.41557000  0.71638000  0.96916000  1.0
  C  C123  1  0.08443000  0.28361000  0.46917000  1.0
  C  C124  1  0.91557000  0.78361000  0.03084000  1.0
  C  C125  1  0.41558000  0.78362000  0.46916000  1.0
  C  C126  1  0.58443000  0.28362000  0.03084000  1.0
  C  C127  1  0.91558000  0.71640000  0.53084000  1.0
  C  C128  1  0.00700000  0.19619000  0.02306000  1.0
  C  C129  1  0.50699000  0.19618000  0.47694000  1.0
  C  C130  1  0.49300000  0.69618000  0.02306000  1.0
  C  C131  1  0.00699000  0.30382000  0.52305000  1.0
  C  C132  1  0.99301000  0.80382000  0.97695000  1.0
  C  C133  1  0.49301000  0.80381000  0.52305000  1.0
  C  C134  1  0.50700000  0.30382000  0.97694000  1.0
  C  C135  1  0.99301000  0.69619000  0.47695000  1.0
  C  C136  1  0.93505000  0.25898000  0.03530000  1.0
  C  C137  1  0.43504000  0.25898000  0.46471000  1.0
  C  C138  1  0.56495000  0.75897000  0.03530000  1.0
  C  C139  1  0.93504000  0.24102000  0.53530000  1.0
  C  C140  1  0.06496000  0.74102000  0.96470000  1.0
  C  C141  1  0.56496000  0.74101000  0.53530000  1.0
  C  C142  1  0.43505000  0.24102000  0.96470000  1.0
  C  C143  1  0.06496000  0.75899000  0.46470000  1.0
  C  C144  1  0.94574000  0.34124000  0.99645000  1.0
  C  C145  1  0.44573000  0.34124000  0.50355000  1.0
  C  C146  1  0.55426000  0.84124000  0.99645000  1.0
  C  C147  1  0.94573000  0.15876000  0.49645000  1.0
  C  C148  1  0.05426000  0.65876000  0.00355000  1.0
  C  C149  1  0.55427000  0.65875000  0.49644000  1.0
  C  C150  1  0.44574000  0.15876000  0.00356000  1.0
  C  C151  1  0.05426000  0.84125000  0.50354000  1.0
  C  C152  1  0.02467000  0.35593000  0.94269000  1.0
  C  C153  1  0.52466000  0.35593000  0.55731000  1.0
  C  C154  1  0.47533000  0.85593000  0.94268000  1.0
  C  C155  1  0.02467000  0.14407000  0.44269000  1.0
  C  C156  1  0.97533000  0.64407000  0.05731000  1.0
  C  C157  1  0.47533000  0.64407000  0.44269000  1.0
  C  C158  1  0.52468000  0.14407000  0.05731000  1.0
  C  C159  1  0.97533000  0.85594000  0.55731000  1.0
  C  C160  1  0.84747000  0.23921000  0.08920000  1.0
  C  C161  1  0.34746000  0.23921000  0.41081000  1.0
  C  C162  1  0.65253000  0.73920000  0.08920000  1.0
  C  C163  1  0.84746000  0.26079000  0.58920000  1.0
  C  C164  1  0.15254000  0.76079000  0.91081000  1.0
  C  C165  1  0.65254000  0.76079000  0.58920000  1.0
  C  C166  1  0.34747000  0.26080000  0.91080000  1.0
  C  C167  1  0.15254000  0.73922000  0.41080000  1.0
  N  N168  1  0.39637000  0.83452000  0.27212000  1.0
  N  N169  1  0.89636000  0.83452000  0.22788000  1.0
  N  N170  1  0.10362000  0.33452000  0.27212000  1.0
  N  N171  1  0.39637000  0.66548000  0.77212000  1.0
  N  N172  1  0.60363000  0.16548000  0.72788000  1.0
  N  N173  1  0.10364000  0.16548000  0.77213000  1.0
  N  N174  1  0.89637000  0.66548000  0.72787000  1.0
  N  N175  1  0.60364000  0.33452000  0.22789000  1.0
  N  N176  1  0.09137000  0.29398000  0.92790000  1.0
  N  N177  1  0.59137000  0.29398000  0.57210000  1.0
  N  N178  1  0.40863000  0.79397000  0.92790000  1.0
  N  N179  1  0.09136000  0.20602000  0.42790000  1.0
  N  N180  1  0.90863000  0.70602000  0.07210000  1.0
  N  N181  1  0.40863000  0.70602000  0.42790000  1.0
  N  N182  1  0.59138000  0.20603000  0.07210000  1.0
  N  N183  1  0.90864000  0.79399000  0.57210000  1.0
  Cl  Cl184  1  0.79426000  0.20921000  0.33513000  1.0
  Cl  Cl185  1  0.29426000  0.20922000  0.16488000  1.0
  Cl  Cl186  1  0.70574000  0.70922000  0.33513000  1.0
  Cl  Cl187  1  0.79426000  0.29079000  0.83513000  1.0
  Cl  Cl188  1  0.20573000  0.79077000  0.66487000  1.0
  Cl  Cl189  1  0.70574000  0.79078000  0.83513000  1.0
  Cl  Cl190  1  0.29426000  0.29078000  0.66488000  1.0
  Cl  Cl191  1  0.20574000  0.70923000  0.16487000  1.0
  O  O192  1  0.65690000  0.04812000  0.20247000  1.0
  O  O193  1  0.15691000  0.04811000  0.29754000  1.0
  O  O194  1  0.84309000  0.54812000  0.20246000  1.0
  O  O195  1  0.65691000  0.45189000  0.70246000  1.0
  O  O196  1  0.34309000  0.95189000  0.79754000  1.0
  O  O197  1  0.84310000  0.95189000  0.70247000  1.0
  O  O198  1  0.15691000  0.45189000  0.79754000  1.0
  O  O199  1  0.34309000  0.54811000  0.29753000  1.0
  O  O200  1  0.55082000  0.13178000  0.27476000  1.0
  O  O201  1  0.05082000  0.13177000  0.22525000  1.0
  O  O202  1  0.94917000  0.63178000  0.27476000  1.0
  O  O203  1  0.55083000  0.36823000  0.77476000  1.0
  O  O204  1  0.44917000  0.86822000  0.72524000  1.0
  O  O205  1  0.94919000  0.86822000  0.77476000  1.0
  O  O206  1  0.05083000  0.36822000  0.72524000  1.0
  O  O207  1  0.44918000  0.63177000  0.22524000  1.0
  O  O208  1  0.83003000  0.16000000  0.10955000  1.0
  O  O209  1  0.33001000  0.16000000  0.39046000  1.0
  O  O210  1  0.66997000  0.65999000  0.10955000  1.0
  O  O211  1  0.83002000  0.34000000  0.60954000  1.0
  O  O212  1  0.16998000  0.84000000  0.89046000  1.0
  O  O213  1  0.66998000  0.84000000  0.60954000  1.0
  O  O214  1  0.33003000  0.34001000  0.89045000  1.0
  O  O215  1  0.16998000  0.66001000  0.39045000  1.0
  O  O216  1  0.79464000  0.30328000  0.11302000  1.0
  O  O217  1  0.29463000  0.30329000  0.38698000  1.0
  O  O218  1  0.70536000  0.80327000  0.11302000  1.0
  O  O219  1  0.79463000  0.19672000  0.61303000  1.0
  O  O220  1  0.20536000  0.69671000  0.88698000  1.0
  O  O221  1  0.70537000  0.69672000  0.61302000  1.0
  O  O222  1  0.29464000  0.19672000  0.88698000  1.0
  O  O223  1  0.20537000  0.80329000  0.38698000  1.0
