# generated using pymatgen
data_Ho3H19C30O23
_symmetry_space_group_name_H-M   'P 1'
_cell_length_a   10.13520000
_cell_length_b   12.08910000
_cell_length_c   14.64080000
_cell_angle_alpha   68.96570000
_cell_angle_beta   84.51290000
_cell_angle_gamma   75.38030000
_symmetry_Int_Tables_number   1
_chemical_formula_structural   Ho3H19C30O23
_chemical_formula_sum   'Ho6 H38 C60 O46'
_cell_volume   1620.10123335
_cell_formula_units_Z   2
loop_
 _symmetry_equiv_pos_site_id
 _symmetry_equiv_pos_as_xyz
  1  'x, y, z'
loop_
 _atom_site_type_symbol
 _atom_site_label
 _atom_site_symmetry_multiplicity
 _atom_site_fract_x
 _atom_site_fract_y
 _atom_site_fract_z
 _atom_site_occupancy
  Ho  Ho0  1  0.24567000  0.48503000  0.90060000  1.0
  Ho  Ho1  1  0.75433000  0.51497000  0.09940000  1.0
  Ho  Ho2  1  0.35992000  0.97936000  0.78297000  1.0
  Ho  Ho3  1  0.64008000  0.02064000  0.21703000  1.0
  Ho  Ho4  1  0.49313000  0.28879000  0.54769000  1.0
  Ho  Ho5  1  0.50687000  0.71121000  0.45231000  1.0
  H  H6  1  0.71775000  0.79877000  0.84937000  1.0
  H  H7  1  0.28225000  0.20123000  0.15063000  1.0
  H  H8  1  0.88110000  0.04978000  0.60434000  1.0
  H  H9  1  0.11891000  0.95021000  0.39566000  1.0
  H  H10  1  0.09085000  0.89195000  0.61190000  1.0
  H  H11  1  0.90916000  0.10805000  0.38810000  1.0
  H  H12  1  0.27872000  0.77349000  0.67733000  1.0
  H  H13  1  0.72129000  0.22651000  0.32268000  1.0
  H  H14  1  0.20398000  0.73295000  0.59142000  1.0
  H  H15  1  0.79602000  0.26706000  0.40858000  1.0
  H  H16  1  0.01102000  0.30217000  0.95680000  1.0
  H  H17  1  0.98898000  0.69783000  0.04319000  1.0
  H  H18  1  0.96232000  0.97521000  0.18984000  1.0
  H  H19  1  0.03768000  0.02479000  0.81016000  1.0
  H  H20  1  0.16914000  0.85888000  0.13764000  1.0
  H  H21  1  0.83086000  0.14112000  0.86236000  1.0
  H  H22  1  0.32438000  0.77777000  0.08731000  1.0
  H  H23  1  0.67562000  0.22223000  0.91269000  1.0
  H  H24  1  0.44798000  0.85481000  0.09614000  1.0
  H  H25  1  0.55202000  0.14519000  0.90386000  1.0
  H  H26  1  0.93578000  0.24920000  0.62605000  1.0
  H  H27  1  0.06422000  0.75080000  0.37395000  1.0
  H  H28  1  0.88577000  0.53671000  0.34464000  1.0
  H  H29  1  0.11422000  0.46330000  0.65536000  1.0
  H  H30  1  0.13333000  0.47017000  0.30904000  1.0
  H  H31  1  0.86667000  0.52983000  0.69096000  1.0
  H  H32  1  0.34381000  0.29286000  0.28999000  1.0
  H  H33  1  0.65619000  0.70714000  0.71001000  1.0
  H  H34  1  0.28427000  0.16859000  0.37743000  1.0
  H  H35  1  0.71572000  0.83141000  0.62257000  1.0
  H  H36  1  0.44799000  0.65760000  0.88626000  1.0
  H  H37  1  0.55201000  0.34240000  0.11374000  1.0
  H  H38  1  0.53086000  0.52153000  0.90799000  1.0
  H  H39  1  0.46914000  0.47847000  0.09201000  1.0
  H  H40  1  0.40868000  0.24499000  0.74774000  1.0
  H  H41  1  0.59132000  0.75501000  0.25226000  1.0
  H  H42  1  0.44193000  0.37325000  0.72071000  1.0
  H  H43  1  0.55806000  0.62675000  0.27929000  1.0
  C  C44  1  0.02213000  0.75142000  0.73306000  1.0
  C  C45  1  0.97787000  0.24858000  0.26694000  1.0
  C  C46  1  0.91514000  0.72450000  0.80168000  1.0
  C  C47  1  0.08486000  0.27550000  0.19832000  1.0
  C  C48  1  0.79996000  0.81894000  0.79723000  1.0
  C  C49  1  0.20004000  0.18105000  0.20277000  1.0
  C  C50  1  0.78605000  0.93492000  0.72690000  1.0
  C  C51  1  0.21395000  0.06508000  0.27310000  1.0
  C  C52  1  0.89155000  0.95903000  0.65924000  1.0
  C  C53  1  0.10846000  0.04097000  0.34076000  1.0
  C  C54  1  0.00854000  0.86885000  0.66275000  1.0
  C  C55  1  0.99147000  0.13114000  0.33725000  1.0
  C  C56  1  0.24435000  0.70017000  0.66587000  1.0
  C  C57  1  0.75566000  0.29983000  0.33413000  1.0
  C  C58  1  0.36372000  0.59138000  0.67768000  1.0
  C  C59  1  0.63628000  0.40863000  0.32232000  1.0
  C  C60  1  0.91614000  0.60317000  0.88035000  1.0
  C  C61  1  0.08386000  0.39683000  0.11965000  1.0
  C  C62  1  0.65690000  0.02989000  0.71680000  1.0
  C  C63  1  0.34310000  0.97011000  0.28319000  1.0
  C  C64  1  0.20481000  0.01200000  0.01170000  1.0
  C  C65  1  0.79519000  0.98800000  0.98830000  1.0
  C  C66  1  0.16027000  0.13876000  0.96158000  1.0
  C  C67  1  0.83972000  0.86124000  0.03842000  1.0
  C  C68  1  0.04309000  0.20386000  0.99413000  1.0
  C  C69  1  0.95691000  0.79614000  0.00587000  1.0
  C  C70  1  0.96815000  0.14569000  0.07350000  1.0
  C  C71  1  0.03185000  0.85431000  0.92650000  1.0
  C  C72  1  0.01555000  0.02085000  0.12441000  1.0
  C  C73  1  0.98445000  0.97915000  0.87559000  1.0
  C  C74  1  0.13392000  0.95497000  0.09491000  1.0
  C  C75  1  0.86608000  0.04503000  0.90509000  1.0
  C  C76  1  0.39276000  0.83553000  0.04459000  1.0
  C  C77  1  0.60723000  0.16447000  0.95541000  1.0
  C  C78  1  0.48793000  0.76150000  0.99019000  1.0
  C  C79  1  0.51207000  0.23850000  0.00981000  1.0
  C  C80  1  0.23299000  0.20945000  0.87632000  1.0
  C  C81  1  0.76701000  0.79054000  0.12368000  1.0
  C  C82  1  0.84506000  0.21806000  0.10729000  1.0
  C  C83  1  0.15494000  0.78195000  0.89271000  1.0
  C  C84  1  0.17351000  0.32925000  0.45023000  1.0
  C  C85  1  0.82649000  0.67075000  0.54977000  1.0
  C  C86  1  0.12024000  0.26629000  0.54109000  1.0
  C  C87  1  0.87976000  0.73371000  0.45891000  1.0
  C  C88  1  0.97920000  0.29941000  0.55723000  1.0
  C  C89  1  0.02080000  0.70059000  0.44277000  1.0
  C  C90  1  0.89477000  0.39798000  0.48797000  1.0
  C  C91  1  0.10522000  0.60202000  0.51203000  1.0
  C  C92  1  0.95131000  0.46026000  0.39877000  1.0
  C  C93  1  0.04869000  0.53975000  0.60123000  1.0
  C  C94  1  0.08936000  0.42367000  0.37892000  1.0
  C  C95  1  0.91064000  0.57633000  0.62108000  1.0
  C  C96  1  0.35155000  0.23079000  0.36659000  1.0
  C  C97  1  0.64844000  0.76921000  0.63341000  1.0
  C  C98  1  0.49724000  0.15546000  0.38832000  1.0
  C  C99  1  0.50276000  0.84454000  0.61168000  1.0
  C  C100  1  0.20962000  0.16831000  0.62011000  1.0
  C  C101  1  0.79037000  0.83169000  0.37989000  1.0
  C  C102  1  0.74395000  0.43693000  0.50600000  1.0
  C  C103  1  0.25604000  0.56307000  0.49400000  1.0
  O  O104  1  0.14046000  0.66350000  0.73733000  1.0
  O  O105  1  0.85954000  0.33650000  0.26267000  1.0
  O  O106  1  0.45504000  0.59989000  0.61259000  1.0
  O  O107  1  0.54496000  0.40011000  0.38741000  1.0
  O  O108  1  0.36482000  0.49689000  0.75318000  1.0
  O  O109  1  0.63518000  0.50311000  0.24682000  1.0
  O  O110  1  0.01828000  0.51415000  0.88716000  1.0
  O  O111  1  0.98171000  0.48584000  0.11284000  1.0
  O  O112  1  0.81187000  0.59498000  0.93646000  1.0
  O  O113  1  0.18812000  0.40502000  0.06353000  1.0
  O  O114  1  0.56653000  0.01262000  0.78472000  1.0
  O  O115  1  0.43347000  0.98738000  0.21528000  1.0
  O  O116  1  0.64249000  0.12085000  0.63858000  1.0
  O  O117  1  0.35751000  0.87915000  0.36142000  1.0
  O  O118  1  0.31818000  0.94827000  0.97601000  1.0
  O  O119  1  0.68182000  0.05173000  0.02399000  1.0
  O  O120  1  0.56080000  0.66238000  0.04388000  1.0
  O  O121  1  0.43919000  0.33763000  0.95612000  1.0
  O  O122  1  0.48337000  0.79742000  0.89759000  1.0
  O  O123  1  0.51663000  0.20258000  0.10241000  1.0
  O  O124  1  0.30287000  0.15524000  0.82017000  1.0
  O  O125  1  0.69713000  0.84476000  0.17983000  1.0
  O  O126  1  0.22213000  0.32082000  0.86153000  1.0
  O  O127  1  0.77787000  0.67918000  0.13847000  1.0
  O  O128  1  0.82464000  0.33355000  0.07244000  1.0
  O  O129  1  0.17536000  0.66645000  0.92756000  1.0
  O  O130  1  0.76784000  0.16083000  0.17080000  1.0
  O  O131  1  0.23216000  0.83917000  0.82919000  1.0
  O  O132  1  0.31255000  0.29814000  0.43230000  1.0
  O  O133  1  0.68745000  0.70187000  0.56770000  1.0
  O  O134  1  0.55128000  0.10474000  0.32678000  1.0
  O  O135  1  0.44871000  0.89526000  0.67322000  1.0
  O  O136  1  0.55560000  0.14851000  0.46276000  1.0
  O  O137  1  0.44439000  0.85149000  0.53724000  1.0
  O  O138  1  0.33706000  0.16480000  0.62449000  1.0
  O  O139  1  0.66294000  0.83519000  0.37551000  1.0
  O  O140  1  0.15867000  0.08793000  0.68539000  1.0
  O  O141  1  0.84133000  0.91208000  0.31461000  1.0
  O  O142  1  0.68333000  0.35535000  0.55825000  1.0
  O  O143  1  0.31667000  0.64465000  0.44175000  1.0
  O  O144  1  0.68628000  0.54868000  0.46449000  1.0
  O  O145  1  0.31372000  0.45132000  0.53551000  1.0
  O  O146  1  0.43994000  0.57468000  0.89525000  1.0
  O  O147  1  0.56006000  0.42532000  0.10474000  1.0
  O  O148  1  0.47030000  0.29603000  0.70668000  1.0
  O  O149  1  0.52970000  0.70396000  0.29332000  1.0
