# generated using pymatgen
data_UH4C5N2O5
_symmetry_space_group_name_H-M   'P 1'
_cell_length_a   6.55005000
_cell_length_b   8.34719000
_cell_length_c   13.57470000
_cell_angle_alpha   90.00030000
_cell_angle_beta   89.99960000
_cell_angle_gamma   89.99940000
_symmetry_Int_Tables_number   1
_chemical_formula_structural   UH4C5N2O5
_chemical_formula_sum   'U4 H16 C20 N8 O20'
_cell_volume   742.19009607
_cell_formula_units_Z   4
loop_
 _symmetry_equiv_pos_site_id
 _symmetry_equiv_pos_as_xyz
  1  'x, y, z'
loop_
 _atom_site_type_symbol
 _atom_site_label
 _atom_site_symmetry_multiplicity
 _atom_site_fract_x
 _atom_site_fract_y
 _atom_site_fract_z
 _atom_site_occupancy
  U  U0  1  0.54368000  0.47866000  0.53576000  1.0
  U  U1  1  0.45630000  0.97867000  0.46425000  1.0
  U  U2  1  0.45631000  0.47868000  0.03576000  1.0
  U  U3  1  0.54367000  0.97867000  0.96424000  1.0
  H  H4  1  0.88626000  0.37908000  0.91501000  1.0
  H  H5  1  0.11374000  0.87907000  0.08500000  1.0
  H  H6  1  0.11374000  0.37908000  0.41501000  1.0
  H  H7  1  0.88627000  0.87908000  0.58499000  1.0
  H  H8  1  0.23149000  0.13737000  0.70533000  1.0
  H  H9  1  0.76853000  0.63736000  0.29467000  1.0
  H  H10  1  0.76852000  0.13737000  0.20533000  1.0
  H  H11  1  0.23148000  0.63737000  0.79467000  1.0
  H  H12  1  0.97055000  0.20057000  0.57567000  1.0
  H  H13  1  0.02947000  0.70057000  0.42433000  1.0
  H  H14  1  0.02946000  0.20057000  0.07568000  1.0
  H  H15  1  0.97054000  0.70057000  0.92432000  1.0
  H  H16  1  0.26961000  0.73452000  0.58567000  1.0
  H  H17  1  0.73040000  0.23452000  0.41433000  1.0
  H  H18  1  0.73039000  0.73452000  0.08566000  1.0
  H  H19  1  0.26960000  0.23453000  0.91433000  1.0
  C  C20  1  0.76817000  0.38325000  0.76573000  1.0
  C  C21  1  0.23184000  0.88325000  0.23428000  1.0
  C  C22  1  0.23183000  0.38325000  0.26573000  1.0
  C  C23  1  0.76817000  0.88326000  0.73427000  1.0
  C  C24  1  0.90721000  0.34042000  0.83894000  1.0
  C  C25  1  0.09281000  0.84042000  0.16106000  1.0
  C  C26  1  0.09280000  0.34042000  0.33894000  1.0
  C  C27  1  0.90721000  0.84042000  0.66106000  1.0
  C  C28  1  0.09501000  0.20532000  0.72388000  1.0
  C  C29  1  0.90500000  0.70531000  0.27612000  1.0
  C  C30  1  0.90499000  0.20532000  0.22389000  1.0
  C  C31  1  0.09501000  0.70532000  0.77611000  1.0
  C  C32  1  0.95109000  0.24325000  0.65088000  1.0
  C  C33  1  0.04892000  0.74325000  0.34912000  1.0
  C  C34  1  0.04891000  0.24326000  0.15088000  1.0
  C  C35  1  0.95108000  0.74325000  0.84912000  1.0
  C  C36  1  0.59581000  0.49659000  0.78286000  1.0
  C  C37  1  0.40419000  0.99659000  0.21714000  1.0
  C  C38  1  0.40420000  0.49659000  0.28286000  1.0
  C  C39  1  0.59581000  0.99660000  0.71714000  1.0
  N  N40  1  0.78988000  0.33493000  0.67150000  1.0
  N  N41  1  0.21013000  0.83494000  0.32850000  1.0
  N  N42  1  0.21012000  0.33494000  0.17150000  1.0
  N  N43  1  0.78987000  0.83493000  0.82850000  1.0
  N  N44  1  0.07427000  0.25379000  0.81738000  1.0
  N  N45  1  0.92575000  0.75378000  0.18262000  1.0
  N  N46  1  0.92574000  0.25378000  0.31739000  1.0
  N  N47  1  0.07427000  0.75378000  0.68262000  1.0
  O  O48  1  0.52075000  0.56175000  0.70650000  1.0
  O  O49  1  0.47925000  0.06176000  0.29350000  1.0
  O  O50  1  0.47925000  0.56176000  0.20650000  1.0
  O  O51  1  0.52076000  0.06176000  0.79350000  1.0
  O  O52  1  0.53701000  0.52827000  0.86942000  1.0
  O  O53  1  0.46297000  0.02827000  0.13059000  1.0
  O  O54  1  0.46299000  0.52827000  0.36942000  1.0
  O  O55  1  0.53701000  0.02828000  0.63058000  1.0
  O  O56  1  0.79639000  0.55771000  0.51096000  1.0
  O  O57  1  0.20359000  0.05773000  0.48903000  1.0
  O  O58  1  0.20360000  0.55773000  0.01097000  1.0
  O  O59  1  0.79638000  0.05772000  0.98903000  1.0
  O  O60  1  0.29544000  0.39444000  0.56279000  1.0
  O  O61  1  0.70455000  0.89445000  0.43721000  1.0
  O  O62  1  0.70455000  0.39445000  0.06278000  1.0
  O  O63  1  0.29543000  0.89444000  0.93721000  1.0
  O  O64  1  0.38514000  0.73442000  0.53677000  1.0
  O  O65  1  0.61486000  0.23441000  0.46322000  1.0
  O  O66  1  0.61485000  0.73442000  0.03678000  1.0
  O  O67  1  0.38513000  0.23441000  0.96322000  1.0
