# generated using pymatgen
data_CuH9C12SN4O
_symmetry_space_group_name_H-M   'P 1'
_cell_length_a   7.04049000
_cell_length_b   9.90158000
_cell_length_c   18.55500000
_cell_angle_alpha   90.00000000
_cell_angle_beta   90.00000000
_cell_angle_gamma   90.00000000
_symmetry_Int_Tables_number   1
_chemical_formula_structural   CuH9C12SN4O
_chemical_formula_sum   'Cu4 H36 C48 S4 N16 O4'
_cell_volume   1293.50569565
_cell_formula_units_Z   4
loop_
 _symmetry_equiv_pos_site_id
 _symmetry_equiv_pos_as_xyz
  1  'x, y, z'
loop_
 _atom_site_type_symbol
 _atom_site_label
 _atom_site_symmetry_multiplicity
 _atom_site_fract_x
 _atom_site_fract_y
 _atom_site_fract_z
 _atom_site_occupancy
  Cu  Cu0  1  0.29615000  0.07997000  0.11924000  1.0
  Cu  Cu1  1  0.79616000  0.92003000  0.88076000  1.0
  Cu  Cu2  1  0.29616000  0.57998000  0.38076000  1.0
  Cu  Cu3  1  0.79615000  0.42001000  0.61924000  1.0
  H  H4  1  0.61681000  0.29810000  0.09764000  1.0
  H  H5  1  0.11679000  0.70189000  0.90236000  1.0
  H  H6  1  0.61680000  0.79811000  0.40236000  1.0
  H  H7  1  0.11679000  0.20189000  0.59764000  1.0
  H  H8  1  0.78944000  0.45638000  0.17942000  1.0
  H  H9  1  0.28943000  0.54361000  0.82058000  1.0
  H  H10  1  0.78945000  0.95638000  0.32058000  1.0
  H  H11  1  0.28943000  0.04362000  0.67942000  1.0
  H  H12  1  0.70852000  0.45627000  0.31140000  1.0
  H  H13  1  0.20851000  0.54372000  0.68860000  1.0
  H  H14  1  0.70853000  0.95627000  0.18860000  1.0
  H  H15  1  0.20852000  0.04373000  0.81140000  1.0
  H  H16  1  0.46004000  0.29713000  0.35574000  1.0
  H  H17  1  0.96003000  0.70286000  0.64426000  1.0
  H  H18  1  0.46004000  0.79714000  0.14426000  1.0
  H  H19  1  0.96003000  0.20286000  0.85574000  1.0
  H  H20  1  0.20537000  0.93270000  0.37678000  1.0
  H  H21  1  0.70535000  0.06730000  0.62322000  1.0
  H  H22  1  0.20536000  0.43271000  0.12322000  1.0
  H  H23  1  0.70536000  0.56730000  0.87678000  1.0
  H  H24  1  0.02169000  0.96102000  0.49068000  1.0
  H  H25  1  0.52167000  0.03898000  0.50932000  1.0
  H  H26  1  0.02167000  0.46102000  0.00932000  1.0
  H  H27  1  0.52168000  0.53899000  0.99068000  1.0
  H  H28  1  0.86165000  0.18726000  0.51488000  1.0
  H  H29  1  0.36164000  0.81274000  0.48512000  1.0
  H  H30  1  0.86164000  0.68727000  0.98513000  1.0
  H  H31  1  0.36164000  0.31275000  0.01488000  1.0
  H  H32  1  0.90276000  0.37093000  0.42492000  1.0
  H  H33  1  0.40275000  0.62907000  0.57508000  1.0
  H  H34  1  0.90275000  0.87094000  0.07509000  1.0
  H  H35  1  0.40276000  0.12907000  0.92492000  1.0
  H  H36  1  0.06704000  0.87322000  0.20032000  1.0
  H  H37  1  0.56704000  0.12678000  0.79968000  1.0
  H  H38  1  0.06704000  0.37322000  0.29967000  1.0
  H  H39  1  0.56703000  0.62678000  0.70033000  1.0
  C  C40  1  0.46230000  0.90936000  0.99782000  1.0
  C  C41  1  0.96231000  0.09066000  0.00218000  1.0
  C  C42  1  0.46229000  0.40933000  0.50219000  1.0
  C  C43  1  0.96230000  0.59067000  0.49781000  1.0
  C  C44  1  0.58245000  0.30317000  0.15486000  1.0
  C  C45  1  0.08243000  0.69681000  0.84514000  1.0
  C  C46  1  0.58244000  0.80318000  0.34514000  1.0
  C  C47  1  0.08243000  0.19682000  0.65486000  1.0
  C  C48  1  0.67948000  0.39047000  0.20063000  1.0
  C  C49  1  0.17947000  0.60952000  0.79937000  1.0
  C  C50  1  0.67948000  0.89047000  0.29937000  1.0
  C  C51  1  0.17948000  0.10953000  0.70064000  1.0
  C  C52  1  0.63570000  0.38900000  0.27403000  1.0
  C  C53  1  0.13569000  0.61099000  0.72597000  1.0
  C  C54  1  0.63571000  0.88901000  0.22597000  1.0
  C  C55  1  0.13570000  0.11100000  0.77403000  1.0
  C  C56  1  0.49666000  0.30073000  0.29880000  1.0
  C  C57  1  0.99664000  0.69926000  0.70120000  1.0
  C  C58  1  0.49665000  0.80073000  0.20120000  1.0
  C  C59  1  0.99664000  0.19927000  0.79880000  1.0
  C  C60  1  0.40014000  0.21925000  0.24925000  1.0
  C  C61  1  0.90013000  0.78074000  0.75074000  1.0
  C  C62  1  0.40014000  0.71925000  0.25074000  1.0
  C  C63  1  0.90012000  0.28075000  0.74926000  1.0
  C  C64  1  0.25046000  0.12549000  0.27085000  1.0
  C  C65  1  0.75045000  0.87450000  0.72915000  1.0
  C  C66  1  0.25045000  0.62549000  0.22915000  1.0
  C  C67  1  0.75044000  0.37451000  0.77085000  1.0
  C  C68  1  0.15126000  0.13675000  0.34123000  1.0
  C  C69  1  0.65124000  0.86324000  0.65877000  1.0
  C  C70  1  0.15126000  0.63675000  0.15877000  1.0
  C  C71  1  0.65125000  0.36325000  0.84123000  1.0
  C  C72  1  0.13822000  0.02873000  0.38965000  1.0
  C  C73  1  0.63820000  0.97126000  0.61035000  1.0
  C  C74  1  0.13821000  0.52874000  0.11035000  1.0
  C  C75  1  0.63821000  0.47126000  0.88965000  1.0
  C  C76  1  0.03482000  0.04532000  0.45315000  1.0
  C  C77  1  0.53481000  0.95468000  0.54685000  1.0
  C  C78  1  0.03481000  0.54532000  0.04685000  1.0
  C  C79  1  0.53481000  0.45469000  0.95315000  1.0
  C  C80  1  0.94677000  0.16896000  0.46679000  1.0
  C  C81  1  0.44675000  0.83103000  0.53321000  1.0
  C  C82  1  0.94675000  0.66897000  0.03321000  1.0
  C  C83  1  0.44675000  0.33104000  0.96679000  1.0
  C  C84  1  0.96770000  0.27222000  0.41647000  1.0
  C  C85  1  0.46769000  0.72778000  0.58353000  1.0
  C  C86  1  0.96769000  0.77222000  0.08354000  1.0
  C  C87  1  0.46769000  0.22779000  0.91647000  1.0
  S  S88  1  0.51975000  0.82451000  0.92528000  1.0
  S  S89  1  0.01977000  0.17551000  0.07472000  1.0
  S  S90  1  0.51974000  0.32449000  0.57472000  1.0
  S  S91  1  0.01977000  0.67551000  0.42528000  1.0
  N  N92  1  0.41510000  0.97100000  0.04951000  1.0
  N  N93  1  0.91510000  0.02901000  0.95048000  1.0
  N  N94  1  0.41509000  0.47099000  0.45049000  1.0
  N  N95  1  0.91508000  0.52901000  0.54952000  1.0
  N  N96  1  0.44305000  0.22076000  0.17757000  1.0
  N  N97  1  0.94304000  0.77923000  0.82243000  1.0
  N  N98  1  0.44304000  0.72077000  0.32243000  1.0
  N  N99  1  0.94303000  0.27923000  0.67757000  1.0
  N  N100  1  0.20720000  0.03449000  0.22216000  1.0
  N  N101  1  0.70720000  0.96551000  0.77783000  1.0
  N  N102  1  0.20720000  0.53450000  0.27783000  1.0
  N  N103  1  0.70719000  0.46551000  0.72217000  1.0
  N  N104  1  0.06736000  0.25667000  0.35541000  1.0
  N  N105  1  0.56735000  0.74333000  0.64458000  1.0
  N  N106  1  0.06735000  0.75667000  0.14458000  1.0
  N  N107  1  0.56735000  0.24333000  0.85542000  1.0
  O  O108  1  0.06464000  0.94853000  0.24048000  1.0
  O  O109  1  0.56464000  0.05146000  0.75952000  1.0
  O  O110  1  0.06464000  0.44854000  0.25952000  1.0
  O  O111  1  0.56463000  0.55147000  0.74048000  1.0
