# generated using pymatgen
data_ZnH9C19N4Cl3O4
_symmetry_space_group_name_H-M   'P 1'
_cell_length_a   17.26350000
_cell_length_b   22.65940000
_cell_length_c   24.14130000
_cell_angle_alpha   86.07450000
_cell_angle_beta   89.53860000
_cell_angle_gamma   85.72350000
_symmetry_Int_Tables_number   1
_chemical_formula_structural   ZnH9C19N4Cl3O4
_chemical_formula_sum   'Zn4 H36 C76 N16 Cl12 O16'
_cell_volume   9395.17907136
_cell_formula_units_Z   4
loop_
 _symmetry_equiv_pos_site_id
 _symmetry_equiv_pos_as_xyz
  1  'x, y, z'
loop_
 _atom_site_type_symbol
 _atom_site_label
 _atom_site_symmetry_multiplicity
 _atom_site_fract_x
 _atom_site_fract_y
 _atom_site_fract_z
 _atom_site_occupancy
  Zn  Zn0  1  0.98563000  0.95287000  0.54217000  1.0
  Zn  Zn1  1  0.99591000  0.03688000  0.45029000  1.0
  Zn  Zn2  1  0.05912000  0.53090000  0.94737000  1.0
  Zn  Zn3  1  0.05018000  0.44277000  0.03519000  1.0
  H  H4  1  0.97655000  0.64350000  0.91944000  1.0
  H  H5  1  0.96028000  0.72364000  0.84171000  1.0
  H  H6  1  0.13012000  0.62071000  0.74886000  1.0
  H  H7  1  0.90785000  0.85759000  0.73746000  1.0
  H  H8  1  0.09149000  0.76309000  0.64944000  1.0
  H  H9  1  0.07372000  0.84313000  0.57180000  1.0
  H  H10  1  0.96630000  0.42096000  0.13669000  1.0
  H  H11  1  0.95497000  0.34413000  0.21647000  1.0
  H  H12  1  0.13746000  0.23769000  0.13885000  1.0
  H  H13  1  0.90407000  0.24043000  0.34415000  1.0
  H  H14  1  0.09555000  0.13837000  0.27183000  1.0
  H  H15  1  0.08303000  0.06117000  0.35108000  1.0
  H  H16  1  0.23613000  0.05187000  0.44113000  1.0
  H  H17  1  0.38165000  0.05177000  0.44177000  1.0
  H  H18  1  0.38872000  0.91586000  0.57520000  1.0
  H  H19  1  0.59817000  0.03989000  0.39511000  1.0
  H  H20  1  0.60119000  0.96876000  0.56491000  1.0
  H  H21  1  0.74689000  0.96777000  0.56383000  1.0
  H  H22  1  0.05951000  0.55356000  0.17005000  1.0
  H  H23  1  0.04778000  0.62776000  0.24291000  1.0
  H  H24  1  0.00064000  0.76646000  0.11442000  1.0
  H  H25  1  0.03521000  0.71195000  0.37523000  1.0
  H  H26  1  0.99690000  0.85197000  0.24684000  1.0
  H  H27  1  0.99110000  0.92611000  0.31975000  1.0
  H  H28  1  0.01163000  0.43051000  0.81384000  1.0
  H  H29  1  0.97626000  0.36176000  0.74217000  1.0
  H  H30  1  0.93549000  0.22934000  0.87326000  1.0
  H  H31  1  0.02184000  0.26854000  0.62042000  1.0
  H  H32  1  0.90780000  0.14950000  0.73512000  1.0
  H  H33  1  0.92475000  0.07071000  0.66660000  1.0
  H  H34  1  0.29827000  0.51872000  0.92206000  1.0
  H  H35  1  0.44363000  0.52058000  0.92189000  1.0
  H  H36  1  0.44860000  0.43335000  0.08575000  1.0
  H  H37  1  0.65965000  0.55886000  0.90477000  1.0
  H  H38  1  0.66241000  0.44066000  0.05193000  1.0
  H  H39  1  0.80756000  0.44240000  0.05514000  1.0
  C  C40  1  0.14258000  0.98812000  0.50114000  1.0
  C  C41  1  0.00319000  0.91043000  0.42784000  1.0
  C  C42  1  0.84182000  0.99979000  0.48492000  1.0
  C  C43  1  0.98624000  0.07553000  0.56701000  1.0
  C  C44  1  0.04830000  0.56900000  0.06178000  1.0
  C  C45  1  0.90254000  0.50007000  0.99017000  1.0
  C  C46  1  0.02788000  0.41100000  0.92086000  1.0
  C  C47  1  0.20412000  0.47763000  0.99791000  1.0
  C  C48  1  0.00967000  0.64108000  0.88091000  1.0
  C  C49  1  0.00075000  0.68493000  0.83814000  1.0
  C  C50  1  0.04555000  0.67778000  0.78986000  1.0
  C  C51  1  0.09576000  0.62710000  0.78623000  1.0
  C  C52  1  0.10045000  0.58512000  0.83141000  1.0
  C  C53  1  0.94502000  0.85304000  0.70117000  1.0
  C  C54  1  0.99978000  0.80485000  0.69901000  1.0
  C  C55  1  0.04782000  0.79998000  0.65202000  1.0
  C  C56  1  0.03798000  0.84377000  0.60921000  1.0
  C  C57  1  0.93888000  0.89460000  0.65571000  1.0
  C  C58  1  0.00267000  0.37938000  0.13922000  1.0
  C  C59  1  0.99653000  0.33727000  0.18301000  1.0
  C  C60  1  0.04598000  0.28503000  0.18284000  1.0
  C  C61  1  0.09872000  0.27776000  0.13948000  1.0
  C  C62  1  0.10071000  0.32277000  0.09697000  1.0
  C  C63  1  0.94438000  0.20114000  0.34448000  1.0
  C  C64  1  0.00019000  0.19535000  0.30288000  1.0
  C  C65  1  0.05170000  0.14417000  0.30400000  1.0
  C  C66  1  0.04471000  0.10175000  0.34742000  1.0
  C  C67  1  0.94096000  0.15550000  0.38628000  1.0
  C  C68  1  0.22991000  0.98361000  0.50614000  1.0
  C  C69  1  0.27091000  0.02175000  0.46979000  1.0
  C  C70  1  0.35097000  0.02202000  0.47005000  1.0
  C  C71  1  0.39363000  0.98309000  0.50832000  1.0
  C  C72  1  0.35484000  0.94532000  0.54546000  1.0
  C  C73  1  0.27398000  0.94509000  0.54432000  1.0
  C  C74  1  0.63127000  0.02405000  0.43210000  1.0
  C  C75  1  0.59137000  0.00411000  0.47960000  1.0
  C  C76  1  0.63273000  0.98371000  0.52797000  1.0
  C  C77  1  0.71286000  0.98331000  0.52717000  1.0
  C  C78  1  0.75489000  0.00243000  0.47969000  1.0
  C  C79  1  0.71225000  0.02284000  0.43165000  1.0
  C  C80  1  0.03855000  0.61745000  0.10158000  1.0
  C  C81  1  0.04709000  0.60066000  0.15870000  1.0
  C  C82  1  0.04044000  0.64132000  0.19903000  1.0
  C  C83  1  0.02373000  0.70174000  0.18279000  1.0
  C  C84  1  0.01414000  0.71963000  0.12643000  1.0
  C  C85  1  0.02158000  0.67810000  0.08622000  1.0
  C  C86  1  0.02483000  0.75909000  0.36330000  1.0
  C  C87  1  0.01629000  0.77732000  0.30693000  1.0
  C  C88  1  0.00349000  0.83808000  0.29070000  1.0
  C  C89  1  0.00022000  0.87873000  0.33106000  1.0
  C  C90  1  0.00845000  0.86170000  0.38817000  1.0
  C  C91  1  0.02076000  0.80063000  0.40354000  1.0
  C  C92  1  0.99809000  0.36810000  0.88298000  1.0
  C  C93  1  0.99567000  0.38579000  0.82582000  1.0
  C  C94  1  0.97577000  0.34836000  0.78631000  1.0
  C  C95  1  0.95665000  0.29073000  0.80371000  1.0
  C  C96  1  0.95271000  0.27350000  0.86039000  1.0
  C  C97  1  0.97373000  0.31164000  0.89985000  1.0
  C  C98  1  0.99906000  0.22540000  0.62964000  1.0
  C  C99  1  0.96406000  0.21355000  0.68138000  1.0
  C  C100  1  0.93509000  0.15796000  0.69484000  1.0
  C  C101  1  0.94435000  0.11487000  0.65692000  1.0
  C  C102  1  0.98017000  0.12542000  0.60489000  1.0
  C  C103  1  0.00697000  0.18179000  0.59155000  1.0
  C  C104  1  0.29108000  0.47560000  0.00314000  1.0
  C  C105  1  0.33263000  0.50018000  0.95762000  1.0
  C  C106  1  0.41261000  0.50136000  0.95734000  1.0
  C  C107  1  0.45455000  0.47708000  0.00425000  1.0
  C  C108  1  0.41513000  0.45198000  0.04982000  1.0
  C  C109  1  0.33433000  0.45134000  0.04975000  1.0
  C  C110  1  0.69245000  0.53398000  0.93817000  1.0
  C  C111  1  0.65252000  0.50046000  0.97833000  1.0
  C  C112  1  0.69389000  0.46715000  0.02126000  1.0
  C  C113  1  0.77376000  0.46857000  0.02302000  1.0
  C  C114  1  0.81561000  0.50274000  0.98372000  1.0
  C  C115  1  0.77307000  0.53544000  0.94084000  1.0
  N  N116  1  0.05919000  0.59204000  0.87811000  1.0
  N  N117  1  0.04461000  0.71798000  0.74206000  1.0
  N  N118  1  0.00109000  0.76462000  0.74674000  1.0
  N  N119  1  0.98415000  0.89041000  0.61059000  1.0
  N  N120  1  0.05353000  0.37264000  0.09664000  1.0
  N  N121  1  0.04783000  0.23687000  0.22372000  1.0
  N  N122  1  0.99868000  0.24365000  0.26216000  1.0
  N  N123  1  0.99058000  0.10689000  0.38819000  1.0
  N  N124  1  0.47540000  0.97901000  0.51335000  1.0
  N  N125  1  0.50979000  0.00675000  0.47422000  1.0
  N  N126  1  0.01573000  0.74804000  0.21937000  1.0
  N  N127  1  0.02279000  0.73101000  0.27033000  1.0
  N  N128  1  0.94516000  0.24597000  0.76722000  1.0
  N  N129  1  0.96653000  0.25935000  0.71786000  1.0
  N  N130  1  0.53596000  0.47538000  0.01046000  1.0
  N  N131  1  0.57103000  0.50289000  0.97151000  1.0
  Cl  Cl132  1  0.16085000  0.52226000  0.82624000  1.0
  Cl  Cl133  1  0.86999000  0.95282000  0.65847000  1.0
  Cl  Cl134  1  0.16571000  0.31296000  0.04426000  1.0
  Cl  Cl135  1  0.87031000  0.16311000  0.43563000  1.0
  Cl  Cl136  1  0.23406000  0.89615000  0.59297000  1.0
  Cl  Cl137  1  0.75394000  0.04663000  0.36937000  1.0
  Cl  Cl138  1  0.00617000  0.70565000  0.01807000  1.0
  Cl  Cl139  1  0.03458000  0.77252000  0.47168000  1.0
  Cl  Cl140  1  0.96647000  0.28605000  0.96883000  1.0
  Cl  Cl141  1  0.05492000  0.19916000  0.52995000  1.0
  Cl  Cl142  1  0.29388000  0.42015000  0.10973000  1.0
  Cl  Cl143  1  0.81588000  0.57714000  0.88771000  1.0
  O  O144  1  0.10481000  0.94973000  0.52839000  1.0
  O  O145  1  0.11310000  0.03090000  0.46899000  1.0
  O  O146  1  0.01951000  0.96147000  0.40741000  1.0
  O  O147  1  0.98179000  0.89768000  0.47741000  1.0
  O  O148  1  0.88081000  0.02197000  0.44502000  1.0
  O  O149  1  0.86998000  0.97550000  0.53033000  1.0
  O  O150  1  0.99779000  0.02345000  0.58998000  1.0
  O  O151  1  0.97686000  0.08898000  0.51554000  1.0
  O  O152  1  0.07209000  0.58269000  0.01294000  1.0
  O  O153  1  0.03293000  0.51743000  0.08124000  1.0
  O  O154  1  0.93245000  0.45463000  0.01884000  1.0
  O  O155  1  0.93934000  0.54177000  0.96754000  1.0
  O  O156  1  0.05501000  0.39146000  0.96778000  1.0
  O  O157  1  0.02503000  0.46500000  0.90176000  1.0
  O  O158  1  0.17488000  0.50382000  0.95364000  1.0
  O  O159  1  0.16592000  0.45335000  0.03720000  1.0
