# generated using pymatgen
data_CdH22(C5N2)8
_symmetry_space_group_name_H-M   'P 1'
_cell_length_a   10.64110000
_cell_length_b   18.16440000
_cell_length_c   20.14080000
_cell_angle_alpha   89.99940000
_cell_angle_beta   89.99990000
_cell_angle_gamma   89.99970000
_symmetry_Int_Tables_number   1
_chemical_formula_structural   CdH22(C5N2)8
_chemical_formula_sum   'Cd4 H88 C160 N64'
_cell_volume   3892.99905544
_cell_formula_units_Z   4
loop_
 _symmetry_equiv_pos_site_id
 _symmetry_equiv_pos_as_xyz
  1  'x, y, z'
loop_
 _atom_site_type_symbol
 _atom_site_label
 _atom_site_symmetry_multiplicity
 _atom_site_fract_x
 _atom_site_fract_y
 _atom_site_fract_z
 _atom_site_occupancy
  Cd  Cd0  1  0.80810000  0.50096000  0.74902000  1.0
  Cd  Cd1  1  0.30810000  0.49904000  0.25099000  1.0
  Cd  Cd2  1  0.30810000  0.99904000  0.74901000  1.0
  Cd  Cd3  1  0.80809000  0.00096000  0.25099000  1.0
  H  H4  1  0.26992000  0.08200000  0.58390000  1.0
  H  H5  1  0.76993000  0.91799000  0.41610000  1.0
  H  H6  1  0.76993000  0.41799000  0.58390000  1.0
  H  H7  1  0.26993000  0.58201000  0.41610000  1.0
  H  H8  1  0.40022000  0.00086000  0.51383000  1.0
  H  H9  1  0.90022000  0.99913000  0.48617000  1.0
  H  H10  1  0.90024000  0.49913000  0.51383000  1.0
  H  H11  1  0.40024000  0.50087000  0.48618000  1.0
  H  H12  1  0.26507000  0.42159000  0.08183000  1.0
  H  H13  1  0.76507000  0.57841000  0.91817000  1.0
  H  H14  1  0.76507000  0.07840000  0.08183000  1.0
  H  H15  1  0.26507000  0.92160000  0.91817000  1.0
  H  H16  1  0.39458000  0.50080000  0.00959000  1.0
  H  H17  1  0.89459000  0.49920000  0.99040000  1.0
  H  H18  1  0.89458000  0.99920000  0.00959000  1.0
  H  H19  1  0.39458000  0.00080000  0.99041000  1.0
  H  H20  1  0.00620000  0.59901000  0.65751000  1.0
  H  H21  1  0.50621000  0.40099000  0.34250000  1.0
  H  H22  1  0.50619000  0.90099000  0.65750000  1.0
  H  H23  1  0.00621000  0.09902000  0.34250000  1.0
  H  H24  1  0.27966000  0.45413000  0.56691000  1.0
  H  H25  1  0.77966000  0.54588000  0.43310000  1.0
  H  H26  1  0.77966000  0.04588000  0.56691000  1.0
  H  H27  1  0.27966000  0.95412000  0.43310000  1.0
  H  H28  1  0.94952000  0.16848000  0.70469000  1.0
  H  H29  1  0.44950000  0.83153000  0.29531000  1.0
  H  H30  1  0.44951000  0.33153000  0.70469000  1.0
  H  H31  1  0.94951000  0.66848000  0.29531000  1.0
  H  H32  1  0.53039000  0.18853000  0.40311000  1.0
  H  H33  1  0.03038000  0.81146000  0.59690000  1.0
  H  H34  1  0.03039000  0.31146000  0.40310000  1.0
  H  H35  1  0.53039000  0.68854000  0.59690000  1.0
  H  H36  1  0.52354000  0.31077000  0.90211000  1.0
  H  H37  1  0.02355000  0.68923000  0.09789000  1.0
  H  H38  1  0.02354000  0.18924000  0.90210000  1.0
  H  H39  1  0.52353000  0.81076000  0.09790000  1.0
  H  H40  1  0.40125000  0.27138000  0.47565000  1.0
  H  H41  1  0.90126000  0.72862000  0.52435000  1.0
  H  H42  1  0.90126000  0.22862000  0.47564000  1.0
  H  H43  1  0.40125000  0.77138000  0.52435000  1.0
  H  H44  1  0.20133000  0.58338000  0.58828000  1.0
  H  H45  1  0.70134000  0.41662000  0.41173000  1.0
  H  H46  1  0.70133000  0.91662000  0.58827000  1.0
  H  H47  1  0.20134000  0.08338000  0.41173000  1.0
  H  H48  1  0.39582000  0.22976000  0.97684000  1.0
  H  H49  1  0.89583000  0.77024000  0.02316000  1.0
  H  H50  1  0.89582000  0.27024000  0.97683000  1.0
  H  H51  1  0.39582000  0.72976000  0.02316000  1.0
  H  H52  1  0.25925000  0.04875000  0.05721000  1.0
  H  H53  1  0.75924000  0.95125000  0.94279000  1.0
  H  H54  1  0.75925000  0.45126000  0.05721000  1.0
  H  H55  1  0.25925000  0.54875000  0.94279000  1.0
  H  H56  1  0.96034000  0.33343000  0.21490000  1.0
  H  H57  1  0.46035000  0.66657000  0.78510000  1.0
  H  H58  1  0.46034000  0.16657000  0.21490000  1.0
  H  H59  1  0.96034000  0.83343000  0.78510000  1.0
  H  H60  1  0.72983000  0.16637000  0.30879000  1.0
  H  H61  1  0.22983000  0.83362000  0.69121000  1.0
  H  H62  1  0.22983000  0.33363000  0.30878000  1.0
  H  H63  1  0.72983000  0.66637000  0.69121000  1.0
  H  H64  1  0.98578000  0.90485000  0.14907000  1.0
  H  H65  1  0.48578000  0.09515000  0.85093000  1.0
  H  H66  1  0.48577000  0.59515000  0.14907000  1.0
  H  H67  1  0.98577000  0.40485000  0.85093000  1.0
  H  H68  1  0.78823000  0.30040000  0.29465000  1.0
  H  H69  1  0.28824000  0.69960000  0.70535000  1.0
  H  H70  1  0.28823000  0.19960000  0.29464000  1.0
  H  H71  1  0.78823000  0.80040000  0.70536000  1.0
  H  H72  1  0.17387000  0.92022000  0.07436000  1.0
  H  H73  1  0.67386000  0.07978000  0.92564000  1.0
  H  H74  1  0.67387000  0.57978000  0.07436000  1.0
  H  H75  1  0.17386000  0.42022000  0.92564000  1.0
  H  H76  1  0.77240000  0.20117000  0.78148000  1.0
  H  H77  1  0.27239000  0.79883000  0.21853000  1.0
  H  H78  1  0.27240000  0.29883000  0.78147000  1.0
  H  H79  1  0.77239000  0.70118000  0.21853000  1.0
  H  H80  1  0.72105000  0.33546000  0.79999000  1.0
  H  H81  1  0.22105000  0.66454000  0.20001000  1.0
  H  H82  1  0.22105000  0.16455000  0.79998000  1.0
  H  H83  1  0.72105000  0.83546000  0.20001000  1.0
  H  H84  1  0.12773000  0.15492000  0.62658000  1.0
  H  H85  1  0.62772000  0.84508000  0.37343000  1.0
  H  H86  1  0.62773000  0.34508000  0.62657000  1.0
  H  H87  1  0.12773000  0.65492000  0.37343000  1.0
  H  H88  1  0.12952000  0.34749000  0.13115000  1.0
  H  H89  1  0.62953000  0.65251000  0.86886000  1.0
  H  H90  1  0.62953000  0.15251000  0.13114000  1.0
  H  H91  1  0.12953000  0.84749000  0.86885000  1.0
  C  C92  1  0.02424000  0.41848000  0.66467000  1.0
  C  C93  1  0.52424000  0.58152000  0.33534000  1.0
  C  C94  1  0.52424000  0.08152000  0.66467000  1.0
  C  C95  1  0.02424000  0.91848000  0.33533000  1.0
  C  C96  1  0.32579000  0.10577000  0.54416000  1.0
  C  C97  1  0.82579000  0.89423000  0.45584000  1.0
  C  C98  1  0.82580000  0.39423000  0.54416000  1.0
  C  C99  1  0.32579000  0.60577000  0.45584000  1.0
  C  C100  1  0.39861000  0.05999000  0.50475000  1.0
  C  C101  1  0.89861000  0.94001000  0.49525000  1.0
  C  C102  1  0.89863000  0.44001000  0.50475000  1.0
  C  C103  1  0.39862000  0.55999000  0.49525000  1.0
  C  C104  1  0.16236000  0.33026000  0.60976000  1.0
  C  C105  1  0.66236000  0.66975000  0.39024000  1.0
  C  C106  1  0.66236000  0.16975000  0.60975000  1.0
  C  C107  1  0.16236000  0.83025000  0.39025000  1.0
  C  C108  1  0.32066000  0.39672000  0.04247000  1.0
  C  C109  1  0.82066000  0.60328000  0.95753000  1.0
  C  C110  1  0.82066000  0.10328000  0.04247000  1.0
  C  C111  1  0.32065000  0.89672000  0.95753000  1.0
  C  C112  1  0.09611000  0.27170000  0.63880000  1.0
  C  C113  1  0.59611000  0.72831000  0.36120000  1.0
  C  C114  1  0.59611000  0.22831000  0.63880000  1.0
  C  C115  1  0.09611000  0.77169000  0.36120000  1.0
  C  C116  1  0.12983000  0.40486000  0.62323000  1.0
  C  C117  1  0.62983000  0.59514000  0.37677000  1.0
  C  C118  1  0.62983000  0.09514000  0.62323000  1.0
  C  C119  1  0.12983000  0.90486000  0.37677000  1.0
  C  C120  1  0.47068000  0.08925000  0.45269000  1.0
  C  C121  1  0.97067000  0.91075000  0.54731000  1.0
  C  C122  1  0.97069000  0.41075000  0.45269000  1.0
  C  C123  1  0.47068000  0.58925000  0.54731000  1.0
  C  C124  1  0.24576000  0.23148000  0.57174000  1.0
  C  C125  1  0.74576000  0.76852000  0.42826000  1.0
  C  C126  1  0.74576000  0.26853000  0.57173000  1.0
  C  C127  1  0.24575000  0.73148000  0.42827000  1.0
  C  C128  1  0.39273000  0.44150000  0.00171000  1.0
  C  C129  1  0.89274000  0.55850000  0.99829000  1.0
  C  C130  1  0.89273000  0.05850000  0.00170000  1.0
  C  C131  1  0.39272000  0.94150000  0.99830000  1.0
  C  C132  1  0.04485000  0.54440000  0.64772000  1.0
  C  C133  1  0.54486000  0.45560000  0.35228000  1.0
  C  C134  1  0.54485000  0.95560000  0.64772000  1.0
  C  C135  1  0.04485000  0.04440000  0.35228000  1.0
  C  C136  1  0.31983000  0.32008000  0.03315000  1.0
  C  C137  1  0.81984000  0.67992000  0.96685000  1.0
  C  C138  1  0.81983000  0.17992000  0.03315000  1.0
  C  C139  1  0.31983000  0.82008000  0.96685000  1.0
  C  C140  1  0.32463000  0.18211000  0.53323000  1.0
  C  C141  1  0.82464000  0.81789000  0.46677000  1.0
  C  C142  1  0.82464000  0.31789000  0.53322000  1.0
  C  C143  1  0.32463000  0.68211000  0.46678000  1.0
  C  C144  1  0.99350000  0.28263000  0.68310000  1.0
  C  C145  1  0.49350000  0.71737000  0.31691000  1.0
  C  C146  1  0.49350000  0.21737000  0.68309000  1.0
  C  C147  1  0.99350000  0.78263000  0.31691000  1.0
  C  C148  1  0.53156000  0.45964000  0.90452000  1.0
  C  C149  1  0.03158000  0.54037000  0.09548000  1.0
  C  C150  1  0.03155000  0.04037000  0.90451000  1.0
  C  C151  1  0.53155000  0.95963000  0.09549000  1.0
  C  C152  1  0.19587000  0.46500000  0.59634000  1.0
  C  C153  1  0.69587000  0.53500000  0.40366000  1.0
  C  C154  1  0.69587000  0.03500000  0.59634000  1.0
  C  C155  1  0.19587000  0.96500000  0.40366000  1.0
  C  C156  1  0.95716000  0.35728000  0.69593000  1.0
  C  C157  1  0.45715000  0.64272000  0.30407000  1.0
  C  C158  1  0.45716000  0.14272000  0.69593000  1.0
  C  C159  1  0.95716000  0.85728000  0.30407000  1.0
  C  C160  1  0.46421000  0.41129000  0.94984000  1.0
  C  C161  1  0.96423000  0.58872000  0.05015000  1.0
  C  C162  1  0.96421000  0.08872000  0.94983000  1.0
  C  C163  1  0.46420000  0.91128000  0.05016000  1.0
  C  C164  1  0.92482000  0.22580000  0.71436000  1.0
  C  C165  1  0.42480000  0.77420000  0.28565000  1.0
  C  C166  1  0.42481000  0.27421000  0.71435000  1.0
  C  C167  1  0.92481000  0.72580000  0.28565000  1.0
  C  C168  1  0.47299000  0.16596000  0.44304000  1.0
  C  C169  1  0.97299000  0.83404000  0.55697000  1.0
  C  C170  1  0.97301000  0.33404000  0.44304000  1.0
  C  C171  1  0.47300000  0.66596000  0.55697000  1.0
  C  C172  1  0.46653000  0.33437000  0.94172000  1.0
  C  C173  1  0.96655000  0.66563000  0.05828000  1.0
  C  C174  1  0.96653000  0.16563000  0.94171000  1.0
  C  C175  1  0.46652000  0.83436000  0.05829000  1.0
  C  C176  1  0.40138000  0.21192000  0.48291000  1.0
  C  C177  1  0.90137000  0.78808000  0.51709000  1.0
  C  C178  1  0.90138000  0.28808000  0.48291000  1.0
  C  C179  1  0.40137000  0.71192000  0.51709000  1.0
  C  C180  1  0.15320000  0.53556000  0.60877000  1.0
  C  C181  1  0.65321000  0.46444000  0.39124000  1.0
  C  C182  1  0.65320000  0.96445000  0.60876000  1.0
  C  C183  1  0.15321000  0.03555000  0.39124000  1.0
  C  C184  1  0.39577000  0.28937000  0.98290000  1.0
  C  C185  1  0.89578000  0.71063000  0.01710000  1.0
  C  C186  1  0.89577000  0.21063000  0.98290000  1.0
  C  C187  1  0.39577000  0.78937000  0.01710000  1.0
  C  C188  1  0.24194000  0.27101000  0.07263000  1.0
  C  C189  1  0.74194000  0.72899000  0.92737000  1.0
  C  C190  1  0.74194000  0.22899000  0.07263000  1.0
  C  C191  1  0.24194000  0.77101000  0.92737000  1.0
  C  C192  1  0.09534000  0.23074000  0.14160000  1.0
  C  C193  1  0.59534000  0.76926000  0.85840000  1.0
  C  C194  1  0.59534000  0.26926000  0.14160000  1.0
  C  C195  1  0.09534000  0.73074000  0.85840000  1.0
  C  C196  1  0.15626000  0.17228000  0.10934000  1.0
  C  C197  1  0.65625000  0.82772000  0.89066000  1.0
  C  C198  1  0.65625000  0.32772000  0.10933000  1.0
  C  C199  1  0.15626000  0.67228000  0.89066000  1.0
  C  C200  1  0.11956000  0.09784000  0.12025000  1.0
  C  C201  1  0.61956000  0.90216000  0.87975000  1.0
  C  C202  1  0.61955000  0.40216000  0.12024000  1.0
  C  C203  1  0.11956000  0.59784000  0.87975000  1.0
  C  C204  1  0.99528000  0.21971000  0.18751000  1.0
  C  C205  1  0.49528000  0.78029000  0.81249000  1.0
  C  C206  1  0.49528000  0.28029000  0.18750000  1.0
  C  C207  1  0.99528000  0.71970000  0.81249000  1.0
  C  C208  1  0.01645000  0.08431000  0.16335000  1.0
  C  C209  1  0.51645000  0.91569000  0.83665000  1.0
  C  C210  1  0.51644000  0.41569000  0.16334000  1.0
  C  C211  1  0.01645000  0.58431000  0.83665000  1.0
  C  C212  1  0.17832000  0.03788000  0.08876000  1.0
  C  C213  1  0.67832000  0.96212000  0.91124000  1.0
  C  C214  1  0.67832000  0.46212000  0.08875000  1.0
  C  C215  1  0.17832000  0.53788000  0.91125000  1.0
  C  C216  1  0.95532000  0.14521000  0.19827000  1.0
  C  C217  1  0.45533000  0.85478000  0.80173000  1.0
  C  C218  1  0.45532000  0.35479000  0.19826000  1.0
  C  C219  1  0.95533000  0.64522000  0.80173000  1.0
  C  C220  1  0.93266000  0.27619000  0.22264000  1.0
  C  C221  1  0.43267000  0.72380000  0.77736000  1.0
  C  C222  1  0.43266000  0.22380000  0.22263000  1.0
  C  C223  1  0.93266000  0.77620000  0.77736000  1.0
  C  C224  1  0.53775000  0.04010000  0.40807000  1.0
  C  C225  1  0.03774000  0.95990000  0.59193000  1.0
  C  C226  1  0.03776000  0.45990000  0.40807000  1.0
  C  C227  1  0.53775000  0.54010000  0.59193000  1.0
  C  C228  1  0.80365000  0.18372000  0.27440000  1.0
  C  C229  1  0.30365000  0.81627000  0.72560000  1.0
  C  C230  1  0.30365000  0.31627000  0.27439000  1.0
  C  C231  1  0.80365000  0.68373000  0.72560000  1.0
  C  C232  1  0.02713000  0.95903000  0.14051000  1.0
  C  C233  1  0.52712000  0.04097000  0.85949000  1.0
  C  C234  1  0.52713000  0.54097000  0.14050000  1.0
  C  C235  1  0.02713000  0.45903000  0.85950000  1.0
  C  C236  1  0.83720000  0.25803000  0.26638000  1.0
  C  C237  1  0.33720000  0.74196000  0.73362000  1.0
  C  C238  1  0.33720000  0.24196000  0.26637000  1.0
  C  C239  1  0.83720000  0.75804000  0.73362000  1.0
  C  C240  1  0.13178000  0.96773000  0.09877000  1.0
  C  C241  1  0.63177000  0.03227000  0.90123000  1.0
  C  C242  1  0.63177000  0.53227000  0.09876000  1.0
  C  C243  1  0.13178000  0.46773000  0.90124000  1.0
  C  C244  1  0.82677000  0.24379000  0.75650000  1.0
  C  C245  1  0.32676000  0.75621000  0.24351000  1.0
  C  C246  1  0.32676000  0.25621000  0.75649000  1.0
  C  C247  1  0.82676000  0.74380000  0.24351000  1.0
  C  C248  1  0.79706000  0.31830000  0.76684000  1.0
  C  C249  1  0.29705000  0.68170000  0.23316000  1.0
  C  C250  1  0.29705000  0.18171000  0.76683000  1.0
  C  C251  1  0.79705000  0.81830000  0.23317000  1.0
  N  N252  1  0.98344000  0.48812000  0.67504000  1.0
  N  N253  1  0.48344000  0.51188000  0.32496000  1.0
  N  N254  1  0.48344000  0.01188000  0.67504000  1.0
  N  N255  1  0.98344000  0.98812000  0.32497000  1.0
  N  N256  1  0.61873000  0.43741000  0.85996000  1.0
  N  N257  1  0.11873000  0.56259000  0.14003000  1.0
  N  N258  1  0.11872000  0.06260000  0.85995000  1.0
  N  N259  1  0.61871000  0.93740000  0.14005000  1.0
  N  N260  1  0.86013000  0.37274000  0.73726000  1.0
  N  N261  1  0.36013000  0.62726000  0.26274000  1.0
  N  N262  1  0.36013000  0.12726000  0.73725000  1.0
  N  N263  1  0.86013000  0.87274000  0.26275000  1.0
  N  N264  1  0.65289000  0.49920000  0.82916000  1.0
  N  N265  1  0.15290000  0.50080000  0.17083000  1.0
  N  N266  1  0.15289000  0.00081000  0.82916000  1.0
  N  N267  1  0.65288000  0.99919000  0.17084000  1.0
  N  N268  1  0.15129000  0.20900000  0.61428000  1.0
  N  N269  1  0.65129000  0.79100000  0.38572000  1.0
  N  N270  1  0.65129000  0.29100000  0.61428000  1.0
  N  N271  1  0.15129000  0.70900000  0.38572000  1.0
  N  N272  1  0.25419000  0.30484000  0.56842000  1.0
  N  N273  1  0.75419000  0.69516000  0.43158000  1.0
  N  N274  1  0.75418000  0.19516000  0.56841000  1.0
  N  N275  1  0.25418000  0.80483000  0.43159000  1.0
  N  N276  1  0.58897000  0.55672000  0.85325000  1.0
  N  N277  1  0.08898000  0.44327000  0.14675000  1.0
  N  N278  1  0.08898000  0.94328000  0.85324000  1.0
  N  N279  1  0.58897000  0.05672000  0.14675000  1.0
  N  N280  1  0.51222000  0.53320000  0.90095000  1.0
  N  N281  1  0.01224000  0.46680000  0.09903000  1.0
  N  N282  1  0.01223000  0.96680000  0.90095000  1.0
  N  N283  1  0.51222000  0.03320000  0.09904000  1.0
  N  N284  1  0.24640000  0.19768000  0.06703000  1.0
  N  N285  1  0.74639000  0.80232000  0.93297000  1.0
  N  N286  1  0.74639000  0.30232000  0.06702000  1.0
  N  N287  1  0.24639000  0.69768000  0.93297000  1.0
  N  N288  1  0.15204000  0.29341000  0.11792000  1.0
  N  N289  1  0.65204000  0.70659000  0.88208000  1.0
  N  N290  1  0.65204000  0.20659000  0.11792000  1.0
  N  N291  1  0.15204000  0.79341000  0.88207000  1.0
  N  N292  1  0.62521000  0.06155000  0.36348000  1.0
  N  N293  1  0.12519000  0.93845000  0.63653000  1.0
  N  N294  1  0.12522000  0.43845000  0.36348000  1.0
  N  N295  1  0.62522000  0.56155000  0.63652000  1.0
  N  N296  1  0.51654000  0.96674000  0.40458000  1.0
  N  N297  1  0.01655000  0.03326000  0.59541000  1.0
  N  N298  1  0.01657000  0.53326000  0.40459000  1.0
  N  N299  1  0.51656000  0.46674000  0.59542000  1.0
  N  N300  1  0.59228000  0.94246000  0.35677000  1.0
  N  N301  1  0.09228000  0.05754000  0.64323000  1.0
  N  N302  1  0.09230000  0.55754000  0.35677000  1.0
  N  N303  1  0.59230000  0.44246000  0.64323000  1.0
  N  N304  1  0.86065000  0.12963000  0.24107000  1.0
  N  N305  1  0.36065000  0.87037000  0.75893000  1.0
  N  N306  1  0.36065000  0.37037000  0.24106000  1.0
  N  N307  1  0.86065000  0.62963000  0.75893000  1.0
  N  N308  1  0.97246000  0.01503000  0.17191000  1.0
  N  N309  1  0.47246000  0.98496000  0.82809000  1.0
  N  N310  1  0.47245000  0.48496000  0.17190000  1.0
  N  N311  1  0.97246000  0.51504000  0.82810000  1.0
  N  N312  1  0.65761000  0.99946000  0.33267000  1.0
  N  N313  1  0.15760000  0.00054000  0.66733000  1.0
  N  N314  1  0.15763000  0.50054000  0.33267000  1.0
  N  N315  1  0.65763000  0.49946000  0.66733000  1.0
