# generated using pymatgen
data_ZnH8C10NO5
_symmetry_space_group_name_H-M   'P 1'
_cell_length_a   5.21724000
_cell_length_b   10.52300000
_cell_length_c   18.65070000
_cell_angle_alpha   89.99990000
_cell_angle_beta   89.99980000
_cell_angle_gamma   92.58820000
_symmetry_Int_Tables_number   1
_chemical_formula_structural   ZnH8C10NO5
_chemical_formula_sum   'Zn4 H32 C40 N4 O20'
_cell_volume   1022.89785602
_cell_formula_units_Z   4
loop_
 _symmetry_equiv_pos_site_id
 _symmetry_equiv_pos_as_xyz
  1  'x, y, z'
loop_
 _atom_site_type_symbol
 _atom_site_label
 _atom_site_symmetry_multiplicity
 _atom_site_fract_x
 _atom_site_fract_y
 _atom_site_fract_z
 _atom_site_occupancy
  Zn  Zn0  1  0.54544000  0.77051000  0.55425000  1.0
  Zn  Zn1  1  0.54544000  0.27051000  0.94575000  1.0
  Zn  Zn2  1  0.45457000  0.22949000  0.44576000  1.0
  Zn  Zn3  1  0.45456000  0.72948000  0.05425000  1.0
  H  H4  1  0.96721000  0.67243000  0.59778000  1.0
  H  H5  1  0.96722000  0.17243000  0.90222000  1.0
  H  H6  1  0.03279000  0.32757000  0.40222000  1.0
  H  H7  1  0.03278000  0.82756000  0.09778000  1.0
  H  H8  1  0.79178000  0.55610000  0.55911000  1.0
  H  H9  1  0.79179000  0.05610000  0.94089000  1.0
  H  H10  1  0.20821000  0.44390000  0.44089000  1.0
  H  H11  1  0.20821000  0.94390000  0.05911000  1.0
  H  H12  1  0.44392000  0.95688000  0.79439000  1.0
  H  H13  1  0.44392000  0.45688000  0.70561000  1.0
  H  H14  1  0.55608000  0.04313000  0.20561000  1.0
  H  H15  1  0.55608000  0.54312000  0.29440000  1.0
  H  H16  1  0.19687000  0.96256000  0.90907000  1.0
  H  H17  1  0.19687000  0.46256000  0.59094000  1.0
  H  H18  1  0.80313000  0.03744000  0.09093000  1.0
  H  H19  1  0.80313000  0.53745000  0.40907000  1.0
  H  H20  1  0.67352000  0.66731000  0.82845000  1.0
  H  H21  1  0.67353000  0.16730000  0.67155000  1.0
  H  H22  1  0.32648000  0.33270000  0.17155000  1.0
  H  H23  1  0.32647000  0.83270000  0.32844000  1.0
  H  H24  1  0.91611000  0.66420000  0.71406000  1.0
  H  H25  1  0.91612000  0.16419000  0.78594000  1.0
  H  H26  1  0.08388000  0.33581000  0.28594000  1.0
  H  H27  1  0.08387000  0.83580000  0.21406000  1.0
  H  H28  1  0.70506000  0.89484000  0.41547000  1.0
  H  H29  1  0.70507000  0.39483000  0.08452000  1.0
  H  H30  1  0.29494000  0.10516000  0.58453000  1.0
  H  H31  1  0.29494000  0.60516000  0.91547000  1.0
  H  H32  1  0.92801000  0.95492000  0.62666000  1.0
  H  H33  1  0.92802000  0.45493000  0.87334000  1.0
  H  H34  1  0.07198000  0.04508000  0.37334000  1.0
  H  H35  1  0.07200000  0.54507000  0.12666000  1.0
  C  C36  1  0.33824000  0.81406000  0.67806000  1.0
  C  C37  1  0.33825000  0.31405000  0.82195000  1.0
  C  C38  1  0.66175000  0.18595000  0.32194000  1.0
  C  C39  1  0.66175000  0.68594000  0.17806000  1.0
  C  C40  1  0.19316000  0.81201000  0.74686000  1.0
  C  C41  1  0.19316000  0.31200000  0.75314000  1.0
  C  C42  1  0.80684000  0.18800000  0.25314000  1.0
  C  C43  1  0.80683000  0.68799000  0.24686000  1.0
  C  C44  1  0.27303000  0.89509000  0.80223000  1.0
  C  C45  1  0.27303000  0.39509000  0.69777000  1.0
  C  C46  1  0.72697000  0.10492000  0.19777000  1.0
  C  C47  1  0.72697000  0.60491000  0.30224000  1.0
  C  C48  1  0.13478000  0.89837000  0.86596000  1.0
  C  C49  1  0.13477000  0.39836000  0.63404000  1.0
  C  C50  1  0.86523000  0.10164000  0.13403000  1.0
  C  C51  1  0.86523000  0.60164000  0.36596000  1.0
  C  C52  1  0.91625000  0.81721000  0.87512000  1.0
  C  C53  1  0.91625000  0.31721000  0.62488000  1.0
  C  C54  1  0.08375000  0.18279000  0.12488000  1.0
  C  C55  1  0.08375000  0.68279000  0.37512000  1.0
  C  C56  1  0.84127000  0.73124000  0.82073000  1.0
  C  C57  1  0.84127000  0.23123000  0.67927000  1.0
  C  C58  1  0.15872000  0.26877000  0.17927000  1.0
  C  C59  1  0.15872000  0.76877000  0.32073000  1.0
  C  C60  1  0.97763000  0.72918000  0.75676000  1.0
  C  C61  1  0.97764000  0.22917000  0.74324000  1.0
  C  C62  1  0.02237000  0.27083000  0.24324000  1.0
  C  C63  1  0.02236000  0.77082000  0.25676000  1.0
  C  C64  1  0.76201000  0.82266000  0.94250000  1.0
  C  C65  1  0.76200000  0.32266000  0.55751000  1.0
  C  C66  1  0.23800000  0.17734000  0.05750000  1.0
  C  C67  1  0.23800000  0.67734000  0.44249000  1.0
  C  C68  1  0.83825000  0.94218000  0.45280000  1.0
  C  C69  1  0.83826000  0.44218000  0.04720000  1.0
  C  C70  1  0.16174000  0.05782000  0.54720000  1.0
  C  C71  1  0.16175000  0.55782000  0.95279000  1.0
  C  C72  1  0.96381000  0.97471000  0.57018000  1.0
  C  C73  1  0.96381000  0.47471000  0.92982000  1.0
  C  C74  1  0.03619000  0.02530000  0.42982000  1.0
  C  C75  1  0.03620000  0.52529000  0.07018000  1.0
  N  N76  1  0.80392000  0.91706000  0.52283000  1.0
  N  N77  1  0.80393000  0.41706000  0.97717000  1.0
  N  N78  1  0.19608000  0.08294000  0.47717000  1.0
  N  N79  1  0.19609000  0.58294000  0.02282000  1.0
  O  O80  1  0.25627000  0.73932000  0.62619000  1.0
  O  O81  1  0.25627000  0.23932000  0.87382000  1.0
  O  O82  1  0.74373000  0.26068000  0.37381000  1.0
  O  O83  1  0.74373000  0.76067000  0.12619000  1.0
  O  O84  1  0.53469000  0.88620000  0.66949000  1.0
  O  O85  1  0.53470000  0.38619000  0.83051000  1.0
  O  O86  1  0.46530000  0.11380000  0.33051000  1.0
  O  O87  1  0.46529000  0.61380000  0.16949000  1.0
  O  O88  1  0.64408000  0.71791000  0.96211000  1.0
  O  O89  1  0.64408000  0.21791000  0.53789000  1.0
  O  O90  1  0.35593000  0.28208000  0.03789000  1.0
  O  O91  1  0.35593000  0.78209000  0.46211000  1.0
  O  O92  1  0.74944000  0.92468000  0.97747000  1.0
  O  O93  1  0.74945000  0.42468000  0.52253000  1.0
  O  O94  1  0.25055000  0.07532000  0.02253000  1.0
  O  O95  1  0.25055000  0.57532000  0.47747000  1.0
  O  O96  1  0.79016000  0.64231000  0.58427000  1.0
  O  O97  1  0.79017000  0.14231000  0.91573000  1.0
  O  O98  1  0.20983000  0.35769000  0.41573000  1.0
  O  O99  1  0.20982000  0.85768000  0.08427000  1.0
