# generated using pymatgen
data_ZnH20C24NO10
_symmetry_space_group_name_H-M   'P 1'
_cell_length_a   14.67440000
_cell_length_b   15.88570000
_cell_length_c   17.89760000
_cell_angle_alpha   89.65100000
_cell_angle_beta   89.91410000
_cell_angle_gamma   89.54230000
_symmetry_Int_Tables_number   1
_chemical_formula_structural   ZnH20C24NO10
_chemical_formula_sum   'Zn2 H40 C48 N2 O20'
_cell_volume   4171.95039928
_cell_formula_units_Z   2
loop_
 _symmetry_equiv_pos_site_id
 _symmetry_equiv_pos_as_xyz
  1  'x, y, z'
loop_
 _atom_site_type_symbol
 _atom_site_label
 _atom_site_symmetry_multiplicity
 _atom_site_fract_x
 _atom_site_fract_y
 _atom_site_fract_z
 _atom_site_occupancy
  Zn  Zn0  1  0.40617000  0.49781000  0.50030000  1.0
  Zn  Zn1  1  0.59715000  0.50010000  0.49939000  1.0
  H  H2  1  0.31133000  0.40404000  0.84613000  1.0
  H  H3  1  0.65690000  0.85163000  0.53850000  1.0
  H  H4  1  0.35335000  0.85345000  0.54643000  1.0
  H  H5  1  0.65709000  0.14424000  0.54687000  1.0
  H  H6  1  0.75412000  0.31109000  0.33477000  1.0
  H  H7  1  0.85599000  0.26974000  0.29568000  1.0
  H  H8  1  0.79856000  0.21313000  0.36716000  1.0
  H  H9  1  0.93535000  0.28543000  0.42037000  1.0
  H  H10  1  0.83396000  0.32542000  0.45983000  1.0
  H  H11  1  0.83714000  0.44751000  0.36960000  1.0
  H  H12  1  0.93837000  0.40818000  0.33011000  1.0
  H  H13  1  0.68295000  0.41173000  0.14832000  1.0
  H  H14  1  0.25541000  0.60582000  0.70867000  1.0
  H  H15  1  0.15654000  0.63930000  0.75810000  1.0
  H  H16  1  0.21237000  0.54335000  0.78273000  1.0
  H  H17  1  0.07141000  0.51241000  0.70850000  1.0
  H  H18  1  0.17014000  0.48066000  0.65979000  1.0
  H  H19  1  0.16626000  0.61768000  0.58722000  1.0
  H  H20  1  0.06562000  0.64686000  0.63406000  1.0
  H  H21  1  0.74963000  0.69318000  0.65914000  1.0
  H  H22  1  0.84986000  0.73261000  0.70097000  1.0
  H  H23  1  0.79542000  0.79102000  0.62881000  1.0
  H  H24  1  0.30807000  0.59705000  0.15668000  1.0
  H  H25  1  0.93334000  0.71772000  0.57719000  1.0
  H  H26  1  0.83367000  0.67790000  0.53619000  1.0
  H  H27  1  0.83633000  0.55623000  0.62745000  1.0
  H  H28  1  0.93686000  0.59510000  0.66708000  1.0
  H  H29  1  0.25582000  0.39398000  0.28782000  1.0
  H  H30  1  0.15674000  0.36161000  0.23908000  1.0
  H  H31  1  0.21177000  0.45713000  0.21430000  1.0
  H  H32  1  0.07137000  0.48931000  0.28968000  1.0
  H  H33  1  0.17026000  0.51954000  0.33798000  1.0
  H  H34  1  0.16722000  0.38239000  0.41010000  1.0
  H  H35  1  0.67879000  0.59647000  0.84969000  1.0
  H  H36  1  0.06680000  0.35420000  0.36344000  1.0
  H  H37  1  0.36419000  0.43409000  0.67929000  1.0
  H  H38  1  0.63726000  0.44133000  0.31725000  1.0
  H  H39  1  0.36179000  0.56331000  0.32286000  1.0
  H  H40  1  0.63422000  0.56153000  0.68165000  1.0
  H  H41  1  0.35288000  0.14596000  0.54718000  1.0
  C  C42  1  0.50479000  0.33858000  0.50977000  1.0
  C  C43  1  0.95415000  0.45688000  0.44071000  1.0
  C  C44  1  0.09380000  0.49997000  0.49905000  1.0
  C  C45  1  0.90958000  0.50153000  0.49865000  1.0
  C  C46  1  0.19042000  0.49862000  0.49949000  1.0
  C  C47  1  0.81296000  0.50193000  0.49864000  1.0
  C  C48  1  0.50021000  0.50077000  0.35270000  1.0
  C  C49  1  0.50006000  0.49836000  0.64806000  1.0
  C  C50  1  0.42148000  0.46498000  0.84677000  1.0
  C  C51  1  0.56881000  0.46784000  0.15151000  1.0
  C  C52  1  0.42051000  0.53803000  0.15470000  1.0
  C  C53  1  0.50032000  0.65933000  0.50967000  1.0
  C  C54  1  0.56695000  0.53815000  0.84812000  1.0
  C  C55  1  0.42348000  0.46397000  0.76885000  1.0
  C  C56  1  0.57165000  0.46809000  0.22943000  1.0
  C  C57  1  0.42247000  0.53697000  0.23264000  1.0
  C  C58  1  0.56982000  0.53598000  0.77024000  1.0
  C  C59  1  0.49783000  0.49936000  0.72934000  1.0
  C  C60  1  0.49816000  0.50201000  0.27136000  1.0
  C  C61  1  0.49294000  0.50232000  0.88748000  1.0
  C  C62  1  0.49333000  0.50308000  0.11303000  1.0
  C  C63  1  0.49133000  0.50309000  0.96619000  1.0
  C  C64  1  0.50482000  0.82404000  0.53565000  1.0
  C  C65  1  0.49143000  0.50350000  0.03433000  1.0
  C  C66  1  0.42064000  0.95540000  0.54821000  1.0
  C  C67  1  0.58989000  0.04216000  0.54683000  1.0
  C  C68  1  0.42055000  0.04319000  0.54851000  1.0
  C  C69  1  0.58992000  0.95443000  0.54522000  1.0
  C  C70  1  0.50530000  0.91185000  0.54458000  1.0
  C  C71  1  0.50510000  0.08582000  0.54615000  1.0
  C  C72  1  0.89955000  0.41138000  0.38257000  1.0
  C  C73  1  0.87300000  0.32172000  0.40729000  1.0
  C  C74  1  0.81730000  0.27651000  0.34801000  1.0
  C  C75  1  0.50483000  0.17378000  0.53757000  1.0
  C  C76  1  0.10436000  0.59220000  0.61355000  1.0
  C  C77  1  0.13294000  0.53639000  0.68042000  1.0
  C  C78  1  0.19243000  0.58392000  0.73561000  1.0
  C  C79  1  0.89849000  0.59191000  0.61452000  1.0
  C  C80  1  0.87121000  0.68157000  0.58934000  1.0
  C  C81  1  0.81325000  0.72704000  0.64768000  1.0
  C  C82  1  0.10511000  0.40845000  0.38402000  1.0
  C  C83  1  0.13313000  0.46440000  0.31727000  1.0
  C  C84  1  0.19246000  0.41656000  0.26147000  1.0
  C  C85  1  0.50422000  0.24964000  0.52544000  1.0
  C  C86  1  0.50287000  0.74828000  0.52400000  1.0
  C  C87  1  0.04971000  0.45459000  0.44183000  1.0
  C  C88  1  0.95375000  0.54565000  0.55665000  1.0
  C  C89  1  0.04931000  0.54642000  0.55589000  1.0
  N  N90  1  0.73381000  0.50205000  0.49865000  1.0
  N  N91  1  0.26956000  0.49722000  0.49992000  1.0
  O  O92  1  0.43079000  0.37159000  0.48598000  1.0
  O  O93  1  0.63899000  0.43311000  0.11168000  1.0
  O  O94  1  0.34799000  0.57365000  0.11809000  1.0
  O  O95  1  0.63578000  0.57521000  0.88696000  1.0
  O  O96  1  0.35192000  0.42606000  0.73406000  1.0
  O  O97  1  0.64717000  0.43303000  0.26227000  1.0
  O  O98  1  0.34944000  0.57261000  0.26831000  1.0
  O  O99  1  0.64383000  0.57168000  0.73643000  1.0
  O  O100  1  0.33961000  0.08565000  0.54900000  1.0
  O  O101  1  0.67075000  0.91167000  0.54255000  1.0
  O  O102  1  0.33984000  0.91389000  0.54857000  1.0
  O  O103  1  0.57385000  0.62555000  0.48568000  1.0
  O  O104  1  0.67068000  0.08379000  0.54596000  1.0
  O  O105  1  0.42485000  0.62281000  0.52271000  1.0
  O  O106  1  0.58008000  0.37590000  0.52161000  1.0
  O  O107  1  0.42810000  0.52418000  0.38878000  1.0
  O  O108  1  0.57217000  0.52398000  0.61372000  1.0
  O  O109  1  0.42929000  0.47192000  0.61268000  1.0
  O  O110  1  0.57353000  0.47627000  0.38647000  1.0
  O  O111  1  0.35035000  0.42890000  0.88423000  1.0
