# generated using pymatgen
data_TbH6C9N3O7
_symmetry_space_group_name_H-M   'P 1'
_cell_length_a   7.08913000
_cell_length_b   7.84988000
_cell_length_c   10.31870000
_cell_angle_alpha   90.78730000
_cell_angle_beta   102.52100000
_cell_angle_gamma   102.66200000
_symmetry_Int_Tables_number   1
_chemical_formula_structural   TbH6C9N3O7
_chemical_formula_sum   'Tb2 H12 C18 N6 O14'
_cell_volume   545.80110632
_cell_formula_units_Z   2
loop_
 _symmetry_equiv_pos_site_id
 _symmetry_equiv_pos_as_xyz
  1  'x, y, z'
loop_
 _atom_site_type_symbol
 _atom_site_label
 _atom_site_symmetry_multiplicity
 _atom_site_fract_x
 _atom_site_fract_y
 _atom_site_fract_z
 _atom_site_occupancy
  Tb  Tb0  1  0.28194000  0.29462000  0.42355000  1.0
  Tb  Tb1  1  0.71806000  0.70539000  0.57646000  1.0
  H  H2  1  0.51906000  0.97702000  0.11562000  1.0
  H  H3  1  0.48094000  0.02297000  0.88438000  1.0
  H  H4  1  0.16294000  0.48640000  0.81419000  1.0
  H  H5  1  0.83707000  0.51360000  0.18581000  1.0
  H  H6  1  0.14094000  0.08009000  0.09180000  1.0
  H  H7  1  0.85906000  0.91990000  0.90820000  1.0
  H  H8  1  0.08037000  0.16852000  0.85446000  1.0
  H  H9  1  0.91964000  0.83148000  0.14554000  1.0
  H  H10  1  0.89061000  0.05633000  0.37341000  1.0
  H  H11  1  0.10940000  0.94367000  0.62659000  1.0
  H  H12  1  0.87568000  0.15871000  0.24234000  1.0
  H  H13  1  0.12431000  0.84129000  0.75766000  1.0
  C  C14  1  0.99403000  0.54675000  0.43430000  1.0
  C  C15  1  0.00598000  0.45325000  0.56570000  1.0
  C  C16  1  0.19638000  0.44217000  0.91424000  1.0
  C  C17  1  0.80362000  0.55782000  0.08576000  1.0
  C  C18  1  0.33012000  0.50070000  0.15081000  1.0
  C  C19  1  0.66989000  0.49929000  0.84919000  1.0
  C  C20  1  0.18396000  0.21654000  0.06915000  1.0
  C  C21  1  0.81604000  0.78346000  0.93085000  1.0
  C  C22  1  0.44015000  0.62248000  0.26312000  1.0
  C  C23  1  0.55985000  0.37752000  0.73688000  1.0
  C  C24  1  0.35163000  0.75005000  0.00761000  1.0
  C  C25  1  0.64837000  0.24995000  0.99239000  1.0
  C  C26  1  0.28939000  0.56302000  0.02283000  1.0
  C  C27  1  0.71061000  0.43697000  0.97717000  1.0
  C  C28  1  0.14679000  0.26614000  0.93742000  1.0
  C  C29  1  0.85321000  0.73385000  0.06258000  1.0
  C  C30  1  0.58722000  0.04947000  0.47070000  1.0
  C  C31  1  0.41276000  0.95054000  0.52930000  1.0
  N  N32  1  0.27202000  0.32970000  0.17404000  1.0
  N  N33  1  0.72798000  0.67030000  0.82596000  1.0
  N  N34  1  0.45049000  0.84641000  0.12222000  1.0
  N  N35  1  0.54951000  0.15359000  0.87778000  1.0
  N  N36  1  0.49740000  0.79020000  0.24639000  1.0
  N  N37  1  0.50260000  0.20979000  0.75361000  1.0
  O  O38  1  0.07953000  0.49459000  0.35100000  1.0
  O  O39  1  0.92046000  0.50542000  0.64900000  1.0
  O  O40  1  0.74161000  0.98704000  0.49064000  1.0
  O  O41  1  0.25838000  0.01296000  0.50936000  1.0
  O  O42  1  0.48406000  0.56289000  0.38155000  1.0
  O  O43  1  0.51593000  0.43711000  0.61846000  1.0
  O  O44  1  0.56310000  0.18311000  0.40849000  1.0
  O  O45  1  0.43688000  0.81689000  0.59151000  1.0
  O  O46  1  0.32167000  0.82187000  0.89796000  1.0
  O  O47  1  0.67833000  0.17813000  0.10204000  1.0
  O  O48  1  0.96971000  0.11142000  0.30964000  1.0
  O  O49  1  0.03030000  0.88858000  0.69036000  1.0
  O  O50  1  0.89873000  0.66644000  0.41907000  1.0
  O  O51  1  0.10126000  0.33357000  0.58093000  1.0
