# generated using pymatgen
data_AgH12C7S4(OF)3
_symmetry_space_group_name_H-M   'P 1'
_cell_length_a   8.38524000
_cell_length_b   8.53564000
_cell_length_c   9.34313000
_cell_angle_alpha   81.95410000
_cell_angle_beta   85.61340000
_cell_angle_gamma   80.39710000
_symmetry_Int_Tables_number   1
_chemical_formula_structural   AgH12C7S4(OF)3
_chemical_formula_sum   'Ag2 H24 C14 S8 O6 F6'
_cell_volume   651.89093064
_cell_formula_units_Z   2
loop_
 _symmetry_equiv_pos_site_id
 _symmetry_equiv_pos_as_xyz
  1  'x, y, z'
loop_
 _atom_site_type_symbol
 _atom_site_label
 _atom_site_symmetry_multiplicity
 _atom_site_fract_x
 _atom_site_fract_y
 _atom_site_fract_z
 _atom_site_occupancy
  Ag  Ag0  1  0.11084000  0.10745000  0.08334000  1.0
  Ag  Ag1  1  0.88916000  0.89255000  0.91666000  1.0
  H  H2  1  0.23609000  0.81146000  0.38346000  1.0
  H  H3  1  0.76391000  0.18854000  0.61654000  1.0
  H  H4  1  0.24003000  0.00689000  0.42841000  1.0
  H  H5  1  0.75996000  0.99311000  0.57159000  1.0
  H  H6  1  0.96777000  0.23689000  0.40914000  1.0
  H  H7  1  0.03223000  0.76311000  0.59086000  1.0
  H  H8  1  0.78136000  0.19489000  0.35160000  1.0
  H  H9  1  0.21864000  0.80511000  0.64840000  1.0
  H  H10  1  0.75116000  0.55734000  0.98326000  1.0
  H  H11  1  0.24884000  0.44266000  0.01674000  1.0
  H  H12  1  0.74044000  0.39027000  0.11778000  1.0
  H  H13  1  0.25956000  0.60974000  0.88222000  1.0
  H  H14  1  0.16149000  0.39631000  0.77430000  1.0
  H  H15  1  0.83851000  0.60369000  0.22570000  1.0
  H  H16  1  0.00279000  0.56303000  0.77953000  1.0
  H  H17  1  0.99721000  0.43697000  0.22047000  1.0
  H  H18  1  0.54379000  0.00432000  0.77688000  1.0
  H  H19  1  0.45620000  0.99568000  0.22312000  1.0
  H  H20  1  0.37408000  0.15951000  0.76470000  1.0
  H  H21  1  0.62591000  0.84049000  0.23530000  1.0
  H  H22  1  0.39879000  0.74171000  0.13436000  1.0
  H  H23  1  0.60120000  0.25830000  0.86564000  1.0
  H  H24  1  0.55917000  0.75492000  0.00078000  1.0
  H  H25  1  0.44083000  0.24508000  0.99923000  1.0
  C  C26  1  0.16502000  0.91243000  0.43264000  1.0
  C  C27  1  0.83498000  0.08757000  0.56736000  1.0
  C  C28  1  0.88949000  0.14557000  0.41247000  1.0
  C  C29  1  0.11051000  0.85443000  0.58753000  1.0
  C  C30  1  0.82370000  0.46333000  0.05418000  1.0
  C  C31  1  0.17630000  0.53667000  0.94583000  1.0
  C  C32  1  0.07949000  0.46803000  0.84613000  1.0
  C  C33  1  0.92051000  0.53198000  0.15388000  1.0
  C  C34  1  0.45400000  0.07900000  0.84061000  1.0
  C  C35  1  0.54600000  0.92100000  0.15939000  1.0
  C  C36  1  0.46811000  0.82569000  0.06669000  1.0
  C  C37  1  0.53189000  0.17431000  0.93331000  1.0
  C  C38  1  0.26581000  0.41210000  0.46117000  1.0
  C  C39  1  0.73419000  0.58790000  0.53883000  1.0
  S  S40  1  0.99560000  0.98387000  0.31695000  1.0
  S  S41  1  0.00441000  0.01613000  0.68305000  1.0
  S  S42  1  0.94594000  0.33293000  0.93636000  1.0
  S  S43  1  0.05406000  0.66707000  0.06364000  1.0
  S  S44  1  0.32528000  0.94612000  0.94282000  1.0
  S  S45  1  0.67472000  0.05389000  0.05718000  1.0
  S  S46  1  0.39136000  0.32796000  0.30823000  1.0
  S  S47  1  0.60864000  0.67204000  0.69177000  1.0
  O  O48  1  0.45264000  0.46460000  0.22469000  1.0
  O  O49  1  0.54736000  0.53540000  0.77531000  1.0
  O  O50  1  0.51043000  0.20503000  0.38089000  1.0
  O  O51  1  0.48957000  0.79498000  0.61911000  1.0
  O  O52  1  0.26943000  0.26593000  0.23615000  1.0
  O  O53  1  0.73058000  0.73407000  0.76385000  1.0
  F  F54  1  0.19142000  0.29542000  0.54122000  1.0
  F  F55  1  0.80858000  0.70459000  0.45878000  1.0
  F  F56  1  0.35319000  0.46926000  0.55206000  1.0
  F  F57  1  0.64682000  0.53074000  0.44793000  1.0
  F  F58  1  0.14775000  0.53349000  0.41213000  1.0
  F  F59  1  0.85226000  0.46651000  0.58787000  1.0
