# generated using pymatgen
data_InH10C18O5F6
_symmetry_space_group_name_H-M   'P 1'
_cell_length_a   13.16300000
_cell_length_b   13.17660000
_cell_length_c   14.31255438
_cell_angle_alpha   105.14491163
_cell_angle_beta   117.38005866
_cell_angle_gamma   89.99620000
_symmetry_Int_Tables_number   1
_chemical_formula_structural   InH10C18O5F6
_chemical_formula_sum   'In4 H40 C72 O20 F24'
_cell_volume   2106.78267951
_cell_formula_units_Z   4
loop_
 _symmetry_equiv_pos_site_id
 _symmetry_equiv_pos_as_xyz
  1  'x, y, z'
loop_
 _atom_site_type_symbol
 _atom_site_label
 _atom_site_symmetry_multiplicity
 _atom_site_fract_x
 _atom_site_fract_y
 _atom_site_fract_z
 _atom_site_occupancy
  In  In0  1  0.00000000  0.50000000  0.00000000  1.0
  In  In1  1  0.00000000  0.00000000  0.00000000  1.0
  In  In2  1  0.11092000  0.75002000  0.99999000  1.0
  In  In3  1  0.88908000  0.24998000  0.00001000  1.0
  H  H4  1  0.20985000  0.25402000  0.65742000  1.0
  H  H5  1  0.55245000  0.24602000  0.34264000  1.0
  H  H6  1  0.79015000  0.74598000  0.34258000  1.0
  H  H7  1  0.44755000  0.75398000  0.65736000  1.0
  H  H8  1  0.38882000  0.60331000  0.94050000  1.0
  H  H9  1  0.44834000  0.89672000  0.05952000  1.0
  H  H10  1  0.61118000  0.39669000  0.05950000  1.0
  H  H11  1  0.55166000  0.10328000  0.94048000  1.0
  H  H12  1  0.08796000  0.37541000  0.36343000  1.0
  H  H13  1  0.72454000  0.12459000  0.63657000  1.0
  H  H14  1  0.91204000  0.62459000  0.63657000  1.0
  H  H15  1  0.27545000  0.87541000  0.36343000  1.0
  H  H16  1  0.18930000  0.06480000  0.31652000  1.0
  H  H17  1  0.87280000  0.43522000  0.68350000  1.0
  H  H18  1  0.81070000  0.93520000  0.68348000  1.0
  H  H19  1  0.12720000  0.56478000  0.31650000  1.0
  H  H20  1  0.24647000  0.43104000  0.55671000  1.0
  H  H21  1  0.68975000  0.06892000  0.44326000  1.0
  H  H22  1  0.75353000  0.56896000  0.44329000  1.0
  H  H23  1  0.31025000  0.93108000  0.55674000  1.0
  H  H24  1  0.35307000  0.12033000  0.50608000  1.0
  H  H25  1  0.84696000  0.37964000  0.49392000  1.0
  H  H26  1  0.64693000  0.87967000  0.49392000  1.0
  H  H27  1  0.15305000  0.62036000  0.50609000  1.0
  H  H28  1  0.48954000  0.51502000  0.83921000  1.0
  H  H29  1  0.65031000  0.98500000  0.16079000  1.0
  H  H30  1  0.51046000  0.48498000  0.16079000  1.0
  H  H31  1  0.34969000  0.01500000  0.83921000  1.0
  H  H32  1  0.11582000  0.33966000  0.76717000  1.0
  H  H33  1  0.34870000  0.16034000  0.23285000  1.0
  H  H34  1  0.88418000  0.66034000  0.23283000  1.0
  H  H35  1  0.65130000  0.83966000  0.76715000  1.0
  H  H36  1  0.80670000  0.64872000  0.96544000  1.0
  H  H37  1  0.84126000  0.85131000  0.03458000  1.0
  H  H38  1  0.19330000  0.35128000  0.03456000  1.0
  H  H39  1  0.15874000  0.14869000  0.96542000  1.0
  H  H40  1  0.81933000  0.71056000  0.87326000  1.0
  H  H41  1  0.94611000  0.78947000  0.12674000  1.0
  H  H42  1  0.18067000  0.28944000  0.12674000  1.0
  H  H43  1  0.05389000  0.21053000  0.87326000  1.0
  C  C44  1  0.18208000  0.53197000  0.91659000  1.0
  C  C45  1  0.26553000  0.96805000  0.08342000  1.0
  C  C46  1  0.81792000  0.46803000  0.08341000  1.0
  C  C47  1  0.73447000  0.03195000  0.91658000  1.0
  C  C48  1  0.03367000  0.18313000  0.21237000  1.0
  C  C49  1  0.82131000  0.31689000  0.78763000  1.0
  C  C50  1  0.96633000  0.81687000  0.78763000  1.0
  C  C51  1  0.17869000  0.68311000  0.21237000  1.0
  C  C52  1  0.35614000  0.37848000  0.73950000  1.0
  C  C53  1  0.61665000  0.12156000  0.26049000  1.0
  C  C54  1  0.64386000  0.62152000  0.26050000  1.0
  C  C55  1  0.38335000  0.87844000  0.73951000  1.0
  C  C56  1  0.25126000  0.32935000  0.72126000  1.0
  C  C57  1  0.53004000  0.17070000  0.27880000  1.0
  C  C58  1  0.74874000  0.67065000  0.27874000  1.0
  C  C59  1  0.46996000  0.82930000  0.72120000  1.0
  C  C60  1  0.35179000  0.52552000  0.88001000  1.0
  C  C61  1  0.47179000  0.97453000  0.11998000  1.0
  C  C62  1  0.64821000  0.47448000  0.11999000  1.0
  C  C63  1  0.52821000  0.02547000  0.88002000  1.0
  C  C64  1  0.14610000  0.32019000  0.39645000  1.0
  C  C65  1  0.74963000  0.17981000  0.60353000  1.0
  C  C66  1  0.85390000  0.67981000  0.60355000  1.0
  C  C67  1  0.25037000  0.82019000  0.39647000  1.0
  C  C68  1  0.20350000  0.14522000  0.36998000  1.0
  C  C69  1  0.83348000  0.35480000  0.63003000  1.0
  C  C70  1  0.79650000  0.85478000  0.63002000  1.0
  C  C71  1  0.16652000  0.64520000  0.36997000  1.0
  C  C72  1  0.23544000  0.35098000  0.50405000  1.0
  C  C73  1  0.73138000  0.14898000  0.49592000  1.0
  C  C74  1  0.76456000  0.64902000  0.49595000  1.0
  C  C75  1  0.26862000  0.85102000  0.50408000  1.0
  C  C76  1  0.12853000  0.21646000  0.32888000  1.0
  C  C77  1  0.79957000  0.28355000  0.67109000  1.0
  C  C78  1  0.87147000  0.78354000  0.67112000  1.0
  C  C79  1  0.20042000  0.71645000  0.32890000  1.0
  C  C80  1  0.24649000  0.47697000  0.86007000  1.0
  C  C81  1  0.38646000  0.02308000  0.13995000  1.0
  C  C82  1  0.75351000  0.52303000  0.13993000  1.0
  C  C83  1  0.61354000  0.97692000  0.86005000  1.0
  C  C84  1  0.31114000  0.27986000  0.54594000  1.0
  C  C85  1  0.76516000  0.22014000  0.45405000  1.0
  C  C86  1  0.68885000  0.72014000  0.45406000  1.0
  C  C87  1  0.23484000  0.77986000  0.54595000  1.0
  C  C88  1  0.29513000  0.17703000  0.47713000  1.0
  C  C89  1  0.81792000  0.32298000  0.52287000  1.0
  C  C90  1  0.70487000  0.82297000  0.52287000  1.0
  C  C91  1  0.18208000  0.67702000  0.47713000  1.0
  C  C92  1  0.40745000  0.47565000  0.82161000  1.0
  C  C93  1  0.58583000  0.02441000  0.17837000  1.0
  C  C94  1  0.59255000  0.52435000  0.17839000  1.0
  C  C95  1  0.41417000  0.97559000  0.82163000  1.0
  C  C96  1  0.50112000  0.39497000  0.66710000  1.0
  C  C97  1  0.83403000  0.10502000  0.33293000  1.0
  C  C98  1  0.49888000  0.60503000  0.33290000  1.0
  C  C99  1  0.16597000  0.89498000  0.66707000  1.0
  C  C100  1  0.46600000  0.23013000  0.71432000  1.0
  C  C101  1  0.75167000  0.26986000  0.28569000  1.0
  C  C102  1  0.53399000  0.76987000  0.28567000  1.0
  C  C103  1  0.24833000  0.73014000  0.71431000  1.0
  C  C104  1  0.40776000  0.32096000  0.66629000  1.0
  C  C105  1  0.74149000  0.17904000  0.33372000  1.0
  C  C106  1  0.59224000  0.67904000  0.33371000  1.0
  C  C107  1  0.25851000  0.82096000  0.66628000  1.0
  C  C108  1  0.19775000  0.37718000  0.78199000  1.0
  C  C109  1  0.41583000  0.12287000  0.21805000  1.0
  C  C110  1  0.80225000  0.62282000  0.21801000  1.0
  C  C111  1  0.58417000  0.87713000  0.78195000  1.0
  C  C112  1  0.86647000  0.69707000  0.95473000  1.0
  C  C113  1  0.91174000  0.80295000  0.04527000  1.0
  C  C114  1  0.13353000  0.30293000  0.04527000  1.0
  C  C115  1  0.08826000  0.19705000  0.95473000  1.0
  O  O116  1  0.96129000  0.64211000  0.95799000  1.0
  O  O117  1  0.00326000  0.85791000  0.04196000  1.0
  O  O118  1  0.03871000  0.35789000  0.04201000  1.0
  O  O119  1  0.99674000  0.14210000  0.95804000  1.0
  O  O120  1  0.01378000  0.08488000  0.15936000  1.0
  O  O121  1  0.85446000  0.41513000  0.84062000  1.0
  O  O122  1  0.98623000  0.91512000  0.84064000  1.0
  O  O123  1  0.14554000  0.58487000  0.15938000  1.0
  O  O124  1  0.98065000  0.25605000  0.17460000  1.0
  O  O125  1  0.80611000  0.24399000  0.82544000  1.0
  O  O126  1  0.01936000  0.74395000  0.82540000  1.0
  O  O127  1  0.19389000  0.75601000  0.17456000  1.0
  O  O128  1  0.21008000  0.63207000  0.96056000  1.0
  O  O129  1  0.24956000  0.86797000  0.03944000  1.0
  O  O130  1  0.78993000  0.36793000  0.03945000  1.0
  O  O131  1  0.75044000  0.13203000  0.96056000  1.0
  O  O132  1  0.10278000  0.47409000  0.91409000  1.0
  O  O133  1  0.18872000  0.02594000  0.08592000  1.0
  O  O134  1  0.89722000  0.52592000  0.08591000  1.0
  O  O135  1  0.81128000  0.97406000  0.91408000  1.0
  F  F136  1  0.46086000  0.48595000  0.64519000  1.0
  F  F137  1  0.81566000  0.01404000  0.35483000  1.0
  F  F138  1  0.53914000  0.51405000  0.35481000  1.0
  F  F139  1  0.18434000  0.98596000  0.64517000  1.0
  F  F140  1  0.53135000  0.34690000  0.58893000  1.0
  F  F141  1  0.94241000  0.15311000  0.41113000  1.0
  F  F142  1  0.46866000  0.65310000  0.41108000  1.0
  F  F143  1  0.05759000  0.84689000  0.58887000  1.0
  F  F144  1  0.38456000  0.15361000  0.69792000  1.0
  F  F145  1  0.68662000  0.34637000  0.30210000  1.0
  F  F146  1  0.61544000  0.84639000  0.30208000  1.0
  F  F147  1  0.31339000  0.65363000  0.69790000  1.0
  F  F148  1  0.53708000  0.26687000  0.82450000  1.0
  F  F149  1  0.71255000  0.23315000  0.17552000  1.0
  F  F150  1  0.46292000  0.73313000  0.17550000  1.0
  F  F151  1  0.28745000  0.76685000  0.82448000  1.0
  F  F152  1  0.60025000  0.42465000  0.76524000  1.0
  F  F153  1  0.83505000  0.07531000  0.23480000  1.0
  F  F154  1  0.39974000  0.57535000  0.23476000  1.0
  F  F155  1  0.16495000  0.92469000  0.76520000  1.0
  F  F156  1  0.53000000  0.18063000  0.66809000  1.0
  F  F157  1  0.86191000  0.31937000  0.33190000  1.0
  F  F158  1  0.47000000  0.81937000  0.33191000  1.0
  F  F159  1  0.13809000  0.68063000  0.66810000  1.0
