# generated using pymatgen
data_Zn2H18C23N4O7
_symmetry_space_group_name_H-M   'P 1'
_cell_length_a   9.21228000
_cell_length_b   10.22770000
_cell_length_c   13.41830000
_cell_angle_alpha   83.55310000
_cell_angle_beta   71.36380000
_cell_angle_gamma   74.07660000
_symmetry_Int_Tables_number   1
_chemical_formula_structural   Zn2H18C23N4O7
_chemical_formula_sum   'Zn4 H36 C46 N8 O14'
_cell_volume   1151.59995290
_cell_formula_units_Z   2
loop_
 _symmetry_equiv_pos_site_id
 _symmetry_equiv_pos_as_xyz
  1  'x, y, z'
loop_
 _atom_site_type_symbol
 _atom_site_label
 _atom_site_symmetry_multiplicity
 _atom_site_fract_x
 _atom_site_fract_y
 _atom_site_fract_z
 _atom_site_occupancy
  Zn  Zn0  1  0.37386000  0.68976000  0.27222000  1.0
  Zn  Zn1  1  0.62614000  0.31024000  0.72778000  1.0
  Zn  Zn2  1  0.47786000  0.24475000  0.55087000  1.0
  Zn  Zn3  1  0.52214000  0.75525000  0.44913000  1.0
  H  H4  1  0.61016000  0.95087000  0.04991000  1.0
  H  H5  1  0.38984000  0.04913000  0.95009000  1.0
  H  H6  1  0.63157000  0.15899000  0.93690000  1.0
  H  H7  1  0.36843000  0.84100000  0.06310000  1.0
  H  H8  1  0.56375000  0.38283000  0.02139000  1.0
  H  H9  1  0.43625000  0.61716000  0.97861000  1.0
  H  H10  1  0.12027000  0.30150000  0.55972000  1.0
  H  H11  1  0.87974000  0.69850000  0.44028000  1.0
  H  H12  1  0.90400000  0.55395000  0.61775000  1.0
  H  H13  1  0.09601000  0.44606000  0.38224000  1.0
  H  H14  1  0.35144000  0.56105000  0.63837000  1.0
  H  H15  1  0.64856000  0.43896000  0.36164000  1.0
  H  H16  1  0.13386000  0.79393000  0.63684000  1.0
  H  H17  1  0.86613000  0.20607000  0.36315000  1.0
  H  H18  1  0.94119000  0.78064000  0.64258000  1.0
  H  H19  1  0.05881000  0.21936000  0.35742000  1.0
  H  H20  1  0.77803000  0.68050000  0.81160000  1.0
  H  H21  1  0.22198000  0.31949000  0.18840000  1.0
  H  H22  1  0.71456000  0.65077000  0.00623000  1.0
  H  H23  1  0.28545000  0.34922000  0.99377000  1.0
  H  H24  1  0.13447000  0.77200000  0.98973000  1.0
  H  H25  1  0.86552000  0.22801000  0.01027000  1.0
  H  H26  1  0.20215000  0.79163000  0.79615000  1.0
  H  H27  1  0.79785000  0.20838000  0.20384000  1.0
  H  H28  1  0.90926000  0.57379000  0.14779000  1.0
  H  H29  1  0.09074000  0.42621000  0.85222000  1.0
  H  H30  1  0.75804000  0.72605000  0.16868000  1.0
  H  H31  1  0.24196000  0.27395000  0.83132000  1.0
  H  H32  1  0.16891000  0.56433000  0.17401000  1.0
  H  H33  1  0.83109000  0.43568000  0.82599000  1.0
  H  H34  1  0.08706000  0.96361000  0.27082000  1.0
  H  H35  1  0.91294000  0.03640000  0.72918000  1.0
  H  H36  1  0.83854000  0.94838000  0.20067000  1.0
  H  H37  1  0.16145000  0.05163000  0.79933000  1.0
  H  H38  1  0.33333333  0.61197000  0.45374000  1.0
  H  H39  1  0.66666667  0.38803000  0.54626000  1.0
  C  C40  1  0.51852000  0.92631000  0.25806000  1.0
  C  C41  1  0.48147000  0.07369000  0.74195000  1.0
  C  C42  1  0.53365000  0.05548000  0.19533000  1.0
  C  C43  1  0.46634000  0.94452000  0.80468000  1.0
  C  C44  1  0.58273000  0.04897000  0.08523000  1.0
  C  C45  1  0.41728000  0.95103000  0.91478000  1.0
  C  C46  1  0.59536000  0.16532000  0.02213000  1.0
  C  C47  1  0.40464000  0.83467000  0.97787000  1.0
  C  C48  1  0.55713000  0.28997000  0.06930000  1.0
  C  C49  1  0.44287000  0.71003000  0.93070000  1.0
  C  C50  1  0.50665000  0.29871000  0.17912000  1.0
  C  C51  1  0.49335000  0.70129000  0.82088000  1.0
  C  C52  1  0.49562000  0.18065000  0.24375000  1.0
  C  C53  1  0.50438000  0.81935000  0.75626000  1.0
  C  C54  1  0.44023000  0.18952000  0.36257000  1.0
  C  C55  1  0.55977000  0.81048000  0.63742000  1.0
  C  C56  1  0.45198000  0.43606000  0.22655000  1.0
  C  C57  1  0.54802000  0.56395000  0.77344000  1.0
  C  C58  1  0.13404000  0.39231000  0.58626000  1.0
  C  C59  1  0.86596000  0.60769000  0.41374000  1.0
  C  C60  1  0.02839000  0.51644000  0.61250000  1.0
  C  C61  1  0.97162000  0.48356000  0.38749000  1.0
  C  C62  1  0.26155000  0.52221000  0.62408000  1.0
  C  C63  1  0.73846000  0.47779000  0.37592000  1.0
  C  C64  1  0.04336000  0.73732000  0.67218000  1.0
  C  C65  1  0.95664000  0.26268000  0.32782000  1.0
  C  C66  1  0.99565000  0.73583000  0.79086000  1.0
  C  C67  1  0.00435000  0.26417000  0.20914000  1.0
  C  C68  1  0.85759000  0.69769000  0.85111000  1.0
  C  C69  1  0.14241000  0.30230000  0.14889000  1.0
  C  C70  1  0.82115000  0.68242000  0.96016000  1.0
  C  C71  1  0.17885000  0.31757000  0.03984000  1.0
  C  C72  1  0.92176000  0.70750000  0.01116000  1.0
  C  C73  1  0.07824000  0.29250000  0.98884000  1.0
  C  C74  1  0.05627000  0.74995000  0.95150000  1.0
  C  C75  1  0.94373000  0.25005000  0.04850000  1.0
  C  C76  1  0.09392000  0.76275000  0.84214000  1.0
  C  C77  1  0.90607000  0.23726000  0.15786000  1.0
  C  C78  1  0.88429000  0.68370000  0.12902000  1.0
  C  C79  1  0.11570000  0.31630000  0.87098000  1.0
  C  C80  1  0.11618000  0.67111000  0.19044000  1.0
  C  C81  1  0.88382000  0.32890000  0.80956000  1.0
  C  C82  1  0.06749000  0.87859000  0.24005000  1.0
  C  C83  1  0.93251000  0.12141000  0.75995000  1.0
  C  C84  1  0.94454000  0.87259000  0.20534000  1.0
  C  C85  1  0.05546000  0.12741000  0.79466000  1.0
  N  N86  1  0.27858000  0.39704000  0.59375000  1.0
  N  N87  1  0.72142000  0.60296000  0.40625000  1.0
  N  N88  1  0.11115000  0.59722000  0.63496000  1.0
  N  N89  1  0.88885000  0.40278000  0.36504000  1.0
  N  N90  1  0.17382000  0.75204000  0.23034000  1.0
  N  N91  1  0.82618000  0.24797000  0.76966000  1.0
  N  N92  1  0.97704000  0.74028000  0.17479000  1.0
  N  N93  1  0.02296000  0.25973000  0.82521000  1.0
  O  O94  1  0.48304000  0.83984000  0.21415000  1.0
  O  O95  1  0.51695000  0.16016000  0.78586000  1.0
  O  O96  1  0.54624000  0.91114000  0.34611000  1.0
  O  O97  1  0.45376000  0.08886000  0.65389000  1.0
  O  O98  1  0.30679000  0.17510000  0.41366000  1.0
  O  O99  1  0.69321000  0.82491000  0.58634000  1.0
  O  O100  1  0.54497000  0.21217000  0.40002000  1.0
  O  O101  1  0.45502000  0.78783000  0.59998000  1.0
  O  O102  1  0.34297000  0.45632000  0.31310000  1.0
  O  O103  1  0.65703000  0.54369000  0.68689000  1.0
  O  O104  1  0.51349000  0.53252000  0.17481000  1.0
  O  O105  1  0.48651000  0.46748000  0.82518000  1.0
  O  O106  1  0.35197000  0.69785000  0.42054000  1.0
  O  O107  1  0.64803000  0.30215000  0.57946000  1.0
