# generated using pymatgen
data_CoH14C14(N2Cl)2
_symmetry_space_group_name_H-M   'P 1'
_cell_length_a   7.79409000
_cell_length_b   8.88318000
_cell_length_c   10.99070000
_cell_angle_alpha   90.00000000
_cell_angle_beta   90.00010000
_cell_angle_gamma   100.25600000
_symmetry_Int_Tables_number   1
_chemical_formula_structural   CoH14C14(N2Cl)2
_chemical_formula_sum   'Co2 H28 C28 N8 Cl4'
_cell_volume   748.79694881
_cell_formula_units_Z   2
loop_
 _symmetry_equiv_pos_site_id
 _symmetry_equiv_pos_as_xyz
  1  'x, y, z'
loop_
 _atom_site_type_symbol
 _atom_site_label
 _atom_site_symmetry_multiplicity
 _atom_site_fract_x
 _atom_site_fract_y
 _atom_site_fract_z
 _atom_site_occupancy
  Co  Co0  1  0.70666000  0.78628000  0.48807000  1.0
  Co  Co1  1  0.29334000  0.21372000  0.98807000  1.0
  H  H2  1  0.31317000  0.54421000  0.37582000  1.0
  H  H3  1  0.68683000  0.45579000  0.87581000  1.0
  H  H4  1  0.38180000  0.11916000  0.54089000  1.0
  H  H5  1  0.61819000  0.88084000  0.04088000  1.0
  H  H6  1  0.10286000  0.40067000  0.22933000  1.0
  H  H7  1  0.89714000  0.59933000  0.72933000  1.0
  H  H8  1  0.17544000  0.97536000  0.39247000  1.0
  H  H9  1  0.82456000  0.02463000  0.89246000  1.0
  H  H10  1  0.88064000  0.03316000  0.25440000  1.0
  H  H11  1  0.11936000  0.96684000  0.75440000  1.0
  H  H12  1  0.96194000  0.17148000  0.14172000  1.0
  H  H13  1  0.03807000  0.82852000  0.64172000  1.0
  H  H14  1  0.94092000  0.77622000  0.23424000  1.0
  H  H15  1  0.05908000  0.22378000  0.73424000  1.0
  H  H16  1  0.13061000  0.63164000  0.07190000  1.0
  H  H17  1  0.86939000  0.36836000  0.57190000  1.0
  H  H18  1  0.32668000  0.87457000  0.94714000  1.0
  H  H19  1  0.67332000  0.12544000  0.44714000  1.0
  H  H20  1  0.47605000  0.90114000  0.68844000  1.0
  H  H21  1  0.52394000  0.09886000  0.18844000  1.0
  H  H22  1  0.21754000  0.70632000  0.81205000  1.0
  H  H23  1  0.78246000  0.29367000  0.31204000  1.0
  H  H24  1  0.24614000  0.42235000  0.72681000  1.0
  H  H25  1  0.75386000  0.57765000  0.22681000  1.0
  H  H26  1  0.54173000  0.34594000  0.61722000  1.0
  H  H27  1  0.45827000  0.65407000  0.11721000  1.0
  H  H28  1  0.61836000  0.47714000  0.49870000  1.0
  H  H29  1  0.38163000  0.52286000  0.99870000  1.0
  C  C30  1  0.36434000  0.34047000  0.46628000  1.0
  C  C31  1  0.63566000  0.65953000  0.96627000  1.0
  C  C32  1  0.28278000  0.41954000  0.37992000  1.0
  C  C33  1  0.71722000  0.58046000  0.87991000  1.0
  C  C34  1  0.32233000  0.18066000  0.47116000  1.0
  C  C35  1  0.67766000  0.81934000  0.97115000  1.0
  C  C36  1  0.16434000  0.33912000  0.29792000  1.0
  C  C37  1  0.83565000  0.66088000  0.79791000  1.0
  C  C38  1  0.20500000  0.10010000  0.38851000  1.0
  C  C39  1  0.79499000  0.89989000  0.88850000  1.0
  C  C40  1  0.12603000  0.17901000  0.30060000  1.0
  C  C41  1  0.87397000  0.82099000  0.80060000  1.0
  C  C42  1  0.99979000  0.09303000  0.20970000  1.0
  C  C43  1  0.00021000  0.90697000  0.70970000  1.0
  C  C44  1  0.03310000  0.82212000  0.16393000  1.0
  C  C45  1  0.96690000  0.17788000  0.66394000  1.0
  C  C46  1  0.13287000  0.75314000  0.08361000  1.0
  C  C47  1  0.86714000  0.24686000  0.58361000  1.0
  C  C48  1  0.23088000  0.87447000  0.01862000  1.0
  C  C49  1  0.76912000  0.12554000  0.51862000  1.0
  C  C50  1  0.43673000  0.77803000  0.68058000  1.0
  C  C51  1  0.56327000  0.22197000  0.18058000  1.0
  C  C52  1  0.30704000  0.67905000  0.74378000  1.0
  C  C53  1  0.69296000  0.32095000  0.24378000  1.0
  C  C54  1  0.31644000  0.53388000  0.70100000  1.0
  C  C55  1  0.68355000  0.46612000  0.20099000  1.0
  C  C56  1  0.50192000  0.42474000  0.55015000  1.0
  C  C57  1  0.49807000  0.57526000  0.05015000  1.0
  N  N58  1  0.52013000  0.69790000  0.60288000  1.0
  N  N59  1  0.47986000  0.30210000  0.10288000  1.0
  N  N60  1  0.44407000  0.54862000  0.61660000  1.0
  N  N61  1  0.55593000  0.45138000  0.11659000  1.0
  N  N62  1  0.19329000  0.00944000  0.05631000  1.0
  N  N63  1  0.80671000  0.99056000  0.55630000  1.0
  N  N64  1  0.07146000  0.97481000  0.14526000  1.0
  N  N65  1  0.92854000  0.02519000  0.64526000  1.0
  Cl  Cl66  1  0.58466000  0.83408000  0.31234000  1.0
  Cl  Cl67  1  0.41535000  0.16592000  0.81234000  1.0
  Cl  Cl68  1  0.91845000  0.65172000  0.45852000  1.0
  Cl  Cl69  1  0.08155000  0.34828000  0.95852000  1.0
