# generated using pymatgen
data_CdH7C11N9
_symmetry_space_group_name_H-M   'P 1'
_cell_length_a   7.72595000
_cell_length_b   9.47859000
_cell_length_c   9.90162000
_cell_angle_alpha   89.70070000
_cell_angle_beta   68.05100000
_cell_angle_gamma   74.47200000
_symmetry_Int_Tables_number   1
_chemical_formula_structural   CdH7C11N9
_chemical_formula_sum   'Cd2 H14 C22 N18'
_cell_volume   644.34102183
_cell_formula_units_Z   2
loop_
 _symmetry_equiv_pos_site_id
 _symmetry_equiv_pos_as_xyz
  1  'x, y, z'
loop_
 _atom_site_type_symbol
 _atom_site_label
 _atom_site_symmetry_multiplicity
 _atom_site_fract_x
 _atom_site_fract_y
 _atom_site_fract_z
 _atom_site_occupancy
  Cd  Cd0  1  0.10093000  0.20131000  0.16167000  1.0
  Cd  Cd1  1  0.89908000  0.79869000  0.83833000  1.0
  H  H2  1  0.73356000  0.39007000  0.72640000  1.0
  H  H3  1  0.26645000  0.60992000  0.27360000  1.0
  H  H4  1  0.12282000  0.09897000  0.44913000  1.0
  H  H5  1  0.87719000  0.90103000  0.55087000  1.0
  H  H6  1  0.99020000  0.13661000  0.63675000  1.0
  H  H7  1  0.00981000  0.86339000  0.36324000  1.0
  H  H8  1  0.47735000  0.68082000  0.72470000  1.0
  H  H9  1  0.52264000  0.31918000  0.27531000  1.0
  H  H10  1  0.40968000  0.85344000  0.54619000  1.0
  H  H11  1  0.59031000  0.14655000  0.45382000  1.0
  H  H12  1  0.59633000  0.78744000  0.28005000  1.0
  H  H13  1  0.40365000  0.21256000  0.71995000  1.0
  H  H14  1  0.85604000  0.55123000  0.18121000  1.0
  H  H15  1  0.14395000  0.44877000  0.81880000  1.0
  C  C16  1  0.81291000  0.48262000  0.39832000  1.0
  C  C17  1  0.18709000  0.51738000  0.60168000  1.0
  C  C18  1  0.70669000  0.52134000  0.55087000  1.0
  C  C19  1  0.29330000  0.47866000  0.44913000  1.0
  C  C20  1  0.56160000  0.65389000  0.60743000  1.0
  C  C21  1  0.43840000  0.34611000  0.39258000  1.0
  C  C22  1  0.52470000  0.74952000  0.50682000  1.0
  C  C23  1  0.47529000  0.25048000  0.49318000  1.0
  C  C24  1  0.63074000  0.71241000  0.35578000  1.0
  C  C25  1  0.36925000  0.28759000  0.64423000  1.0
  C  C26  1  0.77667000  0.57918000  0.29893000  1.0
  C  C27  1  0.22331000  0.42083000  0.70108000  1.0
  C  C28  1  0.91489000  0.29630000  0.50889000  1.0
  C  C29  1  0.08511000  0.70370000  0.49111000  1.0
  C  C30  1  0.79483000  0.31229000  0.98299000  1.0
  C  C31  1  0.20517000  0.68771000  0.01701000  1.0
  C  C32  1  0.49847000  0.31375000  0.98268000  1.0
  C  C33  1  0.50154000  0.68625000  0.01731000  1.0
  C  C34  1  0.51018000  0.01823000  0.17793000  1.0
  C  C35  1  0.48981000  0.98177000  0.82207000  1.0
  C  C36  1  0.81673000  0.00751000  0.16982000  1.0
  C  C37  1  0.18327000  0.99249000  0.83017000  1.0
  N  N38  1  0.94135000  0.34159000  0.37543000  1.0
  N  N39  1  0.05865000  0.65842000  0.62457000  1.0
  N  N40  1  0.77732000  0.40182000  0.61666000  1.0
  N  N41  1  0.22268000  0.59818000  0.38334000  1.0
  N  N42  1  0.00574000  0.16298000  0.53394000  1.0
  N  N43  1  0.99426000  0.83702000  0.46605000  1.0
  N  N44  1  0.91763000  0.29803000  0.02913000  1.0
  N  N45  1  0.08237000  0.70197000  0.97087000  1.0
  N  N46  1  0.67012000  0.33245000  0.92090000  1.0
  N  N47  1  0.32989000  0.66754000  0.07909000  1.0
  N  N48  1  0.33906000  0.30283000  0.02839000  1.0
  N  N49  1  0.66095000  0.69717000  0.97161000  1.0
  N  N50  1  0.34010000  0.03638000  0.22482000  1.0
  N  N51  1  0.65992000  0.96362000  0.77517000  1.0
  N  N52  1  0.69682000  0.99124000  0.11318000  1.0
  N  N53  1  0.30320000  0.00876000  0.88681000  1.0
  N  N54  1  0.94140000  0.01635000  0.20845000  1.0
  N  N55  1  0.05861000  0.98365000  0.79155000  1.0
