# generated using pymatgen
data_ZnHC8NO5
_symmetry_space_group_name_H-M   'P 1'
_cell_length_a   10.62770000
_cell_length_b   11.89250000
_cell_length_c   14.04990000
_cell_angle_alpha   89.99390000
_cell_angle_beta   101.44300000
_cell_angle_gamma   89.99850000
_symmetry_Int_Tables_number   1
_chemical_formula_structural   ZnHC8NO5
_chemical_formula_sum   'Zn2 H2 C16 N2 O10'
_cell_volume   1740.46807637
_cell_formula_units_Z   2
loop_
 _symmetry_equiv_pos_site_id
 _symmetry_equiv_pos_as_xyz
  1  'x, y, z'
loop_
 _atom_site_type_symbol
 _atom_site_label
 _atom_site_symmetry_multiplicity
 _atom_site_fract_x
 _atom_site_fract_y
 _atom_site_fract_z
 _atom_site_occupancy
  Zn  Zn0  1  0.36868000  0.50000000  0.48981000  1.0
  Zn  Zn1  1  0.63132000  0.50000000  0.51021000  1.0
  H  H2  1  0.26256000  0.50007000  0.99836000  1.0
  H  H3  1  0.73745000  0.49994000  0.00163000  1.0
  C  C4  1  0.49999000  0.28099000  0.50001000  1.0
  C  C5  1  0.54789000  0.50001000  0.87950000  1.0
  C  C6  1  0.50000000  0.15962000  0.50000000  1.0
  C  C7  1  0.49997000  0.84038000  0.49998000  1.0
  C  C8  1  0.50000000  0.05673000  0.49999000  1.0
  C  C9  1  0.49999000  0.94325000  0.49999000  1.0
  C  C10  1  0.93673000  0.50000000  0.50352000  1.0
  C  C11  1  0.06327000  0.50000000  0.49647000  1.0
  C  C12  1  0.49996000  0.71900000  0.49998000  1.0
  C  C13  1  0.46503000  0.50000000  0.31155000  1.0
  C  C14  1  0.53501000  0.50001000  0.68846000  1.0
  C  C15  1  0.54519000  0.50003000  0.79210000  1.0
  C  C16  1  0.45484000  0.49999000  0.20791000  1.0
  C  C17  1  0.55416000  0.49999000  0.97985000  1.0
  C  C18  1  0.44579000  0.50001000  0.02016000  1.0
  C  C19  1  0.45211000  0.49999000  0.12051000  1.0
  N  N20  1  0.82931000  0.50000000  0.50969000  1.0
  N  N21  1  0.17070000  0.49999000  0.49031000  1.0
  O  O22  1  0.39084000  0.32866000  0.49103000  1.0
  O  O23  1  0.67231000  0.49997000  0.04163000  1.0
  O  O24  1  0.60911000  0.67132000  0.50893000  1.0
  O  O25  1  0.60915000  0.32866000  0.50899000  1.0
  O  O26  1  0.39082000  0.67134000  0.49104000  1.0
  O  O27  1  0.36061000  0.50002000  0.34351000  1.0
  O  O28  1  0.63944000  0.50002000  0.65651000  1.0
  O  O29  1  0.57915000  0.49998000  0.36188000  1.0
  O  O30  1  0.42092000  0.49999000  0.63813000  1.0
  O  O31  1  0.32769000  0.50003000  0.95838000  1.0
