# generated using pymatgen
data_YbH11C9NO9
_symmetry_space_group_name_H-M   'P 1'
_cell_length_a   7.29503000
_cell_length_b   9.36698000
_cell_length_c   11.32922090
_cell_angle_alpha   95.26778308
_cell_angle_beta   108.75324587
_cell_angle_gamma   108.03500000
_symmetry_Int_Tables_number   1
_chemical_formula_structural   YbH11C9NO9
_chemical_formula_sum   'Yb2 H22 C18 N2 O18'
_cell_volume   681.11621632
_cell_formula_units_Z   2
loop_
 _symmetry_equiv_pos_site_id
 _symmetry_equiv_pos_as_xyz
  1  'x, y, z'
loop_
 _atom_site_type_symbol
 _atom_site_label
 _atom_site_symmetry_multiplicity
 _atom_site_fract_x
 _atom_site_fract_y
 _atom_site_fract_z
 _atom_site_occupancy
  Yb  Yb0  1  0.82414000  0.45208000  0.72256000  1.0
  Yb  Yb1  1  0.17585000  0.54792000  0.27744000  1.0
  H  H2  1  0.54702000  0.39562000  0.87085000  1.0
  H  H3  1  0.45299000  0.60438000  0.12916000  1.0
  H  H4  1  0.76802000  0.38206000  0.95451000  1.0
  H  H5  1  0.23198000  0.61794000  0.04549000  1.0
  H  H6  1  0.49703000  0.13640000  0.58063000  1.0
  H  H7  1  0.50299000  0.86360000  0.41937000  1.0
  H  H8  1  0.71223000  0.13809000  0.67361000  1.0
  H  H9  1  0.28777000  0.86191000  0.32639000  1.0
  H  H10  1  0.22349000  0.48857000  0.74991000  1.0
  H  H11  1  0.77651000  0.51143000  0.25009000  1.0
  H  H12  1  0.15366000  0.51169000  0.60451000  1.0
  H  H13  1  0.84634000  0.48831000  0.39549000  1.0
  H  H14  1  0.67198000  0.24575000  0.25923000  1.0
  H  H15  1  0.32802000  0.75426000  0.74077000  1.0
  H  H16  1  0.64307000  0.05885000  0.24548000  1.0
  H  H17  1  0.35693000  0.94115000  0.75452000  1.0
  H  H18  1  0.95926000  0.98720000  0.77872000  1.0
  H  H19  1  0.04074000  0.01280000  0.22128000  1.0
  H  H20  1  0.33415000  0.85398000  0.09483000  1.0
  H  H21  1  0.66585000  0.14603000  0.90517000  1.0
  H  H22  1  0.46771000  0.33377000  0.08732000  1.0
  H  H23  1  0.53228000  0.66623000  0.91267000  1.0
  C  C24  1  0.02074000  0.74183000  0.86329000  1.0
  C  C25  1  0.97927000  0.25817000  0.13671000  1.0
  C  C26  1  0.13792000  0.90490000  0.92977000  1.0
  C  C27  1  0.86208000  0.09510000  0.07023000  1.0
  C  C28  1  0.08849000  0.01954000  0.86970000  1.0
  C  C29  1  0.91150000  0.98045000  0.13030000  1.0
  C  C30  1  0.29863000  0.94412000  0.04849000  1.0
  C  C31  1  0.70137000  0.05589000  0.95151000  1.0
  C  C32  1  0.41600000  0.09858000  0.10931000  1.0
  C  C33  1  0.58400000  0.90142000  0.89068000  1.0
  C  C34  1  0.37363000  0.21309000  0.04546000  1.0
  C  C35  1  0.62637000  0.78691000  0.95454000  1.0
  C  C36  1  0.21010000  0.17326000  0.92730000  1.0
  C  C37  1  0.78990000  0.82673000  0.07270000  1.0
  C  C38  1  0.16859000  0.29712000  0.86140000  1.0
  C  C39  1  0.83141000  0.70288000  0.13860000  1.0
  C  C40  1  0.42540000  0.48356000  0.53620000  1.0
  C  C41  1  0.57461000  0.51644000  0.46380000  1.0
  N  N42  1  0.56883000  0.13493000  0.23018000  1.0
  N  N43  1  0.43119000  0.86507000  0.76983000  1.0
  O  O44  1  0.86964000  0.70725000  0.75623000  1.0
  O  O45  1  0.13036000  0.29275000  0.24377000  1.0
  O  O46  1  0.07156000  0.63227000  0.90878000  1.0
  O  O47  1  0.92844000  0.36773000  0.09122000  1.0
  O  O48  1  0.32164000  0.40857000  0.86085000  1.0
  O  O49  1  0.67836000  0.59143000  0.13915000  1.0
  O  O50  1  0.97941000  0.28540000  0.80675000  1.0
  O  O51  1  0.02059000  0.71460000  0.19325000  1.0
  O  O52  1  0.68130000  0.39042000  0.86861000  1.0
  O  O53  1  0.31870000  0.60958000  0.13139000  1.0
  O  O54  1  0.64651000  0.18635000  0.60731000  1.0
  O  O55  1  0.35350000  0.81366000  0.39270000  1.0
  O  O56  1  0.47951000  0.43401000  0.63652000  1.0
  O  O57  1  0.52050000  0.56599000  0.36349000  1.0
  O  O58  1  0.25864000  0.50981000  0.48785000  1.0
  O  O59  1  0.74137000  0.49019000  0.51215000  1.0
  O  O60  1  0.12834000  0.52746000  0.68514000  1.0
  O  O61  1  0.87166000  0.47253000  0.31487000  1.0
