# generated using pymatgen
data_NdAgH6C12(NO2)4
_symmetry_space_group_name_H-M   'P 1'
_cell_length_a   8.06767000
_cell_length_b   10.14260000
_cell_length_c   18.91780000
_cell_angle_alpha   90.00000000
_cell_angle_beta   90.00000000
_cell_angle_gamma   95.54790000
_symmetry_Int_Tables_number   1
_chemical_formula_structural   NdAgH6C12(NO2)4
_chemical_formula_sum   'Nd4 Ag4 H24 C48 N16 O32'
_cell_volume   1540.73843991
_cell_formula_units_Z   4
loop_
 _symmetry_equiv_pos_site_id
 _symmetry_equiv_pos_as_xyz
  1  'x, y, z'
loop_
 _atom_site_type_symbol
 _atom_site_label
 _atom_site_symmetry_multiplicity
 _atom_site_fract_x
 _atom_site_fract_y
 _atom_site_fract_z
 _atom_site_occupancy
  Nd  Nd0  1  0.75994000  0.65043000  0.39438000  1.0
  Nd  Nd1  1  0.74005000  0.34957000  0.89438000  1.0
  Nd  Nd2  1  0.24004000  0.34956000  0.60562000  1.0
  Nd  Nd3  1  0.25995000  0.65043000  0.10562000  1.0
  Ag  Ag4  1  0.10429000  0.15760000  0.42202000  1.0
  Ag  Ag5  1  0.39571000  0.84240000  0.92202000  1.0
  Ag  Ag6  1  0.89571000  0.84240000  0.57798000  1.0
  Ag  Ag7  1  0.60429000  0.15760000  0.07798000  1.0
  H  H8  1  0.51501000  0.15369000  0.41609000  1.0
  H  H9  1  0.98500000  0.84632000  0.91609000  1.0
  H  H10  1  0.48500000  0.84632000  0.58391000  1.0
  H  H11  1  0.01501000  0.15368000  0.08391000  1.0
  H  H12  1  0.11746000  0.86039000  0.42193000  1.0
  H  H13  1  0.38254000  0.13961000  0.92192000  1.0
  H  H14  1  0.88254000  0.13961000  0.57808000  1.0
  H  H15  1  0.61746000  0.86039000  0.07807000  1.0
  H  H16  1  0.31788000  0.68474000  0.41129000  1.0
  H  H17  1  0.18212000  0.31526000  0.91129000  1.0
  H  H18  1  0.68212000  0.31526000  0.58871000  1.0
  H  H19  1  0.81788000  0.68474000  0.08871000  1.0
  H  H20  1  0.61979000  0.45428000  0.12105000  1.0
  H  H21  1  0.88021000  0.54572000  0.62105000  1.0
  H  H22  1  0.38021000  0.54573000  0.87895000  1.0
  H  H23  1  0.11979000  0.45428000  0.37895000  1.0
  H  H24  1  0.76149000  0.14540000  0.24456000  1.0
  H  H25  1  0.73851000  0.85460000  0.74456000  1.0
  H  H26  1  0.23851000  0.85460000  0.75544000  1.0
  H  H27  1  0.26149000  0.14540000  0.25545000  1.0
  H  H28  1  0.79807000  0.30059000  0.34920000  1.0
  H  H29  1  0.70193000  0.69941000  0.84920000  1.0
  H  H30  1  0.20193000  0.69941000  0.65080000  1.0
  H  H31  1  0.29807000  0.30059000  0.15080000  1.0
  C  C32  1  0.58116000  0.95133000  0.40918000  1.0
  C  C33  1  0.91884000  0.04867000  0.90918000  1.0
  C  C34  1  0.41884000  0.04866000  0.59082000  1.0
  C  C35  1  0.08116000  0.95133000  0.09082000  1.0
  C  C36  1  0.47061000  0.04871000  0.41444000  1.0
  C  C37  1  0.02939000  0.95129000  0.91444000  1.0
  C  C38  1  0.52939000  0.95129000  0.58556000  1.0
  C  C39  1  0.97061000  0.04871000  0.08556000  1.0
  C  C40  1  0.25103000  0.88613000  0.41814000  1.0
  C  C41  1  0.24897000  0.11388000  0.91813000  1.0
  C  C42  1  0.74897000  0.11387000  0.58186000  1.0
  C  C43  1  0.75103000  0.88613000  0.08186000  1.0
  C  C44  1  0.36199000  0.78953000  0.41231000  1.0
  C  C45  1  0.13801000  0.21047000  0.91230000  1.0
  C  C46  1  0.63801000  0.21047000  0.58770000  1.0
  C  C47  1  0.86200000  0.78953000  0.08770000  1.0
  C  C48  1  0.76769000  0.98412000  0.40806000  1.0
  C  C49  1  0.73232000  0.01588000  0.90806000  1.0
  C  C50  1  0.23232000  0.01586000  0.59194000  1.0
  C  C51  1  0.26769000  0.98413000  0.09194000  1.0
  C  C52  1  0.66645000  0.50165000  0.23068000  1.0
  C  C53  1  0.83355000  0.49835000  0.73068000  1.0
  C  C54  1  0.33356000  0.49835000  0.76932000  1.0
  C  C55  1  0.16644000  0.50165000  0.26932000  1.0
  C  C56  1  0.65731000  0.41813000  0.17200000  1.0
  C  C57  1  0.84270000  0.58187000  0.67200000  1.0
  C  C58  1  0.34270000  0.58187000  0.82800000  1.0
  C  C59  1  0.15731000  0.41814000  0.32800000  1.0
  C  C60  1  0.73820000  0.24936000  0.23985000  1.0
  C  C61  1  0.76181000  0.75065000  0.73985000  1.0
  C  C62  1  0.26180000  0.75065000  0.76015000  1.0
  C  C63  1  0.23820000  0.24935000  0.26015000  1.0
  C  C64  1  0.75738000  0.33458000  0.29795000  1.0
  C  C65  1  0.74262000  0.66542000  0.79795000  1.0
  C  C66  1  0.24262000  0.66542000  0.70205000  1.0
  C  C67  1  0.25738000  0.33458000  0.20205000  1.0
  C  C68  1  0.60651000  0.63849000  0.22759000  1.0
  C  C69  1  0.89350000  0.36151000  0.72759000  1.0
  C  C70  1  0.39350000  0.36152000  0.77241000  1.0
  C  C71  1  0.10650000  0.63849000  0.27241000  1.0
  C  C72  1  0.95663000  0.43224000  0.48718000  1.0
  C  C73  1  0.54336000  0.56776000  0.98719000  1.0
  C  C74  1  0.04335000  0.56776000  0.51281000  1.0
  C  C75  1  0.45664000  0.43225000  0.01281000  1.0
  C  C76  1  0.54323000  0.53802000  0.53197000  1.0
  C  C77  1  0.95677000  0.46197000  0.03198000  1.0
  C  C78  1  0.45676000  0.46196000  0.46802000  1.0
  C  C79  1  0.04323000  0.53803000  0.96802000  1.0
  N  N80  1  0.52610000  0.82175000  0.40848000  1.0
  N  N81  1  0.97390000  0.17825000  0.90848000  1.0
  N  N82  1  0.47390000  0.17824000  0.59152000  1.0
  N  N83  1  0.02611000  0.82175000  0.09152000  1.0
  N  N84  1  0.30550000  0.01550000  0.41955000  1.0
  N  N85  1  0.19451000  0.98450000  0.91955000  1.0
  N  N86  1  0.69451000  0.98450000  0.58045000  1.0
  N  N87  1  0.80550000  0.01550000  0.08044000  1.0
  N  N88  1  0.72271000  0.46101000  0.29303000  1.0
  N  N89  1  0.77729000  0.53899000  0.79303000  1.0
  N  N90  1  0.27729000  0.53899000  0.70697000  1.0
  N  N91  1  0.22271000  0.46101000  0.20697000  1.0
  N  N92  1  0.69118000  0.29180000  0.17639000  1.0
  N  N93  1  0.80882000  0.70820000  0.67639000  1.0
  N  N94  1  0.30882000  0.70820000  0.82361000  1.0
  N  N95  1  0.19119000  0.29180000  0.32361000  1.0
  O  O96  1  0.85517000  0.88600000  0.40934000  1.0
  O  O97  1  0.64483000  0.11399000  0.90934000  1.0
  O  O98  1  0.14483000  0.11398000  0.59066000  1.0
  O  O99  1  0.35517000  0.88601000  0.09066000  1.0
  O  O100  1  0.82107000  0.10517000  0.40783000  1.0
  O  O101  1  0.67894000  0.89483000  0.90783000  1.0
  O  O102  1  0.17894000  0.89482000  0.59217000  1.0
  O  O103  1  0.32107000  0.10517000  0.09217000  1.0
  O  O104  1  0.64434000  0.71470000  0.27925000  1.0
  O  O105  1  0.85566000  0.28530000  0.77925000  1.0
  O  O106  1  0.35566000  0.28530000  0.72075000  1.0
  O  O107  1  0.14433000  0.71470000  0.22075000  1.0
  O  O108  1  0.52041000  0.66399000  0.17410000  1.0
  O  O109  1  0.97960000  0.33601000  0.67410000  1.0
  O  O110  1  0.47960000  0.33602000  0.82590000  1.0
  O  O111  1  0.02040000  0.66399000  0.32590000  1.0
  O  O112  1  0.84185000  0.43613000  0.44197000  1.0
  O  O113  1  0.65815000  0.56387000  0.94197000  1.0
  O  O114  1  0.15815000  0.56387000  0.55803000  1.0
  O  O115  1  0.34185000  0.43614000  0.05803000  1.0
  O  O116  1  0.00962000  0.32895000  0.51325000  1.0
  O  O117  1  0.49037000  0.67105000  0.01326000  1.0
  O  O118  1  0.99037000  0.67104000  0.48674000  1.0
  O  O119  1  0.50963000  0.32896000  0.98675000  1.0
  O  O120  1  0.64632000  0.63640000  0.51736000  1.0
  O  O121  1  0.85368000  0.36359000  0.01736000  1.0
  O  O122  1  0.35366000  0.36358000  0.48264000  1.0
  O  O123  1  0.14632000  0.63642000  0.98264000  1.0
  O  O124  1  0.50500000  0.49441000  0.59321000  1.0
  O  O125  1  0.99500000  0.50559000  0.09321000  1.0
  O  O126  1  0.49498000  0.50558000  0.40679000  1.0
  O  O127  1  0.00500000  0.49442000  0.90679000  1.0
