# generated using pymatgen
data_HoH18C18(NO2)4
_symmetry_space_group_name_H-M   'P 1'
_cell_length_a   9.84785000
_cell_length_b   10.28770000
_cell_length_c   11.01030000
_cell_angle_alpha   77.32200000
_cell_angle_beta   76.51350000
_cell_angle_gamma   65.63940000
_symmetry_Int_Tables_number   1
_chemical_formula_structural   HoH18C18(NO2)4
_chemical_formula_sum   'Ho2 H36 C36 N8 O16'
_cell_volume   978.52377287
_cell_formula_units_Z   2
loop_
 _symmetry_equiv_pos_site_id
 _symmetry_equiv_pos_as_xyz
  1  'x, y, z'
loop_
 _atom_site_type_symbol
 _atom_site_label
 _atom_site_symmetry_multiplicity
 _atom_site_fract_x
 _atom_site_fract_y
 _atom_site_fract_z
 _atom_site_occupancy
  Ho  Ho0  1  0.05547000  0.77207000  0.17559000  1.0
  Ho  Ho1  1  0.94453000  0.22793000  0.82441000  1.0
  H  H2  1  0.33616000  0.15153000  0.83949000  1.0
  H  H3  1  0.66384000  0.84847000  0.16051000  1.0
  H  H4  1  0.39310000  0.87133000  0.19152000  1.0
  H  H5  1  0.60690000  0.12867000  0.80848000  1.0
  H  H6  1  0.56565000  0.58968000  0.27436000  1.0
  H  H7  1  0.43434000  0.41032000  0.72565000  1.0
  H  H8  1  0.24305000  0.49629000  0.58183000  1.0
  H  H9  1  0.75694000  0.50371000  0.41818000  1.0
  H  H10  1  0.70638000  0.08272000  0.49391000  1.0
  H  H11  1  0.29362000  0.91728000  0.50609000  1.0
  H  H12  1  0.55110000  0.79779000  0.38531000  1.0
  H  H13  1  0.44890000  0.20221000  0.61469000  1.0
  H  H14  1  0.53645000  0.85934000  0.73250000  1.0
  H  H15  1  0.46356000  0.14066000  0.26750000  1.0
  H  H16  1  0.58220000  0.69050000  0.68377000  1.0
  H  H17  1  0.41780000  0.30950000  0.31622000  1.0
  H  H18  1  0.67555000  0.56890000  0.87471000  1.0
  H  H19  1  0.32445000  0.43110000  0.12529000  1.0
  H  H20  1  0.63636000  0.73816000  0.92027000  1.0
  H  H21  1  0.36364000  0.26184000  0.07973000  1.0
  H  H22  1  0.98283000  0.25314000  0.44997000  1.0
  H  H23  1  0.01717000  0.74686000  0.55003000  1.0
  H  H24  1  0.16030000  0.18468000  0.34899000  1.0
  H  H25  1  0.83970000  0.81532000  0.65100000  1.0
  H  H26  1  0.00707000  0.14824000  0.22679000  1.0
  H  H27  1  0.99293000  0.85176000  0.77321000  1.0
  H  H28  1  0.84175000  0.29245000  0.28316000  1.0
  H  H29  1  0.15825000  0.70755000  0.71685000  1.0
  H  H30  1  0.44815000  0.63306000  0.06659000  1.0
  H  H31  1  0.55186000  0.36694000  0.93341000  1.0
  H  H32  1  0.28344000  0.85444000  0.74910000  1.0
  H  H33  1  0.71656000  0.14556000  0.25090000  1.0
  H  H34  1  0.07751000  0.46325000  0.36433000  1.0
  H  H35  1  0.92249000  0.53675000  0.63567000  1.0
  H  H36  1  0.96696000  0.38129000  0.06187000  1.0
  H  H37  1  0.03304000  0.61871000  0.93813000  1.0
  C  C38  1  0.35046000  0.01279000  0.01761000  1.0
  C  C39  1  0.64954000  0.98721000  0.98239000  1.0
  C  C40  1  0.40934000  0.08523000  0.90874000  1.0
  C  C41  1  0.59066000  0.91477000  0.09126000  1.0
  C  C42  1  0.44136000  0.92794000  0.10886000  1.0
  C  C43  1  0.55864000  0.07206000  0.89114000  1.0
  C  C44  1  0.19195000  0.02220000  0.03368000  1.0
  C  C45  1  0.80805000  0.97781000  0.96632000  1.0
  C  C46  1  0.39240000  0.54978000  0.41957000  1.0
  C  C47  1  0.60759000  0.45021000  0.58044000  1.0
  C  C48  1  0.53799000  0.54966000  0.37332000  1.0
  C  C49  1  0.46201000  0.45034000  0.62669000  1.0
  C  C50  1  0.35494000  0.49929000  0.54689000  1.0
  C  C51  1  0.64505000  0.50071000  0.45312000  1.0
  C  C52  1  0.64404000  0.93304000  0.43216000  1.0
  C  C53  1  0.35596000  0.06696000  0.56784000  1.0
  C  C54  1  0.61545000  0.04685000  0.49739000  1.0
  C  C55  1  0.38455000  0.95315000  0.50261000  1.0
  C  C56  1  0.52761000  0.88659000  0.43568000  1.0
  C  C57  1  0.47239000  0.11341000  0.56431000  1.0
  C  C58  1  0.79459000  0.86732000  0.35274000  1.0
  C  C59  1  0.20541000  0.13268000  0.64726000  1.0
  C  C60  1  0.32937000  0.72714000  0.91865000  1.0
  C  C61  1  0.67064000  0.27286000  0.08135000  1.0
  C  C62  1  0.52467000  0.75494000  0.76153000  1.0
  C  C63  1  0.47533000  0.24506000  0.23847000  1.0
  C  C64  1  0.58831000  0.67641000  0.88582000  1.0
  C  C65  1  0.41169000  0.32359000  0.11418000  1.0
  C  C66  1  0.04349000  0.26551000  0.35403000  1.0
  C  C67  1  0.95651000  0.73449000  0.64597000  1.0
  C  C68  1  0.96480000  0.25641000  0.25252000  1.0
  C  C69  1  0.03520000  0.74359000  0.74748000  1.0
  C  C70  1  0.03036000  0.45552000  0.19257000  1.0
  C  C71  1  0.96963000  0.54448000  0.80743000  1.0
  C  C72  1  0.27712000  0.60725000  0.33379000  1.0
  C  C73  1  0.72287000  0.39275000  0.66621000  1.0
  N  N74  1  0.45561000  0.66614000  0.97182000  1.0
  N  N75  1  0.54439000  0.33387000  0.02818000  1.0
  N  N76  1  0.36556000  0.77301000  0.79359000  1.0
  N  N77  1  0.63444000  0.22700000  0.20641000  1.0
  N  N78  1  0.04322000  0.41109000  0.31624000  1.0
  N  N79  1  0.95678000  0.58891000  0.68376000  1.0
  N  N80  1  0.00036000  0.35932000  0.14788000  1.0
  N  N81  1  0.99964000  0.64069000  0.85212000  1.0
  O  O82  1  0.14319000  0.95191000  0.13172000  1.0
  O  O83  1  0.85681000  0.04809000  0.86828000  1.0
  O  O84  1  0.11592000  0.09891000  0.94739000  1.0
  O  O85  1  0.88409000  0.90109000  0.05261000  1.0
  O  O86  1  0.13954000  0.62292000  0.37653000  1.0
  O  O87  1  0.86045000  0.37708000  0.62347000  1.0
  O  O88  1  0.82994000  0.74807000  0.31380000  1.0
  O  O89  1  0.17006000  0.25194000  0.68619000  1.0
  O  O90  1  0.88297000  0.93690000  0.32054000  1.0
  O  O91  1  0.11703000  0.06310000  0.67946000  1.0
  O  O92  1  0.19811000  0.73850000  0.97344000  1.0
  O  O93  1  0.80188000  0.26149000  0.02656000  1.0
  O  O94  1  0.04743000  0.56785000  0.12764000  1.0
  O  O95  1  0.95258000  0.43215000  0.87236000  1.0
  O  O96  1  0.31565000  0.64548000  0.21660000  1.0
  O  O97  1  0.68434000  0.35452000  0.78340000  1.0
