# generated using pymatgen
data_CdH13C12N5Cl2
_symmetry_space_group_name_H-M   'P 1'
_cell_length_a   7.60946000
_cell_length_b   9.58415000
_cell_length_c   10.22890000
_cell_angle_alpha   75.37250000
_cell_angle_beta   82.67250000
_cell_angle_gamma   88.88220000
_symmetry_Int_Tables_number   1
_chemical_formula_structural   CdH13C12N5Cl2
_chemical_formula_sum   'Cd2 H26 C24 N10 Cl4'
_cell_volume   715.85910167
_cell_formula_units_Z   2
loop_
 _symmetry_equiv_pos_site_id
 _symmetry_equiv_pos_as_xyz
  1  'x, y, z'
loop_
 _atom_site_type_symbol
 _atom_site_label
 _atom_site_symmetry_multiplicity
 _atom_site_fract_x
 _atom_site_fract_y
 _atom_site_fract_z
 _atom_site_occupancy
  Cd  Cd0  1  0.36758000  0.60064000  0.34830000  1.0
  Cd  Cd1  1  0.63242000  0.39936000  0.65170000  1.0
  H  H2  1  0.93447000  0.23490000  0.31479000  1.0
  H  H3  1  0.06554000  0.76509000  0.68521000  1.0
  H  H4  1  0.65232000  0.09831000  0.39898000  1.0
  H  H5  1  0.34769000  0.90168000  0.60102000  1.0
  H  H6  1  0.63769000  0.83219000  0.44255000  1.0
  H  H7  1  0.36232000  0.16780000  0.55744000  1.0
  H  H8  1  0.91201000  0.68950000  0.41131000  1.0
  H  H9  1  0.08801000  0.31050000  0.58868000  1.0
  H  H10  1  0.26169000  0.28813000  0.26820000  1.0
  H  H11  1  0.73830000  0.71187000  0.73181000  1.0
  H  H12  1  0.47350000  0.20636000  0.24987000  1.0
  H  H13  1  0.52649000  0.79365000  0.75013000  1.0
  H  H14  1  0.07257000  0.30858000  0.05669000  1.0
  H  H15  1  0.92742000  0.69143000  0.94331000  1.0
  H  H16  1  0.20031000  0.39220000  0.78197000  1.0
  H  H17  1  0.79968000  0.60781000  0.21803000  1.0
  H  H18  1  0.70224000  0.28519000  0.10344000  1.0
  H  H19  1  0.29775000  0.71480000  0.89656000  1.0
  H  H20  1  0.77332000  0.30888000  0.92849000  1.0
  H  H21  1  0.22667000  0.69111000  0.07151000  1.0
  H  H22  1  0.70765000  0.04304000  0.95358000  1.0
  H  H23  1  0.29233000  0.95696000  0.04643000  1.0
  H  H24  1  0.64615000  0.01895000  0.13056000  1.0
  H  H25  1  0.35383000  0.98105000  0.86945000  1.0
  H  H26  1  0.86772000  0.06853000  0.05820000  1.0
  H  H27  1  0.13226000  0.93146000  0.94180000  1.0
  C  C28  1  0.07481000  0.88422000  0.33931000  1.0
  C  C29  1  0.92519000  0.11577000  0.66068000  1.0
  C  C30  1  0.08030000  0.03643000  0.31051000  1.0
  C  C31  1  0.91972000  0.96356000  0.68948000  1.0
  C  C32  1  0.92917000  0.11812000  0.33055000  1.0
  C  C33  1  0.07084000  0.88188000  0.66944000  1.0
  C  C34  1  0.77246000  0.03972000  0.37806000  1.0
  C  C35  1  0.22754000  0.96027000  0.62194000  1.0
  C  C36  1  0.76477000  0.88754000  0.40466000  1.0
  C  C37  1  0.23523000  0.11246000  0.59534000  1.0
  C  C38  1  0.91486000  0.80679000  0.38704000  1.0
  C  C39  1  0.08515000  0.19322000  0.61295000  1.0
  C  C40  1  0.33997000  0.21225000  0.22045000  1.0
  C  C41  1  0.66003000  0.78776000  0.77956000  1.0
  C  C42  1  0.20509000  0.30795000  0.00382000  1.0
  C  C43  1  0.79491000  0.69206000  0.99618000  1.0
  C  C44  1  0.27060000  0.34837000  0.86877000  1.0
  C  C45  1  0.72939000  0.65164000  0.13124000  1.0
  C  C46  1  0.49923000  0.27872000  0.98018000  1.0
  C  C47  1  0.50076000  0.72128000  0.01982000  1.0
  C  C48  1  0.68276000  0.24504000  0.01430000  1.0
  C  C49  1  0.31724000  0.75496000  0.98571000  1.0
  C  C50  1  0.72842000  0.08422000  0.04100000  1.0
  C  C51  1  0.27156000  0.91577000  0.95901000  1.0
  N  N52  1  0.24663000  0.83876000  0.31704000  1.0
  N  N53  1  0.75339000  0.16124000  0.68296000  1.0
  N  N54  1  0.35412000  0.95021000  0.27656000  1.0
  N  N55  1  0.64589000  0.04979000  0.72344000  1.0
  N  N56  1  0.25667000  0.07080000  0.27128000  1.0
  N  N57  1  0.74334000  0.92920000  0.72872000  1.0
  N  N58  1  0.34983000  0.26372000  0.07339000  1.0
  N  N59  1  0.65016000  0.73629000  0.92661000  1.0
  N  N60  1  0.45242000  0.33022000  0.85543000  1.0
  N  N61  1  0.54757000  0.66978000  0.14457000  1.0
  Cl  Cl62  1  0.09655000  0.48830000  0.30630000  1.0
  Cl  Cl63  1  0.90345000  0.51170000  0.69370000  1.0
  Cl  Cl64  1  0.41409000  0.62357000  0.58713000  1.0
  Cl  Cl65  1  0.58592000  0.37643000  0.41287000  1.0
