# generated using pymatgen
data_AlH27(C4O)12
_symmetry_space_group_name_H-M   'P 1'
_cell_length_a   4.19441000
_cell_length_b   23.48880000
_cell_length_c   23.50260000
_cell_angle_alpha   60.07760000
_cell_angle_beta   87.67110000
_cell_angle_gamma   87.59220000
_symmetry_Int_Tables_number   1
_chemical_formula_structural   AlH27(C4O)12
_chemical_formula_sum   'Al1 H27 C48 O12'
_cell_volume   2004.57143915
_cell_formula_units_Z   1
loop_
 _symmetry_equiv_pos_site_id
 _symmetry_equiv_pos_as_xyz
  1  'x, y, z'
loop_
 _atom_site_type_symbol
 _atom_site_label
 _atom_site_symmetry_multiplicity
 _atom_site_fract_x
 _atom_site_fract_y
 _atom_site_fract_z
 _atom_site_occupancy
  Al  Al0  1  0.05741000  0.49970000  0.49961000  1.0
  H  H1  1  0.81640000  0.33304000  0.67850000  1.0
  H  H2  1  0.80155000  0.26992000  0.79914000  1.0
  H  H3  1  0.85683000  0.22963000  0.89357000  1.0
  H  H4  1  0.85009000  0.16941000  0.01310000  1.0
  H  H5  1  0.28653000  0.80180000  0.26899000  1.0
  H  H6  1  0.22587000  0.89661000  0.22831000  1.0
  H  H7  1  0.22678000  0.01596000  0.16844000  1.0
  H  H8  1  0.52215000  0.10572000  0.10475000  1.0
  H  H9  1  0.78677000  0.67892000  0.48657000  1.0
  H  H10  1  0.76925000  0.79965000  0.42928000  1.0
  H  H11  1  0.81591000  0.89449000  0.37581000  1.0
  H  H12  1  0.81529000  0.01380000  0.31546000  1.0
  H  H13  1  0.32956000  0.26880000  0.43173000  1.0
  H  H14  1  0.25693000  0.23019000  0.37786000  1.0
  H  H15  1  0.23672000  0.17158000  0.31733000  1.0
  H  H16  1  0.52743000  0.10587000  0.28776000  1.0
  H  H17  1  0.85901000  0.48303000  0.33324000  1.0
  H  H18  1  0.84660000  0.42535000  0.27016000  1.0
  H  H19  1  0.87507000  0.37236000  0.22640000  1.0
  H  H20  1  0.85218000  0.31326000  0.16619000  1.0
  H  H21  1  0.27022000  0.43048000  0.80187000  1.0
  H  H22  1  0.20559000  0.37557000  0.89667000  1.0
  H  H23  1  0.20551000  0.31544000  0.01617000  1.0
  H  H24  1  0.53386000  0.28872000  0.10483000  1.0
  H  H25  1  0.70784000  0.30244000  0.55164000  1.0
  H  H26  1  0.64991000  0.55038000  0.64818000  1.0
  H  H27  1  0.69617000  0.64868000  0.30086000  1.0
  C  C28  1  0.54981000  0.45042000  0.59919000  1.0
  C  C29  1  0.58371000  0.44915000  0.45034000  1.0
  C  C30  1  0.54864000  0.59930000  0.44947000  1.0
  C  C31  1  0.69727000  0.35373000  0.70642000  1.0
  C  C32  1  0.68755000  0.31857000  0.77457000  1.0
  C  C33  1  0.70618000  0.24870000  0.91941000  1.0
  C  C34  1  0.70282000  0.21409000  0.98764000  1.0
  C  C35  1  0.40613000  0.70779000  0.34942000  1.0
  C  C36  1  0.39516000  0.77618000  0.31701000  1.0
  C  C37  1  0.36128000  0.92122000  0.24795000  1.0
  C  C38  1  0.36201000  0.98946000  0.21342000  1.0
  C  C39  1  0.54955000  0.41593000  0.67205000  1.0
  C  C40  1  0.53476000  0.34471000  0.81133000  1.0
  C  C41  1  0.53091000  0.30809000  0.88405000  1.0
  C  C42  1  0.52709000  0.23756000  0.02420000  1.0
  C  C43  1  0.52643000  0.20127000  0.09667000  1.0
  C  C44  1  0.52354000  0.13241000  0.13170000  1.0
  C  C45  1  0.67757000  0.70674000  0.43866000  1.0
  C  C46  1  0.66589000  0.77495000  0.40588000  1.0
  C  C47  1  0.67965000  0.92007000  0.33102000  1.0
  C  C48  1  0.67895000  0.98831000  0.29680000  1.0
  C  C49  1  0.45218000  0.34867000  0.44414000  1.0
  C  C50  1  0.44541000  0.31603000  0.40848000  1.0
  C  C51  1  0.39468000  0.24877000  0.33207000  1.0
  C  C52  1  0.38344000  0.21493000  0.29777000  1.0
  C  C53  1  0.54637000  0.67219000  0.41139000  1.0
  C  C54  1  0.52567000  0.81158000  0.34388000  1.0
  C  C55  1  0.52088000  0.88436000  0.30769000  1.0
  C  C56  1  0.52081000  0.02476000  0.23702000  1.0
  C  C57  1  0.52302000  0.09730000  0.20057000  1.0
  C  C58  1  0.52720000  0.13257000  0.23421000  1.0
  C  C59  1  0.74390000  0.43578000  0.35421000  1.0
  C  C60  1  0.73491000  0.40281000  0.31896000  1.0
  C  C61  1  0.72883000  0.32898000  0.24685000  1.0
  C  C62  1  0.71589000  0.29547000  0.21220000  1.0
  C  C63  1  0.39514000  0.44294000  0.70776000  1.0
  C  C64  1  0.38850000  0.40743000  0.77613000  1.0
  C  C65  1  0.35383000  0.33105000  0.92110000  1.0
  C  C66  1  0.35335000  0.29697000  0.98931000  1.0
  C  C67  1  0.59843000  0.40998000  0.41651000  1.0
  C  C68  1  0.58350000  0.34211000  0.34506000  1.0
  C  C69  1  0.56902000  0.30664000  0.30789000  1.0
  C  C70  1  0.54381000  0.23746000  0.23695000  1.0
  C  C71  1  0.53303000  0.20140000  0.20055000  1.0
  C  C72  1  0.53080000  0.23513000  0.13171000  1.0
  C  C73  1  0.30070000  0.31520000  0.51174000  1.0
  C  C74  1  0.24040000  0.51034000  0.67519000  1.0
  C  C75  1  0.27417000  0.67533000  0.31450000  1.0
  O  O76  1  0.31849000  0.57130000  0.43992000  1.0
  O  O77  1  0.30811000  0.48786000  0.57144000  1.0
  O  O78  1  0.33987000  0.44031000  0.48800000  1.0
  O  O79  1  0.77650000  0.57051000  0.48922000  1.0
  O  O80  1  0.80891000  0.48868000  0.43879000  1.0
  O  O81  1  0.78840000  0.43929000  0.57027000  1.0
  O  O82  1  0.47075000  0.29946000  0.56378000  1.0
  O  O83  1  0.01845000  0.29952000  0.51787000  1.0
  O  O84  1  0.41428000  0.56254000  0.63909000  1.0
  O  O85  1  0.95287000  0.51623000  0.68526000  1.0
  O  O86  1  0.46411000  0.63966000  0.29770000  1.0
  O  O87  1  0.99113000  0.68534000  0.29889000  1.0
