# generated using pymatgen
data_CuPH7(C3O2)2
_symmetry_space_group_name_H-M   'P 1'
_cell_length_a   7.45019000
_cell_length_b   7.52162000
_cell_length_c   14.02040000
_cell_angle_alpha   89.98800000
_cell_angle_beta   88.52400000
_cell_angle_gamma   89.97810000
_symmetry_Int_Tables_number   1
_chemical_formula_structural   CuPH7(C3O2)2
_chemical_formula_sum   'Cu4 P4 H28 C24 O16'
_cell_volume   785.40738252
_cell_formula_units_Z   4
loop_
 _symmetry_equiv_pos_site_id
 _symmetry_equiv_pos_as_xyz
  1  'x, y, z'
loop_
 _atom_site_type_symbol
 _atom_site_label
 _atom_site_symmetry_multiplicity
 _atom_site_fract_x
 _atom_site_fract_y
 _atom_site_fract_z
 _atom_site_occupancy
  Cu  Cu0  1  0.93779000  0.18956000  0.97759000  1.0
  Cu  Cu1  1  0.56227000  0.68970000  0.02227000  1.0
  Cu  Cu2  1  0.06184000  0.81068000  0.02244000  1.0
  Cu  Cu3  1  0.43819000  0.31052000  0.97767000  1.0
  P  P4  1  0.64114000  0.04483000  0.11398000  1.0
  P  P5  1  0.85933000  0.54472000  0.88594000  1.0
  P  P6  1  0.35888000  0.95513000  0.88601000  1.0
  P  P7  1  0.14071000  0.45525000  0.11406000  1.0
  H  H8  1  0.87348000  0.94565000  0.86880000  1.0
  H  H9  1  0.62643000  0.44561000  0.13111000  1.0
  H  H10  1  0.12658000  0.05449000  0.13111000  1.0
  H  H11  1  0.37347000  0.55448000  0.86897000  1.0
  H  H12  1  0.70667000  0.07820000  0.87184000  1.0
  H  H13  1  0.79297000  0.57835000  0.12816000  1.0
  H  H14  1  0.29312000  0.92161000  0.12814000  1.0
  H  H15  1  0.20713000  0.42146000  0.87191000  1.0
  H  H16  1  0.88586000  0.24481000  0.23276000  1.0
  H  H17  1  0.61398000  0.74478000  0.76721000  1.0
  H  H18  1  0.11413000  0.75516000  0.76720000  1.0
  H  H19  1  0.38602000  0.25520000  0.23282000  1.0
  H  H20  1  0.95517000  0.22855000  0.40351000  1.0
  H  H21  1  0.54475000  0.72865000  0.59645000  1.0
  H  H22  1  0.04479000  0.77149000  0.59646000  1.0
  H  H23  1  0.45527000  0.27137000  0.40357000  1.0
  H  H24  1  0.79401000  0.00838000  0.50960000  1.0
  H  H25  1  0.70593000  0.50847000  0.49039000  1.0
  H  H26  1  0.20598000  0.99165000  0.49038000  1.0
  H  H27  1  0.29407000  0.49156000  0.50963000  1.0
  H  H28  1  0.56568000  0.80666000  0.44072000  1.0
  H  H29  1  0.93437000  0.30665000  0.55929000  1.0
  H  H30  1  0.43429000  0.19337000  0.55928000  1.0
  H  H31  1  0.06564000  0.69337000  0.44073000  1.0
  H  H32  1  0.50094000  0.82027000  0.26849000  1.0
  H  H33  1  0.99913000  0.32021000  0.73151000  1.0
  H  H34  1  0.49906000  0.17968000  0.73151000  1.0
  H  H35  1  0.00087000  0.67977000  0.26849000  1.0
  C  C36  1  0.68725000  0.03542000  0.23958000  1.0
  C  C37  1  0.81277000  0.53539000  0.76040000  1.0
  C  C38  1  0.31276000  0.96451000  0.76041000  1.0
  C  C39  1  0.18723000  0.46459000  0.23961000  1.0
  C  C40  1  0.81451000  0.15014000  0.27855000  1.0
  C  C41  1  0.68540000  0.65012000  0.72144000  1.0
  C  C42  1  0.18548000  0.84984000  0.72142000  1.0
  C  C43  1  0.31460000  0.34988000  0.27859000  1.0
  C  C44  1  0.85369000  0.13993000  0.37507000  1.0
  C  C45  1  0.64621000  0.63996000  0.62491000  1.0
  C  C46  1  0.14627000  0.86008000  0.62491000  1.0
  C  C47  1  0.35379000  0.36004000  0.37511000  1.0
  C  C48  1  0.76445000  0.01627000  0.43388000  1.0
  C  C49  1  0.73549000  0.51630000  0.56611000  1.0
  C  C50  1  0.23555000  0.98375000  0.56611000  1.0
  C  C51  1  0.26450000  0.48371000  0.43391000  1.0
  C  C52  1  0.63655000  0.90281000  0.39544000  1.0
  C  C53  1  0.86344000  0.40280000  0.60455000  1.0
  C  C54  1  0.36343000  0.09718000  0.60455000  1.0
  C  C55  1  0.13656000  0.59721000  0.39546000  1.0
  C  C56  1  0.59802000  0.91127000  0.29863000  1.0
  C  C57  1  0.90202000  0.41123000  0.70136000  1.0
  C  C58  1  0.40198000  0.08869000  0.70137000  1.0
  C  C59  1  0.09799000  0.58875000  0.29866000  1.0
  O  O60  1  0.81530000  0.00606000  0.05551000  1.0
  O  O61  1  0.68523000  0.50632000  0.94450000  1.0
  O  O62  1  0.18473000  0.99392000  0.94445000  1.0
  O  O63  1  0.31483000  0.49360000  0.05555000  1.0
  O  O64  1  0.56428000  0.23198000  0.09369000  1.0
  O  O65  1  0.93690000  0.73153000  0.90617000  1.0
  O  O66  1  0.43590000  0.76799000  0.90627000  1.0
  O  O67  1  0.06299000  0.26845000  0.09387000  1.0
  O  O68  1  0.49830000  0.89998000  0.09583000  1.0
  O  O69  1  0.00208000  0.39954000  0.90394000  1.0
  O  O70  1  0.50175000  0.09999000  0.90416000  1.0
  O  O71  1  0.99793000  0.60041000  0.09600000  1.0
  O  O72  1  0.84105000  0.07336000  0.86077000  1.0
  O  O73  1  0.65858000  0.57339000  0.13915000  1.0
  O  O74  1  0.15879000  0.92670000  0.13919000  1.0
  O  O75  1  0.34149000  0.42664000  0.86090000  1.0
