# generated using pymatgen
data_ZnH7C25I2N2ClO6
_symmetry_space_group_name_H-M   'P 1'
_cell_length_a   12.71010000
_cell_length_b   13.90710000
_cell_length_c   28.07520000
_cell_angle_alpha   89.86650000
_cell_angle_beta   87.59600000
_cell_angle_gamma   85.90070000
_symmetry_Int_Tables_number   1
_chemical_formula_structural   ZnH7C25I2N2ClO6
_chemical_formula_sum   'Zn2 H14 C50 I4 N4 Cl2 O12'
_cell_volume   4945.53658300
_cell_formula_units_Z   2
loop_
 _symmetry_equiv_pos_site_id
 _symmetry_equiv_pos_as_xyz
  1  'x, y, z'
loop_
 _atom_site_type_symbol
 _atom_site_label
 _atom_site_symmetry_multiplicity
 _atom_site_fract_x
 _atom_site_fract_y
 _atom_site_fract_z
 _atom_site_occupancy
  Zn  Zn0  1  0.60866000  0.50693000  0.49632000  1.0
  Zn  Zn1  1  0.39245000  0.49340000  0.50337000  1.0
  H  H2  1  0.65554000  0.41784000  0.74020000  1.0
  H  H3  1  0.61350000  0.56899000  0.24994000  1.0
  H  H4  1  0.52393000  0.25909000  0.87657000  1.0
  H  H5  1  0.40844000  0.73966000  0.12463000  1.0
  H  H6  1  0.34087000  0.43874000  0.35831000  1.0
  H  H7  1  0.35739000  0.57124000  0.65234000  1.0
  H  H8  1  0.32107000  0.43323000  0.27011000  1.0
  H  H9  1  0.35255000  0.57742000  0.74140000  1.0
  H  H10  1  0.43955000  0.26077000  0.12355000  1.0
  H  H11  1  0.50879000  0.73818000  0.87887000  1.0
  H  H12  1  0.44131000  0.26023000  0.03583000  1.0
  H  H13  1  0.49467000  0.73877000  0.96669000  1.0
  H  H14  1  0.62284000  0.97782000  0.49683000  1.0
  H  H15  1  0.38120000  0.02281000  0.50444000  1.0
  C  C16  1  0.53978000  0.31457000  0.49911000  1.0
  C  C17  1  0.46328000  0.68604000  0.50109000  1.0
  C  C18  1  0.50619000  0.49745000  0.59243000  1.0
  C  C19  1  0.49237000  0.50148000  0.40750000  1.0
  C  C20  1  0.50020000  0.40880000  0.82031000  1.0
  C  C21  1  0.44610000  0.59090000  0.18089000  1.0
  C  C22  1  0.50085000  0.58869000  0.82061000  1.0
  C  C23  1  0.45697000  0.41052000  0.18094000  1.0
  C  C24  1  0.41993000  0.54207000  0.72158000  1.0
  C  C25  1  0.38902000  0.46383000  0.28499000  1.0
  C  C26  1  0.42307000  0.53910000  0.67207000  1.0
  C  C27  1  0.40053000  0.46632000  0.33394000  1.0
  C  C28  1  0.59370000  0.45136000  0.67106000  1.0
  C  C29  1  0.56583000  0.54013000  0.32307000  1.0
  C  C30  1  0.59126000  0.45321000  0.72082000  1.0
  C  C31  1  0.55447000  0.53915000  0.27379000  1.0
  C  C32  1  0.50456000  0.49884000  0.74571000  1.0
  C  C33  1  0.46654000  0.50093000  0.25508000  1.0
  C  C34  1  0.48739000  0.49896000  0.89872000  1.0
  C  C35  1  0.45428000  0.50035000  0.10270000  1.0
  C  C36  1  0.49672000  0.41129000  0.87310000  1.0
  C  C37  1  0.44394000  0.58820000  0.12817000  1.0
  C  C38  1  0.50954000  0.32504000  0.89741000  1.0
  C  C39  1  0.42473000  0.67381000  0.10385000  1.0
  C  C40  1  0.49306000  0.58656000  0.87335000  1.0
  C  C41  1  0.45410000  0.41270000  0.12833000  1.0
  C  C42  1  0.50973000  0.49473000  0.64587000  1.0
  C  C43  1  0.48842000  0.50375000  0.35406000  1.0
  C  C44  1  0.46706000  0.41064000  0.02690000  1.0
  C  C45  1  0.46894000  0.58816000  0.97456000  1.0
  C  C46  1  0.45144000  0.59146000  0.02636000  1.0
  C  C47  1  0.48266000  0.40710000  0.97498000  1.0
  C  C48  1  0.46015000  0.50132000  0.05167000  1.0
  C  C49  1  0.47693000  0.49755000  0.94971000  1.0
  C  C50  1  0.45119000  0.32761000  0.05390000  1.0
  C  C51  1  0.48707000  0.67144000  0.94813000  1.0
  C  C52  1  0.44742000  0.32736000  0.10360000  1.0
  C  C53  1  0.49722000  0.67179000  0.89849000  1.0
  C  C54  1  0.50870000  0.32297000  0.94737000  1.0
  C  C55  1  0.42299000  0.67518000  0.05393000  1.0
  C  C56  1  0.45254000  0.78996000  0.50197000  1.0
  C  C57  1  0.55080000  0.21066000  0.49915000  1.0
  C  C58  1  0.45568000  0.97824000  0.50204000  1.0
  C  C59  1  0.54833000  0.02233000  0.49918000  1.0
  C  C60  1  0.55135000  0.12287000  0.49924000  1.0
  C  C61  1  0.45248000  0.87772000  0.50219000  1.0
  C  C62  1  0.96973000  0.52839000  0.48314000  1.0
  C  C63  1  0.02998000  0.47544000  0.51445000  1.0
  C  C64  1  0.14129000  0.47474000  0.51125000  1.0
  C  C65  1  0.85850000  0.52830000  0.48654000  1.0
  I  I66  1  0.72251000  0.37038000  0.63730000  1.0
  I  I67  1  0.70004000  0.60547000  0.34593000  1.0
  I  I68  1  0.56872000  0.18559000  0.97167000  1.0
  I  I69  1  0.35622000  0.80950000  0.02896000  1.0
  N  N70  1  0.50168000  0.49881000  0.79708000  1.0
  N  N71  1  0.45693000  0.50074000  0.20409000  1.0
  N  N72  1  0.76719000  0.52788000  0.48926000  1.0
  N  N73  1  0.23276000  0.47378000  0.50891000  1.0
  Cl  Cl74  1  0.97592000  0.40902000  0.55890000  1.0
  Cl  Cl75  1  0.02279000  0.59616000  0.43897000  1.0
  O  O76  1  0.62297000  0.35959000  0.50284000  1.0
  O  O77  1  0.38085000  0.64096000  0.51022000  1.0
  O  O78  1  0.44561000  0.35147000  0.49534000  1.0
  O  O79  1  0.55636000  0.64914000  0.49109000  1.0
  O  O80  1  0.58998000  0.51697000  0.56922000  1.0
  O  O81  1  0.40367000  0.50939000  0.43062000  1.0
  O  O82  1  0.41801000  0.48203000  0.57508000  1.0
  O  O83  1  0.58259000  0.49035000  0.42534000  1.0
  O  O84  1  0.50151000  0.33319000  0.79766000  1.0
  O  O85  1  0.43984000  0.66666667  0.20357000  1.0
  O  O86  1  0.46101000  0.33494000  0.20376000  1.0
  O  O87  1  0.50605000  0.66388000  0.79784000  1.0
