# generated using pymatgen
data_CuH28(C2N)14
_symmetry_space_group_name_H-M   'P 1'
_cell_length_a   8.27136000
_cell_length_b   9.34600000
_cell_length_c   9.43581000
_cell_angle_alpha   104.67500000
_cell_angle_beta   90.40610000
_cell_angle_gamma   104.57400000
_symmetry_Int_Tables_number   1
_chemical_formula_structural   CuH28(C2N)14
_chemical_formula_sum   'Cu1 H28 C28 N14'
_cell_volume   680.96982358
_cell_formula_units_Z   1
loop_
 _symmetry_equiv_pos_site_id
 _symmetry_equiv_pos_as_xyz
  1  'x, y, z'
loop_
 _atom_site_type_symbol
 _atom_site_label
 _atom_site_symmetry_multiplicity
 _atom_site_fract_x
 _atom_site_fract_y
 _atom_site_fract_z
 _atom_site_occupancy
  Cu  Cu0  1  0.50000000  0.50000000  0.50000000  1.0
  H  H1  1  0.30373000  0.17830000  0.56868000  1.0
  H  H2  1  0.69626000  0.82169000  0.43131000  1.0
  H  H3  1  0.90387000  0.38225000  0.69106000  1.0
  H  H4  1  0.09613000  0.61775000  0.30894000  1.0
  H  H5  1  0.16198000  0.58819000  0.59904000  1.0
  H  H6  1  0.83802000  0.41181000  0.40096000  1.0
  H  H7  1  0.06442000  0.02514000  0.66716000  1.0
  H  H8  1  0.93557000  0.97486000  0.33284000  1.0
  H  H9  1  0.88063000  0.04318000  0.57913000  1.0
  H  H10  1  0.11936000  0.95682000  0.42087000  1.0
  H  H11  1  0.65164000  0.06258000  0.69842000  1.0
  H  H12  1  0.34836000  0.93743000  0.30159000  1.0
  H  H13  1  0.50305000  0.11489000  0.92513000  1.0
  H  H14  1  0.49695000  0.88512000  0.07488000  1.0
  H  H15  1  0.66681000  0.21894000  0.17032000  1.0
  H  H16  1  0.33319000  0.78106000  0.82969000  1.0
  H  H17  1  0.97450000  0.25747000  0.18429000  1.0
  H  H18  1  0.02550000  0.74252000  0.81571000  1.0
  H  H19  1  0.20001000  0.09414000  0.97832000  1.0
  H  H20  1  0.79999000  0.90587000  0.02168000  1.0
  H  H21  1  0.23117000  0.21236000  0.85738000  1.0
  H  H22  1  0.76883000  0.78764000  0.14261000  1.0
  H  H23  1  0.32238000  0.20971000  0.23686000  1.0
  H  H24  1  0.67762000  0.79030000  0.76314000  1.0
  H  H25  1  0.42412000  0.68202000  0.26793000  1.0
  H  H26  1  0.57588000  0.31798000  0.73207000  1.0
  H  H27  1  0.26047000  0.51871000  0.99229000  1.0
  H  H28  1  0.73953000  0.48129000  0.00771000  1.0
  C  C29  1  0.23197000  0.26333000  0.58827000  1.0
  C  C30  1  0.76803000  0.73666000  0.41173000  1.0
  C  C31  1  0.02474000  0.37258000  0.65249000  1.0
  C  C32  1  0.97526000  0.62742000  0.34751000  1.0
  C  C33  1  0.15248000  0.47302000  0.60728000  1.0
  C  C34  1  0.84752000  0.52698000  0.39272000  1.0
  C  C35  1  0.97863000  0.09838000  0.66950000  1.0
  C  C36  1  0.02137000  0.90161000  0.33050000  1.0
  C  C37  1  0.89623000  0.12851000  0.81205000  1.0
  C  C38  1  0.10377000  0.87149000  0.18795000  1.0
  C  C39  1  0.72199000  0.10463000  0.80562000  1.0
  C  C40  1  0.27801000  0.89537000  0.19438000  1.0
  C  C41  1  0.63882000  0.13531000  0.93343000  1.0
  C  C42  1  0.36118000  0.86469000  0.06657000  1.0
  C  C43  1  0.73028000  0.19229000  0.06982000  1.0
  C  C44  1  0.26973000  0.80771000  0.93018000  1.0
  C  C45  1  0.90407000  0.21472000  0.07720000  1.0
  C  C46  1  0.09593000  0.78528000  0.92281000  1.0
  C  C47  1  0.98849000  0.18242000  0.94973000  1.0
  C  C48  1  0.01151000  0.81758000  0.05027000  1.0
  C  C49  1  0.17571000  0.19871000  0.95982000  1.0
  C  C50  1  0.82428000  0.80129000  0.04018000  1.0
  C  C51  1  0.32613000  0.31650000  0.20972000  1.0
  C  C52  1  0.67387000  0.68350000  0.79028000  1.0
  C  C53  1  0.37778000  0.55978000  0.21974000  1.0
  C  C54  1  0.62223000  0.44022000  0.78026000  1.0
  C  C55  1  0.29742000  0.48054000  0.08386000  1.0
  C  C56  1  0.70258000  0.51946000  0.91614000  1.0
  N  N57  1  0.27978000  0.40341000  0.56772000  1.0
  N  N58  1  0.72022000  0.59659000  0.43228000  1.0
  N  N59  1  0.07723000  0.24107000  0.64020000  1.0
  N  N60  1  0.92277000  0.75893000  0.35980000  1.0
  N  N61  1  0.26616000  0.32691000  0.07939000  1.0
  N  N62  1  0.73384000  0.67309000  0.92061000  1.0
  N  N63  1  0.39410000  0.45592000  0.29627000  1.0
  N  N64  1  0.60590000  0.54408000  0.70373000  1.0
  N  N65  1  0.54939000  0.23417000  0.42967000  1.0
  N  N66  1  0.45061000  0.76583000  0.57033000  1.0
  N  N67  1  0.62508000  0.13915000  0.40666000  1.0
  N  N68  1  0.37492000  0.86085000  0.59334000  1.0
  N  N69  1  0.69897000  0.04290000  0.38079000  1.0
  N  N70  1  0.30104000  0.95709000  0.61921000  1.0
