# generated using pymatgen
data_Zn2H14C22N2O9
_symmetry_space_group_name_H-M   'P 1'
_cell_length_a   9.78439000
_cell_length_b   11.13760000
_cell_length_c   16.08030000
_cell_angle_alpha   91.42080000
_cell_angle_beta   90.76980000
_cell_angle_gamma   92.28200000
_symmetry_Int_Tables_number   1
_chemical_formula_structural   Zn2H14C22N2O9
_chemical_formula_sum   'Zn2 H14 C22 N2 O9'
_cell_volume   1750.23414130
_cell_formula_units_Z   1
loop_
 _symmetry_equiv_pos_site_id
 _symmetry_equiv_pos_as_xyz
  1  'x, y, z'
loop_
 _atom_site_type_symbol
 _atom_site_label
 _atom_site_symmetry_multiplicity
 _atom_site_fract_x
 _atom_site_fract_y
 _atom_site_fract_z
 _atom_site_occupancy
  Zn  Zn0  1  0.63861000  0.50457000  0.50343000  1.0
  Zn  Zn1  1  0.35746000  0.49432000  0.49415000  1.0
  H  H2  1  0.86873000  0.36127000  0.57589000  1.0
  H  H3  1  0.90151000  0.58675000  0.48714000  1.0
  H  H4  1  0.59049000  0.32393000  0.92840000  1.0
  H  H5  1  0.82344000  0.49032000  0.00276000  1.0
  H  H6  1  0.61332000  0.09777000  0.53773000  1.0
  H  H7  1  0.30402000  0.88438000  0.50914000  1.0
  H  H8  1  0.12630000  0.42341000  0.60761000  1.0
  H  H9  1  0.09496000  0.49487000  0.43457000  1.0
  H  H10  1  0.61915000  0.68349000  0.95806000  1.0
  H  H11  1  0.25297000  0.51032000  0.95937000  1.0
  H  H12  1  0.37042000  0.31516000  0.04145000  1.0
  H  H13  1  0.30879000  0.10625000  0.48882000  1.0
  H  H14  1  0.39875000  0.67250000  0.07066000  1.0
  H  H15  1  0.61067000  0.90639000  0.46927000  1.0
  C  C16  1  0.50553000  0.73208000  0.48572000  1.0
  C  C17  1  0.51549000  0.13453000  0.52048000  1.0
  C  C18  1  0.40209000  0.93210000  0.49922000  1.0
  C  C19  1  0.50240000  0.47264000  0.33713000  1.0
  C  C20  1  0.51105000  0.86503000  0.48353000  1.0
  C  C21  1  0.92199000  0.43737000  0.54651000  1.0
  C  C22  1  0.07338000  0.44586000  0.54973000  1.0
  C  C23  1  0.51354000  0.26723000  0.51732000  1.0
  C  C24  1  0.47198000  0.52164000  0.66162000  1.0
  C  C25  1  0.56395000  0.60153000  0.97699000  1.0
  C  C26  1  0.44108000  0.59560000  0.03790000  1.0
  C  C27  1  0.50601000  0.48705000  0.08452000  1.0
  C  C28  1  0.50944000  0.47058000  0.24750000  1.0
  C  C29  1  0.47226000  0.52352000  0.75151000  1.0
  C  C30  1  0.62859000  0.49249000  0.02139000  1.0
  C  C31  1  0.54796000  0.40119000  0.96076000  1.0
  C  C32  1  0.48342000  0.51047000  0.91486000  1.0
  C  C33  1  0.42519000  0.39677000  0.02175000  1.0
  C  C34  1  0.36041000  0.50496000  0.97792000  1.0
  C  C35  1  0.51172000  0.47671000  0.17195000  1.0
  C  C36  1  0.47589000  0.51918000  0.82723000  1.0
  C  C37  1  0.40460000  0.06249000  0.50188000  1.0
  N  N38  1  0.84853000  0.51491000  0.51197000  1.0
  N  N39  1  0.14737000  0.47810000  0.48863000  1.0
  O  O40  1  0.62096000  0.68248000  0.48020000  1.0
  O  O41  1  0.38976000  0.67706000  0.49381000  1.0
  O  O42  1  0.61423000  0.46408000  0.37774000  1.0
  O  O43  1  0.38381000  0.48467000  0.36771000  1.0
  O  O44  1  0.62907000  0.32402000  0.52843000  1.0
  O  O45  1  0.39989000  0.31549000  0.50300000  1.0
  O  O46  1  0.58782000  0.53758000  0.62743000  1.0
  O  O47  1  0.35673000  0.50286000  0.62446000  1.0
  O  O48  1  0.76214000  0.48506000  0.04994000  1.0
