# generated using pymatgen
data_Zn2H19C35N3O8
_symmetry_space_group_name_H-M   'P 1'
_cell_length_a   9.74960000
_cell_length_b   11.04130000
_cell_length_c   15.23780000
_cell_angle_alpha   87.50030000
_cell_angle_beta   87.73920000
_cell_angle_gamma   89.09930000
_symmetry_Int_Tables_number   1
_chemical_formula_structural   Zn2H19C35N3O8
_chemical_formula_sum   'Zn2 H19 C35 N3 O8'
_cell_volume   1637.32518585
_cell_formula_units_Z   1
loop_
 _symmetry_equiv_pos_site_id
 _symmetry_equiv_pos_as_xyz
  1  'x, y, z'
loop_
 _atom_site_type_symbol
 _atom_site_label
 _atom_site_symmetry_multiplicity
 _atom_site_fract_x
 _atom_site_fract_y
 _atom_site_fract_z
 _atom_site_occupancy
  Zn  Zn0  1  0.36169000  0.50495000  0.50193000  1.0
  Zn  Zn1  1  0.64826000  0.49758000  0.49581000  1.0
  H  H2  1  0.70701000  0.43621000  0.22149000  1.0
  H  H3  1  0.71963000  0.10605000  0.45358000  1.0
  H  H4  1  0.20944000  0.13822000  0.59180000  1.0
  H  H5  1  0.16930000  0.11263000  0.48058000  1.0
  H  H6  1  0.22878000  0.91843000  0.62622000  1.0
  H  H7  1  0.88807000  0.44562000  0.36809000  1.0
  H  H8  1  0.14708000  0.44604000  0.37080000  1.0
  H  H9  1  0.11199000  0.51612000  0.70572000  1.0
  H  H10  1  0.12202000  0.66962000  0.66312000  1.0
  H  H11  1  0.85137000  0.52950000  0.70239000  1.0
  H  H12  1  0.31158000  0.61242000  0.21901000  1.0
  H  H13  1  0.86319000  0.67996000  0.65463000  1.0
  H  H14  1  0.19694000  0.65516000  0.07667000  1.0
  H  H15  1  0.19387000  0.63611000  0.91563000  1.0
  H  H16  1  0.30569000  0.56519000  0.77650000  1.0
  H  H17  1  0.69748000  0.38288000  0.77973000  1.0
  H  H18  1  0.81290000  0.34155000  0.92189000  1.0
  H  H19  1  0.81706000  0.36259000  0.08267000  1.0
  H  H20  1  0.71615000  0.88057000  0.46850000  1.0
  C  C21  1  0.49956000  0.73534000  0.51398000  1.0
  C  C22  1  0.62063000  0.45805000  0.09291000  1.0
  C  C23  1  0.28176000  0.61023000  0.04154000  1.0
  C  C24  1  0.28007000  0.59972000  0.95260000  1.0
  C  C25  1  0.39056000  0.54095000  0.90530000  1.0
  C  C26  1  0.50439000  0.49348000  0.95291000  1.0
  C  C27  1  0.61612000  0.43471000  0.90722000  1.0
  C  C28  1  0.72854000  0.38732000  0.95686000  1.0
  C  C29  1  0.73087000  0.39888000  0.04567000  1.0
  C  C30  1  0.39103000  0.52902000  0.81408000  1.0
  C  C31  1  0.50141000  0.47366000  0.76926000  1.0
  C  C32  1  0.50120000  0.47021000  0.67092000  1.0
  C  C33  1  0.61280000  0.42673000  0.81564000  1.0
  C  C34  1  0.38486000  0.94243000  0.51985000  1.0
  C  C35  1  0.50154000  0.87039000  0.50597000  1.0
  C  C36  1  0.62241000  0.93343000  0.48063000  1.0
  C  C37  1  0.62404000  0.05984000  0.47175000  1.0
  C  C38  1  0.50505000  0.13150000  0.48622000  1.0
  C  C39  1  0.38535000  0.06825000  0.50904000  1.0
  C  C40  1  0.23470000  0.08346000  0.53482000  1.0
  C  C41  1  0.23560000  0.94037000  0.55495000  1.0
  C  C42  1  0.92689000  0.54000000  0.56334000  1.0
  C  C43  1  0.50912000  0.26672000  0.48247000  1.0
  C  C44  1  0.94052000  0.47229000  0.42590000  1.0
  C  C45  1  0.08345000  0.47205000  0.42749000  1.0
  C  C46  1  0.06975000  0.53810000  0.56532000  1.0
  C  C47  1  0.07108000  0.58258000  0.65754000  1.0
  C  C48  1  0.90810000  0.58821000  0.65429000  1.0
  C  C49  1  0.51018000  0.52910000  0.32705000  1.0
  C  C50  1  0.62067000  0.47070000  0.18403000  1.0
  C  C51  1  0.50948000  0.52486000  0.22886000  1.0
  C  C52  1  0.39718000  0.57042000  0.18277000  1.0
  C  C53  1  0.39426000  0.56293000  0.09115000  1.0
  C  C54  1  0.50643000  0.50492000  0.04540000  1.0
  C  C55  1  0.13438000  0.86885000  0.51380000  1.0
  N  N56  1  0.85866000  0.50570000  0.49527000  1.0
  N  N57  1  0.15133000  0.50410000  0.49901000  1.0
  N  N58  1  0.04915000  0.81268000  0.48336000  1.0
  O  O59  1  0.38145000  0.68716000  0.52144000  1.0
  O  O60  1  0.61458000  0.67940000  0.51122000  1.0
  O  O61  1  0.38478000  0.47682000  0.63569000  1.0
  O  O62  1  0.61761000  0.46373000  0.63019000  1.0
  O  O63  1  0.39322000  0.32214000  0.48551000  1.0
  O  O64  1  0.62676000  0.31535000  0.47878000  1.0
  O  O65  1  0.39407000  0.53756000  0.36806000  1.0
  O  O66  1  0.62657000  0.52152000  0.36213000  1.0
