# generated using pymatgen
data_ZnH20C24NO4
_symmetry_space_group_name_H-M   'P 1'
_cell_length_a   11.03610000
_cell_length_b   13.86020000
_cell_length_c   15.30150000
_cell_angle_alpha   89.97840000
_cell_angle_beta   91.18890000
_cell_angle_gamma   89.99440000
_symmetry_Int_Tables_number   1
_chemical_formula_structural   ZnH20C24NO4
_chemical_formula_sum   'Zn2 H40 C48 N2 O8'
_cell_volume   2340.05245826
_cell_formula_units_Z   2
loop_
 _symmetry_equiv_pos_site_id
 _symmetry_equiv_pos_as_xyz
  1  'x, y, z'
loop_
 _atom_site_type_symbol
 _atom_site_label
 _atom_site_symmetry_multiplicity
 _atom_site_fract_x
 _atom_site_fract_y
 _atom_site_fract_z
 _atom_site_occupancy
  Zn  Zn0  1  0.50001000  0.39960000  0.50009000  1.0
  Zn  Zn1  1  0.49996000  0.59397000  0.49998000  1.0
  H  H2  1  0.79410000  0.32108000  0.56007000  1.0
  H  H3  1  0.21666000  0.68111000  0.46384000  1.0
  H  H4  1  0.20578000  0.32103000  0.43986000  1.0
  H  H5  1  0.78342000  0.68124000  0.53607000  1.0
  H  H6  1  0.56453000  0.35774000  0.94104000  1.0
  H  H7  1  0.57242000  0.64853000  0.06030000  1.0
  H  H8  1  0.43485000  0.35773000  0.05921000  1.0
  H  H9  1  0.42618000  0.64836000  0.93954000  1.0
  H  H10  1  0.55368000  0.35573000  0.77814000  1.0
  H  H11  1  0.58269000  0.64524000  0.22340000  1.0
  H  H12  1  0.44616000  0.35576000  0.22209000  1.0
  H  H13  1  0.41642000  0.64506000  0.77646000  1.0
  H  H14  1  0.54990000  0.92804000  0.63750000  1.0
  H  H15  1  0.58561000  0.06568000  0.37409000  1.0
  H  H16  1  0.45018000  0.92828000  0.36244000  1.0
  H  H17  1  0.41450000  0.06545000  0.62594000  1.0
  H  H18  1  0.54540000  0.74695000  0.63155000  1.0
  H  H19  1  0.58125000  0.24669000  0.37978000  1.0
  H  H20  1  0.45461000  0.74716000  0.36833000  1.0
  H  H21  1  0.41893000  0.24649000  0.62043000  1.0
  H  H22  1  0.87518000  0.91247000  0.39002000  1.0
  H  H23  1  0.74406000  0.84437000  0.41384000  1.0
  H  H24  1  0.75841000  0.96546000  0.45215000  1.0
  H  H25  1  0.79850000  0.84780000  0.57374000  1.0
  H  H26  1  0.92862000  0.91682000  0.55256000  1.0
  H  H27  1  0.96397000  0.09868000  0.36159000  1.0
  H  H28  1  0.07640000  0.16767000  0.30911000  1.0
  H  H29  1  0.10478000  0.04442000  0.33570000  1.0
  H  H30  1  0.21349000  0.15434000  0.44199000  1.0
  H  H31  1  0.10357000  0.08441000  0.49511000  1.0
  H  H32  1  0.12490000  0.91244000  0.60982000  1.0
  H  H33  1  0.25611000  0.84438000  0.58615000  1.0
  H  H34  1  0.24171000  0.96544000  0.54769000  1.0
  H  H35  1  0.20177000  0.84770000  0.42621000  1.0
  H  H36  1  0.07163000  0.91674000  0.44725000  1.0
  H  H37  1  0.03596000  0.09868000  0.63834000  1.0
  H  H38  1  0.92354000  0.16763000  0.69083000  1.0
  H  H39  1  0.89521000  0.04436000  0.66431000  1.0
  H  H40  1  0.78640000  0.15434000  0.55798000  1.0
  H  H41  1  0.89632000  0.08445000  0.50487000  1.0
  C  C42  1  0.48285000  0.49833000  0.66958000  1.0
  C  C43  1  0.51699000  0.49838000  0.33046000  1.0
  C  C44  1  0.49630000  0.50326000  0.95184000  1.0
  C  C45  1  0.50273000  0.50330000  0.04823000  1.0
  C  C46  1  0.52666000  0.89124000  0.57651000  1.0
  C  C47  1  0.54627000  0.10242000  0.42965000  1.0
  C  C48  1  0.47341000  0.89137000  0.42342000  1.0
  C  C49  1  0.45381000  0.10231000  0.57041000  1.0
  C  C50  1  0.52575000  0.79106000  0.57390000  1.0
  C  C51  1  0.54533000  0.20265000  0.43232000  1.0
  C  C52  1  0.47427000  0.79118000  0.42599000  1.0
  C  C53  1  0.45478000  0.20254000  0.56783000  1.0
  C  C54  1  0.50003000  0.94354000  0.49998000  1.0
  C  C55  1  0.50003000  0.05003000  0.50001000  1.0
  C  C56  1  0.73489000  0.49783000  0.51699000  1.0
  C  C57  1  0.26510000  0.49769000  0.48306000  1.0
  C  C58  1  0.88393000  0.32159000  0.53239000  1.0
  C  C59  1  0.12179000  0.68134000  0.48099000  1.0
  C  C60  1  0.11596000  0.32156000  0.46757000  1.0
  C  C61  1  0.87831000  0.68141000  0.51897000  1.0
  C  C62  1  0.94183000  0.23502000  0.52025000  1.0
  C  C63  1  0.06241000  0.76813000  0.48850000  1.0
  C  C64  1  0.05803000  0.23499000  0.47967000  1.0
  C  C65  1  0.93777000  0.76816000  0.51147000  1.0
  C  C66  1  0.06312000  0.41265000  0.48868000  1.0
  C  C67  1  0.93544000  0.58985000  0.50835000  1.0
  C  C68  1  0.93680000  0.41267000  0.51128000  1.0
  C  C69  1  0.06458000  0.58982000  0.49162000  1.0
  C  C70  1  0.12831000  0.50085000  0.48452000  1.0
  C  C71  1  0.87168000  0.50091000  0.51545000  1.0
  C  C72  1  0.53053000  0.42053000  0.90520000  1.0
  C  C73  1  0.54322000  0.58450000  0.09562000  1.0
  C  C74  1  0.46882000  0.42055000  0.09497000  1.0
  C  C75  1  0.45562000  0.58435000  0.90433000  1.0
  C  C76  1  0.52505000  0.41909000  0.81443000  1.0
  C  C77  1  0.54963000  0.58290000  0.18659000  1.0
  C  C78  1  0.47449000  0.41916000  0.18573000  1.0
  C  C79  1  0.44955000  0.58276000  0.81336000  1.0
  C  C80  1  0.48475000  0.50022000  0.76744000  1.0
  C  C81  1  0.51473000  0.50030000  0.23261000  1.0
  C  C82  1  0.86859000  0.86076000  0.52500000  1.0
  C  C83  1  0.80800000  0.89810000  0.44042000  1.0
  C  C84  1  0.11516000  0.14305000  0.44755000  1.0
  C  C85  1  0.06218000  0.11138000  0.35841000  1.0
  C  C86  1  0.13164000  0.86069000  0.47491000  1.0
  C  C87  1  0.19215000  0.89807000  0.55947000  1.0
  C  C88  1  0.88472000  0.14306000  0.55242000  1.0
  C  C89  1  0.93776000  0.11135000  0.64156000  1.0
  N  N90  1  0.49995000  0.74218000  0.49994000  1.0
  N  N91  1  0.50005000  0.25157000  0.50009000  1.0
  O  O92  1  0.51480000  0.41956000  0.63347000  1.0
  O  O93  1  0.54852000  0.57542000  0.37061000  1.0
  O  O94  1  0.48537000  0.41954000  0.36664000  1.0
  O  O95  1  0.45138000  0.57536000  0.62935000  1.0
  O  O96  1  0.68336000  0.42258000  0.48569000  1.0
  O  O97  1  0.32480000  0.56995000  0.45492000  1.0
  O  O98  1  0.31659000  0.42243000  0.51445000  1.0
  O  O99  1  0.67523000  0.57012000  0.54506000  1.0
