# generated using pymatgen
data_Zn4H36C48O13
_symmetry_space_group_name_H-M   'P 1'
_cell_length_a   23.78356117
_cell_length_b   23.78350000
_cell_length_c   23.78200000
_cell_angle_alpha   72.62900000
_cell_angle_beta   66.23474673
_cell_angle_gamma   107.36759787
_symmetry_Int_Tables_number   1
_chemical_formula_structural   Zn4H36C48O13
_chemical_formula_sum   'Zn8 H72 C96 O26'
_cell_volume   10311.36472573
_cell_formula_units_Z   2
loop_
 _symmetry_equiv_pos_site_id
 _symmetry_equiv_pos_as_xyz
  1  'x, y, z'
loop_
 _atom_site_type_symbol
 _atom_site_label
 _atom_site_symmetry_multiplicity
 _atom_site_fract_x
 _atom_site_fract_y
 _atom_site_fract_z
 _atom_site_occupancy
  Zn  Zn0  1  0.48597000  0.44284000  0.45686000  1.0
  Zn  Zn1  1  0.45687000  0.55717000  0.48596000  1.0
  Zn  Zn2  1  0.45686000  0.44283000  0.60032000  1.0
  Zn  Zn3  1  0.60030000  0.55717000  0.45686000  1.0
  Zn  Zn4  1  0.01403000  0.55716000  0.04314000  1.0
  Zn  Zn5  1  0.04313000  0.55717000  0.89969000  1.0
  Zn  Zn6  1  0.04313000  0.44283000  0.01404000  1.0
  Zn  Zn7  1  0.89970000  0.44283000  0.04314000  1.0
  H  H8  1  0.77775000  0.57620000  0.29845000  1.0
  H  H9  1  0.72225000  0.42380000  0.20155000  1.0
  H  H10  1  0.87465000  0.57620000  0.20156000  1.0
  H  H11  1  0.62535000  0.42380000  0.29844000  1.0
  H  H12  1  0.29843000  0.42379000  0.77778000  1.0
  H  H13  1  0.20157000  0.57621000  0.72222000  1.0
  H  H14  1  0.20153000  0.42379000  0.87467000  1.0
  H  H15  1  0.29847000  0.57621000  0.62533000  1.0
  H  H16  1  0.11223000  0.76412000  0.96418000  1.0
  H  H17  1  0.15193000  0.76415000  0.77165000  1.0
  H  H18  1  0.34802000  0.23585000  0.72836000  1.0
  H  H19  1  0.38787000  0.23587000  0.53580000  1.0
  H  H20  1  0.77170000  0.23586000  0.15188000  1.0
  H  H21  1  0.96420000  0.23586000  0.11221000  1.0
  H  H22  1  0.53580000  0.76414000  0.38787000  1.0
  H  H23  1  0.72833000  0.76413000  0.34805000  1.0
  H  H24  1  0.11215000  0.57634000  0.15198000  1.0
  H  H25  1  0.15198000  0.42364000  0.11216000  1.0
  H  H26  1  0.34806000  0.57640000  0.38780000  1.0
  H  H27  1  0.38774000  0.42357000  0.34813000  1.0
  H  H28  1  0.96419000  0.57633000  0.77167000  1.0
  H  H29  1  0.77165000  0.42363000  0.96422000  1.0
  H  H30  1  0.72834000  0.57641000  0.53579000  1.0
  H  H31  1  0.53583000  0.42358000  0.72832000  1.0
  H  H32  1  0.26103000  0.88379000  0.65802000  1.0
  H  H33  1  0.24847000  0.95220000  0.66413000  1.0
  H  H34  1  0.18124000  0.88330000  0.67509000  1.0
  H  H35  1  0.12276000  0.88374000  0.95820000  1.0
  H  H36  1  0.20373000  0.95216000  0.88368000  1.0
  H  H37  1  0.20207000  0.88325000  0.94161000  1.0
  H  H38  1  0.29769000  0.11641000  0.55869000  1.0
  H  H39  1  0.29678000  0.04784000  0.61621000  1.0
  H  H40  1  0.37739000  0.11660000  0.54152000  1.0
  H  H41  1  0.31875000  0.11636000  0.82492000  1.0
  H  H42  1  0.25108000  0.04780000  0.83597000  1.0
  H  H43  1  0.23924000  0.11656000  0.84191000  1.0
  H  H44  1  0.95820000  0.11623000  0.12275000  1.0
  H  H45  1  0.88368000  0.04782000  0.20372000  1.0
  H  H46  1  0.94161000  0.11672000  0.20206000  1.0
  H  H47  1  0.65807000  0.11624000  0.26097000  1.0
  H  H48  1  0.66417000  0.04782000  0.24842000  1.0
  H  H49  1  0.67515000  0.11673000  0.18117000  1.0
  H  H50  1  0.82489000  0.88361000  0.31878000  1.0
  H  H51  1  0.83595000  0.95218000  0.25110000  1.0
  H  H52  1  0.84189000  0.88342000  0.23926000  1.0
  H  H53  1  0.55872000  0.88362000  0.29765000  1.0
  H  H54  1  0.61624000  0.95219000  0.29675000  1.0
  H  H55  1  0.54154000  0.88343000  0.37736000  1.0
  H  H56  1  0.18125000  0.35635000  0.20237000  1.0
  H  H57  1  0.24892000  0.41297000  0.20327000  1.0
  H  H58  1  0.26076000  0.41887000  0.12267000  1.0
  H  H59  1  0.20236000  0.64364000  0.18125000  1.0
  H  H60  1  0.20326000  0.58703000  0.24892000  1.0
  H  H61  1  0.12266000  0.58112000  0.26076000  1.0
  H  H62  1  0.37720000  0.41902000  0.23905000  1.0
  H  H63  1  0.29623000  0.41257000  0.25159000  1.0
  H  H64  1  0.29788000  0.35630000  0.31885000  1.0
  H  H65  1  0.23896000  0.58093000  0.37727000  1.0
  H  H66  1  0.25153000  0.58739000  0.29628000  1.0
  H  H67  1  0.31876000  0.64365000  0.29796000  1.0
  H  H68  1  0.67509000  0.35633000  0.94130000  1.0
  H  H69  1  0.66404000  0.41296000  0.88378000  1.0
  H  H70  1  0.65810000  0.41885000  0.95849000  1.0
  H  H71  1  0.94129000  0.64363000  0.67509000  1.0
  H  H72  1  0.88377000  0.58701000  0.66404000  1.0
  H  H73  1  0.95847000  0.58111000  0.65810000  1.0
  H  H74  1  0.54182000  0.41904000  0.84195000  1.0
  H  H75  1  0.61634000  0.41259000  0.83585000  1.0
  H  H76  1  0.55841000  0.35632000  0.82488000  1.0
  H  H77  1  0.84197000  0.58095000  0.54178000  1.0
  H  H78  1  0.83586000  0.58739000  0.61631000  1.0
  H  H79  1  0.82489000  0.64367000  0.55837000  1.0
  C  C80  1  0.40893000  0.50001000  0.40894000  1.0
  C  C81  1  0.36124000  0.50000000  0.63877000  1.0
  C  C82  1  0.40895000  0.31788000  0.59106000  1.0
  C  C83  1  0.59109000  0.50001000  0.59104000  1.0
  C  C84  1  0.63876000  0.50000000  0.36123000  1.0
  C  C85  1  0.59107000  0.68213000  0.40894000  1.0
  C  C86  1  0.09107000  0.68212000  0.90893000  1.0
  C  C87  1  0.13877000  0.50001000  0.86122000  1.0
  C  C88  1  0.09106000  0.49999000  0.09107000  1.0
  C  C89  1  0.90896000  0.31788000  0.09105000  1.0
  C  C90  1  0.86124000  0.50000000  0.13877000  1.0
  C  C91  1  0.90892000  0.49998000  0.90895000  1.0
  C  C92  1  0.69628000  0.50000000  0.30372000  1.0
  C  C93  1  0.80372000  0.50000000  0.19628000  1.0
  C  C94  1  0.76637000  0.54312000  0.27675000  1.0
  C  C95  1  0.73362000  0.45687000  0.22326000  1.0
  C  C96  1  0.81987000  0.54313000  0.22326000  1.0
  C  C97  1  0.68013000  0.45687000  0.27674000  1.0
  C  C98  1  0.30372000  0.50000000  0.69628000  1.0
  C  C99  1  0.19628000  0.50000000  0.80372000  1.0
  C  C100  1  0.27673000  0.45686000  0.76640000  1.0
  C  C101  1  0.22327000  0.54314000  0.73360000  1.0
  C  C102  1  0.22324000  0.45687000  0.81988000  1.0
  C  C103  1  0.27676000  0.54313000  0.68012000  1.0
  C  C104  1  0.12849000  0.75696000  0.87151000  1.0
  C  C105  1  0.13498000  0.79233000  0.90811000  1.0
  C  C106  1  0.16972000  0.86223000  0.87430000  1.0
  C  C107  1  0.19902000  0.89801000  0.80099000  1.0
  C  C108  1  0.19255000  0.86224000  0.76344000  1.0
  C  C109  1  0.15739000  0.79235000  0.79952000  1.0
  C  C110  1  0.23465000  0.96925000  0.76537000  1.0
  C  C111  1  0.26540000  0.03075000  0.73462000  1.0
  C  C112  1  0.30102000  0.10199000  0.69900000  1.0
  C  C113  1  0.30744000  0.13776000  0.73656000  1.0
  C  C114  1  0.34260000  0.20765000  0.70048000  1.0
  C  C115  1  0.37154000  0.24304000  0.62848000  1.0
  C  C116  1  0.36510000  0.20767000  0.59187000  1.0
  C  C117  1  0.33038000  0.13778000  0.62567000  1.0
  C  C118  1  0.87154000  0.24304000  0.12846000  1.0
  C  C119  1  0.79956000  0.20765000  0.15734000  1.0
  C  C120  1  0.76348000  0.13777000  0.19249000  1.0
  C  C121  1  0.80101000  0.10199000  0.19899000  1.0
  C  C122  1  0.87433000  0.13776000  0.16968000  1.0
  C  C123  1  0.90813000  0.20765000  0.13496000  1.0
  C  C124  1  0.76539000  0.03075000  0.23461000  1.0
  C  C125  1  0.73464000  0.96926000  0.26537000  1.0
  C  C126  1  0.69901000  0.89801000  0.30101000  1.0
  C  C127  1  0.62568000  0.86224000  0.33036000  1.0
  C  C128  1  0.59188000  0.79235000  0.36508000  1.0
  C  C129  1  0.62848000  0.75697000  0.37154000  1.0
  C  C130  1  0.70047000  0.79235000  0.34261000  1.0
  C  C131  1  0.73656000  0.86224000  0.30744000  1.0
  C  C132  1  0.12848000  0.49999000  0.12848000  1.0
  C  C133  1  0.13493000  0.54305000  0.15741000  1.0
  C  C134  1  0.16965000  0.54397000  0.19258000  1.0
  C  C135  1  0.19899000  0.49998000  0.19902000  1.0
  C  C136  1  0.19257000  0.45601000  0.16967000  1.0
  C  C137  1  0.15741000  0.45693000  0.13494000  1.0
  C  C138  1  0.23461000  0.49999000  0.23464000  1.0
  C  C139  1  0.26534000  0.49998000  0.26540000  1.0
  C  C140  1  0.30096000  0.49998000  0.30103000  1.0
  C  C141  1  0.30744000  0.54400000  0.33032000  1.0
  C  C142  1  0.34260000  0.54308000  0.36505000  1.0
  C  C143  1  0.37149000  0.49999000  0.37155000  1.0
  C  C144  1  0.36499000  0.45689000  0.34267000  1.0
  C  C145  1  0.33026000  0.45596000  0.30751000  1.0
  C  C146  1  0.87151000  0.49998000  0.87153000  1.0
  C  C147  1  0.90811000  0.54303000  0.79954000  1.0
  C  C148  1  0.87432000  0.54396000  0.76344000  1.0
  C  C149  1  0.80099000  0.49998000  0.80100000  1.0
  C  C150  1  0.76344000  0.45600000  0.87433000  1.0
  C  C151  1  0.79952000  0.45692000  0.90814000  1.0
  C  C152  1  0.76538000  0.49998000  0.76537000  1.0
  C  C153  1  0.73464000  0.49998000  0.73461000  1.0
  C  C154  1  0.69902000  0.49999000  0.69899000  1.0
  C  C155  1  0.73656000  0.54401000  0.62567000  1.0
  C  C156  1  0.70048000  0.54309000  0.59186000  1.0
  C  C157  1  0.62850000  0.50000000  0.62846000  1.0
  C  C158  1  0.59190000  0.45690000  0.70045000  1.0
  C  C159  1  0.62570000  0.45597000  0.73654000  1.0
  C  C160  1  0.22255000  0.89762000  0.68607000  1.0
  C  C161  1  0.17508000  0.89758000  0.91631000  1.0
  C  C162  1  0.32506000  0.10242000  0.58366000  1.0
  C  C163  1  0.27739000  0.10237000  0.81394000  1.0
  C  C164  1  0.91631000  0.10239000  0.17507000  1.0
  C  C165  1  0.68612000  0.10240000  0.22249000  1.0
  C  C166  1  0.81392000  0.89760000  0.27741000  1.0
  C  C167  1  0.58369000  0.89761000  0.32502000  1.0
  C  C168  1  0.22261000  0.40868000  0.17500000  1.0
  C  C169  1  0.17499000  0.59130000  0.22261000  1.0
  C  C170  1  0.32488000  0.40860000  0.27752000  1.0
  C  C171  1  0.27745000  0.59137000  0.32494000  1.0
  C  C172  1  0.68607000  0.40867000  0.91633000  1.0
  C  C173  1  0.91632000  0.59129000  0.68607000  1.0
  C  C174  1  0.58371000  0.40861000  0.81390000  1.0
  C  C175  1  0.81392000  0.59138000  0.58368000  1.0
  O  O176  1  0.50000000  0.50000000  0.50000000  1.0
  O  O177  1  0.43482000  0.46000000  0.41218000  1.0
  O  O178  1  0.38339000  0.54043000  0.57618000  1.0
  O  O179  1  0.41218000  0.34700000  0.62784000  1.0
  O  O180  1  0.41218000  0.54002000  0.43482000  1.0
  O  O181  1  0.43484000  0.34701000  0.52517000  1.0
  O  O182  1  0.38339000  0.45955000  0.65707000  1.0
  O  O183  1  0.52517000  0.45999000  0.62783000  1.0
  O  O184  1  0.65705000  0.54044000  0.38337000  1.0
  O  O185  1  0.62785000  0.54001000  0.52515000  1.0
  O  O186  1  0.57616000  0.45955000  0.38338000  1.0
  O  O187  1  0.52516000  0.65300000  0.43484000  1.0
  O  O188  1  0.62784000  0.65301000  0.41216000  1.0
  O  O189  1  1.00000000  0.50000000  0.00000000  1.0
  O  O190  1  0.06518000  0.65299000  0.97482000  1.0
  O  O191  1  0.11661000  0.54045000  0.84292000  1.0
  O  O192  1  0.08783000  0.45999000  0.06517000  1.0
  O  O193  1  0.08783000  0.65300000  0.87214000  1.0
  O  O194  1  0.06516000  0.53999000  0.08784000  1.0
  O  O195  1  0.11662000  0.45958000  0.92381000  1.0
  O  O196  1  0.97485000  0.34700000  0.06516000  1.0
  O  O197  1  0.84295000  0.45955000  0.11662000  1.0
  O  O198  1  0.87218000  0.34700000  0.08783000  1.0
  O  O199  1  0.92383000  0.54044000  0.11662000  1.0
  O  O200  1  0.97482000  0.53999000  0.87218000  1.0
  O  O201  1  0.87215000  0.45998000  0.97485000  1.0
