# generated using pymatgen
data_ZnH28C26N3O7
_symmetry_space_group_name_H-M   'P 1'
_cell_length_a   14.60340000
_cell_length_b   16.02820000
_cell_length_c   19.29080000
_cell_angle_alpha   89.88670000
_cell_angle_beta   89.82290000
_cell_angle_gamma   89.57220000
_symmetry_Int_Tables_number   1
_chemical_formula_structural   ZnH28C26N3O7
_chemical_formula_sum   'Zn2 H56 C52 N6 O14'
_cell_volume   4515.16850264
_cell_formula_units_Z   2
loop_
 _symmetry_equiv_pos_site_id
 _symmetry_equiv_pos_as_xyz
  1  'x, y, z'
loop_
 _atom_site_type_symbol
 _atom_site_label
 _atom_site_symmetry_multiplicity
 _atom_site_fract_x
 _atom_site_fract_y
 _atom_site_fract_z
 _atom_site_occupancy
  Zn  Zn0  1  0.40721000  0.50192000  0.49757000  1.0
  Zn  Zn1  1  0.59710000  0.50149000  0.49860000  1.0
  H  H2  1  0.36067000  0.52795000  0.27941000  1.0
  H  H3  1  0.64348000  0.45450000  0.27818000  1.0
  H  H4  1  0.43891000  0.93036000  0.40095000  1.0
  H  H5  1  0.56015000  0.92960000  0.40051000  1.0
  H  H6  1  0.08264000  0.42821000  0.59399000  1.0
  H  H7  1  0.92553000  0.42905000  0.59580000  1.0
  H  H8  1  0.92116000  0.63209000  0.50219000  1.0
  H  H9  1  0.08117000  0.63209000  0.50159000  1.0
  H  H10  1  0.92200000  0.58398000  0.58452000  1.0
  H  H11  1  0.08182000  0.58367000  0.58381000  1.0
  H  H12  1  0.92338000  0.43008000  0.40157000  1.0
  H  H13  1  0.08255000  0.43284000  0.39898000  1.0
  H  H14  1  0.92018000  0.53999000  0.39188000  1.0
  H  H15  1  0.08056000  0.54311000  0.39181000  1.0
  H  H16  1  0.35615000  0.51697000  0.14954000  1.0
  H  H17  1  0.63900000  0.43993000  0.14851000  1.0
  H  H18  1  0.35774000  0.45643000  0.71343000  1.0
  H  H19  1  0.64380000  0.51518000  0.72148000  1.0
  H  H20  1  0.41650000  0.92788000  0.59504000  1.0
  H  H21  1  0.58458000  0.92617000  0.59403000  1.0
  H  H22  1  0.41558000  0.07408000  0.59652000  1.0
  H  H23  1  0.58890000  0.07235000  0.59459000  1.0
  H  H24  1  0.64843000  0.06955000  0.51428000  1.0
  H  H25  1  0.35355000  0.07379000  0.51761000  1.0
  H  H26  1  0.43842000  0.07638000  0.40297000  1.0
  H  H27  1  0.55940000  0.07563000  0.40121000  1.0
  H  H28  1  0.79080000  0.34508000  0.56956000  1.0
  H  H29  1  0.88249000  0.28474000  0.60626000  1.0
  H  H30  1  0.87389000  0.18674000  0.50363000  1.0
  H  H31  1  0.76796000  0.19222000  0.54998000  1.0
  H  H32  1  0.78015000  0.24674000  0.47035000  1.0
  H  H33  1  0.04238000  0.26279000  0.57947000  1.0
  H  H34  1  0.15461000  0.30055000  0.59922000  1.0
  H  H35  1  0.21616000  0.22739000  0.49291000  1.0
  H  H36  1  0.16374000  0.15584000  0.55140000  1.0
  H  H37  1  0.10438000  0.18844000  0.47531000  1.0
  H  H38  1  0.23455000  0.48902000  0.79311000  1.0
  H  H39  1  0.28408000  0.55160000  0.85987000  1.0
  H  H40  1  0.21846000  0.45941000  0.95070000  1.0
  H  H41  1  0.12915000  0.49667000  0.89565000  1.0
  H  H42  1  0.17154000  0.39258000  0.88623000  1.0
  H  H43  1  0.75604000  0.45142000  0.79858000  1.0
  H  H44  1  0.70397000  0.38670000  0.86322000  1.0
  H  H45  1  0.77671000  0.46952000  0.95697000  1.0
  H  H46  1  0.86247000  0.43131000  0.89898000  1.0
  H  H47  1  0.82656000  0.53787000  0.89445000  1.0
  H  H48  1  0.72829000  0.87355000  0.59429000  1.0
  H  H49  1  0.76197000  0.97577000  0.56807000  1.0
  H  H50  1  0.83753000  0.91650000  0.46179000  1.0
  H  H51  1  0.88304000  0.86934000  0.53819000  1.0
  H  H52  1  0.80206000  0.81452000  0.48636000  1.0
  H  H53  1  0.23847000  0.97969000  0.57189000  1.0
  H  H54  1  0.27364000  0.87695000  0.59656000  1.0
  H  H55  1  0.19856000  0.81959000  0.48943000  1.0
  H  H56  1  0.11796000  0.87444000  0.54268000  1.0
  H  H57  1  0.16183000  0.92208000  0.46596000  1.0
  C  C58  1  0.50416000  0.33937000  0.49946000  1.0
  C  C59  1  0.49422000  0.47052000  0.06546000  1.0
  C  C60  1  0.41693000  0.45912000  0.81618000  1.0
  C  C61  1  0.57909000  0.49122000  0.82061000  1.0
  C  C62  1  0.41880000  0.46713000  0.74431000  1.0
  C  C63  1  0.58100000  0.49862000  0.74863000  1.0
  C  C64  1  0.50072000  0.48708000  0.71065000  1.0
  C  C65  1  0.49692000  0.47192000  0.85556000  1.0
  C  C66  1  0.41571000  0.05010000  0.54318000  1.0
  C  C67  1  0.58670000  0.04788000  0.54144000  1.0
  C  C68  1  0.58619000  0.95137000  0.54060000  1.0
  C  C69  1  0.41468000  0.95351000  0.54177000  1.0
  C  C70  1  0.49985000  0.75328000  0.50191000  1.0
  C  C71  1  0.50099000  0.08308000  0.50441000  1.0
  C  C72  1  0.49988000  0.91953000  0.50233000  1.0
  C  C73  1  0.50396000  0.49875000  0.36358000  1.0
  C  C74  1  0.49958000  0.95434000  0.42737000  1.0
  C  C75  1  0.49948000  0.05068000  0.42865000  1.0
  C  C76  1  0.49957000  0.82902000  0.50205000  1.0
  C  C77  1  0.50192000  0.17348000  0.50403000  1.0
  C  C78  1  0.50339000  0.24925000  0.50226000  1.0
  C  C79  1  0.94895000  0.42082000  0.54180000  1.0
  C  C80  1  0.05746000  0.42106000  0.54030000  1.0
  C  C81  1  0.94883000  0.57879000  0.53143000  1.0
  C  C82  1  0.05457000  0.57874000  0.53098000  1.0
  C  C83  1  0.91415000  0.49703000  0.49844000  1.0
  C  C84  1  0.09028000  0.49724000  0.49729000  1.0
  C  C85  1  0.05471000  0.49010000  0.42202000  1.0
  C  C86  1  0.94906000  0.48874000  0.42287000  1.0
  C  C87  1  0.18943000  0.49735000  0.49710000  1.0
  C  C88  1  0.81516000  0.49783000  0.49876000  1.0
  C  C89  1  0.49989000  0.66317000  0.50063000  1.0
  C  C90  1  0.50216000  0.49523000  0.63304000  1.0
  C  C91  1  0.42121000  0.50959000  0.24986000  1.0
  C  C92  1  0.58099000  0.46749000  0.24925000  1.0
  C  C93  1  0.41866000  0.50316000  0.17811000  1.0
  C  C94  1  0.57852000  0.45973000  0.17748000  1.0
  C  C95  1  0.49729000  0.47772000  0.14129000  1.0
  C  C96  1  0.50232000  0.49208000  0.28599000  1.0
  C  C97  1  0.49397000  0.46752000  0.93159000  1.0
  C  C98  1  0.84886000  0.30322000  0.55717000  1.0
  C  C99  1  0.81612000  0.22767000  0.51772000  1.0
  C  C100  1  0.10894000  0.28057000  0.55680000  1.0
  C  C101  1  0.15083000  0.20887000  0.51648000  1.0
  C  C102  1  0.26152000  0.48816000  0.84656000  1.0
  C  C103  1  0.19091000  0.45715000  0.89786000  1.0
  C  C104  1  0.73007000  0.44980000  0.85242000  1.0
  C  C105  1  0.80335000  0.47377000  0.90380000  1.0
  C  C106  1  0.74352000  0.91312000  0.54860000  1.0
  C  C107  1  0.82129000  0.87613000  0.50618000  1.0
  C  C108  1  0.25724000  0.91724000  0.55150000  1.0
  C  C109  1  0.17913000  0.88117000  0.50984000  1.0
  N  N110  1  0.55978000  0.42460000  0.03320000  1.0
  N  N111  1  0.42334000  0.50803000  0.03215000  1.0
  N  N112  1  0.55909000  0.42233000  0.96474000  1.0
  N  N113  1  0.42374000  0.50746000  0.96392000  1.0
  N  N114  1  0.26859000  0.49981000  0.49736000  1.0
  N  N115  1  0.73593000  0.50024000  0.49922000  1.0
  O  O116  1  0.42849000  0.37508000  0.48474000  1.0
  O  O117  1  0.58041000  0.37446000  0.51195000  1.0
  O  O118  1  0.42849000  0.51703000  0.39340000  1.0
  O  O119  1  0.58018000  0.48519000  0.39362000  1.0
  O  O120  1  0.42345000  0.62776000  0.51217000  1.0
  O  O121  1  0.57641000  0.62735000  0.48802000  1.0
  O  O122  1  0.42656000  0.48326000  0.60197000  1.0
  O  O123  1  0.57835000  0.51288000  0.60461000  1.0
  O  O124  1  0.91470000  0.34609000  0.51399000  1.0
  O  O125  1  0.09630000  0.34957000  0.50983000  1.0
  O  O126  1  0.33972000  0.43263000  0.85048000  1.0
  O  O127  1  0.65521000  0.50865000  0.85985000  1.0
  O  O128  1  0.66443000  0.91808000  0.50561000  1.0
  O  O129  1  0.33557000  0.92247000  0.50744000  1.0
