# generated using pymatgen
data_Hg3H12C22(S3N5)2
_symmetry_space_group_name_H-M   'P 1'
_cell_length_a   10.66790000
_cell_length_b   11.77930000
_cell_length_c   13.60400000
_cell_angle_alpha   105.33700000
_cell_angle_beta   110.16600000
_cell_angle_gamma   95.62940000
_symmetry_Int_Tables_number   1
_chemical_formula_structural   Hg3H12C22(S3N5)2
_chemical_formula_sum   'Hg6 H24 C44 S12 N20'
_cell_volume   1513.33679140
_cell_formula_units_Z   2
loop_
 _symmetry_equiv_pos_site_id
 _symmetry_equiv_pos_as_xyz
  1  'x, y, z'
loop_
 _atom_site_type_symbol
 _atom_site_label
 _atom_site_symmetry_multiplicity
 _atom_site_fract_x
 _atom_site_fract_y
 _atom_site_fract_z
 _atom_site_occupancy
  Hg  Hg0  1  0.72883000  0.12332000  0.08363000  1.0
  Hg  Hg1  1  0.27117000  0.87668000  0.91637000  1.0
  Hg  Hg2  1  0.69942000  0.59298000  0.02893000  1.0
  Hg  Hg3  1  0.30058000  0.40702000  0.97107000  1.0
  Hg  Hg4  1  0.50080000  0.25579000  0.51730000  1.0
  Hg  Hg5  1  0.49920000  0.74421000  0.48270000  1.0
  H  H6  1  0.03715000  0.09141000  0.12251000  1.0
  H  H7  1  0.96285000  0.90859000  0.87749000  1.0
  H  H8  1  0.28340000  0.14018000  0.25776000  1.0
  H  H9  1  0.71660000  0.85982000  0.74224000  1.0
  H  H10  1  0.28587000  0.37133000  0.59150000  1.0
  H  H11  1  0.71413000  0.62867000  0.40850000  1.0
  H  H12  1  0.10620000  0.43835000  0.65614000  1.0
  H  H13  1  0.89380000  0.56165000  0.34386000  1.0
  H  H14  1  0.86195000  0.38476000  0.52397000  1.0
  H  H15  1  0.13805000  0.61524000  0.47603000  1.0
  H  H16  1  0.79811000  0.26842000  0.32807000  1.0
  H  H17  1  0.20189000  0.73158000  0.67193000  1.0
  H  H18  1  0.99583000  0.48432000  0.11088000  1.0
  H  H19  1  0.00417000  0.51568000  0.88912000  1.0
  H  H20  1  0.23539000  0.53550000  0.25854000  1.0
  H  H21  1  0.76461000  0.46450000  0.74146000  1.0
  H  H22  1  0.28775000  0.92161000  0.48344000  1.0
  H  H23  1  0.71225000  0.07839000  0.51656000  1.0
  H  H24  1  0.13605000  0.06816000  0.48870000  1.0
  H  H25  1  0.86395000  0.93184000  0.51130000  1.0
  H  H26  1  0.89771000  0.01623000  0.34703000  1.0
  H  H27  1  0.10229000  0.98377000  0.65297000  1.0
  H  H28  1  0.81091000  0.81956000  0.19860000  1.0
  H  H29  1  0.18909000  0.18044000  0.80140000  1.0
  C  C30  1  0.77306000  0.29888000  0.95018000  1.0
  C  C31  1  0.22694000  0.70111000  0.04982000  1.0
  C  C32  1  0.65836000  0.42671000  0.16571000  1.0
  C  C33  1  0.34164000  0.57329000  0.83429000  1.0
  C  C34  1  0.57728000  0.90019000  0.11735000  1.0
  C  C35  1  0.42272000  0.09981000  0.88265000  1.0
  C  C36  1  0.79044000  0.82170000  0.96951000  1.0
  C  C37  1  0.20956000  0.17829000  0.03048000  1.0
  C  C38  1  0.51207000  0.06351000  0.64026000  1.0
  C  C39  1  0.48793000  0.93649000  0.35974000  1.0
  C  C40  1  0.51119000  0.42882000  0.37399000  1.0
  C  C41  1  0.48881000  0.57118000  0.62601000  1.0
  C  C42  1  0.00419000  0.25080000  0.34724000  1.0
  C  C43  1  0.99581000  0.74920000  0.65276000  1.0
  C  C44  1  0.06672000  0.14648000  0.20838000  1.0
  C  C45  1  0.93328000  0.85352000  0.79162000  1.0
  C  C46  1  0.20449000  0.17422000  0.28388000  1.0
  C  C47  1  0.79551000  0.82578000  0.71612000  1.0
  C  C48  1  0.14420000  0.28007000  0.42320000  1.0
  C  C49  1  0.85580000  0.71993000  0.57680000  1.0
  C  C50  1  0.17916000  0.34835000  0.53501000  1.0
  C  C51  1  0.82083000  0.65164000  0.46499000  1.0
  C  C52  1  0.07865000  0.38490000  0.57022000  1.0
  C  C53  1  0.92135000  0.61510000  0.42978000  1.0
  C  C54  1  0.94066000  0.35516000  0.49556000  1.0
  C  C55  1  0.05934000  0.64485000  0.50444000  1.0
  C  C56  1  0.90366000  0.28947000  0.38605000  1.0
  C  C57  1  0.09634000  0.71053000  0.61395000  1.0
  C  C58  1  0.99961000  0.75771000  0.25623000  1.0
  C  C59  1  0.00039000  0.24229000  0.74377000  1.0
  C  C60  1  0.03451000  0.57133000  0.17614000  1.0
  C  C61  1  0.96550000  0.42867000  0.82386000  1.0
  C  C62  1  0.16859000  0.60011000  0.25844000  1.0
  C  C63  1  0.83141000  0.39989000  0.74156000  1.0
  C  C64  1  0.13595000  0.78673000  0.33864000  1.0
  C  C65  1  0.86404000  0.21327000  0.66136000  1.0
  C  C66  1  0.18374000  0.90026000  0.42208000  1.0
  C  C67  1  0.81625000  0.09974000  0.57792000  1.0
  C  C68  1  0.09882000  0.98106000  0.42401000  1.0
  C  C69  1  0.90118000  0.01894000  0.57599000  1.0
  C  C70  1  0.96390000  0.95174000  0.34346000  1.0
  C  C71  1  0.03610000  0.04826000  0.65654000  1.0
  C  C72  1  0.91478000  0.84226000  0.26059000  1.0
  C  C73  1  0.08522000  0.15774000  0.73942000  1.0
  S  S74  1  0.80126000  0.16177000  0.93939000  1.0
  S  S75  1  0.19874000  0.83823000  0.06061000  1.0
  S  S76  1  0.59801000  0.54964000  0.15709000  1.0
  S  S77  1  0.40199000  0.45036000  0.84291000  1.0
  S  S78  1  0.58275000  0.04632000  0.16663000  1.0
  S  S79  1  0.41725000  0.95367000  0.83337000  1.0
  S  S80  1  0.73640000  0.67869000  0.89202000  1.0
  S  S81  1  0.26360000  0.32131000  0.10798000  1.0
  S  S82  1  0.44968000  0.18717000  0.65800000  1.0
  S  S83  1  0.55032000  0.81283000  0.34200000  1.0
  S  S84  1  0.56651000  0.30279000  0.37256000  1.0
  S  S85  1  0.43349000  0.69721000  0.62744000  1.0
  N  N86  1  0.75742000  0.39740000  0.95431000  1.0
  N  N87  1  0.24258000  0.60260000  0.04569000  1.0
  N  N88  1  0.70292000  0.34089000  0.17501000  1.0
  N  N89  1  0.29708000  0.65911000  0.82499000  1.0
  N  N90  1  0.56773000  0.79530000  0.08435000  1.0
  N  N91  1  0.43227000  0.20470000  0.91565000  1.0
  N  N92  1  0.83139000  0.92507000  0.01974000  1.0
  N  N93  1  0.16860000  0.07493000  0.98026000  1.0
  N  N94  1  0.55585000  0.97488000  0.63085000  1.0
  N  N95  1  0.44415000  0.02512000  0.36915000  1.0
  N  N96  1  0.47013000  0.51740000  0.36880000  1.0
  N  N97  1  0.52987000  0.48260000  0.63120000  1.0
  N  N98  1  0.96936000  0.18429000  0.23922000  1.0
  N  N99  1  0.03064000  0.81571000  0.76078000  1.0
  N  N100  1  0.24213000  0.24021000  0.38821000  1.0
  N  N101  1  0.75787000  0.75979000  0.61179000  1.0
  N  N102  1  0.95217000  0.64826000  0.17524000  1.0
  N  N103  1  0.04783000  0.35174000  0.82476000  1.0
  N  N104  1  0.21815000  0.70506000  0.33760000  1.0
  N  N105  1  0.78185000  0.29493000  0.66240000  1.0
