# generated using pymatgen
data_NdFe2H25C36(NO4)2
_symmetry_space_group_name_H-M   'P 1'
_cell_length_a   11.46170000
_cell_length_b   12.00350000
_cell_length_c   13.72280000
_cell_angle_alpha   94.60050000
_cell_angle_beta   109.50800000
_cell_angle_gamma   117.14400000
_symmetry_Int_Tables_number   1
_chemical_formula_structural   NdFe2H25C36(NO4)2
_chemical_formula_sum   'Nd2 Fe4 H50 C72 N4 O16'
_cell_volume   1521.52291719
_cell_formula_units_Z   2
loop_
 _symmetry_equiv_pos_site_id
 _symmetry_equiv_pos_as_xyz
  1  'x, y, z'
loop_
 _atom_site_type_symbol
 _atom_site_label
 _atom_site_symmetry_multiplicity
 _atom_site_fract_x
 _atom_site_fract_y
 _atom_site_fract_z
 _atom_site_occupancy
  Nd  Nd0  1  0.20083000  0.64451000  0.61320000  1.0
  Nd  Nd1  1  0.79918000  0.35549000  0.38679000  1.0
  Fe  Fe2  1  0.13859000  0.21575000  0.75253000  1.0
  Fe  Fe3  1  0.86140000  0.78425000  0.24747000  1.0
  Fe  Fe4  1  0.24616000  0.36629000  0.25749000  1.0
  Fe  Fe5  1  0.75386000  0.63372000  0.74252000  1.0
  H  H6  1  0.43857000  0.46752000  0.91753000  1.0
  H  H7  1  0.56136000  0.53238000  0.08228000  1.0
  H  H8  1  0.91991000  0.02075000  0.56303000  1.0
  H  H9  1  0.08007000  0.97925000  0.43697000  1.0
  H  H10  1  0.14495000  0.99278000  0.67669000  1.0
  H  H11  1  0.85503000  0.00720000  0.32331000  1.0
  H  H12  1  0.38891000  0.22756000  0.74689000  1.0
  H  H13  1  0.61108000  0.77241000  0.25311000  1.0
  H  H14  1  0.31561000  0.40337000  0.67560000  1.0
  H  H15  1  0.68439000  0.59662000  0.32440000  1.0
  H  H16  1  0.97536000  0.32649000  0.77306000  1.0
  H  H17  1  0.02463000  0.67352000  0.22694000  1.0
  H  H18  1  0.87878000  0.07175000  0.77631000  1.0
  H  H19  1  0.12120000  0.92826000  0.22367000  1.0
  H  H20  1  0.10979000  0.05761000  0.89527000  1.0
  H  H21  1  0.89016000  0.94237000  0.10472000  1.0
  H  H22  1  0.34512000  0.29474000  0.96807000  1.0
  H  H23  1  0.65486000  0.70523000  0.03195000  1.0
  H  H24  1  0.98804000  0.35602000  0.12683000  1.0
  H  H25  1  0.01197000  0.64398000  0.87317000  1.0
  H  H26  1  0.17772000  0.37920000  0.04316000  1.0
  H  H27  1  0.82229000  0.62079000  0.95684000  1.0
  H  H28  1  0.44769000  0.54793000  0.19648000  1.0
  H  H29  1  0.55231000  0.45207000  0.80351000  1.0
  H  H30  1  0.42488000  0.62803000  0.37560000  1.0
  H  H31  1  0.57514000  0.37199000  0.62439000  1.0
  H  H32  1  0.14793000  0.12280000  0.12607000  1.0
  H  H33  1  0.85207000  0.87720000  0.87396000  1.0
  H  H34  1  0.01317000  0.13774000  0.25363000  1.0
  H  H35  1  0.98686000  0.86230000  0.74641000  1.0
  H  H36  1  0.21931000  0.30900000  0.44598000  1.0
  H  H37  1  0.78074000  0.69105000  0.55404000  1.0
  H  H38  1  0.48006000  0.39958000  0.43736000  1.0
  H  H39  1  0.51997000  0.60046000  0.56264000  1.0
  H  H40  1  0.44066000  0.76559000  0.49829000  1.0
  H  H41  1  0.55933000  0.23441000  0.50170000  1.0
  H  H42  1  0.66349000  0.96168000  0.50616000  1.0
  H  H43  1  0.33650000  0.03834000  0.49383000  1.0
  H  H44  1  0.77130000  0.17041000  0.64219000  1.0
  H  H45  1  0.22870000  0.82960000  0.35781000  1.0
  H  H46  1  0.47722000  0.16812000  0.00072000  1.0
  H  H47  1  0.52276000  0.83187000  0.99928000  1.0
  H  H48  1  0.25829000  0.96307000  0.97689000  1.0
  H  H49  1  0.74170000  0.03692000  0.02310000  1.0
  H  H50  1  0.15746000  0.76606000  0.82434000  1.0
  H  H51  1  0.84254000  0.23393000  0.17565000  1.0
  H  H52  1  0.77776000  0.28877000  0.80749000  1.0
  H  H53  1  0.22224000  0.71124000  0.19251000  1.0
  H  H54  1  0.67104000  0.28629000  0.93768000  1.0
  H  H55  1  0.32895000  0.71371000  0.06232000  1.0
  C  C56  1  0.00485000  0.28669000  0.54210000  1.0
  C  C57  1  0.99515000  0.71331000  0.45791000  1.0
  C  C58  1  0.08957000  0.23036000  0.59893000  1.0
  C  C59  1  0.91042000  0.76963000  0.40108000  1.0
  C  C60  1  0.03298000  0.09638000  0.60075000  1.0
  C  C61  1  0.96701000  0.90361000  0.39925000  1.0
  C  C62  1  0.15155000  0.08229000  0.66121000  1.0
  C  C63  1  0.84843000  0.91769000  0.33879000  1.0
  C  C64  1  0.28131000  0.20714000  0.69766000  1.0
  C  C65  1  0.71868000  0.79285000  0.30234000  1.0
  C  C66  1  0.24377000  0.29927000  0.66045000  1.0
  C  C67  1  0.75622000  0.70072000  0.33955000  1.0
  C  C68  1  0.28325000  0.49982000  0.89295000  1.0
  C  C69  1  0.71677000  0.50017000  0.10708000  1.0
  C  C70  1  0.03805000  0.28539000  0.81431000  1.0
  C  C71  1  0.96195000  0.71462000  0.18569000  1.0
  C  C72  1  0.98869000  0.15330000  0.81681000  1.0
  C  C73  1  0.01130000  0.84670000  0.18319000  1.0
  C  C74  1  0.11095000  0.14506000  0.87935000  1.0
  C  C75  1  0.88903000  0.85493000  0.12065000  1.0
  C  C76  1  0.23731000  0.27101000  0.91541000  1.0
  C  C77  1  0.76268000  0.72897000  0.08459000  1.0
  C  C78  1  0.19185000  0.35933000  0.87530000  1.0
  C  C79  1  0.80814000  0.64066000  0.12470000  1.0
  C  C80  1  0.12164000  0.50120000  0.35446000  1.0
  C  C81  1  0.87838000  0.49880000  0.64554000  1.0
  C  C82  1  0.18476000  0.49721000  0.27716000  1.0
  C  C83  1  0.81525000  0.50280000  0.72284000  1.0
  C  C84  1  0.10464000  0.41600000  0.16776000  1.0
  C  C85  1  0.89537000  0.58401000  0.83224000  1.0
  C  C86  1  0.20510000  0.43081000  0.12322000  1.0
  C  C87  1  0.79491000  0.56920000  0.87678000  1.0
  C  C88  1  0.34766000  0.52059000  0.20419000  1.0
  C  C89  1  0.65235000  0.47942000  0.79581000  1.0
  C  C90  1  0.33614000  0.56220000  0.29937000  1.0
  C  C91  1  0.66387000  0.43782000  0.70062000  1.0
  C  C92  1  0.46126000  0.27947000  0.22765000  1.0
  C  C93  1  0.53874000  0.72053000  0.77235000  1.0
  C  C94  1  0.35153000  0.26554000  0.26942000  1.0
  C  C95  1  0.64848000  0.73448000  0.73059000  1.0
  C  C96  1  0.19834000  0.18008000  0.20914000  1.0
  C  C97  1  0.80167000  0.81992000  0.79088000  1.0
  C  C98  1  0.12861000  0.18813000  0.27636000  1.0
  C  C99  1  0.87142000  0.81189000  0.72367000  1.0
  C  C100  1  0.23812000  0.27894000  0.37863000  1.0
  C  C101  1  0.76191000  0.72110000  0.62139000  1.0
  C  C102  1  0.37531000  0.32737000  0.37422000  1.0
  C  C103  1  0.62472000  0.67266000  0.62579000  1.0
  C  C104  1  0.49534000  0.85762000  0.55955000  1.0
  C  C105  1  0.50467000  0.14238000  0.44044000  1.0
  C  C106  1  0.61944000  0.96706000  0.56434000  1.0
  C  C107  1  0.38056000  0.03295000  0.43565000  1.0
  C  C108  1  0.67936000  0.08254000  0.64031000  1.0
  C  C109  1  0.32063000  0.91747000  0.35969000  1.0
  C  C110  1  0.61989000  0.08666000  0.71487000  1.0
  C  C111  1  0.38011000  0.91334000  0.28512000  1.0
  C  C112  1  0.49458000  0.97041000  0.70415000  1.0
  C  C113  1  0.50542000  0.02959000  0.29584000  1.0
  C  C114  1  0.43038000  0.97002000  0.77865000  1.0
  C  C115  1  0.56962000  0.02998000  0.22134000  1.0
  C  C116  1  0.49461000  0.08577000  0.86189000  1.0
  C  C117  1  0.50539000  0.91423000  0.13811000  1.0
  C  C118  1  0.43000000  0.08279000  0.93392000  1.0
  C  C119  1  0.56999000  0.91720000  0.06608000  1.0
  C  C120  1  0.30822000  0.96854000  0.92098000  1.0
  C  C121  1  0.69177000  0.03145000  0.07901000  1.0
  C  C122  1  0.25268000  0.85840000  0.83714000  1.0
  C  C123  1  0.74732000  0.14159000  0.16286000  1.0
  C  C124  1  0.68169000  0.20071000  0.80011000  1.0
  C  C125  1  0.31831000  0.79930000  0.19989000  1.0
  C  C126  1  0.62221000  0.20009000  0.87147000  1.0
  C  C127  1  0.37779000  0.79991000  0.12853000  1.0
  N  N128  1  0.43323000  0.85893000  0.62579000  1.0
  N  N129  1  0.56677000  0.14107000  0.37421000  1.0
  N  N130  1  0.31112000  0.85813000  0.76781000  1.0
  N  N131  1  0.68888000  0.14186000  0.23219000  1.0
  O  O132  1  0.06676000  0.41067000  0.55800000  1.0
  O  O133  1  0.93326000  0.58934000  0.44201000  1.0
  O  O134  1  0.87396000  0.21011000  0.47585000  1.0
  O  O135  1  0.12604000  0.78990000  0.52415000  1.0
  O  O136  1  0.24139000  0.57716000  0.88500000  1.0
  O  O137  1  0.75867000  0.42285000  0.11513000  1.0
  O  O138  1  0.42713000  0.54342000  0.92530000  1.0
  O  O139  1  0.57288000  0.45651000  0.07466000  1.0
  O  O140  1  0.20498000  0.59047000  0.44380000  1.0
  O  O141  1  0.79503000  0.40954000  0.55619000  1.0
  O  O142  1  0.98924000  0.41631000  0.32671000  1.0
  O  O143  1  0.01078000  0.58367000  0.67330000  1.0
  O  O144  1  0.59577000  0.36612000  0.29088000  1.0
  O  O145  1  0.40423000  0.63388000  0.70911000  1.0
  O  O146  1  0.41881000  0.20590000  0.13846000  1.0
  O  O147  1  0.58118000  0.79409000  0.86154000  1.0
