# generated using pymatgen
data_LiH17C19O3
_symmetry_space_group_name_H-M   'P 1'
_cell_length_a   7.81820000
_cell_length_b   8.41469000
_cell_length_c   12.54100000
_cell_angle_alpha   87.98020000
_cell_angle_beta   83.08950000
_cell_angle_gamma   72.92890000
_symmetry_Int_Tables_number   1
_chemical_formula_structural   LiH17C19O3
_chemical_formula_sum   'Li2 H34 C38 O6'
_cell_volume   782.96385816
_cell_formula_units_Z   2
loop_
 _symmetry_equiv_pos_site_id
 _symmetry_equiv_pos_as_xyz
  1  'x, y, z'
loop_
 _atom_site_type_symbol
 _atom_site_label
 _atom_site_symmetry_multiplicity
 _atom_site_fract_x
 _atom_site_fract_y
 _atom_site_fract_z
 _atom_site_occupancy
  Li  Li0  1  0.98206000  0.38070000  0.57472000  1.0
  Li  Li1  1  0.01794000  0.61929000  0.42528000  1.0
  H  H2  1  0.24844000  0.33261000  0.68984000  1.0
  H  H3  1  0.75155000  0.66739000  0.31016000  1.0
  H  H4  1  0.04656000  0.47041000  0.82312000  1.0
  H  H5  1  0.95343000  0.52961000  0.17688000  1.0
  H  H6  1  0.95201000  0.67952000  0.96950000  1.0
  H  H7  1  0.04799000  0.32050000  0.03049000  1.0
  H  H8  1  0.17398000  0.80998000  0.02831000  1.0
  H  H9  1  0.82603000  0.19003000  0.97169000  1.0
  H  H10  1  0.48982000  0.72583000  0.93955000  1.0
  H  H11  1  0.51019000  0.27417000  0.06044000  1.0
  H  H12  1  0.58405000  0.51387000  0.79548000  1.0
  H  H13  1  0.41595000  0.48613000  0.20452000  1.0
  H  H14  1  0.53345000  0.09839000  0.56877000  1.0
  H  H15  1  0.46655000  0.90161000  0.43123000  1.0
  H  H16  1  0.71948000  0.81376000  0.60622000  1.0
  H  H17  1  0.28052000  0.18624000  0.39378000  1.0
  H  H18  1  0.78835000  0.73166000  0.79312000  1.0
  H  H19  1  0.21164000  0.26834000  0.20688000  1.0
  H  H20  1  0.66835000  0.93990000  0.94135000  1.0
  H  H21  1  0.33164000  0.06011000  0.05865000  1.0
  H  H22  1  0.48332000  0.22530000  0.90201000  1.0
  H  H23  1  0.51668000  0.77470000  0.09799000  1.0
  H  H24  1  0.23468000  0.84315000  0.54508000  1.0
  H  H25  1  0.76533000  0.15685000  0.45492000  1.0
  H  H26  1  0.09384000  0.79384000  0.65742000  1.0
  H  H27  1  0.90617000  0.20616000  0.34258000  1.0
  H  H28  1  0.30792000  0.80718000  0.67711000  1.0
  H  H29  1  0.69209000  0.19281000  0.32289000  1.0
  H  H30  1  0.95816000  0.21422000  0.77936000  1.0
  H  H31  1  0.04184000  0.78578000  0.22064000  1.0
  H  H32  1  0.17210000  0.08259000  0.81220000  1.0
  H  H33  1  0.82789000  0.91740000  0.18781000  1.0
  H  H34  1  0.98897000  0.99911000  0.81361000  1.0
  H  H35  1  0.01104000  0.00088000  0.18639000  1.0
  C  C36  1  0.32075000  0.49251000  0.52849000  1.0
  C  C37  1  0.67924000  0.50749000  0.47150000  1.0
  C  C38  1  0.61986000  0.43784000  0.58035000  1.0
  C  C39  1  0.38013000  0.56216000  0.41965000  1.0
  C  C40  1  0.44203000  0.42665000  0.60335000  1.0
  C  C41  1  0.55797000  0.57335000  0.39665000  1.0
  C  C42  1  0.37503000  0.35377000  0.70702000  1.0
  C  C43  1  0.62496000  0.64623000  0.29298000  1.0
  C  C44  1  0.32187000  0.47817000  0.79881000  1.0
  C  C45  1  0.67813000  0.52183000  0.20119000  1.0
  C  C46  1  0.14434000  0.52649000  0.84890000  1.0
  C  C47  1  0.85566000  0.47351000  0.15110000  1.0
  C  C48  1  0.09051000  0.64517000  0.93102000  1.0
  C  C49  1  0.90949000  0.35484000  0.06898000  1.0
  C  C50  1  0.21437000  0.71772000  0.96420000  1.0
  C  C51  1  0.78564000  0.28228000  0.03580000  1.0
  C  C52  1  0.39176000  0.66985000  0.91495000  1.0
  C  C53  1  0.60824000  0.33015000  0.08505000  1.0
  C  C54  1  0.44550000  0.55113000  0.83353000  1.0
  C  C55  1  0.55450000  0.44887000  0.16647000  1.0
  C  C56  1  0.56348000  0.06359000  0.65063000  1.0
  C  C57  1  0.43651000  0.93641000  0.34937000  1.0
  C  C58  1  0.66753000  0.90277000  0.67188000  1.0
  C  C59  1  0.33246000  0.09723000  0.32811000  1.0
  C  C60  1  0.70633000  0.85705000  0.77654000  1.0
  C  C61  1  0.29366000  0.14295000  0.22346000  1.0
  C  C62  1  0.63926000  0.97361000  0.85917000  1.0
  C  C63  1  0.36074000  0.02639000  0.14083000  1.0
  C  C64  1  0.53468000  0.13451000  0.83742000  1.0
  C  C65  1  0.46532000  0.86549000  0.16258000  1.0
  C  C66  1  0.11369000  0.04121000  0.65694000  1.0
  C  C67  1  0.88633000  0.95879000  0.34306000  1.0
  C  C68  1  0.19289000  0.86094000  0.63125000  1.0
  C  C69  1  0.80712000  0.13906000  0.36875000  1.0
  C  C70  1  0.05190000  0.08852000  0.77252000  1.0
  C  C71  1  0.94811000  0.91148000  0.22748000  1.0
  C  C72  1  0.49651000  0.18234000  0.73283000  1.0
  C  C73  1  0.50349000  0.81765000  0.26717000  1.0
  O  O74  1  0.15327000  0.50127000  0.54358000  1.0
  O  O75  1  0.84673000  0.49873000  0.45642000  1.0
  O  O76  1  0.73917000  0.39480000  0.64416000  1.0
  O  O77  1  0.26082000  0.60519000  0.35583000  1.0
  O  O78  1  0.10308000  0.14786000  0.58539000  1.0
  O  O79  1  0.89694000  0.85214000  0.41462000  1.0
