# generated using pymatgen
data_Cd3H42C34(NO13)2
_symmetry_space_group_name_H-M   'P 1'
_cell_length_a   10.05090000
_cell_length_b   10.61380000
_cell_length_c   11.40950000
_cell_angle_alpha   73.45570000
_cell_angle_beta   73.58270000
_cell_angle_gamma   79.12970000
_symmetry_Int_Tables_number   1
_chemical_formula_structural   Cd3H42C34(NO13)2
_chemical_formula_sum   'Cd3 H42 C34 N2 O26'
_cell_volume   1111.42356956
_cell_formula_units_Z   1
loop_
 _symmetry_equiv_pos_site_id
 _symmetry_equiv_pos_as_xyz
  1  'x, y, z'
loop_
 _atom_site_type_symbol
 _atom_site_label
 _atom_site_symmetry_multiplicity
 _atom_site_fract_x
 _atom_site_fract_y
 _atom_site_fract_z
 _atom_site_occupancy
  Cd  Cd0  1  0.81945000  0.58894000  0.80633000  1.0
  Cd  Cd1  1  0.18056000  0.41106000  0.19367000  1.0
  Cd  Cd2  1  0.00000000  0.00001000  0.00000000  1.0
  H  H3  1  0.42368000  0.44158000  0.38952000  1.0
  H  H4  1  0.57633000  0.55842000  0.61048000  1.0
  H  H5  1  0.81116000  0.19521000  0.42363000  1.0
  H  H6  1  0.18884000  0.80478000  0.57636000  1.0
  H  H7  1  0.47008000  0.20483000  0.75572000  1.0
  H  H8  1  0.52993000  0.79517000  0.24427000  1.0
  H  H9  1  0.20595000  0.42010000  0.48349000  1.0
  H  H10  1  0.79405000  0.57990000  0.51650000  1.0
  H  H11  1  0.25001000  0.55059000  0.52973000  1.0
  H  H12  1  0.75001000  0.44942000  0.47025000  1.0
  H  H13  1  0.58578000  0.54888000  0.22876000  1.0
  H  H14  1  0.41422000  0.45112000  0.77124000  1.0
  H  H15  1  0.51189000  0.42813000  0.19323000  1.0
  H  H16  1  0.48811000  0.57187000  0.80677000  1.0
  H  H17  1  0.92220000  0.15975000  0.56834000  1.0
  H  H18  1  0.07781000  0.84025000  0.43164000  1.0
  H  H19  1  0.87903000  0.00206000  0.57425000  1.0
  H  H20  1  0.12097000  0.99792000  0.42574000  1.0
  H  H21  1  0.54173000  0.79033000  0.84503000  1.0
  H  H22  1  0.45826000  0.20967000  0.15498000  1.0
  H  H23  1  0.39147000  0.94942000  0.72134000  1.0
  H  H24  1  0.60851000  0.05057000  0.27866000  1.0
  H  H25  1  0.72591000  0.92675000  0.38702000  1.0
  H  H26  1  0.27409000  0.07325000  0.61299000  1.0
  H  H27  1  0.86071000  0.76615000  0.52701000  1.0
  H  H28  1  0.13929000  0.23385000  0.47300000  1.0
  H  H29  1  0.04577000  0.63664000  0.90516000  1.0
  H  H30  1  0.95422000  0.36337000  0.09485000  1.0
  H  H31  1  0.99241000  0.76825000  0.81458000  1.0
  H  H32  1  0.00759000  0.23175000  0.18543000  1.0
  H  H33  1  0.68744000  0.34348000  0.82840000  1.0
  H  H34  1  0.31256000  0.65652000  0.17159000  1.0
  H  H35  1  0.84341000  0.36232000  0.75419000  1.0
  H  H36  1  0.15660000  0.63768000  0.24581000  1.0
  H  H37  1  0.88429000  0.76845000  0.02307000  1.0
  H  H38  1  0.11571000  0.23156000  0.97693000  1.0
  H  H39  1  0.89591000  0.75624000  0.16106000  1.0
  H  H40  1  0.10408000  0.24378000  0.83894000  1.0
  H  H41  1  0.19124000  0.76874000  0.93112000  1.0
  H  H42  1  0.80876000  0.23126000  0.06888000  1.0
  H  H43  1  0.14633000  0.87941000  0.82016000  1.0
  H  H44  1  0.85368000  0.12059000  0.17985000  1.0
  C  C45  1  0.43288000  0.32451000  0.57734000  1.0
  C  C46  1  0.56713000  0.67549000  0.42266000  1.0
  C  C47  1  0.48663000  0.37017000  0.44716000  1.0
  C  C48  1  0.51338000  0.62983000  0.55283000  1.0
  C  C49  1  0.62300000  0.32069000  0.39539000  1.0
  C  C50  1  0.37700000  0.67931000  0.60460000  1.0
  C  C51  1  0.70658000  0.23180000  0.46959000  1.0
  C  C52  1  0.29342000  0.76820000  0.53040000  1.0
  C  C53  1  0.65167000  0.19493000  0.59974000  1.0
  C  C54  1  0.34834000  0.80507000  0.40025000  1.0
  C  C55  1  0.51394000  0.23848000  0.65481000  1.0
  C  C56  1  0.48608000  0.76151000  0.34519000  1.0
  C  C57  1  0.21176000  0.45320000  0.56492000  1.0
  C  C58  1  0.78824000  0.54680000  0.43507000  1.0
  C  C59  1  0.06586000  0.46319000  0.64990000  1.0
  C  C60  1  0.93414000  0.53682000  0.35011000  1.0
  C  C61  1  0.61079000  0.45861000  0.19355000  1.0
  C  C62  1  0.38921000  0.54138000  0.80645000  1.0
  C  C63  1  0.69507000  0.49245000  0.05868000  1.0
  C  C64  1  0.30493000  0.50755000  0.94133000  1.0
  C  C65  1  0.86903000  0.07365000  0.63023000  1.0
  C  C66  1  0.13097000  0.92635000  0.36976000  1.0
  C  C67  1  0.94220000  0.01301000  0.73687000  1.0
  C  C68  1  0.05780000  0.98698000  0.26313000  1.0
  C  C69  1  0.57817000  0.82359000  0.74294000  1.0
  C  C70  1  0.42181000  0.17640000  0.25707000  1.0
  C  C71  1  0.49460000  0.91382000  0.67151000  1.0
  C  C72  1  0.50539000  0.08617000  0.32849000  1.0
  C  C73  1  0.54354000  0.95357000  0.54003000  1.0
  C  C74  1  0.45645000  0.04643000  0.45999000  1.0
  C  C75  1  0.67906000  0.90050000  0.48775000  1.0
  C  C76  1  0.32093000  0.09949000  0.51225000  1.0
  C  C77  1  0.75620000  0.81067000  0.56536000  1.0
  C  C78  1  0.24378000  0.18933000  0.43465000  1.0
  N  N79  1  0.70669000  0.77097000  0.69114000  1.0
  N  N80  1  0.29330000  0.22903000  0.30887000  1.0
  O  O81  1  0.29853000  0.36017000  0.63746000  1.0
  O  O82  1  0.70148000  0.63982000  0.36254000  1.0
  O  O83  1  0.68648000  0.35674000  0.26917000  1.0
  O  O84  1  0.31352000  0.64326000  0.73083000  1.0
  O  O85  1  0.72606000  0.11415000  0.68182000  1.0
  O  O86  1  0.27393000  0.88585000  0.31818000  1.0
  O  O87  1  0.02238000  0.36097000  0.73147000  1.0
  O  O88  1  0.97763000  0.63903000  0.26854000  1.0
  O  O89  1  0.99413000  0.57699000  0.63156000  1.0
  O  O90  1  0.00588000  0.42304000  0.36843000  1.0
  O  O91  1  0.63981000  0.58878000  0.98541000  1.0
  O  O92  1  0.36019000  0.41123000  0.01459000  1.0
  O  O93  1  0.81278000  0.42669000  0.02197000  1.0
  O  O94  1  0.18721000  0.57332000  0.97802000  1.0
  O  O95  1  0.03962000  0.91811000  0.71941000  1.0
  O  O96  1  0.96040000  0.08188000  0.28059000  1.0
  O  O97  1  0.90492000  0.06327000  0.83053000  1.0
  O  O98  1  0.09509000  0.93673000  0.16945000  1.0
  O  O99  1  0.95980000  0.68851000  0.88112000  1.0
  O  O100  1  0.04020000  0.31150000  0.11889000  1.0
  O  O101  1  0.74489000  0.40572000  0.76270000  1.0
  O  O102  1  0.25511000  0.59429000  0.23729000  1.0
  O  O103  1  0.86724000  0.81951000  0.08685000  1.0
  O  O104  1  0.13275000  0.18050000  0.91315000  1.0
  O  O105  1  0.18719000  0.86485000  0.89425000  1.0
  O  O106  1  0.81281000  0.13515000  0.10576000  1.0
