# generated using pymatgen
data_CdH10(C2O)8
_symmetry_space_group_name_H-M   'P 1'
_cell_length_a   5.90415000
_cell_length_b   7.42521000
_cell_length_c   18.57190000
_cell_angle_alpha   93.48910000
_cell_angle_beta   96.25880000
_cell_angle_gamma   95.44070000
_symmetry_Int_Tables_number   1
_chemical_formula_structural   CdH10(C2O)8
_chemical_formula_sum   'Cd2 H20 C32 O16'
_cell_volume   803.59686973
_cell_formula_units_Z   2
loop_
 _symmetry_equiv_pos_site_id
 _symmetry_equiv_pos_as_xyz
  1  'x, y, z'
loop_
 _atom_site_type_symbol
 _atom_site_label
 _atom_site_symmetry_multiplicity
 _atom_site_fract_x
 _atom_site_fract_y
 _atom_site_fract_z
 _atom_site_occupancy
  Cd  Cd0  1  0.48132000  0.24580000  0.95749000  1.0
  Cd  Cd1  1  0.51868000  0.75421000  0.04251000  1.0
  H  H2  1  0.40654000  0.43798000  0.25682000  1.0
  H  H3  1  0.59345000  0.56203000  0.74318000  1.0
  H  H4  1  0.63595000  0.09543000  0.20080000  1.0
  H  H5  1  0.36405000  0.90457000  0.79920000  1.0
  H  H6  1  0.56902000  0.08403000  0.46256000  1.0
  H  H7  1  0.43098000  0.91597000  0.53744000  1.0
  H  H8  1  0.73825000  0.14896000  0.59236000  1.0
  H  H9  1  0.26175000  0.85104000  0.40764000  1.0
  H  H10  1  0.13849000  0.30078000  0.61991000  1.0
  H  H11  1  0.86151000  0.69921000  0.38009000  1.0
  H  H12  1  0.35592000  0.39724000  0.51986000  1.0
  H  H13  1  0.64408000  0.60276000  0.48014000  1.0
  H  H14  1  0.01267000  0.24004000  0.90228000  1.0
  H  H15  1  0.98733000  0.75996000  0.09772000  1.0
  H  H16  1  0.69990000  0.08282000  0.83930000  1.0
  H  H17  1  0.30010000  0.91718000  0.16070000  1.0
  H  H18  1  0.14012000  0.44235000  0.91402000  1.0
  H  H19  1  0.85989000  0.55765000  0.08598000  1.0
  H  H20  1  0.73491000  0.96280000  0.90789000  1.0
  H  H21  1  0.26509000  0.03720000  0.09211000  1.0
  C  C22  1  0.23784000  0.36290000  0.24377000  1.0
  C  C23  1  0.76215000  0.63711000  0.75623000  1.0
  C  C24  1  0.14484000  0.32288000  0.17184000  1.0
  C  C25  1  0.85515000  0.67712000  0.82816000  1.0
  C  C26  1  0.92528000  0.22704000  0.15589000  1.0
  C  C27  1  0.07472000  0.77296000  0.84410000  1.0
  C  C28  1  0.80543000  0.16962000  0.21230000  1.0
  C  C29  1  0.19458000  0.83037000  0.78770000  1.0
  C  C30  1  0.89806000  0.20935000  0.28472000  1.0
  C  C31  1  0.10195000  0.79065000  0.71528000  1.0
  C  C32  1  0.76323000  0.14865000  0.34359000  1.0
  C  C33  1  0.23677000  0.85134000  0.65641000  1.0
  C  C34  1  0.86638000  0.19881000  0.41939000  1.0
  C  C35  1  0.13363000  0.80119000  0.58061000  1.0
  C  C36  1  0.74181000  0.15063000  0.47643000  1.0
  C  C37  1  0.25820000  0.84936000  0.52357000  1.0
  C  C38  1  0.83732000  0.18730000  0.54837000  1.0
  C  C39  1  0.16268000  0.81270000  0.45163000  1.0
  C  C40  1  0.06058000  0.27326000  0.56382000  1.0
  C  C41  1  0.93942000  0.72674000  0.43618000  1.0
  C  C42  1  0.18484000  0.32602000  0.50767000  1.0
  C  C43  1  0.81516000  0.67398000  0.49233000  1.0
  C  C44  1  0.08897000  0.29043000  0.43526000  1.0
  C  C45  1  0.91103000  0.70957000  0.56474000  1.0
  C  C46  1  0.22141000  0.35276000  0.37658000  1.0
  C  C47  1  0.77859000  0.64725000  0.62342000  1.0
  C  C48  1  0.11630000  0.30704000  0.30048000  1.0
  C  C49  1  0.88370000  0.69296000  0.69952000  1.0
  C  C50  1  0.80777000  0.20300000  0.07969000  1.0
  C  C51  1  0.19223000  0.79700000  0.92031000  1.0
  C  C52  1  0.28116000  0.37485000  0.11103000  1.0
  C  C53  1  0.71884000  0.62516000  0.88897000  1.0
  O  O54  1  0.57460000  0.05769000  0.32917000  1.0
  O  O55  1  0.42541000  0.94231000  0.67083000  1.0
  O  O56  1  0.70838000  0.05138000  0.05408000  1.0
  O  O57  1  0.29162000  0.94862000  0.94592000  1.0
  O  O58  1  0.80084000  0.34635000  0.04471000  1.0
  O  O59  1  0.19916000  0.65365000  0.95529000  1.0
  O  O60  1  0.41118000  0.44202000  0.38953000  1.0
  O  O61  1  0.58881000  0.55798000  0.61047000  1.0
  O  O62  1  0.29730000  0.24481000  0.06365000  1.0
  O  O63  1  0.70270000  0.75520000  0.93635000  1.0
  O  O64  1  0.36875000  0.53587000  0.11273000  1.0
  O  O65  1  0.63124000  0.46413000  0.88727000  1.0
  O  O66  1  0.15314000  0.31593000  0.89432000  1.0
  O  O67  1  0.84686000  0.68407000  0.10568000  1.0
  O  O68  1  0.74022000  0.09078000  0.89175000  1.0
  O  O69  1  0.25978000  0.90922000  0.10825000  1.0
