# generated using pymatgen
data_CuH4C6(N2O)2
_symmetry_space_group_name_H-M   'P 1'
_cell_length_a   5.90715000
_cell_length_b   10.15790000
_cell_length_c   12.45730000
_cell_angle_alpha   90.00400000
_cell_angle_beta   90.00040000
_cell_angle_gamma   89.99940000
_symmetry_Int_Tables_number   1
_chemical_formula_structural   CuH4C6(N2O)2
_chemical_formula_sum   'Cu4 H16 C24 N16 O8'
_cell_volume   747.49080443
_cell_formula_units_Z   4
loop_
 _symmetry_equiv_pos_site_id
 _symmetry_equiv_pos_as_xyz
  1  'x, y, z'
loop_
 _atom_site_type_symbol
 _atom_site_label
 _atom_site_symmetry_multiplicity
 _atom_site_fract_x
 _atom_site_fract_y
 _atom_site_fract_z
 _atom_site_occupancy
  Cu  Cu0  1  0.20678000  0.18897000  0.98734000  1.0
  Cu  Cu1  1  0.29331000  0.81104000  0.48733000  1.0
  Cu  Cu2  1  0.79323000  0.68899000  0.51268000  1.0
  Cu  Cu3  1  0.70678000  0.31100000  0.01265000  1.0
  H  H4  1  0.21690000  0.97051000  0.28125000  1.0
  H  H5  1  0.28312000  0.02948000  0.78126000  1.0
  H  H6  1  0.78314000  0.47053000  0.21875000  1.0
  H  H7  1  0.71687000  0.52949000  0.71876000  1.0
  H  H8  1  0.67836000  0.24521000  0.34477000  1.0
  H  H9  1  0.82171000  0.75474000  0.84479000  1.0
  H  H10  1  0.32169000  0.74529000  0.15522000  1.0
  H  H11  1  0.17836000  0.25479000  0.65520000  1.0
  H  H12  1  0.71009000  0.18415000  0.54120000  1.0
  H  H13  1  0.78986000  0.81585000  0.04121000  1.0
  H  H14  1  0.28984000  0.68415000  0.95880000  1.0
  H  H15  1  0.21009000  0.31587000  0.45877000  1.0
  H  H16  1  0.99284000  0.01483000  0.59486000  1.0
  H  H17  1  0.50710000  0.98517000  0.09485000  1.0
  H  H18  1  0.00710000  0.51482000  0.90518000  1.0
  H  H19  1  0.49282000  0.48519000  0.40515000  1.0
  C  C20  1  0.10359000  0.02050000  0.33679000  1.0
  C  C21  1  0.39644000  0.97949000  0.83679000  1.0
  C  C22  1  0.89642000  0.52049000  0.16321000  1.0
  C  C23  1  0.60358000  0.47950000  0.66322000  1.0
  C  C24  1  0.95127000  0.11516000  0.29931000  1.0
  C  C25  1  0.54877000  0.88483000  0.79933000  1.0
  C  C26  1  0.04870000  0.61516000  0.20068000  1.0
  C  C27  1  0.45127000  0.38484000  0.70068000  1.0
  C  C28  1  0.80327000  0.17410000  0.37273000  1.0
  C  C29  1  0.69676000  0.82587000  0.87274000  1.0
  C  C30  1  0.19673000  0.67413000  0.12729000  1.0
  C  C31  1  0.30328000  0.32591000  0.62725000  1.0
  C  C32  1  0.81919000  0.13993000  0.48073000  1.0
  C  C33  1  0.68078000  0.86007000  0.98073000  1.0
  C  C34  1  0.18078000  0.63993000  0.01928000  1.0
  C  C35  1  0.31917000  0.36009000  0.51925000  1.0
  C  C36  1  0.97683000  0.04523000  0.51138000  1.0
  C  C37  1  0.52316000  0.95478000  0.01136000  1.0
  C  C38  1  0.02316000  0.54522000  0.98864000  1.0
  C  C39  1  0.47681000  0.45479000  0.48862000  1.0
  C  C40  1  0.94974000  0.15272000  0.18285000  1.0
  C  C41  1  0.55030000  0.84726000  0.68288000  1.0
  C  C42  1  0.05022000  0.65272000  0.31713000  1.0
  C  C43  1  0.44974000  0.34725000  0.81713000  1.0
  N  N44  1  0.11381000  0.98471000  0.44045000  1.0
  N  N45  1  0.38617000  0.01529000  0.94044000  1.0
  N  N46  1  0.88619000  0.48471000  0.05955000  1.0
  N  N47  1  0.61378000  0.51528000  0.55956000  1.0
  N  N48  1  0.88227000  0.17484000  0.92848000  1.0
  N  N49  1  0.61773000  0.82519000  0.42850000  1.0
  N  N50  1  0.11775000  0.67481000  0.57151000  1.0
  N  N51  1  0.38226000  0.32513000  0.07149000  1.0
  N  N52  1  0.85929000  0.16531000  0.83223000  1.0
  N  N53  1  0.64068000  0.83475000  0.33225000  1.0
  N  N54  1  0.14072000  0.66525000  0.66777000  1.0
  N  N55  1  0.35930000  0.33469000  0.16774000  1.0
  N  N56  1  0.83489000  0.15304000  0.74016000  1.0
  N  N57  1  0.66508000  0.84696000  0.24018000  1.0
  N  N58  1  0.16515000  0.65304000  0.75983000  1.0
  N  N59  1  0.33492000  0.34698000  0.25981000  1.0
  O  O60  1  0.10948000  0.10718000  0.12482000  1.0
  O  O61  1  0.39052000  0.89280000  0.62487000  1.0
  O  O62  1  0.89050000  0.60721000  0.37518000  1.0
  O  O63  1  0.60946000  0.39279000  0.87518000  1.0
  O  O64  1  0.79102000  0.22944000  0.15347000  1.0
  O  O65  1  0.70904000  0.77059000  0.65350000  1.0
  O  O66  1  0.20901000  0.72942000  0.34647000  1.0
  O  O67  1  0.29103000  0.27053000  0.84651000  1.0
