# generated using pymatgen
data_ZnH16C18(N3Cl)2
_symmetry_space_group_name_H-M   'P 1'
_cell_length_a   5.79181000
_cell_length_b   11.95380000
_cell_length_c   13.63221024
_cell_angle_alpha   89.23845325
_cell_angle_beta   77.73200199
_cell_angle_gamma   90.01750000
_symmetry_Int_Tables_number   1
_chemical_formula_structural   ZnH16C18(N3Cl)2
_chemical_formula_sum   'Zn2 H32 C36 N12 Cl4'
_cell_volume   922.17557670
_cell_formula_units_Z   2
loop_
 _symmetry_equiv_pos_site_id
 _symmetry_equiv_pos_as_xyz
  1  'x, y, z'
loop_
 _atom_site_type_symbol
 _atom_site_label
 _atom_site_symmetry_multiplicity
 _atom_site_fract_x
 _atom_site_fract_y
 _atom_site_fract_z
 _atom_site_occupancy
  Zn  Zn0  1  0.58039000  0.25001000  0.00006000  1.0
  Zn  Zn1  1  0.41958000  0.74999000  0.99994000  1.0
  H  H2  1  0.68098000  0.31418000  0.78198000  1.0
  H  H3  1  0.46330000  0.18586000  0.21816000  1.0
  H  H4  1  0.31901000  0.68582000  0.21802000  1.0
  H  H5  1  0.53670000  0.81414000  0.78184000  1.0
  H  H6  1  0.97731000  0.42610000  0.66198000  1.0
  H  H7  1  0.63979000  0.07403000  0.33812000  1.0
  H  H8  1  0.02270000  0.57389000  0.33802000  1.0
  H  H9  1  0.36020000  0.92597000  0.66188000  1.0
  H  H10  1  0.34403000  0.47891000  0.90302000  1.0
  H  H11  1  0.24720000  0.02117000  0.09687000  1.0
  H  H12  1  0.65597000  0.52108000  0.09699000  1.0
  H  H13  1  0.75281000  0.97884000  0.90312000  1.0
  H  H14  1  0.03040000  0.67931000  0.68070000  1.0
  H  H15  1  0.71156000  0.82092000  0.31894000  1.0
  H  H16  1  0.96963000  0.32067000  0.31930000  1.0
  H  H17  1  0.28846000  0.17908000  0.68105000  1.0
  H  H18  1  0.02951000  0.36819000  0.01345000  1.0
  H  H19  1  0.04292000  0.13187000  0.98647000  1.0
  H  H20  1  0.97046000  0.63181000  0.98656000  1.0
  H  H21  1  0.95707000  0.86814000  0.01353000  1.0
  H  H22  1  0.42642000  0.60220000  0.74659000  1.0
  H  H23  1  0.17349000  0.89810000  0.25329000  1.0
  H  H24  1  0.57361000  0.39778000  0.25340000  1.0
  H  H25  1  0.82651000  0.10191000  0.74670000  1.0
  H  H26  1  0.53946000  0.47963000  0.68202000  1.0
  H  H27  1  0.22190000  0.02057000  0.31798000  1.0
  H  H28  1  0.46054000  0.52036000  0.31799000  1.0
  H  H29  1  0.77807000  0.97944000  0.68202000  1.0
  H  H30  1  0.99826000  0.70930000  0.48131000  1.0
  H  H31  1  0.47878000  0.79115000  0.51817000  1.0
  H  H32  1  0.00177000  0.29070000  0.51870000  1.0
  H  H33  1  0.52125000  0.20884000  0.48182000  1.0
  C  C34  1  0.83077000  0.35290000  0.80534000  1.0
  C  C35  1  0.63640000  0.14719000  0.19472000  1.0
  C  C36  1  0.16920000  0.64710000  0.19466000  1.0
  C  C37  1  0.36357000  0.85281000  0.80527000  1.0
  C  C38  1  0.18922000  0.46198000  0.77226000  1.0
  C  C39  1  0.96183000  0.03819000  0.22776000  1.0
  C  C40  1  0.81076000  0.53802000  0.22774000  1.0
  C  C41  1  0.03818000  0.96181000  0.77223000  1.0
  C  C42  1  0.99981000  0.41424000  0.73870000  1.0
  C  C43  1  0.73880000  0.08590000  0.26139000  1.0
  C  C44  1  0.00018000  0.58575000  0.26130000  1.0
  C  C45  1  0.26118000  0.91409000  0.73862000  1.0
  C  C46  1  0.40330000  0.53914000  0.51521000  1.0
  C  C47  1  0.91843000  0.96097000  0.48467000  1.0
  C  C48  1  0.59672000  0.46086000  0.48479000  1.0
  C  C49  1  0.08158000  0.03903000  0.51533000  1.0
  C  C50  1  0.20068000  0.44365000  0.87262000  1.0
  C  C51  1  0.07341000  0.05647000  0.12734000  1.0
  C  C52  1  0.79929000  0.55634000  0.12739000  1.0
  C  C53  1  0.92658000  0.94354000  0.87266000  1.0
  C  C54  1  0.13246000  0.64467000  0.61180000  1.0
  C  C55  1  0.74462000  0.85545000  0.38791000  1.0
  C  C56  1  0.86757000  0.35534000  0.38820000  1.0
  C  C57  1  0.25541000  0.14455000  0.61208000  1.0
  C  C58  1  0.02365000  0.38219000  0.93494000  1.0
  C  C59  1  0.95864000  0.11788000  0.06503000  1.0
  C  C60  1  0.97633000  0.61782000  0.06506000  1.0
  C  C61  1  0.04136000  0.88213000  0.93497000  1.0
  C  C62  1  0.37905000  0.53038000  0.70512000  1.0
  C  C63  1  0.08468000  0.96982000  0.29486000  1.0
  C  C64  1  0.62095000  0.46961000  0.29488000  1.0
  C  C65  1  0.91532000  0.03018000  0.70514000  1.0
  C  C66  1  0.11983000  0.65759000  0.51255000  1.0
  C  C67  1  0.63193000  0.84268000  0.48707000  1.0
  C  C68  1  0.88021000  0.34240000  0.48746000  1.0
  C  C69  1  0.36809000  0.15732000  0.51292000  1.0
  N  N70  1  0.31290000  0.56965000  0.61333000  1.0
  N  N71  1  0.92668000  0.93041000  0.38656000  1.0
  N  N72  1  0.68711000  0.43036000  0.38668000  1.0
  N  N73  1  0.07334000  0.06960000  0.61343000  1.0
  N  N74  1  0.84045000  0.33743000  0.90259000  1.0
  N  N75  1  0.74318000  0.16268000  0.09745000  1.0
  N  N76  1  0.15953000  0.66257000  0.09741000  1.0
  N  N77  1  0.25683000  0.83733000  0.90254000  1.0
  N  N78  1  0.28785000  0.59268000  0.45320000  1.0
  N  N79  1  0.74038000  0.90757000  0.54652000  1.0
  N  N80  1  0.71215000  0.40732000  0.54681000  1.0
  N  N81  1  0.25964000  0.09243000  0.45347000  1.0
  Cl  Cl82  1  0.33290000  0.35545000  0.11236000  1.0
  Cl  Cl83  1  0.44525000  0.14457000  0.88770000  1.0
  Cl  Cl84  1  0.66708000  0.64455000  0.88764000  1.0
  Cl  Cl85  1  0.55474000  0.85543000  0.11230000  1.0
