# generated using pymatgen
data_LaH11C11O9
_symmetry_space_group_name_H-M   'P 1'
_cell_length_a   7.91842000
_cell_length_b   12.39150000
_cell_length_c   12.99710000
_cell_angle_alpha   90.33600000
_cell_angle_beta   89.99990000
_cell_angle_gamma   90.00000000
_symmetry_Int_Tables_number   1
_chemical_formula_structural   LaH11C11O9
_chemical_formula_sum   'La4 H44 C44 O36'
_cell_volume   1275.26783879
_cell_formula_units_Z   4
loop_
 _symmetry_equiv_pos_site_id
 _symmetry_equiv_pos_as_xyz
  1  'x, y, z'
loop_
 _atom_site_type_symbol
 _atom_site_label
 _atom_site_symmetry_multiplicity
 _atom_site_fract_x
 _atom_site_fract_y
 _atom_site_fract_z
 _atom_site_occupancy
  La  La0  1  0.06584000  0.52447000  0.31520000  1.0
  La  La1  1  0.56584000  0.47553000  0.18480000  1.0
  La  La2  1  0.93416000  0.47553000  0.68480000  1.0
  La  La3  1  0.43417000  0.52447000  0.81519000  1.0
  H  H4  1  0.55344000  0.92620000  0.09643000  1.0
  H  H5  1  0.05343000  0.07380000  0.40358000  1.0
  H  H6  1  0.44657000  0.07380000  0.90357000  1.0
  H  H7  1  0.94656000  0.92620000  0.59643000  1.0
  H  H8  1  0.36402000  0.76615000  0.10161000  1.0
  H  H9  1  0.86401000  0.23385000  0.39840000  1.0
  H  H10  1  0.63598000  0.23385000  0.89839000  1.0
  H  H11  1  0.13598000  0.76615000  0.60161000  1.0
  H  H12  1  0.93581000  0.97821000  0.14138000  1.0
  H  H13  1  0.43580000  0.02179000  0.35863000  1.0
  H  H14  1  0.06420000  0.02179000  0.85863000  1.0
  H  H15  1  0.56420000  0.97821000  0.64137000  1.0
  H  H16  1  0.43532000  0.11288000  0.11528000  1.0
  H  H17  1  0.93532000  0.88712000  0.38472000  1.0
  H  H18  1  0.56468000  0.88712000  0.88472000  1.0
  H  H19  1  0.06468000  0.11289000  0.61528000  1.0
  H  H20  1  0.88790000  0.13404000  0.20498000  1.0
  H  H21  1  0.38790000  0.86596000  0.29502000  1.0
  H  H22  1  0.11210000  0.86596000  0.79501000  1.0
  H  H23  1  0.61210000  0.13404000  0.70499000  1.0
  H  H24  1  0.88463000  0.15771000  0.06971000  1.0
  H  H25  1  0.38463000  0.84229000  0.43029000  1.0
  H  H26  1  0.11537000  0.84229000  0.93029000  1.0
  H  H27  1  0.61537000  0.15771000  0.56971000  1.0
  H  H28  1  0.81832000  0.82467000  0.06102000  1.0
  H  H29  1  0.31831000  0.17533000  0.43898000  1.0
  H  H30  1  0.18168000  0.17533000  0.93898000  1.0
  H  H31  1  0.68168000  0.82467000  0.56101000  1.0
  H  H32  1  0.82456000  0.82888000  0.19893000  1.0
  H  H33  1  0.32456000  0.17112000  0.30107000  1.0
  H  H34  1  0.17544000  0.17112000  0.80107000  1.0
  H  H35  1  0.67544000  0.82888000  0.69893000  1.0
  H  H36  1  0.09193000  0.57237000  0.03818000  1.0
  H  H37  1  0.59194000  0.42763000  0.46182000  1.0
  H  H38  1  0.90806000  0.42763000  0.96182000  1.0
  H  H39  1  0.40806000  0.57237000  0.53818000  1.0
  H  H40  1  0.76482000  0.67773000  0.36774000  1.0
  H  H41  1  0.26482000  0.32227000  0.13226000  1.0
  H  H42  1  0.23519000  0.32227000  0.63226000  1.0
  H  H43  1  0.73518000  0.67773000  0.86774000  1.0
  H  H44  1  0.88566000  0.67848000  0.46534000  1.0
  H  H45  1  0.38566000  0.32152000  0.03466000  1.0
  H  H46  1  0.11433000  0.32152000  0.53466000  1.0
  H  H47  1  0.61434000  0.67848000  0.96534000  1.0
  C  C48  1  0.41805000  0.93750000  0.10708000  1.0
  C  C49  1  0.91805000  0.06250000  0.39292000  1.0
  C  C50  1  0.58195000  0.06250000  0.89292000  1.0
  C  C51  1  0.08195000  0.93751000  0.60708000  1.0
  C  C52  1  0.31309000  0.84728000  0.10950000  1.0
  C  C53  1  0.81309000  0.15272000  0.39051000  1.0
  C  C54  1  0.68691000  0.15272000  0.89050000  1.0
  C  C55  1  0.18691000  0.84728000  0.60949000  1.0
  C  C56  1  0.13933000  0.86248000  0.12363000  1.0
  C  C57  1  0.63932000  0.13752000  0.37638000  1.0
  C  C58  1  0.86068000  0.13752000  0.87637000  1.0
  C  C59  1  0.36067000  0.86249000  0.62363000  1.0
  C  C60  1  0.07068000  0.96632000  0.13216000  1.0
  C  C61  1  0.57067000  0.03368000  0.36785000  1.0
  C  C62  1  0.92933000  0.03368000  0.86784000  1.0
  C  C63  1  0.42933000  0.96632000  0.63216000  1.0
  C  C64  1  0.17962000  0.05537000  0.12907000  1.0
  C  C65  1  0.67962000  0.94463000  0.37094000  1.0
  C  C66  1  0.82038000  0.94463000  0.87093000  1.0
  C  C67  1  0.32038000  0.05538000  0.62907000  1.0
  C  C68  1  0.35421000  0.04188000  0.11737000  1.0
  C  C69  1  0.85420000  0.95812000  0.38263000  1.0
  C  C70  1  0.64579000  0.95812000  0.88262000  1.0
  C  C71  1  0.14580000  0.04188000  0.61738000  1.0
  C  C72  1  0.94731000  0.17996000  0.14243000  1.0
  C  C73  1  0.44731000  0.82004000  0.35757000  1.0
  C  C74  1  0.05269000  0.82003000  0.85756000  1.0
  C  C75  1  0.55269000  0.17996000  0.64244000  1.0
  C  C76  1  0.91472000  0.29865000  0.16549000  1.0
  C  C77  1  0.41472000  0.70135000  0.33451000  1.0
  C  C78  1  0.08528000  0.70135000  0.83450000  1.0
  C  C79  1  0.58528000  0.29865000  0.66549000  1.0
  C  C80  1  0.86499000  0.78295000  0.13001000  1.0
  C  C81  1  0.36498000  0.21705000  0.36999000  1.0
  C  C82  1  0.13501000  0.21705000  0.86999000  1.0
  C  C83  1  0.63501000  0.78295000  0.63001000  1.0
  C  C84  1  0.78102000  0.67343000  0.13684000  1.0
  C  C85  1  0.28101000  0.32657000  0.36316000  1.0
  C  C86  1  0.21898000  0.32657000  0.86315000  1.0
  C  C87  1  0.71897000  0.67343000  0.63684000  1.0
  C  C88  1  0.22273000  0.55563000  0.06323000  1.0
  C  C89  1  0.72273000  0.44437000  0.43677000  1.0
  C  C90  1  0.77727000  0.44437000  0.93677000  1.0
  C  C91  1  0.27727000  0.55562000  0.56324000  1.0
  O  O92  1  0.12457000  0.15999000  0.13735000  1.0
  O  O93  1  0.62457000  0.84001000  0.36265000  1.0
  O  O94  1  0.87543000  0.84001000  0.86265000  1.0
  O  O95  1  0.37543000  0.16000000  0.63735000  1.0
  O  O96  1  0.03782000  0.36260000  0.18180000  1.0
  O  O97  1  0.53781000  0.63739000  0.31819000  1.0
  O  O98  1  0.96218000  0.63739000  0.81819000  1.0
  O  O99  1  0.46220000  0.36261000  0.68181000  1.0
  O  O100  1  0.75973000  0.32279000  0.16723000  1.0
  O  O101  1  0.25972000  0.67721000  0.33277000  1.0
  O  O102  1  0.24027000  0.67721000  0.83276000  1.0
  O  O103  1  0.74029000  0.32279000  0.66723000  1.0
  O  O104  1  0.04339000  0.77036000  0.12692000  1.0
  O  O105  1  0.54339000  0.22964000  0.37308000  1.0
  O  O106  1  0.95661000  0.22965000  0.87308000  1.0
  O  O107  1  0.45661000  0.77036000  0.62692000  1.0
  O  O108  1  0.85562000  0.59412000  0.17958000  1.0
  O  O109  1  0.35562000  0.40588000  0.32042000  1.0
  O  O110  1  0.14438000  0.40587000  0.82042000  1.0
  O  O111  1  0.64438000  0.59412000  0.67958000  1.0
  O  O112  1  0.63170000  0.66560000  0.10193000  1.0
  O  O113  1  0.13169000  0.33439000  0.39806000  1.0
  O  O114  1  0.36831000  0.33439000  0.89805000  1.0
  O  O115  1  0.86830000  0.66560000  0.60194000  1.0
  O  O116  1  0.25091000  0.54787000  0.15974000  1.0
  O  O117  1  0.75091000  0.45214000  0.34026000  1.0
  O  O118  1  0.74909000  0.45213000  0.84026000  1.0
  O  O119  1  0.24909000  0.54787000  0.65975000  1.0
  O  O120  1  0.88448000  0.67399000  0.38925000  1.0
  O  O121  1  0.38448000  0.32601000  0.11074000  1.0
  O  O122  1  0.11553000  0.32601000  0.61074000  1.0
  O  O123  1  0.61552000  0.67399000  0.88925000  1.0
  O  O124  1  0.33800000  0.54431000  0.99773000  1.0
  O  O125  1  0.83801000  0.45568000  0.50227000  1.0
  O  O126  1  0.66199000  0.45568000  0.00227000  1.0
  O  O127  1  0.16198000  0.54431000  0.49773000  1.0
