# generated using pymatgen
data_Mn2H10C10(N2O)5
_symmetry_space_group_name_H-M   'P 1'
_cell_length_a   9.29079000
_cell_length_b   17.46890000
_cell_length_c   22.83320000
_cell_angle_alpha   90.00000000
_cell_angle_beta   90.00010000
_cell_angle_gamma   90.00000000
_symmetry_Int_Tables_number   1
_chemical_formula_structural   Mn2H10C10(N2O)5
_chemical_formula_sum   'Mn16 H80 C80 N80 O40'
_cell_volume   3705.82565268
_cell_formula_units_Z   8
loop_
 _symmetry_equiv_pos_site_id
 _symmetry_equiv_pos_as_xyz
  1  'x, y, z'
loop_
 _atom_site_type_symbol
 _atom_site_label
 _atom_site_symmetry_multiplicity
 _atom_site_fract_x
 _atom_site_fract_y
 _atom_site_fract_z
 _atom_site_occupancy
  Mn  Mn0  1  0.40603000  0.54112000  0.65449000  1.0
  Mn  Mn1  1  0.59397000  0.95888000  0.15449000  1.0
  Mn  Mn2  1  0.09398000  0.04112000  0.34551000  1.0
  Mn  Mn3  1  0.90603000  0.45888000  0.84551000  1.0
  Mn  Mn4  1  0.59397000  0.45888000  0.34551000  1.0
  Mn  Mn5  1  0.40603000  0.04112000  0.84551000  1.0
  Mn  Mn6  1  0.90603000  0.95888000  0.65449000  1.0
  Mn  Mn7  1  0.09397000  0.54112000  0.15450000  1.0
  Mn  Mn8  1  0.74427000  0.62433000  0.73945000  1.0
  Mn  Mn9  1  0.25573000  0.87567000  0.23945000  1.0
  Mn  Mn10  1  0.75573000  0.12433000  0.26055000  1.0
  Mn  Mn11  1  0.24427000  0.37567000  0.76055000  1.0
  Mn  Mn12  1  0.25574000  0.37567000  0.26055000  1.0
  Mn  Mn13  1  0.74427000  0.12433000  0.76055000  1.0
  Mn  Mn14  1  0.24427000  0.87567000  0.73945000  1.0
  Mn  Mn15  1  0.75573000  0.62433000  0.23945000  1.0
  H  H16  1  0.17635000  0.60328000  0.59311000  1.0
  H  H17  1  0.82365000  0.89672000  0.09311000  1.0
  H  H18  1  0.32366000  0.10328000  0.40689000  1.0
  H  H19  1  0.67635000  0.39672000  0.90689000  1.0
  H  H20  1  0.82366000  0.39672000  0.40689000  1.0
  H  H21  1  0.17635000  0.10328000  0.90689000  1.0
  H  H22  1  0.67634000  0.89672000  0.59311000  1.0
  H  H23  1  0.32365000  0.60328000  0.09311000  1.0
  H  H24  1  0.26530000  0.55668000  0.54426000  1.0
  H  H25  1  0.73470000  0.94332000  0.04426000  1.0
  H  H26  1  0.23470000  0.05668000  0.45574000  1.0
  H  H27  1  0.76530000  0.44332000  0.95574000  1.0
  H  H28  1  0.73470000  0.44332000  0.45574000  1.0
  H  H29  1  0.26530000  0.05668000  0.95574000  1.0
  H  H30  1  0.76530000  0.94332000  0.54426000  1.0
  H  H31  1  0.23470000  0.55668000  0.04426000  1.0
  H  H32  1  0.64184000  0.75511000  0.81863000  1.0
  H  H33  1  0.35816000  0.74489000  0.31863000  1.0
  H  H34  1  0.85816000  0.25511000  0.18137000  1.0
  H  H35  1  0.14184000  0.24489000  0.68137000  1.0
  H  H36  1  0.35816000  0.24489000  0.18137000  1.0
  H  H37  1  0.64184000  0.25511000  0.68137000  1.0
  H  H38  1  0.14184000  0.74489000  0.81863000  1.0
  H  H39  1  0.85816000  0.75511000  0.31863000  1.0
  H  H40  1  0.51509000  0.82957000  0.81807000  1.0
  H  H41  1  0.48491000  0.67043000  0.31807000  1.0
  H  H42  1  0.98491000  0.32957000  0.18193000  1.0
  H  H43  1  0.01509000  0.17043000  0.68193000  1.0
  H  H44  1  0.48491000  0.17043000  0.18193000  1.0
  H  H45  1  0.51509000  0.32957000  0.68193000  1.0
  H  H46  1  0.01509000  0.67043000  0.81807000  1.0
  H  H47  1  0.98491000  0.82957000  0.31807000  1.0
  H  H48  1  0.95843000  0.65570000  0.64342000  1.0
  H  H49  1  0.04157000  0.84430000  0.14342000  1.0
  H  H50  1  0.54157000  0.15570000  0.35658000  1.0
  H  H51  1  0.45843000  0.34430000  0.85658000  1.0
  H  H52  1  0.04157000  0.34430000  0.35658000  1.0
  H  H53  1  0.95843000  0.15570000  0.85658000  1.0
  H  H54  1  0.45843000  0.84430000  0.64342000  1.0
  H  H55  1  0.54157000  0.65569000  0.14342000  1.0
  H  H56  1  0.13489000  0.68080000  0.65873000  1.0
  H  H57  1  0.86511000  0.81920000  0.15873000  1.0
  H  H58  1  0.36511000  0.18080000  0.34127000  1.0
  H  H59  1  0.63490000  0.31920000  0.84127000  1.0
  H  H60  1  0.86511000  0.31920000  0.34127000  1.0
  H  H61  1  0.13489000  0.18080000  0.84127000  1.0
  H  H62  1  0.63489000  0.81920000  0.65873000  1.0
  H  H63  1  0.36511000  0.68080000  0.15873000  1.0
  H  H64  1  0.62039000  0.57043000  0.48584000  1.0
  H  H65  1  0.37961000  0.92957000  0.98584000  1.0
  H  H66  1  0.87961000  0.07043000  0.51416000  1.0
  H  H67  1  0.12038000  0.42957000  0.01416000  1.0
  H  H68  1  0.37961000  0.42957000  0.51416000  1.0
  H  H69  1  0.62039000  0.07043000  0.01417000  1.0
  H  H70  1  0.12039000  0.92957000  0.48584000  1.0
  H  H71  1  0.87961000  0.57043000  0.98584000  1.0
  H  H72  1  0.88611000  0.74153000  0.40362000  1.0
  H  H73  1  0.11389000  0.75847000  0.90362000  1.0
  H  H74  1  0.61389000  0.24153000  0.59638000  1.0
  H  H75  1  0.38611000  0.25847000  0.09638000  1.0
  H  H76  1  0.11389000  0.25846000  0.59638000  1.0
  H  H77  1  0.88611000  0.24154000  0.09638000  1.0
  H  H78  1  0.38611000  0.75847000  0.40362000  1.0
  H  H79  1  0.61389000  0.74153000  0.90362000  1.0
  H  H80  1  0.94099000  0.79800000  0.50108000  1.0
  H  H81  1  0.05901000  0.70200000  0.00108000  1.0
  H  H82  1  0.55901000  0.29800000  0.49892000  1.0
  H  H83  1  0.44099000  0.20200000  0.99892000  1.0
  H  H84  1  0.05901000  0.20200000  0.49892000  1.0
  H  H85  1  0.94099000  0.29800000  0.99892000  1.0
  H  H86  1  0.44099000  0.70200000  0.50108000  1.0
  H  H87  1  0.55901000  0.79800000  0.00108000  1.0
  H  H88  1  0.84199000  0.73749000  0.59098000  1.0
  H  H89  1  0.15801000  0.76251000  0.09098000  1.0
  H  H90  1  0.65801000  0.23749000  0.40902000  1.0
  H  H91  1  0.34199000  0.26251000  0.90902000  1.0
  H  H92  1  0.15801000  0.26251000  0.40902000  1.0
  H  H93  1  0.84199000  0.23749000  0.90902000  1.0
  H  H94  1  0.34199000  0.76251000  0.59098000  1.0
  H  H95  1  0.65801000  0.73749000  0.09098000  1.0
  C  C96  1  0.48600000  0.74407000  0.75813000  1.0
  C  C97  1  0.51400000  0.75593000  0.25813000  1.0
  C  C98  1  0.01400000  0.24407000  0.24187000  1.0
  C  C99  1  0.98600000  0.25593000  0.74187000  1.0
  C  C100  1  0.51400000  0.25593000  0.24187000  1.0
  C  C101  1  0.48600000  0.24407000  0.74187000  1.0
  C  C102  1  0.98600000  0.75593000  0.75813000  1.0
  C  C103  1  0.01400000  0.74407000  0.25813000  1.0
  C  C104  1  0.06820000  0.58170000  0.69270000  1.0
  C  C105  1  0.93179000  0.91830000  0.19270000  1.0
  C  C106  1  0.43180000  0.08170000  0.30730000  1.0
  C  C107  1  0.56821000  0.41830000  0.80730000  1.0
  C  C108  1  0.93180000  0.41830000  0.30730000  1.0
  C  C109  1  0.06821000  0.08170000  0.80730000  1.0
  C  C110  1  0.56820000  0.91830000  0.69270000  1.0
  C  C111  1  0.43180000  0.58170000  0.19270000  1.0
  C  C112  1  0.73234000  0.64730000  0.54426000  1.0
  C  C113  1  0.26766000  0.85270000  0.04426000  1.0
  C  C114  1  0.76766000  0.14730000  0.45574000  1.0
  C  C115  1  0.23234000  0.35270000  0.95574000  1.0
  C  C116  1  0.26766000  0.35270000  0.45574000  1.0
  C  C117  1  0.73234000  0.14730000  0.95574000  1.0
  C  C118  1  0.23234000  0.85270000  0.54426000  1.0
  C  C119  1  0.76766000  0.64730000  0.04426000  1.0
  C  C120  1  0.69381000  0.61894000  0.48911000  1.0
  C  C121  1  0.30619000  0.88106000  0.98911000  1.0
  C  C122  1  0.80619000  0.11894000  0.51089000  1.0
  C  C123  1  0.19381000  0.38106000  0.01089000  1.0
  C  C124  1  0.30619000  0.38106000  0.51089000  1.0
  C  C125  1  0.69381000  0.11895000  0.01089000  1.0
  C  C126  1  0.19381000  0.88106000  0.48911000  1.0
  C  C127  1  0.80619000  0.61895000  0.98911000  1.0
  C  C128  1  0.74806000  0.65307000  0.43811000  1.0
  C  C129  1  0.25195000  0.84693000  0.93811000  1.0
  C  C130  1  0.75195000  0.15307000  0.56189000  1.0
  C  C131  1  0.24805000  0.34693000  0.06189000  1.0
  C  C132  1  0.25194000  0.34693000  0.56189000  1.0
  C  C133  1  0.74805000  0.15307000  0.06189000  1.0
  C  C134  1  0.24805000  0.84693000  0.43811000  1.0
  C  C135  1  0.75195000  0.65307000  0.93811000  1.0
  C  C136  1  0.84033000  0.71639000  0.44300000  1.0
  C  C137  1  0.15967000  0.78361000  0.94300000  1.0
  C  C138  1  0.65967000  0.21639000  0.55700000  1.0
  C  C139  1  0.34033000  0.28361000  0.05700000  1.0
  C  C140  1  0.15967000  0.28361000  0.55700000  1.0
  C  C141  1  0.84033000  0.21640000  0.05700000  1.0
  C  C142  1  0.34033000  0.78361000  0.44300000  1.0
  C  C143  1  0.65967000  0.71639000  0.94300000  1.0
  C  C144  1  0.87319000  0.74725000  0.49764000  1.0
  C  C145  1  0.12682000  0.75275000  0.99764000  1.0
  C  C146  1  0.62682000  0.24725000  0.50236000  1.0
  C  C147  1  0.37318000  0.25275000  0.00236000  1.0
  C  C148  1  0.12682000  0.25275000  0.50236000  1.0
  C  C149  1  0.87318000  0.24725000  0.00236000  1.0
  C  C150  1  0.37318000  0.75275000  0.49764000  1.0
  C  C151  1  0.62682000  0.74725000  0.99764000  1.0
  C  C152  1  0.81932000  0.71283000  0.54812000  1.0
  C  C153  1  0.18068000  0.78717000  0.04812000  1.0
  C  C154  1  0.68068000  0.21283000  0.45188000  1.0
  C  C155  1  0.31932000  0.28717000  0.95188000  1.0
  C  C156  1  0.18068000  0.28717000  0.45188000  1.0
  C  C157  1  0.81932000  0.21283000  0.95188000  1.0
  C  C158  1  0.31932000  0.78717000  0.54812000  1.0
  C  C159  1  0.68068000  0.71284000  0.04812000  1.0
  C  C160  1  0.68236000  0.60884000  0.59945000  1.0
  C  C161  1  0.31764000  0.89116000  0.09946000  1.0
  C  C162  1  0.81765000  0.10884000  0.40054000  1.0
  C  C163  1  0.18236000  0.39116000  0.90054000  1.0
  C  C164  1  0.31765000  0.39116000  0.40054000  1.0
  C  C165  1  0.68236000  0.10884000  0.90054000  1.0
  C  C166  1  0.18236000  0.89116000  0.59946000  1.0
  C  C167  1  0.81764000  0.60884000  0.09946000  1.0
  C  C168  1  0.70527000  0.62326000  0.37905000  1.0
  C  C169  1  0.29473000  0.87674000  0.87905000  1.0
  C  C170  1  0.79473000  0.12326000  0.62095000  1.0
  C  C171  1  0.20526000  0.37674000  0.12095000  1.0
  C  C172  1  0.29473000  0.37674000  0.62095000  1.0
  C  C173  1  0.70527000  0.12326000  0.12095000  1.0
  C  C174  1  0.20527000  0.87674000  0.37905000  1.0
  C  C175  1  0.79473000  0.62326000  0.87905000  1.0
  N  N176  1  0.52920000  0.67663000  0.73512000  1.0
  N  N177  1  0.47080000  0.82337000  0.23512000  1.0
  N  N178  1  0.97080000  0.17663000  0.26488000  1.0
  N  N179  1  0.02920000  0.32337000  0.76488000  1.0
  N  N180  1  0.47080000  0.32337000  0.26488000  1.0
  N  N181  1  0.52920000  0.17663000  0.76488000  1.0
  N  N182  1  0.02920000  0.82337000  0.73512000  1.0
  N  N183  1  0.97080000  0.67663000  0.23512000  1.0
  N  N184  1  0.42582000  0.65769000  0.69586000  1.0
  N  N185  1  0.57418000  0.84231000  0.19586000  1.0
  N  N186  1  0.07418000  0.15769000  0.30414000  1.0
  N  N187  1  0.92582000  0.34231000  0.80414000  1.0
  N  N188  1  0.57418000  0.34231000  0.30414000  1.0
  N  N189  1  0.42582000  0.15769000  0.80414000  1.0
  N  N190  1  0.92582000  0.84231000  0.69586000  1.0
  N  N191  1  0.07418000  0.65769000  0.19586000  1.0
  N  N192  1  0.32595000  0.71025000  0.69467000  1.0
  N  N193  1  0.67405000  0.78975000  0.19467000  1.0
  N  N194  1  0.17405000  0.21025000  0.30533000  1.0
  N  N195  1  0.82595000  0.28975000  0.80533000  1.0
  N  N196  1  0.67405000  0.28975000  0.30533000  1.0
  N  N197  1  0.32595000  0.21025000  0.80533000  1.0
  N  N198  1  0.82594000  0.78975000  0.69467000  1.0
  N  N199  1  0.17405000  0.71025000  0.19467000  1.0
  N  N200  1  0.36005000  0.76573000  0.73342000  1.0
  N  N201  1  0.63995000  0.73427000  0.23342000  1.0
  N  N202  1  0.13995000  0.26573000  0.26658000  1.0
  N  N203  1  0.86005000  0.23427000  0.76658000  1.0
  N  N204  1  0.63995000  0.23427000  0.26658000  1.0
  N  N205  1  0.36005000  0.26573000  0.76658000  1.0
  N  N206  1  0.86005000  0.73427000  0.73342000  1.0
  N  N207  1  0.13995000  0.76573000  0.23342000  1.0
  N  N208  1  0.56310000  0.78495000  0.79742000  1.0
  N  N209  1  0.43690000  0.71505000  0.29742000  1.0
  N  N210  1  0.93690000  0.28495000  0.20258000  1.0
  N  N211  1  0.06310000  0.21505000  0.70258000  1.0
  N  N212  1  0.43690000  0.21505000  0.20258000  1.0
  N  N213  1  0.56310000  0.28495000  0.70258000  1.0
  N  N214  1  0.06310000  0.71505000  0.79742000  1.0
  N  N215  1  0.93690000  0.78495000  0.29742000  1.0
  N  N216  1  0.18327000  0.53611000  0.70123000  1.0
  N  N217  1  0.81673000  0.96389000  0.20123000  1.0
  N  N218  1  0.31673000  0.03611000  0.29877000  1.0
  N  N219  1  0.68327000  0.46389000  0.79877000  1.0
  N  N220  1  0.81673000  0.46389000  0.29877000  1.0
  N  N221  1  0.18327000  0.03611000  0.79877000  1.0
  N  N222  1  0.68327000  0.96389000  0.70123000  1.0
  N  N223  1  0.31673000  0.53611000  0.20123000  1.0
  N  N224  1  0.14610000  0.48994000  0.74583000  1.0
  N  N225  1  0.85390000  0.01006000  0.24583000  1.0
  N  N226  1  0.35390000  0.98994000  0.25417000  1.0
  N  N227  1  0.64610000  0.51006000  0.75417000  1.0
  N  N228  1  0.85390000  0.51006000  0.25417000  1.0
  N  N229  1  0.14610000  0.98994000  0.75417000  1.0
  N  N230  1  0.64610000  0.01006000  0.74583000  1.0
  N  N231  1  0.35390000  0.48994000  0.24583000  1.0
  N  N232  1  0.01440000  0.50600000  0.76303000  1.0
  N  N233  1  0.98560000  0.99400000  0.26303000  1.0
  N  N234  1  0.48560000  0.00600000  0.23697000  1.0
  N  N235  1  0.51440000  0.49400000  0.73697000  1.0
  N  N236  1  0.98560000  0.49400000  0.23697000  1.0
  N  N237  1  0.01440000  0.00600000  0.73697000  1.0
  N  N238  1  0.51440000  0.99400000  0.76303000  1.0
  N  N239  1  0.48560000  0.50600000  0.26303000  1.0
  N  N240  1  0.96233000  0.56398000  0.73074000  1.0
  N  N241  1  0.03767000  0.93602000  0.23074000  1.0
  N  N242  1  0.53767000  0.06398000  0.26926000  1.0
  N  N243  1  0.46233000  0.43602000  0.76926000  1.0
  N  N244  1  0.03767000  0.43602000  0.26926000  1.0
  N  N245  1  0.96233000  0.06398000  0.76926000  1.0
  N  N246  1  0.46233000  0.93602000  0.73074000  1.0
  N  N247  1  0.53767000  0.56398000  0.23074000  1.0
  N  N248  1  0.06235000  0.63742000  0.64959000  1.0
  N  N249  1  0.93765000  0.86258000  0.14959000  1.0
  N  N250  1  0.43765000  0.13742000  0.35041000  1.0
  N  N251  1  0.56235000  0.36258000  0.85041000  1.0
  N  N252  1  0.93765000  0.36258000  0.35041000  1.0
  N  N253  1  0.06235000  0.13742000  0.85041000  1.0
  N  N254  1  0.56235000  0.86258000  0.64959000  1.0
  N  N255  1  0.43765000  0.63742000  0.14959000  1.0
  O  O256  1  0.75055000  0.62650000  0.64606000  1.0
  O  O257  1  0.24945000  0.87350000  0.14606000  1.0
  O  O258  1  0.74945000  0.12650000  0.35394000  1.0
  O  O259  1  0.25055000  0.37350000  0.85394000  1.0
  O  O260  1  0.24945000  0.37350000  0.35394000  1.0
  O  O261  1  0.75055000  0.12650000  0.85394000  1.0
  O  O262  1  0.25055000  0.87350000  0.64606000  1.0
  O  O263  1  0.74945000  0.62651000  0.14606000  1.0
  O  O264  1  0.57862000  0.56165000  0.59662000  1.0
  O  O265  1  0.42138000  0.93836000  0.09662000  1.0
  O  O266  1  0.92138000  0.06165000  0.40338000  1.0
  O  O267  1  0.07862000  0.43836000  0.90338000  1.0
  O  O268  1  0.42138000  0.43835000  0.40338000  1.0
  O  O269  1  0.57862000  0.06165000  0.90338000  1.0
  O  O270  1  0.07862000  0.93835000  0.59662000  1.0
  O  O271  1  0.92137000  0.56165000  0.09662000  1.0
  O  O272  1  0.60905000  0.57113000  0.37703000  1.0
  O  O273  1  0.39096000  0.92887000  0.87703000  1.0
  O  O274  1  0.89096000  0.07113000  0.62297000  1.0
  O  O275  1  0.10904000  0.42887000  0.12297000  1.0
  O  O276  1  0.39096000  0.42887000  0.62297000  1.0
  O  O277  1  0.60904000  0.07113000  0.12297000  1.0
  O  O278  1  0.10904000  0.92887000  0.37703000  1.0
  O  O279  1  0.89096000  0.57113000  0.87703000  1.0
  O  O280  1  0.76376000  0.65287000  0.33380000  1.0
  O  O281  1  0.23624000  0.84713000  0.83380000  1.0
  O  O282  1  0.73624000  0.15287000  0.66620000  1.0
  O  O283  1  0.26376000  0.34712000  0.16620000  1.0
  O  O284  1  0.23624000  0.34713000  0.66620000  1.0
  O  O285  1  0.76376000  0.15288000  0.16620000  1.0
  O  O286  1  0.26376000  0.84713000  0.33380000  1.0
  O  O287  1  0.73624000  0.65287000  0.83380000  1.0
  O  O288  1  0.27472000  0.58803000  0.57921000  1.0
  O  O289  1  0.72528000  0.91197000  0.07921000  1.0
  O  O290  1  0.22528000  0.08803000  0.42080000  1.0
  O  O291  1  0.77473000  0.41197000  0.92079000  1.0
  O  O292  1  0.72528000  0.41197000  0.42080000  1.0
  O  O293  1  0.27472000  0.08803000  0.92079000  1.0
  O  O294  1  0.77472000  0.91197000  0.57920000  1.0
  O  O295  1  0.22528000  0.58803000  0.07921000  1.0
