# generated using pymatgen
data_FeH8(C3N)4
_symmetry_space_group_name_H-M   'P 1'
_cell_length_a   7.05570000
_cell_length_b   13.46510000
_cell_length_c   13.46510000
_cell_angle_alpha   89.95130000
_cell_angle_beta   90.00000000
_cell_angle_gamma   89.99990000
_symmetry_Int_Tables_number   1
_chemical_formula_structural   FeH8(C3N)4
_chemical_formula_sum   'Fe2 H16 C24 N8'
_cell_volume   1279.26087069
_cell_formula_units_Z   2
loop_
 _symmetry_equiv_pos_site_id
 _symmetry_equiv_pos_as_xyz
  1  'x, y, z'
loop_
 _atom_site_type_symbol
 _atom_site_label
 _atom_site_symmetry_multiplicity
 _atom_site_fract_x
 _atom_site_fract_y
 _atom_site_fract_z
 _atom_site_occupancy
  Fe  Fe0  1  0.75000000  0.00000000  1.00000000  1.0
  Fe  Fe1  1  0.25000000  0.00000000  1.00000000  1.0
  H  H2  1  0.30675000  0.99990000  0.76265000  1.0
  H  H3  1  0.30675000  0.00010000  0.23735000  1.0
  H  H4  1  0.69335000  0.00038000  0.76271000  1.0
  H  H5  1  0.19325000  0.76265000  0.99990000  1.0
  H  H6  1  0.80665000  0.76271000  0.00038000  1.0
  H  H7  1  0.80665000  0.23729000  0.99962000  1.0
  H  H8  1  0.19325000  0.23735000  0.00010000  1.0
  H  H9  1  0.69335000  0.99961000  0.23729000  1.0
  H  H10  1  0.30550000  0.99980000  0.59079000  1.0
  H  H11  1  0.30550000  0.00019000  0.40921000  1.0
  H  H12  1  0.69446000  0.99977000  0.59079000  1.0
  H  H13  1  0.19450000  0.59079000  0.99980000  1.0
  H  H14  1  0.80554000  0.59079000  0.99978000  1.0
  H  H15  1  0.80554000  0.40922000  0.00022000  1.0
  H  H16  1  0.19451000  0.40922000  0.00020000  1.0
  H  H17  1  0.69446000  0.00021000  0.40921000  1.0
  C  C18  1  0.15625000  0.99992000  0.77940000  1.0
  C  C19  1  0.15625000  0.00008000  0.22060000  1.0
  C  C20  1  0.84385000  0.00017000  0.77941000  1.0
  C  C21  1  0.34375000  0.77940000  0.99992000  1.0
  C  C22  1  0.65616000  0.77942000  0.00017000  1.0
  C  C23  1  0.65615000  0.22059000  0.99983000  1.0
  C  C24  1  0.34375000  0.22061000  0.00008000  1.0
  C  C25  1  0.84385000  0.99982000  0.22059000  1.0
  C  C26  1  0.00003000  0.99991000  0.71442000  1.0
  C  C27  1  0.00004000  0.00009000  0.28558000  1.0
  C  C28  1  0.49996000  0.71442000  0.99991000  1.0
  C  C29  1  0.49996000  0.28558000  0.00009000  1.0
  C  C30  1  0.00000000  0.99987000  0.60605000  1.0
  C  C31  1  0.00000000  0.00012000  0.39395000  1.0
  C  C32  1  0.50001000  0.60605000  0.99988000  1.0
  C  C33  1  0.50000000  0.39396000  0.00012000  1.0
  C  C34  1  0.17028000  0.99992000  0.55156000  1.0
  C  C35  1  0.17028000  0.00007000  0.44844000  1.0
  C  C36  1  0.82969000  0.99991000  0.55156000  1.0
  C  C37  1  0.32972000  0.55157000  0.99992000  1.0
  C  C38  1  0.67031000  0.55157000  0.99992000  1.0
  C  C39  1  0.67032000  0.44844000  0.00008000  1.0
  C  C40  1  0.32972000  0.44844000  0.00008000  1.0
  C  C41  1  0.82969000  0.00007000  0.44844000  1.0
  N  N42  1  0.09723000  0.00036000  0.87465000  1.0
  N  N43  1  0.09724000  0.99964000  0.12535000  1.0
  N  N44  1  0.90292000  0.00052000  0.87466000  1.0
  N  N45  1  0.40276000  0.87466000  0.00036000  1.0
  N  N46  1  0.59708000  0.87467000  0.00052000  1.0
  N  N47  1  0.59708000  0.12534000  0.99948000  1.0
  N  N48  1  0.40276000  0.12535000  0.99964000  1.0
  N  N49  1  0.90292000  0.99948000  0.12534000  1.0
