# generated using pymatgen
data_SnH8C4(SBr2)2
_symmetry_space_group_name_H-M   'P 1'
_cell_length_a   6.79790000
_cell_length_b   7.95401000
_cell_length_c   12.07400000
_cell_angle_alpha   89.99920000
_cell_angle_beta   89.99410000
_cell_angle_gamma   113.74800000
_symmetry_Int_Tables_number   1
_chemical_formula_structural   SnH8C4(SBr2)2
_chemical_formula_sum   'Sn2 H16 C8 S4 Br8'
_cell_volume   597.56843897
_cell_formula_units_Z   2
loop_
 _symmetry_equiv_pos_site_id
 _symmetry_equiv_pos_as_xyz
  1  'x, y, z'
loop_
 _atom_site_type_symbol
 _atom_site_label
 _atom_site_symmetry_multiplicity
 _atom_site_fract_x
 _atom_site_fract_y
 _atom_site_fract_z
 _atom_site_occupancy
  Sn  Sn0  1  0.00012000  0.49995000  0.99995000  1.0
  Sn  Sn1  1  0.49996000  0.99997000  0.50004000  1.0
  H  H2  1  0.79646000  0.05280000  0.85146000  1.0
  H  H3  1  0.70351000  0.44718000  0.35145000  1.0
  H  H4  1  0.20346000  0.94716000  0.14858000  1.0
  H  H5  1  0.29634000  0.55276000  0.64852000  1.0
  H  H6  1  0.81558000  0.02645000  0.99773000  1.0
  H  H7  1  0.68445000  0.47362000  0.49774000  1.0
  H  H8  1  0.18442000  0.97363000  0.00228000  1.0
  H  H9  1  0.31559000  0.52641000  0.50230000  1.0
  H  H10  1  0.56502000  0.73460000  0.90287000  1.0
  H  H11  1  0.93501000  0.76535000  0.40279000  1.0
  H  H12  1  0.43489000  0.26532000  0.09710000  1.0
  H  H13  1  0.06495000  0.23461000  0.59711000  1.0
  H  H14  1  0.40009000  0.84801000  0.85623000  1.0
  H  H15  1  0.09995000  0.65200000  0.35617000  1.0
  H  H16  1  0.59996000  0.15202000  0.14374000  1.0
  H  H17  1  0.89990000  0.34801000  0.64374000  1.0
  C  C18  1  0.70753000  0.02636000  0.92995000  1.0
  C  C19  1  0.79243000  0.47366000  0.42994000  1.0
  C  C20  1  0.29243000  0.97358000  0.07007000  1.0
  C  C21  1  0.20749000  0.52642000  0.57004000  1.0
  C  C22  1  0.51193000  0.84507000  0.92119000  1.0
  C  C23  1  0.98808000  0.65491000  0.42114000  1.0
  C  C24  1  0.48803000  0.15486000  0.07882000  1.0
  C  C25  1  0.01188000  0.34512000  0.57884000  1.0
  S  S26  1  0.62965000  0.21774000  0.94786000  1.0
  S  S27  1  0.87050000  0.28240000  0.44782000  1.0
  S  S28  1  0.37044000  0.78226000  0.05219000  1.0
  S  S29  1  0.12956000  0.71778000  0.55212000  1.0
  Br  Br30  1  0.78277000  0.63130000  0.12624000  1.0
  Br  Br31  1  0.71716000  0.86863000  0.62609000  1.0
  Br  Br32  1  0.21713000  0.36855000  0.87398000  1.0
  Br  Br33  1  0.28293000  0.13141000  0.37390000  1.0
  Br  Br34  1  0.94145000  0.67822000  0.83154000  1.0
  Br  Br35  1  0.55892000  0.82191000  0.33153000  1.0
  Br  Br36  1  0.05874000  0.32198000  0.16848000  1.0
  Br  Br37  1  0.44127000  0.17798000  0.66851000  1.0
