# generated using pymatgen
data_CdH20C18(N2O3)2
_symmetry_space_group_name_H-M   'P 1'
_cell_length_a   8.96361000
_cell_length_b   9.79473000
_cell_length_c   10.95020000
_cell_angle_alpha   80.73350000
_cell_angle_beta   89.01480000
_cell_angle_gamma   77.68900000
_symmetry_Int_Tables_number   1
_chemical_formula_structural   CdH20C18(N2O3)2
_chemical_formula_sum   'Cd2 H40 C36 N8 O12'
_cell_volume   926.87390351
_cell_formula_units_Z   2
loop_
 _symmetry_equiv_pos_site_id
 _symmetry_equiv_pos_as_xyz
  1  'x, y, z'
loop_
 _atom_site_type_symbol
 _atom_site_label
 _atom_site_symmetry_multiplicity
 _atom_site_fract_x
 _atom_site_fract_y
 _atom_site_fract_z
 _atom_site_occupancy
  Cd  Cd0  1  0.34696000  0.68572000  0.93911000  1.0
  Cd  Cd1  1  0.65304000  0.31428000  0.06089000  1.0
  H  H2  1  0.85032000  0.06072000  0.38232000  1.0
  H  H3  1  0.14968000  0.93928000  0.61768000  1.0
  H  H4  1  0.84004000  0.88915000  0.45682000  1.0
  H  H5  1  0.15996000  0.11085000  0.54318000  1.0
  H  H6  1  0.83836000  0.27558000  0.46956000  1.0
  H  H7  1  0.16164000  0.72442000  0.53044000  1.0
  H  H8  1  0.82623000  0.37660000  0.31966000  1.0
  H  H9  1  0.17376000  0.62340000  0.68034000  1.0
  H  H10  1  0.59580000  0.87588000  0.94926000  1.0
  H  H11  1  0.40420000  0.12412000  0.05075000  1.0
  H  H12  1  0.73535000  0.02987000  0.80795000  1.0
  H  H13  1  0.26465000  0.97013000  0.19205000  1.0
  H  H14  1  0.59780000  0.84440000  0.50618000  1.0
  H  H15  1  0.40219000  0.15560000  0.49382000  1.0
  H  H16  1  0.45759000  0.70401000  0.65998000  1.0
  H  H17  1  0.54241000  0.29599000  0.34002000  1.0
  H  H18  1  0.15314000  0.44305000  0.99636000  1.0
  H  H19  1  0.84685000  0.55695000  0.00363000  1.0
  H  H20  1  0.02332000  0.31633000  0.17050000  1.0
  H  H21  1  0.97667000  0.68366000  0.82950000  1.0
  H  H22  1  0.19630000  0.55509000  0.41352000  1.0
  H  H23  1  0.80369000  0.44491000  0.58648000  1.0
  H  H24  1  0.30141000  0.68456000  0.22784000  1.0
  H  H25  1  0.69859000  0.31544000  0.77215000  1.0
  H  H26  1  0.96351000  0.11393000  0.89443000  1.0
  H  H27  1  0.03650000  0.88607000  0.10557000  1.0
  H  H28  1  0.01513000  0.11524000  0.73804000  1.0
  H  H29  1  0.98487000  0.88476000  0.26196000  1.0
  H  H30  1  0.17588000  0.21652000  0.94016000  1.0
  H  H31  1  0.82412000  0.78348000  0.05984000  1.0
  H  H32  1  0.08646000  0.31606000  0.80164000  1.0
  H  H33  1  0.91354000  0.68394000  0.19836000  1.0
  H  H34  1  0.39742000  0.11772000  0.83936000  1.0
  H  H35  1  0.60259000  0.88227000  0.16064000  1.0
  H  H36  1  0.30072000  0.12840000  0.69897000  1.0
  H  H37  1  0.69928000  0.87161000  0.30103000  1.0
  H  H38  1  0.28033000  0.38544000  0.65038000  1.0
  H  H39  1  0.71967000  0.61456000  0.34962000  1.0
  H  H40  1  0.47330000  0.29561000  0.67918000  1.0
  H  H41  1  0.52671000  0.70439000  0.32082000  1.0
  C  C42  1  0.59917000  0.87295000  0.85016000  1.0
  C  C43  1  0.40083000  0.12705000  0.14985000  1.0
  C  C44  1  0.67739000  0.95800000  0.77084000  1.0
  C  C45  1  0.32261000  0.04200000  0.22916000  1.0
  C  C46  1  0.67765000  0.94973000  0.64451000  1.0
  C  C47  1  0.32234000  0.05027000  0.35549000  1.0
  C  C48  1  0.60045000  0.85518000  0.60339000  1.0
  C  C49  1  0.39955000  0.14483000  0.39661000  1.0
  C  C50  1  0.52263000  0.77605000  0.68864000  1.0
  C  C51  1  0.47737000  0.22395000  0.31137000  1.0
  C  C52  1  0.74757000  0.04924000  0.55398000  1.0
  C  C53  1  0.25243000  0.95076000  0.44602000  1.0
  C  C54  1  0.15593000  0.46749000  0.08972000  1.0
  C  C55  1  0.84407000  0.53250000  0.91028000  1.0
  C  C56  1  0.08534000  0.39653000  0.18677000  1.0
  C  C57  1  0.91466000  0.60347000  0.81323000  1.0
  C  C58  1  0.09895000  0.42791000  0.30571000  1.0
  C  C59  1  0.90106000  0.57209000  0.69429000  1.0
  C  C60  1  0.18184000  0.52965000  0.32201000  1.0
  C  C61  1  0.81816000  0.47034000  0.67799000  1.0
  C  C62  1  0.24224000  0.60019000  0.21913000  1.0
  C  C63  1  0.75776000  0.39981000  0.78087000  1.0
  C  C64  1  0.03085000  0.35132000  0.41534000  1.0
  C  C65  1  0.96915000  0.64868000  0.58466000  1.0
  C  C66  1  0.15108000  0.94967000  0.86746000  1.0
  C  C67  1  0.84892000  0.05033000  0.13253000  1.0
  C  C68  1  0.06184000  0.10092000  0.83244000  1.0
  C  C69  1  0.93816000  0.89908000  0.16756000  1.0
  C  C70  1  0.15580000  0.21237000  0.84211000  1.0
  C  C71  1  0.84421000  0.78763000  0.15789000  1.0
  C  C72  1  0.30914000  0.18628000  0.77572000  1.0
  C  C73  1  0.69086000  0.81371000  0.22428000  1.0
  C  C74  1  0.36106000  0.32239000  0.72265000  1.0
  C  C75  1  0.63894000  0.67761000  0.27735000  1.0
  C  C76  1  0.37935000  0.40996000  0.82153000  1.0
  C  C77  1  0.62065000  0.59004000  0.17847000  1.0
  N  N78  1  0.52151000  0.78485000  0.80977000  1.0
  N  N79  1  0.47849000  0.21515000  0.19023000  1.0
  N  N80  1  0.81742000  0.99666000  0.45743000  1.0
  N  N81  1  0.18257000  0.00334000  0.54257000  1.0
  N  N82  1  0.23069000  0.56899000  0.10463000  1.0
  N  N83  1  0.76931000  0.43101000  0.89536000  1.0
  N  N84  1  0.88953000  0.33369000  0.39979000  1.0
  N  N85  1  0.11047000  0.66631000  0.60021000  1.0
  O  O86  1  0.73140000  0.17552000  0.57054000  1.0
  O  O87  1  0.26860000  0.82448000  0.42946000  1.0
  O  O88  1  0.10870000  0.30660000  0.51357000  1.0
  O  O89  1  0.89130000  0.69341000  0.48643000  1.0
  O  O90  1  0.14414000  0.85959000  0.79660000  1.0
  O  O91  1  0.85586000  0.14041000  0.20339000  1.0
  O  O92  1  0.23137000  0.91667000  0.96787000  1.0
  O  O93  1  0.76863000  0.08332000  0.03212000  1.0
  O  O94  1  0.45172000  0.34926000  0.92000000  1.0
  O  O95  1  0.54828000  0.65074000  0.08000000  1.0
  O  O96  1  0.31762000  0.54314000  0.80024000  1.0
  O  O97  1  0.68238000  0.45686000  0.19976000  1.0
