# generated using pymatgen
data_Zn2H41C67N7O12
_symmetry_space_group_name_H-M   'P 1'
_cell_length_a   14.62910000
_cell_length_b   16.03560000
_cell_length_c   23.70390000
_cell_angle_alpha   90.51850000
_cell_angle_beta   89.64100000
_cell_angle_gamma   89.72740000
_symmetry_Int_Tables_number   1
_chemical_formula_structural   Zn2H41C67N7O12
_chemical_formula_sum   'Zn2 H41 C67 N7 O12'
_cell_volume   5560.21118513
_cell_formula_units_Z   1
loop_
 _symmetry_equiv_pos_site_id
 _symmetry_equiv_pos_as_xyz
  1  'x, y, z'
loop_
 _atom_site_type_symbol
 _atom_site_label
 _atom_site_symmetry_multiplicity
 _atom_site_fract_x
 _atom_site_fract_y
 _atom_site_fract_z
 _atom_site_occupancy
  Zn  Zn0  1  0.40361000  0.50264000  0.49895000  1.0
  Zn  Zn1  1  0.59590000  0.49941000  0.49776000  1.0
  H  H2  1  0.57045000  0.70029000  0.05262000  1.0
  H  H3  1  0.35532000  0.06756000  0.48887000  1.0
  H  H4  1  0.43245000  0.93041000  0.57871000  1.0
  H  H5  1  0.55266000  0.93222000  0.58348000  1.0
  H  H6  1  0.42907000  0.07640000  0.57611000  1.0
  H  H7  1  0.54909000  0.07839000  0.58157000  1.0
  H  H8  1  0.06692000  0.62579000  0.53455000  1.0
  H  H9  1  0.91804000  0.62081000  0.54684000  1.0
  H  H10  1  0.57178000  0.69915000  0.94584000  1.0
  H  H11  1  0.91600000  0.50559000  0.41513000  1.0
  H  H12  1  0.07316000  0.47932000  0.41783000  1.0
  H  H13  1  0.35344000  0.50235000  0.32195000  1.0
  H  H14  1  0.92803000  0.60375000  0.44881000  1.0
  H  H15  1  0.08596000  0.58554000  0.43671000  1.0
  H  H16  1  0.91311000  0.38103000  0.54916000  1.0
  H  H17  1  0.07035000  0.39179000  0.56204000  1.0
  H  H18  1  0.92596000  0.37507000  0.47510000  1.0
  H  H19  1  0.08369000  0.36679000  0.48978000  1.0
  H  H20  1  0.42200000  0.30279000  0.94550000  1.0
  H  H21  1  0.42161000  0.30401000  0.05235000  1.0
  H  H22  1  0.61058000  0.41073000  0.78316000  1.0
  H  H23  1  0.38580000  0.58126000  0.67777000  1.0
  H  H24  1  0.64650000  0.50253000  0.31872000  1.0
  H  H25  1  0.38672000  0.58572000  0.78359000  1.0
  H  H26  1  0.35087000  0.50354000  0.21597000  1.0
  H  H27  1  0.80806000  0.64000000  0.60929000  1.0
  H  H28  1  0.73429000  0.61109000  0.70128000  1.0
  H  H29  1  0.78686000  0.49090000  0.75876000  1.0
  H  H30  1  0.91150000  0.39841000  0.72206000  1.0
  H  H31  1  0.98601000  0.42776000  0.63144000  1.0
  H  H32  1  0.17779000  0.44940000  0.60174000  1.0
  H  H33  1  0.24360000  0.45672000  0.69576000  1.0
  H  H34  1  0.20510000  0.57478000  0.76103000  1.0
  H  H35  1  0.64496000  0.50140000  0.21274000  1.0
  H  H36  1  0.10202000  0.68870000  0.72800000  1.0
  H  H37  1  0.03519000  0.68192000  0.63274000  1.0
  H  H38  1  0.42783000  0.92658000  0.41953000  1.0
  H  H39  1  0.59413000  0.92854000  0.42638000  1.0
  H  H40  1  0.65064000  0.92664000  0.49213000  1.0
  H  H41  1  0.35667000  0.92373000  0.48005000  1.0
  H  H42  1  0.64449000  0.07040000  0.50146000  1.0
  C  C43  1  0.50080000  0.66257000  0.50137000  1.0
  C  C44  1  0.46906000  0.42612000  0.87706000  1.0
  C  C45  1  0.56227000  0.44926000  0.76017000  1.0
  C  C46  1  0.49698000  0.49825000  0.60785000  1.0
  C  C47  1  0.56289000  0.44792000  0.70086000  1.0
  C  C48  1  0.49868000  0.49650000  0.67119000  1.0
  C  C49  1  0.43542000  0.54513000  0.70150000  1.0
  C  C50  1  0.43557000  0.54705000  0.76019000  1.0
  C  C51  1  0.49916000  0.49884000  0.78917000  1.0
  C  C52  1  0.41533000  0.50343000  0.23879000  1.0
  C  C53  1  0.41668000  0.50282000  0.29747000  1.0
  C  C54  1  0.55029000  0.64504000  0.02872000  1.0
  C  C55  1  0.50004000  0.50282000  0.32623000  1.0
  C  C56  1  0.58232000  0.50268000  0.29569000  1.0
  C  C57  1  0.58141000  0.50210000  0.23700000  1.0
  C  C58  1  0.49879000  0.34000000  0.49754000  1.0
  C  C59  1  0.49784000  0.50284000  0.20904000  1.0
  C  C60  1  0.42016000  0.94985000  0.46298000  1.0
  C  C61  1  0.59084000  0.95155000  0.47009000  1.0
  C  C62  1  0.59211000  0.04878000  0.47160000  1.0
  C  C63  1  0.41525000  0.04699000  0.46395000  1.0
  C  C64  1  0.49773000  0.24961000  0.49686000  1.0
  C  C65  1  0.55097000  0.64437000  0.96947000  1.0
  C  C66  1  0.50228000  0.91915000  0.49807000  1.0
  C  C67  1  0.49959000  0.08355000  0.49590000  1.0
  C  C68  1  0.49247000  0.05147000  0.55737000  1.0
  C  C69  1  0.49456000  0.95507000  0.55878000  1.0
  C  C70  1  0.49802000  0.17393000  0.49590000  1.0
  C  C71  1  0.50319000  0.82865000  0.49950000  1.0
  C  C72  1  0.50090000  0.50273000  0.38944000  1.0
  C  C73  1  0.50255000  0.75295000  0.50091000  1.0
  C  C74  1  0.94446000  0.55836000  0.55678000  1.0
  C  C75  1  0.05258000  0.56435000  0.55293000  1.0
  C  C76  1  0.52517000  0.57337000  0.93958000  1.0
  C  C77  1  0.94792000  0.53773000  0.45097000  1.0
  C  C78  1  0.05266000  0.52717000  0.44892000  1.0
  C  C79  1  0.91145000  0.50115000  0.50700000  1.0
  C  C80  1  0.08743000  0.49988000  0.50790000  1.0
  C  C81  1  0.05115000  0.41090000  0.51945000  1.0
  C  C82  1  0.94628000  0.41040000  0.51286000  1.0
  C  C83  1  0.18637000  0.50005000  0.50458000  1.0
  C  C84  1  0.81253000  0.50120000  0.50531000  1.0
  C  C85  1  0.46798000  0.42882000  0.12083000  1.0
  C  C86  1  0.52479000  0.57639000  0.12100000  1.0
  C  C87  1  0.49732000  0.50102000  0.96875000  1.0
  C  C88  1  0.52399000  0.57459000  0.05833000  1.0
  C  C89  1  0.49683000  0.50169000  0.02888000  1.0
  C  C90  1  0.46901000  0.42947000  0.05818000  1.0
  C  C91  1  0.40181000  0.08044000  0.40755000  1.0
  C  C92  1  0.61812000  0.08285000  0.41698000  1.0
  C  C93  1  0.90245000  0.53622000  0.61327000  1.0
  C  C94  1  0.83133000  0.58700000  0.63414000  1.0
  C  C95  1  0.78964000  0.57092000  0.68601000  1.0
  C  C96  1  0.81888000  0.50349000  0.71807000  1.0
  C  C97  1  0.88883000  0.45178000  0.69759000  1.0
  C  C98  1  0.46984000  0.42805000  0.93949000  1.0
  C  C99  1  0.93012000  0.46794000  0.64570000  1.0
  C  C100  1  0.09953000  0.56459000  0.60993000  1.0
  C  C101  1  0.15906000  0.50222000  0.62865000  1.0
  C  C102  1  0.19708000  0.50598000  0.68252000  1.0
  C  C103  1  0.17616000  0.57237000  0.71875000  1.0
  C  C104  1  0.11825000  0.63598000  0.70030000  1.0
  C  C105  1  0.08082000  0.63208000  0.64646000  1.0
  C  C106  1  0.62808000  0.39385000  0.67372000  1.0
  C  C107  1  0.44286000  0.35793000  0.96925000  1.0
  C  C108  1  0.44252000  0.35858000  0.02850000  1.0
  C  C109  1  0.52753000  0.57370000  0.87712000  1.0
  N  N110  1  0.49692000  0.50270000  0.14813000  1.0
  N  N111  1  0.49896000  0.49948000  0.84993000  1.0
  N  N112  1  0.26501000  0.50134000  0.49880000  1.0
  N  N113  1  0.73367000  0.50088000  0.50179000  1.0
  N  N114  1  0.38641000  0.10454000  0.36232000  1.0
  N  N115  1  0.64347000  0.10741000  0.37351000  1.0
  N  N116  1  0.68289000  0.34606000  0.65734000  1.0
  O  O117  1  0.42403000  0.62905000  0.49080000  1.0
  O  O118  1  0.54818000  0.63814000  0.14819000  1.0
  O  O119  1  0.55280000  0.63390000  0.84946000  1.0
  O  O120  1  0.44404000  0.36535000  0.84935000  1.0
  O  O121  1  0.57587000  0.62578000  0.51219000  1.0
  O  O122  1  0.42134000  0.51787000  0.58528000  1.0
  O  O123  1  0.57159000  0.48082000  0.58279000  1.0
  O  O124  1  0.42363000  0.37633000  0.51003000  1.0
  O  O125  1  0.57486000  0.37376000  0.48577000  1.0
  O  O126  1  0.42515000  0.48862000  0.41433000  1.0
  O  O127  1  0.57710000  0.51691000  0.41344000  1.0
  O  O128  1  0.44381000  0.36784000  0.14792000  1.0
