# generated using pymatgen
data_P2H32Au2C44Cl
_symmetry_space_group_name_H-M   'P 1'
_cell_length_a   15.26360000
_cell_length_b   15.28530000
_cell_length_c   15.28550000
_cell_angle_alpha   92.31050000
_cell_angle_beta   92.33770000
_cell_angle_gamma   92.33890000
_symmetry_Int_Tables_number   1
_chemical_formula_structural   P2H32Au2C44Cl
_chemical_formula_sum   'P6 H96 Au6 C132 Cl3'
_cell_volume   3557.15480136
_cell_formula_units_Z   3
loop_
 _symmetry_equiv_pos_site_id
 _symmetry_equiv_pos_as_xyz
  1  'x, y, z'
loop_
 _atom_site_type_symbol
 _atom_site_label
 _atom_site_symmetry_multiplicity
 _atom_site_fract_x
 _atom_site_fract_y
 _atom_site_fract_z
 _atom_site_occupancy
  P  P0  1  0.02226000  0.64294000  0.67965000  1.0
  P  P1  1  0.97773000  0.32035000  0.35707000  1.0
  P  P2  1  0.21695000  0.83666000  0.60239000  1.0
  P  P3  1  0.78304000  0.39762000  0.16334000  1.0
  P  P4  1  0.53848000  0.88136000  0.92528000  1.0
  P  P5  1  0.46154000  0.07472000  0.11863000  1.0
  H  H6  1  0.89797000  0.99250000  0.49479000  1.0
  H  H7  1  0.10203000  0.50520000  0.00749000  1.0
  H  H8  1  0.06819000  0.61854000  0.85878000  1.0
  H  H9  1  0.93180000  0.14120000  0.38145000  1.0
  H  H10  1  0.20787000  0.61926000  0.94542000  1.0
  H  H11  1  0.79213000  0.05457000  0.38077000  1.0
  H  H12  1  0.36919000  0.62966000  0.95301000  1.0
  H  H13  1  0.63081000  0.04698000  0.37033000  1.0
  H  H14  1  0.51176000  0.63851000  0.87742000  1.0
  H  H15  1  0.48823000  0.12259000  0.36148000  1.0
  H  H16  1  0.51194000  0.64516000  0.71605000  1.0
  H  H17  1  0.48806000  0.28397000  0.35478000  1.0
  H  H18  1  0.37250000  0.65083000  0.62864000  1.0
  H  H19  1  0.62752000  0.37137000  0.34910000  1.0
  H  H20  1  0.20684000  0.48739000  0.65840000  1.0
  H  H21  1  0.79315000  0.34161000  0.51262000  1.0
  H  H22  1  0.21501000  0.34719000  0.57332000  1.0
  H  H23  1  0.78501000  0.42670000  0.65282000  1.0
  H  H24  1  0.22825000  0.34539000  0.41248000  1.0
  H  H25  1  0.77178000  0.58753000  0.65461000  1.0
  H  H26  1  0.23885000  0.48688000  0.33527000  1.0
  H  H27  1  0.76114000  0.66473000  0.51313000  1.0
  H  H28  1  0.24682000  0.64754000  0.34036000  1.0
  H  H29  1  0.75318000  0.65963000  0.35247000  1.0
  H  H30  1  0.24508000  0.78820000  0.42456000  1.0
  H  H31  1  0.75489000  0.57544000  0.21181000  1.0
  H  H32  1  0.87866000  0.73624000  0.60515000  1.0
  H  H33  1  0.12133000  0.39484000  0.26376000  1.0
  H  H34  1  0.80623000  0.87275000  0.65026000  1.0
  H  H35  1  0.19378000  0.34973000  0.12727000  1.0
  H  H36  1  0.86210000  0.96083000  0.78254000  1.0
  H  H37  1  0.13789000  0.21746000  0.03916000  1.0
  H  H38  1  0.99173000  0.91159000  0.87019000  1.0
  H  H39  1  0.00827000  0.12980000  0.08842000  1.0
  H  H40  1  0.06242000  0.77481000  0.82682000  1.0
  H  H41  1  0.93757000  0.17316000  0.22519000  1.0
  H  H42  1  0.87764000  0.63917000  0.80428000  1.0
  H  H43  1  0.12231000  0.19574000  0.36083000  1.0
  H  H44  1  0.79989000  0.51452000  0.87332000  1.0
  H  H45  1  0.20010000  0.12672000  0.48547000  1.0
  H  H46  1  0.84360000  0.36179000  0.84139000  1.0
  H  H47  1  0.15639000  0.15863000  0.63821000  1.0
  H  H48  1  0.96309000  0.33333333  0.74087000  1.0
  H  H49  1  0.03690000  0.25915000  0.66666667  1.0
  H  H50  1  0.03741000  0.45668000  0.66727000  1.0
  H  H51  1  0.96258000  0.33276000  0.54334000  1.0
  H  H52  1  0.12025000  0.97790000  0.67609000  1.0
  H  H53  1  0.87975000  0.32391000  0.02212000  1.0
  H  H54  1  0.98334000  0.04891000  0.62871000  1.0
  H  H55  1  0.01667000  0.37126000  0.95110000  1.0
  H  H56  1  0.95006000  0.86381000  0.40817000  1.0
  H  H57  1  0.04996000  0.59182000  0.13618000  1.0
  H  H58  1  0.08744000  0.79490000  0.45365000  1.0
  H  H59  1  0.91256000  0.54636000  0.20509000  1.0
  H  H60  1  0.40296000  0.82251000  0.61323000  1.0
  H  H61  1  0.59706000  0.38678000  0.17746000  1.0
  H  H62  1  0.52594000  0.89721000  0.53921000  1.0
  H  H63  1  0.47406000  0.46078000  0.10276000  1.0
  H  H64  1  0.49640000  0.01631000  0.43861000  1.0
  H  H65  1  0.50359000  0.56139000  0.98367000  1.0
  H  H66  1  0.34315000  0.05987000  0.40789000  1.0
  H  H67  1  0.65683000  0.59213000  0.94009000  1.0
  H  H68  1  0.21897000  0.98197000  0.47766000  1.0
  H  H69  1  0.78101000  0.52237000  0.01799000  1.0
  H  H70  1  0.71677000  0.92810000  0.89608000  1.0
  H  H71  1  0.28325000  0.10388000  0.07191000  1.0
  H  H72  1  0.80251000  0.06800000  0.89457000  1.0
  H  H73  1  0.19751000  0.10544000  0.93202000  1.0
  H  H74  1  0.80946000  0.22856000  0.90405000  1.0
  H  H75  1  0.19054000  0.09595000  0.77147000  1.0
  H  H76  1  0.73396000  0.37078000  0.91644000  1.0
  H  H77  1  0.26601000  0.08357000  0.62923000  1.0
  H  H78  1  0.57289000  0.37075000  0.92884000  1.0
  H  H79  1  0.42709000  0.07114000  0.62924000  1.0
  H  H80  1  0.48584000  0.23121000  0.93518000  1.0
  H  H81  1  0.51416000  0.06479000  0.76877000  1.0
  H  H82  1  0.66464000  0.73767000  0.92258000  1.0
  H  H83  1  0.33538000  0.07742000  0.26230000  1.0
  H  H84  1  0.73343000  0.65936000  0.79835000  1.0
  H  H85  1  0.26659000  0.20165000  0.34062000  1.0
  H  H86  1  0.69941000  0.70055000  0.64512000  1.0
  H  H87  1  0.30060000  0.35488000  0.29944000  1.0
  H  H88  1  0.59642000  0.81793000  0.61587000  1.0
  H  H89  1  0.40358000  0.38414000  0.18205000  1.0
  H  H90  1  0.52368000  0.89320000  0.73902000  1.0
  H  H91  1  0.47633000  0.26099000  0.10677000  1.0
  H  H92  1  0.46506000  0.74124000  0.02428000  1.0
  H  H93  1  0.53494000  0.97572000  0.25877000  1.0
  H  H94  1  0.51465000  0.67028000  0.16035000  1.0
  H  H95  1  0.48532000  0.83966000  0.32973000  1.0
  H  H96  1  0.65058000  0.72610000  0.24302000  1.0
  H  H97  1  0.34942000  0.75697000  0.27388000  1.0
  H  H98  1  0.73732000  0.85360000  0.18866000  1.0
  H  H99  1  0.26268000  0.81135000  0.14640000  1.0
  H  H100  1  0.68987000  0.92224000  0.05208000  1.0
  H  H101  1  0.31014000  0.94793000  0.07775000  1.0
  Au  Au102  1  0.01345000  0.62550000  0.53308000  1.0
  Au  Au103  1  0.98653000  0.46692000  0.37451000  1.0
  Au  Au104  1  0.23369000  0.84704000  0.74902000  1.0
  Au  Au105  1  0.76630000  0.25099000  0.15296000  1.0
  Au  Au106  1  0.39156000  0.87266000  0.90886000  1.0
  Au  Au107  1  0.60845000  0.09115000  0.12733000  1.0
  C  C108  1  0.12868000  0.63961000  0.73436000  1.0
  C  C109  1  0.87130000  0.26564000  0.36040000  1.0
  C  C110  1  0.13005000  0.62764000  0.82631000  1.0
  C  C111  1  0.86995000  0.17368000  0.37237000  1.0
  C  C112  1  0.20785000  0.62704000  0.87471000  1.0
  C  C113  1  0.79214000  0.12528000  0.37297000  1.0
  C  C114  1  0.28968000  0.63548000  0.83378000  1.0
  C  C115  1  0.71032000  0.16622000  0.36453000  1.0
  C  C116  1  0.37049000  0.63444000  0.88191000  1.0
  C  C117  1  0.62951000  0.11808000  0.36557000  1.0
  C  C118  1  0.44953000  0.63868000  0.84018000  1.0
  C  C119  1  0.55046000  0.15983000  0.36130000  1.0
  C  C120  1  0.44975000  0.64367000  0.74853000  1.0
  C  C121  1  0.55025000  0.25147000  0.35630000  1.0
  C  C122  1  0.37179000  0.64700000  0.69963000  1.0
  C  C123  1  0.62821000  0.30037000  0.35297000  1.0
  C  C124  1  0.28963000  0.64451000  0.74042000  1.0
  C  C125  1  0.71037000  0.25957000  0.35548000  1.0
  C  C126  1  0.20815000  0.64846000  0.69094000  1.0
  C  C127  1  0.79186000  0.30907000  0.35155000  1.0
  C  C128  1  0.21187000  0.65090000  0.59394000  1.0
  C  C129  1  0.78814000  0.40607000  0.34912000  1.0
  C  C130  1  0.21654000  0.56882000  0.54578000  1.0
  C  C131  1  0.78344000  0.45422000  0.43118000  1.0
  C  C132  1  0.21282000  0.48731000  0.58760000  1.0
  C  C133  1  0.78719000  0.41240000  0.51269000  1.0
  C  C134  1  0.21766000  0.40886000  0.54002000  1.0
  C  C135  1  0.78235000  0.46000000  0.59116000  1.0
  C  C136  1  0.22596000  0.40793000  0.44869000  1.0
  C  C137  1  0.77404000  0.55131000  0.59208000  1.0
  C  C138  1  0.23121000  0.48630000  0.40604000  1.0
  C  C139  1  0.76880000  0.59397000  0.51371000  1.0
  C  C140  1  0.22802000  0.56755000  0.45280000  1.0
  C  C141  1  0.77197000  0.54720000  0.43247000  1.0
  C  C142  1  0.23724000  0.64861000  0.41080000  1.0
  C  C143  1  0.76275000  0.58920000  0.35140000  1.0
  C  C144  1  0.23544000  0.72698000  0.45786000  1.0
  C  C145  1  0.76454000  0.54213000  0.27303000  1.0
  C  C146  1  0.22175000  0.72963000  0.54950000  1.0
  C  C147  1  0.77823000  0.45050000  0.27036000  1.0
  C  C148  1  0.97370000  0.74507000  0.71421000  1.0
  C  C149  1  0.02628000  0.28579000  0.25494000  1.0
  C  C150  1  0.90208000  0.77414000  0.66418000  1.0
  C  C151  1  0.09791000  0.33582000  0.22586000  1.0
  C  C152  1  0.86202000  0.85102000  0.68920000  1.0
  C  C153  1  0.13798000  0.31080000  0.14899000  1.0
  C  C154  1  0.89348000  0.90044000  0.76366000  1.0
  C  C155  1  0.10651000  0.23634000  0.09956000  1.0
  C  C156  1  0.96580000  0.87283000  0.81268000  1.0
  C  C157  1  0.03419000  0.18732000  0.12717000  1.0
  C  C158  1  0.00589000  0.79553000  0.78835000  1.0
  C  C159  1  0.99410000  0.21165000  0.20447000  1.0
  C  C160  1  0.96123000  0.55561000  0.73077000  1.0
  C  C161  1  0.03875000  0.26925000  0.44441000  1.0
  C  C162  1  0.89529000  0.57185000  0.78971000  1.0
  C  C163  1  0.10469000  0.21031000  0.42815000  1.0
  C  C164  1  0.85246000  0.50208000  0.82885000  1.0
  C  C165  1  0.14753000  0.17117000  0.49792000  1.0
  C  C166  1  0.87688000  0.41636000  0.81122000  1.0
  C  C167  1  0.12310000  0.18880000  0.58363000  1.0
  C  C168  1  0.94416000  0.40040000  0.75399000  1.0
  C  C169  1  0.05583000  0.24603000  0.59961000  1.0
  C  C170  1  0.98580000  0.46929000  0.71305000  1.0
  C  C171  1  0.01418000  0.28698000  0.53073000  1.0
  C  C172  1  0.11417000  0.88343000  0.56683000  1.0
  C  C173  1  0.88583000  0.43317000  0.11657000  1.0
  C  C174  1  0.08341000  0.95437000  0.61643000  1.0
  C  C175  1  0.91659000  0.38357000  0.04563000  1.0
  C  C176  1  0.00636000  0.99357000  0.59013000  1.0
  C  C177  1  0.99365000  0.40986000  0.00643000  1.0
  C  C178  1  0.95846000  0.96178000  0.51480000  1.0
  C  C179  1  0.04155000  0.48519000  0.03820000  1.0
  C  C180  1  0.98774000  0.89004000  0.46624000  1.0
  C  C181  1  0.01226000  0.53376000  0.10996000  1.0
  C  C182  1  0.06528000  0.85091000  0.49182000  1.0
  C  C183  1  0.93472000  0.50818000  0.14908000  1.0
  C  C184  1  0.30337000  0.89828000  0.55037000  1.0
  C  C185  1  0.69664000  0.44965000  0.10169000  1.0
  C  C186  1  0.39001000  0.87403000  0.56753000  1.0
  C  C187  1  0.61000000  0.43249000  0.12595000  1.0
  C  C188  1  0.45864000  0.91585000  0.52629000  1.0
  C  C189  1  0.54137000  0.47371000  0.08412000  1.0
  C  C190  1  0.44204000  0.98299000  0.46915000  1.0
  C  C191  1  0.55795000  0.53085000  0.01698000  1.0
  C  C192  1  0.35601000  0.00730000  0.45220000  1.0
  C  C193  1  0.64398000  0.54782000  0.99268000  1.0
  C  C194  1  0.28649000  0.96434000  0.49176000  1.0
  C  C195  1  0.71351000  0.50826000  0.03563000  1.0
  C  C196  1  0.59231000  0.98787000  0.91967000  1.0
  C  C197  1  0.40772000  0.08031000  0.01211000  1.0
  C  C198  1  0.68404000  0.98966000  0.90577000  1.0
  C  C199  1  0.31598000  0.09422000  0.01035000  1.0
  C  C200  1  0.73196000  0.06757000  0.90397000  1.0
  C  C201  1  0.26806000  0.09602000  0.93244000  1.0
  C  C202  1  0.69076000  0.14903000  0.91350000  1.0
  C  C203  1  0.30926000  0.08650000  0.85099000  1.0
  C  C204  1  0.73858000  0.22980000  0.91133000  1.0
  C  C205  1  0.26142000  0.08870000  0.77023000  1.0
  C  C206  1  0.69681000  0.30864000  0.91748000  1.0
  C  C207  1  0.30317000  0.08252000  0.69138000  1.0
  C  C208  1  0.60536000  0.30864000  0.92546000  1.0
  C  C209  1  0.39462000  0.07454000  0.69136000  1.0
  C  C210  1  0.55672000  0.23062000  0.92931000  1.0
  C  C211  1  0.44328000  0.07070000  0.76936000  1.0
  C  C212  1  0.59763000  0.14863000  0.92480000  1.0
  C  C213  1  0.40238000  0.07519000  0.85136000  1.0
  C  C214  1  0.54857000  0.06703000  0.92941000  1.0
  C  C215  1  0.45146000  0.07059000  0.93297000  1.0
  C  C216  1  0.58934000  0.81942000  0.83849000  1.0
  C  C217  1  0.41068000  0.16152000  0.18055000  1.0
  C  C218  1  0.64919000  0.75437000  0.85514000  1.0
  C  C219  1  0.35083000  0.14487000  0.24561000  1.0
  C  C220  1  0.68813000  0.71112000  0.78553000  1.0
  C  C221  1  0.31189000  0.21448000  0.28886000  1.0
  C  C222  1  0.66929000  0.73413000  0.69954000  1.0
  C  C223  1  0.33072000  0.30047000  0.26585000  1.0
  C  C224  1  0.61095000  0.80033000  0.68312000  1.0
  C  C225  1  0.38907000  0.31688000  0.19964000  1.0
  C  C226  1  0.57035000  0.84247000  0.75191000  1.0
  C  C227  1  0.42967000  0.24810000  0.15750000  1.0
  C  C228  1  0.57526000  0.83473000  0.02773000  1.0
  C  C229  1  0.42474000  0.97227000  0.16526000  1.0
  C  C230  1  0.52565000  0.76440000  0.05978000  1.0
  C  C231  1  0.47435000  0.94023000  0.23560000  1.0
  C  C232  1  0.55314000  0.72530000  0.13644000  1.0
  C  C233  1  0.44686000  0.86356000  0.27471000  1.0
  C  C234  1  0.62959000  0.75664000  0.18279000  1.0
  C  C235  1  0.37041000  0.81721000  0.24335000  1.0
  C  C236  1  0.65147000  0.86679000  0.07515000  1.0
  C  C237  1  0.34854000  0.92486000  0.13320000  1.0
  C  C238  1  0.67819000  0.82784000  0.15233000  1.0
  C  C239  1  0.32181000  0.84767000  0.17216000  1.0
  Cl  Cl240  1  0.00000000  0.62188000  0.37813000  1.0
  Cl  Cl241  1  0.23620000  0.86152000  0.90394000  1.0
  Cl  Cl242  1  0.76382000  0.09607000  0.13849000  1.0
