# generated using pymatgen
data_ZnH19C19(NO)5
_symmetry_space_group_name_H-M   'P 1'
_cell_length_a   10.29550000
_cell_length_b   14.75590000
_cell_length_c   19.05820000
_cell_angle_alpha   90.00020000
_cell_angle_beta   90.00050000
_cell_angle_gamma   96.27700000
_symmetry_Int_Tables_number   1
_chemical_formula_structural   ZnH19C19(NO)5
_chemical_formula_sum   'Zn4 H76 C76 N20 O20'
_cell_volume   2877.95211039
_cell_formula_units_Z   4
loop_
 _symmetry_equiv_pos_site_id
 _symmetry_equiv_pos_as_xyz
  1  'x, y, z'
loop_
 _atom_site_type_symbol
 _atom_site_label
 _atom_site_symmetry_multiplicity
 _atom_site_fract_x
 _atom_site_fract_y
 _atom_site_fract_z
 _atom_site_occupancy
  Zn  Zn0  1  0.48952000  0.14266000  0.24996000  1.0
  Zn  Zn1  1  0.51044000  0.35733000  0.74996000  1.0
  Zn  Zn2  1  0.51042000  0.85733000  0.75004000  1.0
  Zn  Zn3  1  0.48954000  0.64266000  0.25004000  1.0
  H  H4  1  0.76956000  0.06877000  0.09078000  1.0
  H  H5  1  0.23039000  0.43126000  0.59080000  1.0
  H  H6  1  0.23037000  0.93127000  0.90921000  1.0
  H  H7  1  0.76959000  0.56876000  0.40921000  1.0
  H  H8  1  0.99677000  0.15962000  0.27186000  1.0
  H  H9  1  0.00323000  0.34036000  0.77187000  1.0
  H  H10  1  0.00323000  0.84036000  0.72813000  1.0
  H  H11  1  0.99678000  0.65962000  0.22814000  1.0
  H  H12  1  0.18999000  0.07225000  0.08824000  1.0
  H  H13  1  0.80997000  0.42781000  0.58830000  1.0
  H  H14  1  0.80995000  0.92782000  0.91169000  1.0
  H  H15  1  0.19001000  0.57223000  0.41174000  1.0
  H  H16  1  0.63622000  0.22759000  0.38062000  1.0
  H  H17  1  0.36376000  0.27239000  0.88062000  1.0
  H  H18  1  0.36375000  0.77239000  0.61938000  1.0
  H  H19  1  0.63623000  0.72759000  0.11939000  1.0
  H  H20  1  0.33563000  0.99849000  0.67261000  1.0
  H  H21  1  0.66438000  0.50151000  0.17262000  1.0
  H  H22  1  0.66437000  0.00151000  0.32739000  1.0
  H  H23  1  0.33563000  0.49848000  0.82739000  1.0
  H  H24  1  0.64231000  0.45349000  0.45808000  1.0
  H  H25  1  0.35772000  0.04649000  0.95808000  1.0
  H  H26  1  0.35772000  0.54649000  0.54192000  1.0
  H  H27  1  0.64231000  0.95349000  0.04192000  1.0
  H  H28  1  0.66171000  0.33897000  0.47791000  1.0
  H  H29  1  0.33830000  0.16101000  0.97792000  1.0
  H  H30  1  0.33830000  0.66101000  0.52208000  1.0
  H  H31  1  0.66171000  0.83897000  0.02209000  1.0
  H  H32  1  0.39294000  0.35130000  0.24032000  1.0
  H  H33  1  0.60707000  0.14871000  0.74032000  1.0
  H  H34  1  0.60706000  0.64871000  0.75968000  1.0
  H  H35  1  0.39294000  0.85130000  0.25968000  1.0
  H  H36  1  0.37071000  0.25579000  0.46485000  1.0
  H  H37  1  0.62930000  0.24420000  0.96485000  1.0
  H  H38  1  0.62930000  0.74420000  0.53515000  1.0
  H  H39  1  0.37071000  0.75579000  0.03515000  1.0
  H  H40  1  0.30627000  0.29187000  0.54448000  1.0
  H  H41  1  0.69375000  0.20813000  0.04448000  1.0
  H  H42  1  0.69375000  0.70813000  0.45552000  1.0
  H  H43  1  0.30627000  0.79187000  0.95552000  1.0
  H  H44  1  0.72723000  0.95063000  0.64185000  1.0
  H  H45  1  0.27277000  0.54935000  0.14184000  1.0
  H  H46  1  0.27276000  0.04935000  0.35816000  1.0
  H  H47  1  0.72723000  0.45063000  0.85815000  1.0
  H  H48  1  0.50450000  0.40691000  0.55951000  1.0
  H  H49  1  0.49553000  0.09309000  0.05951000  1.0
  H  H50  1  0.49552000  0.59309000  0.44048000  1.0
  H  H51  1  0.50450000  0.90691000  0.94049000  1.0
  H  H52  1  0.40373000  0.42587000  0.48661000  1.0
  H  H53  1  0.59630000  0.07413000  0.98661000  1.0
  H  H54  1  0.59630000  0.57413000  0.51339000  1.0
  H  H55  1  0.40372000  0.92586000  0.01339000  1.0
  H  H56  1  0.57154000  0.21609000  0.53198000  1.0
  H  H57  1  0.42848000  0.28390000  0.03199000  1.0
  H  H58  1  0.42848000  0.78390000  0.46802000  1.0
  H  H59  1  0.57154000  0.71609000  0.96802000  1.0
  H  H60  1  0.49873000  0.24851000  0.61054000  1.0
  H  H61  1  0.50129000  0.25148000  0.11054000  1.0
  H  H62  1  0.50129000  0.75148000  0.38946000  1.0
  H  H63  1  0.49873000  0.74851000  0.88946000  1.0
  H  H64  1  0.44549000  0.46631000  0.35438000  1.0
  H  H65  1  0.55456000  0.03370000  0.85438000  1.0
  H  H66  1  0.55457000  0.53370000  0.64562000  1.0
  H  H67  1  0.44548000  0.96631000  0.14562000  1.0
  H  H68  1  0.31174000  0.12690000  0.59186000  1.0
  H  H69  1  0.68828000  0.37309000  0.09186000  1.0
  H  H70  1  0.68828000  0.87310000  0.40814000  1.0
  H  H71  1  0.31174000  0.62690000  0.90814000  1.0
  H  H72  1  0.38039000  0.09755000  0.51044000  1.0
  H  H73  1  0.61964000  0.40245000  0.01045000  1.0
  H  H74  1  0.61964000  0.90245000  0.48956000  1.0
  H  H75  1  0.38039000  0.59755000  0.98956000  1.0
  H  H76  1  0.66666667  0.08651000  0.54829000  1.0
  H  H77  1  0.33338000  0.41349000  0.04828000  1.0
  H  H78  1  0.33338000  0.91349000  0.45173000  1.0
  H  H79  1  0.66666667  0.58650000  0.95171000  1.0
  C  C80  1  0.86997000  0.11648000  0.18520000  1.0
  C  C81  1  0.13001000  0.38352000  0.68522000  1.0
  C  C82  1  0.13000000  0.88352000  0.81479000  1.0
  C  C83  1  0.86999000  0.61648000  0.31479000  1.0
  C  C84  1  0.86344000  0.08232000  0.11693000  1.0
  C  C85  1  0.13652000  0.41771000  0.61695000  1.0
  C  C86  1  0.13651000  0.91771000  0.88305000  1.0
  C  C87  1  0.86346000  0.58231000  0.38306000  1.0
  C  C88  1  0.99140000  0.13453000  0.21809000  1.0
  C  C89  1  0.00858000  0.36547000  0.71811000  1.0
  C  C90  1  0.00858000  0.86547000  0.78189000  1.0
  C  C91  1  0.99142000  0.63453000  0.28191000  1.0
  C  C92  1  0.10602000  0.11987000  0.18254000  1.0
  C  C93  1  0.89396000  0.38015000  0.68257000  1.0
  C  C94  1  0.89395000  0.88015000  0.81743000  1.0
  C  C95  1  0.10604000  0.61986000  0.31746000  1.0
  C  C96  1  0.97802000  0.06471000  0.08267000  1.0
  C  C97  1  0.02193000  0.43534000  0.58270000  1.0
  C  C98  1  0.02192000  0.93535000  0.91730000  1.0
  C  C99  1  0.97804000  0.56469000  0.41732000  1.0
  C  C100  1  0.74730000  0.13032000  0.22459000  1.0
  C  C101  1  0.25269000  0.36968000  0.72460000  1.0
  C  C102  1  0.25268000  0.86968000  0.77541000  1.0
  C  C103  1  0.74731000  0.63032000  0.27541000  1.0
  C  C104  1  0.10024000  0.08465000  0.11439000  1.0
  C  C105  1  0.89972000  0.41540000  0.61443000  1.0
  C  C106  1  0.89971000  0.91540000  0.88556000  1.0
  C  C107  1  0.10026000  0.58463000  0.38560000  1.0
  C  C108  1  0.23472000  0.13709000  0.21994000  1.0
  C  C109  1  0.76527000  0.36290000  0.71998000  1.0
  C  C110  1  0.76526000  0.86290000  0.78002000  1.0
  C  C111  1  0.23473000  0.63709000  0.28005000  1.0
  C  C112  1  0.57567000  0.27586000  0.35822000  1.0
  C  C113  1  0.42431000  0.22412000  0.85822000  1.0
  C  C114  1  0.42431000  0.72412000  0.64178000  1.0
  C  C115  1  0.57568000  0.77586000  0.14178000  1.0
  C  C116  1  0.43481000  0.00471000  0.65273000  1.0
  C  C117  1  0.56519000  0.49528000  0.15273000  1.0
  C  C118  1  0.56519000  0.99528000  0.34727000  1.0
  C  C119  1  0.43481000  0.50471000  0.84727000  1.0
  C  C120  1  0.59104000  0.38431000  0.45953000  1.0
  C  C121  1  0.40898000  0.11568000  0.95953000  1.0
  C  C122  1  0.40898000  0.61568000  0.54047000  1.0
  C  C123  1  0.59104000  0.88431000  0.04047000  1.0
  C  C124  1  0.45193000  0.34273000  0.28645000  1.0
  C  C125  1  0.54807000  0.15728000  0.78645000  1.0
  C  C126  1  0.54807000  0.65728000  0.71355000  1.0
  C  C127  1  0.45193000  0.84273000  0.21355000  1.0
  C  C128  1  0.39837000  0.28505000  0.51670000  1.0
  C  C129  1  0.60165000  0.21495000  0.01670000  1.0
  C  C130  1  0.60165000  0.71495000  0.48330000  1.0
  C  C131  1  0.39837000  0.78504000  0.98330000  1.0
  C  C132  1  0.63781000  0.98195000  0.63401000  1.0
  C  C133  1  0.36219000  0.51803000  0.13401000  1.0
  C  C134  1  0.36219000  0.01803000  0.36600000  1.0
  C  C135  1  0.63782000  0.48195000  0.86599000  1.0
  C  C136  1  0.47165000  0.38022000  0.50782000  1.0
  C  C137  1  0.52836000  0.11978000  0.00782000  1.0
  C  C138  1  0.52837000  0.61978000  0.49218000  1.0
  C  C139  1  0.47165000  0.88022000  0.99218000  1.0
  C  C140  1  0.47673000  0.22072000  0.55777000  1.0
  C  C141  1  0.52329000  0.27927000  0.05777000  1.0
  C  C142  1  0.52329000  0.77927000  0.44223000  1.0
  C  C143  1  0.47673000  0.72072000  0.94223000  1.0
  C  C144  1  0.47592000  0.39982000  0.34296000  1.0
  C  C145  1  0.52411000  0.10018000  0.84296000  1.0
  C  C146  1  0.52411000  0.60018000  0.65704000  1.0
  C  C147  1  0.47592000  0.89982000  0.15704000  1.0
  C  C148  1  0.40400000  0.12540000  0.56312000  1.0
  C  C149  1  0.59602000  0.37460000  0.06312000  1.0
  C  C150  1  0.59602000  0.87460000  0.43688000  1.0
  C  C151  1  0.40400000  0.62539000  0.93688000  1.0
  C  C152  1  0.60841000  0.04835000  0.58788000  1.0
  C  C153  1  0.39161000  0.45165000  0.08788000  1.0
  C  C154  1  0.39160000  0.95165000  0.41212000  1.0
  C  C155  1  0.60841000  0.54834000  0.91212000  1.0
  N  N156  1  0.52840000  0.95525000  0.67407000  1.0
  N  N157  1  0.47159000  0.54473000  0.17407000  1.0
  N  N158  1  0.47158000  0.04473000  0.32593000  1.0
  N  N159  1  0.52841000  0.45525000  0.82593000  1.0
  N  N160  1  0.51495000  0.26585000  0.29655000  1.0
  N  N161  1  0.48503000  0.23414000  0.79655000  1.0
  N  N162  1  0.48502000  0.73414000  0.70345000  1.0
  N  N163  1  0.51496000  0.76585000  0.20345000  1.0
  N  N164  1  0.55427000  0.35616000  0.38805000  1.0
  N  N165  1  0.44574000  0.14383000  0.88805000  1.0
  N  N166  1  0.44574000  0.64383000  0.61195000  1.0
  N  N167  1  0.55428000  0.85616000  0.11195000  1.0
  N  N168  1  0.95949000  0.02943000  0.01231000  1.0
  N  N169  1  0.04045000  0.47062000  0.51234000  1.0
  N  N170  1  0.04043000  0.97063000  0.98765000  1.0
  N  N171  1  0.95951000  0.52942000  0.48768000  1.0
  N  N172  1  0.47956000  0.06203000  0.60054000  1.0
  N  N173  1  0.52046000  0.43796000  0.10054000  1.0
  N  N174  1  0.52046000  0.93796000  0.39947000  1.0
  N  N175  1  0.47956000  0.56203000  0.89947000  1.0
  O  O176  1  0.64021000  0.12319000  0.18783000  1.0
  O  O177  1  0.35977000  0.37681000  0.68783000  1.0
  O  O178  1  0.35976000  0.87681000  0.81218000  1.0
  O  O179  1  0.64023000  0.62319000  0.31217000  1.0
  O  O180  1  0.33897000  0.12579000  0.18340000  1.0
  O  O181  1  0.66102000  0.37421000  0.68343000  1.0
  O  O182  1  0.66102000  0.87421000  0.81656000  1.0
  O  O183  1  0.33899000  0.62579000  0.31660000  1.0
  O  O184  1  0.75331000  0.14562000  0.28921000  1.0
  O  O185  1  0.24669000  0.35438000  0.78921000  1.0
  O  O186  1  0.24669000  0.85437000  0.71080000  1.0
  O  O187  1  0.75332000  0.64562000  0.21079000  1.0
  O  O188  1  0.23667000  0.15919000  0.28329000  1.0
  O  O189  1  0.76333000  0.34078000  0.78331000  1.0
  O  O190  1  0.76332000  0.84077000  0.71668000  1.0
  O  O191  1  0.23668000  0.65920000  0.21671000  1.0
  O  O192  1  0.86242000  0.05075000  0.97668000  1.0
  O  O193  1  0.13753000  0.44929000  0.47671000  1.0
  O  O194  1  0.13751000  0.94930000  0.02329000  1.0
  O  O195  1  0.86244000  0.55074000  0.52331000  1.0
