# generated using pymatgen
data_CdH12C12(IN)2
_symmetry_space_group_name_H-M   'P 1'
_cell_length_a   4.46018000
_cell_length_b   8.83008372
_cell_length_c   19.24670000
_cell_angle_alpha   98.62274283
_cell_angle_beta   90.14310000
_cell_angle_gamma   104.48065101
_symmetry_Int_Tables_number   1
_chemical_formula_structural   CdH12C12(IN)2
_chemical_formula_sum   'Cd2 H24 C24 I4 N4'
_cell_volume   724.99823258
_cell_formula_units_Z   2
loop_
 _symmetry_equiv_pos_site_id
 _symmetry_equiv_pos_as_xyz
  1  'x, y, z'
loop_
 _atom_site_type_symbol
 _atom_site_label
 _atom_site_symmetry_multiplicity
 _atom_site_fract_x
 _atom_site_fract_y
 _atom_site_fract_z
 _atom_site_occupancy
  Cd  Cd0  1  0.79306000  0.00039000  0.24986000  1.0
  Cd  Cd1  1  0.20695000  0.99961000  0.75014000  1.0
  H  H2  1  0.06798000  0.89014000  0.13117000  1.0
  H  H3  1  0.17770000  0.10917000  0.36892000  1.0
  H  H4  1  0.93201000  0.10986000  0.86883000  1.0
  H  H5  1  0.82229000  0.89083000  0.63108000  1.0
  H  H6  1  0.00307000  0.75132000  0.18233000  1.0
  H  H7  1  0.25258000  0.24883000  0.31824000  1.0
  H  H8  1  0.99693000  0.24868000  0.81767000  1.0
  H  H9  1  0.74742000  0.75117000  0.68176000  1.0
  H  H10  1  0.69625000  0.89731000  0.03884000  1.0
  H  H11  1  0.80269000  0.10282000  0.46124000  1.0
  H  H12  1  0.30374000  0.10269000  0.96115000  1.0
  H  H13  1  0.19731000  0.89718000  0.53876000  1.0
  H  H14  1  0.25723000  0.74046000  0.96205000  1.0
  H  H15  1  0.52050000  0.25956000  0.53796000  1.0
  H  H16  1  0.74277000  0.25954000  0.03795000  1.0
  H  H17  1  0.47949000  0.74043000  0.46204000  1.0
  H  H18  1  0.08373000  0.38761000  0.10061000  1.0
  H  H19  1  0.69292000  0.61239000  0.39937000  1.0
  H  H20  1  0.91629000  0.61239000  0.89939000  1.0
  H  H21  1  0.30708000  0.38761000  0.60064000  1.0
  H  H22  1  0.52346000  0.54463000  0.17644000  1.0
  H  H23  1  0.97517000  0.45527000  0.32354000  1.0
  H  H24  1  0.47655000  0.45537000  0.82356000  1.0
  H  H25  1  0.02484000  0.54474000  0.67647000  1.0
  C  C26  1  0.64176000  0.73119000  0.11266000  1.0
  C  C27  1  0.91102000  0.26891000  0.38739000  1.0
  C  C28  1  0.35824000  0.26881000  0.88734000  1.0
  C  C29  1  0.08898000  0.73109000  0.61261000  1.0
  C  C30  1  0.55936000  0.78584000  0.05266000  1.0
  C  C31  1  0.77585000  0.21430000  0.44741000  1.0
  C  C32  1  0.44064000  0.21416000  0.94734000  1.0
  C  C33  1  0.22414000  0.78570000  0.55259000  1.0
  C  C34  1  0.30810000  0.69566000  0.00929000  1.0
  C  C35  1  0.61468000  0.30446000  0.49076000  1.0
  C  C36  1  0.69190000  0.30434000  0.99071000  1.0
  C  C37  1  0.38531000  0.69554000  0.50924000  1.0
  C  C38  1  0.12991000  0.54891000  0.02389000  1.0
  C  C39  1  0.58116000  0.45111000  0.47614000  1.0
  C  C40  1  0.87009000  0.45108000  0.97611000  1.0
  C  C41  1  0.41883000  0.54889000  0.52386000  1.0
  C  C42  1  0.21254000  0.49927000  0.08580000  1.0
  C  C43  1  0.71173000  0.50080000  0.41425000  1.0
  C  C44  1  0.78747000  0.50073000  0.91420000  1.0
  C  C45  1  0.28827000  0.49920000  0.58576000  1.0
  C  C46  1  0.46243000  0.58861000  0.12969000  1.0
  C  C47  1  0.87216000  0.41142000  0.37033000  1.0
  C  C48  1  0.53758000  0.41139000  0.87031000  1.0
  C  C49  1  0.12784000  0.58858000  0.62967000  1.0
  I  I50  1  0.31632000  0.81188000  0.31889000  1.0
  I  I51  1  0.50285000  0.18794000  0.18024000  1.0
  I  I52  1  0.68368000  0.18812000  0.68111000  1.0
  I  I53  1  0.49716000  0.81207000  0.81976000  1.0
  N  N54  1  0.90001000  0.82090000  0.15721000  1.0
  N  N55  1  0.07957000  0.17914000  0.34290000  1.0
  N  N56  1  0.09999000  0.17910000  0.84279000  1.0
  N  N57  1  0.92043000  0.82086000  0.65710000  1.0
