# generated using pymatgen
data_Mn3H38C54N4O17
_symmetry_space_group_name_H-M   'P 1'
_cell_length_a   11.61350000
_cell_length_b   11.61330000
_cell_length_c   23.22590000
_cell_angle_alpha   97.06500000
_cell_angle_beta   97.06510000
_cell_angle_gamma   114.41700000
_symmetry_Int_Tables_number   1
_chemical_formula_structural   Mn3H38C54N4O17
_chemical_formula_sum   'Mn6 H76 C108 N8 O34'
_cell_volume   2777.80360498
_cell_formula_units_Z   2
loop_
 _symmetry_equiv_pos_site_id
 _symmetry_equiv_pos_as_xyz
  1  'x, y, z'
loop_
 _atom_site_type_symbol
 _atom_site_label
 _atom_site_symmetry_multiplicity
 _atom_site_fract_x
 _atom_site_fract_y
 _atom_site_fract_z
 _atom_site_occupancy
  Mn  Mn0  1  0.94407000  0.99473000  0.93066000  1.0
  Mn  Mn1  1  0.99472000  0.94406000  0.43065000  1.0
  Mn  Mn2  1  0.87710000  0.56259000  0.03529000  1.0
  Mn  Mn3  1  0.56258000  0.87710000  0.53529000  1.0
  Mn  Mn4  1  0.92064000  0.28358000  0.97793000  1.0
  Mn  Mn5  1  0.28356000  0.92064000  0.47792000  1.0
  H  H6  1  0.93173000  0.83208000  0.06025000  1.0
  H  H7  1  0.83208000  0.93173000  0.56025000  1.0
  H  H8  1  0.02876000  0.79238000  0.09963000  1.0
  H  H9  1  0.79240000  0.02878000  0.59964000  1.0
  H  H10  1  0.88648000  0.72705000  0.90616000  1.0
  H  H11  1  0.72704000  0.88647000  0.40617000  1.0
  H  H12  1  0.78109000  0.76583000  0.87420000  1.0
  H  H13  1  0.76582000  0.78108000  0.37420000  1.0
  H  H14  1  0.00539000  0.28809000  0.10655000  1.0
  H  H15  1  0.28811000  0.00541000  0.60656000  1.0
  H  H16  1  0.98355000  0.35727000  0.20825000  1.0
  H  H17  1  0.35727000  0.98355000  0.70825000  1.0
  H  H18  1  0.80938000  0.96000000  0.22792000  1.0
  H  H19  1  0.96000000  0.80937000  0.72792000  1.0
  H  H20  1  0.83026000  0.89132000  0.12531000  1.0
  H  H21  1  0.89133000  0.83027000  0.62531000  1.0
  H  H22  1  0.08951000  0.80451000  0.94745000  1.0
  H  H23  1  0.80450000  0.08951000  0.44746000  1.0
  H  H24  1  0.72813000  0.31165000  0.27288000  1.0
  H  H25  1  0.31166000  0.72812000  0.77288000  1.0
  H  H26  1  0.79493000  0.54138000  0.32185000  1.0
  H  H27  1  0.54139000  0.79493000  0.82185000  1.0
  H  H28  1  0.17462000  0.58096000  0.38613000  1.0
  H  H29  1  0.58096000  0.17462000  0.88613000  1.0
  H  H30  1  0.10711000  0.34927000  0.33942000  1.0
  H  H31  1  0.34927000  0.10709000  0.83942000  1.0
  H  H32  1  0.22488000  0.49118000  0.88684000  1.0
  H  H33  1  0.49117000  0.22488000  0.38684000  1.0
  H  H34  1  0.40431000  0.58505000  0.83208000  1.0
  H  H35  1  0.58504000  0.40430000  0.33208000  1.0
  H  H36  1  0.30690000  0.20319000  0.73727000  1.0
  H  H37  1  0.20320000  0.30689000  0.23726000  1.0
  H  H38  1  0.13176000  0.11209000  0.79360000  1.0
  H  H39  1  0.11208000  0.13176000  0.29359000  1.0
  H  H40  1  0.90872000  0.50210000  0.62269000  1.0
  H  H41  1  0.50212000  0.90872000  0.12270000  1.0
  H  H42  1  0.24143000  0.46880000  0.70633000  1.0
  H  H43  1  0.46880000  0.24143000  0.20633000  1.0
  H  H44  1  0.07388000  0.62873000  0.75341000  1.0
  H  H45  1  0.62873000  0.07388000  0.25341000  1.0
  H  H46  1  0.03102000  0.68549000  0.85131000  1.0
  H  H47  1  0.68550000  0.03102000  0.35132000  1.0
  H  H48  1  0.81516000  0.28206000  0.85391000  1.0
  H  H49  1  0.28206000  0.81516000  0.35392000  1.0
  H  H50  1  0.86148000  0.22484000  0.75530000  1.0
  H  H51  1  0.22485000  0.86148000  0.25530000  1.0
  H  H52  1  0.04869000  0.66496000  0.56884000  1.0
  H  H53  1  0.66498000  0.04869000  0.06885000  1.0
  H  H54  1  0.38157000  0.63197000  0.65165000  1.0
  H  H55  1  0.63196000  0.38158000  0.15165000  1.0
  H  H56  1  0.66205000  0.20009000  0.69596000  1.0
  H  H57  1  0.20007000  0.66204000  0.19597000  1.0
  H  H58  1  0.63224000  0.35112000  0.77335000  1.0
  H  H59  1  0.35112000  0.63223000  0.27335000  1.0
  H  H60  1  0.35762000  0.38929000  0.64391000  1.0
  H  H61  1  0.38927000  0.35761000  0.14390000  1.0
  H  H62  1  0.38508000  0.23503000  0.56755000  1.0
  H  H63  1  0.23501000  0.38507000  0.06754000  1.0
  H  H64  1  0.56540000  0.34483000  0.98183000  1.0
  H  H65  1  0.34483000  0.56540000  0.48183000  1.0
  H  H66  1  0.36561000  0.41699000  0.96068000  1.0
  H  H67  1  0.41699000  0.36561000  0.46068000  1.0
  H  H68  1  0.72092000  0.75049000  0.01882000  1.0
  H  H69  1  0.75048000  0.72092000  0.51883000  1.0
  H  H70  1  0.27753000  0.54996000  0.00159000  1.0
  H  H71  1  0.54996000  0.27752000  0.50160000  1.0
  H  H72  1  0.17700000  0.69866000  0.00131000  1.0
  H  H73  1  0.69866000  0.17699000  0.50131000  1.0
  H  H74  1  0.52468000  0.99432000  0.96852000  1.0
  H  H75  1  0.99431000  0.52468000  0.46851000  1.0
  H  H76  1  0.62673000  0.84626000  0.96821000  1.0
  H  H77  1  0.84625000  0.62673000  0.46820000  1.0
  H  H78  1  0.44560000  0.12810000  0.02017000  1.0
  H  H79  1  0.12809000  0.44561000  0.52015000  1.0
  H  H80  1  0.25346000  0.20970000  0.99502000  1.0
  H  H81  1  0.20969000  0.25347000  0.49501000  1.0
  C  C82  1  0.92494000  0.04642000  0.04646000  1.0
  C  C83  1  0.04642000  0.92493000  0.54646000  1.0
  C  C84  1  0.91855000  0.08574000  0.10859000  1.0
  C  C85  1  0.08574000  0.91855000  0.60859000  1.0
  C  C86  1  0.96263000  0.21643000  0.13315000  1.0
  C  C87  1  0.21643000  0.96263000  0.63315000  1.0
  C  C88  1  0.95079000  0.25542000  0.19026000  1.0
  C  C89  1  0.25543000  0.95078000  0.69026000  1.0
  C  C90  1  0.89408000  0.16162000  0.22369000  1.0
  C  C91  1  0.16163000  0.89408000  0.72369000  1.0
  C  C92  1  0.85189000  0.03048000  0.20057000  1.0
  C  C93  1  0.03049000  0.85189000  0.70057000  1.0
  C  C94  1  0.86400000  0.99331000  0.14339000  1.0
  C  C95  1  0.99331000  0.86400000  0.64339000  1.0
  C  C96  1  0.91433000  0.31979000  0.30439000  1.0
  C  C97  1  0.31978000  0.91431000  0.80438000  1.0
  C  C98  1  0.15854000  0.90468000  0.96254000  1.0
  C  C99  1  0.90468000  0.15854000  0.46254000  1.0
  C  C100  1  0.82516000  0.37129000  0.29826000  1.0
  C  C101  1  0.37131000  0.82515000  0.79826000  1.0
  C  C102  1  0.86266000  0.49865000  0.32500000  1.0
  C  C103  1  0.49867000  0.86266000  0.82500000  1.0
  C  C104  1  0.98843000  0.57405000  0.35670000  1.0
  C  C105  1  0.57406000  0.98843000  0.85670000  1.0
  C  C106  1  0.07718000  0.52086000  0.36122000  1.0
  C  C107  1  0.52087000  0.07718000  0.86122000  1.0
  C  C108  1  0.04022000  0.39292000  0.33562000  1.0
  C  C109  1  0.39291000  0.04020000  0.83562000  1.0
  C  C110  1  0.02785000  0.70804000  0.38917000  1.0
  C  C111  1  0.70805000  0.02785000  0.88917000  1.0
  C  C112  1  0.07536000  0.23660000  0.88331000  1.0
  C  C113  1  0.23659000  0.07535000  0.38331000  1.0
  C  C114  1  0.17019000  0.29516000  0.84520000  1.0
  C  C115  1  0.29515000  0.17020000  0.34519000  1.0
  C  C116  1  0.24492000  0.42897000  0.85456000  1.0
  C  C117  1  0.42895000  0.24492000  0.35456000  1.0
  C  C118  1  0.34418000  0.48148000  0.82398000  1.0
  C  C119  1  0.48146000  0.34417000  0.32398000  1.0
  C  C120  1  0.36881000  0.39972000  0.78280000  1.0
  C  C121  1  0.39970000  0.36879000  0.28279000  1.0
  C  C122  1  0.29043000  0.26666000  0.77039000  1.0
  C  C123  1  0.26665000  0.29041000  0.27038000  1.0
  C  C124  1  0.19220000  0.21566000  0.80183000  1.0
  C  C125  1  0.21565000  0.19218000  0.30182000  1.0
  C  C126  1  0.49273000  0.37685000  0.71256000  1.0
  C  C127  1  0.37682000  0.49273000  0.21255000  1.0
  C  C128  1  0.01207000  0.53088000  0.62853000  1.0
  C  C129  1  0.53090000  0.01207000  0.12854000  1.0
  C  C130  1  0.06899000  0.47677000  0.66636000  1.0
  C  C131  1  0.47678000  0.06899000  0.16636000  1.0
  C  C132  1  0.20120000  0.51208000  0.67546000  1.0
  C  C133  1  0.51209000  0.20121000  0.17546000  1.0
  C  C134  1  0.97001000  0.42277000  0.74868000  1.0
  C  C135  1  0.42278000  0.97002000  0.24868000  1.0
  C  C136  1  0.01744000  0.55267000  0.77530000  1.0
  C  C137  1  0.55268000  0.01744000  0.27530000  1.0
  C  C138  1  0.99272000  0.58423000  0.83072000  1.0
  C  C139  1  0.58423000  0.99272000  0.33073000  1.0
  C  C140  1  0.92054000  0.48756000  0.85988000  1.0
  C  C141  1  0.48757000  0.92055000  0.35988000  1.0
  C  C142  1  0.87139000  0.35777000  0.83169000  1.0
  C  C143  1  0.35777000  0.87139000  0.33169000  1.0
  C  C144  1  0.89608000  0.32517000  0.77670000  1.0
  C  C145  1  0.32518000  0.89608000  0.27670000  1.0
  C  C146  1  0.90115000  0.51951000  0.92030000  1.0
  C  C147  1  0.51952000  0.90116000  0.42030000  1.0
  C  C148  1  0.30115000  0.74962000  0.57152000  1.0
  C  C149  1  0.74962000  0.30115000  0.07152000  1.0
  C  C150  1  0.08961000  0.62076000  0.59871000  1.0
  C  C151  1  0.62078000  0.08962000  0.09872000  1.0
  C  C152  1  0.22215000  0.65627000  0.60630000  1.0
  C  C153  1  0.65629000  0.22216000  0.10631000  1.0
  C  C154  1  0.27797000  0.60225000  0.64533000  1.0
  C  C155  1  0.60225000  0.27798000  0.14534000  1.0
  C  C156  1  0.52971000  0.10815000  0.58167000  1.0
  C  C157  1  0.10813000  0.52971000  0.08166000  1.0
  C  C158  1  0.52509000  0.20834000  0.62720000  1.0
  C  C159  1  0.20832000  0.52508000  0.12721000  1.0
  C  C160  1  0.59617000  0.24239000  0.68490000  1.0
  C  C161  1  0.24237000  0.59616000  0.18490000  1.0
  C  C162  1  0.57974000  0.32633000  0.72796000  1.0
  C  C163  1  0.32632000  0.57974000  0.22796000  1.0
  C  C164  1  0.42473000  0.34822000  0.65477000  1.0
  C  C165  1  0.34820000  0.42472000  0.15476000  1.0
  C  C166  1  0.44079000  0.26341000  0.61243000  1.0
  C  C167  1  0.26338000  0.44079000  0.11242000  1.0
  C  C168  1  0.56790000  0.43997000  0.98725000  1.0
  C  C169  1  0.43998000  0.56790000  0.48726000  1.0
  C  C170  1  0.46792000  0.47354000  0.97718000  1.0
  C  C171  1  0.47354000  0.46793000  0.47718000  1.0
  C  C172  1  0.65338000  0.64924000  0.00641000  1.0
  C  C173  1  0.64925000  0.65337000  0.50642000  1.0
  C  C174  1  0.46064000  0.68934000  0.98666000  1.0
  C  C175  1  0.68934000  0.46064000  0.48667000  1.0
  C  C176  1  0.33295000  0.64703000  0.99438000  1.0
  C  C177  1  0.64703000  0.33295000  0.49438000  1.0
  C  C178  1  0.27528000  0.73097000  0.99376000  1.0
  C  C179  1  0.73096000  0.27529000  0.49376000  1.0
  C  C180  1  0.34508000  0.85654000  0.98522000  1.0
  C  C181  1  0.85654000  0.34508000  0.48521000  1.0
  C  C182  1  0.47168000  0.89776000  0.97666000  1.0
  C  C183  1  0.89776000  0.47169000  0.47666000  1.0
  C  C184  1  0.52952000  0.81431000  0.97718000  1.0
  C  C185  1  0.81431000  0.52953000  0.47718000  1.0
  C  C186  1  0.34455000  0.07529000  0.99998000  1.0
  C  C187  1  0.07528000  0.34456000  0.49997000  1.0
  C  C188  1  0.24848000  0.11358000  0.98787000  1.0
  C  C189  1  0.11357000  0.24849000  0.48786000  1.0
  N  N190  1  0.68288000  0.55032000  0.00571000  1.0
  N  N191  1  0.55031000  0.68287000  0.50572000  1.0
  N  N192  1  0.52346000  0.60733000  0.98933000  1.0
  N  N193  1  0.60733000  0.52345000  0.48934000  1.0
  N  N194  1  0.28589000  0.94177000  0.98376000  1.0
  N  N195  1  0.94177000  0.28590000  0.48375000  1.0
  N  N196  1  0.13318000  0.00633000  0.96434000  1.0
  N  N197  1  0.00633000  0.13319000  0.46434000  1.0
  O  O198  1  0.01090000  0.11391000  0.87139000  1.0
  O  O199  1  0.11390000  0.01091000  0.37139000  1.0
  O  O200  1  0.06859000  0.31106000  0.92658000  1.0
  O  O201  1  0.31106000  0.06860000  0.42658000  1.0
  O  O202  1  0.47241000  0.45760000  0.75587000  1.0
  O  O203  1  0.45761000  0.47242000  0.25587000  1.0
  O  O204  1  0.92976000  0.63622000  0.94431000  1.0
  O  O205  1  0.63622000  0.92975000  0.44431000  1.0
  O  O206  1  0.85727000  0.43073000  0.95070000  1.0
  O  O207  1  0.43076000  0.85731000  0.45071000  1.0
  O  O208  1  0.99210000  0.38255000  0.69470000  1.0
  O  O209  1  0.38256000  0.99209000  0.19470000  1.0
  O  O210  1  0.23954000  0.77425000  0.52931000  1.0
  O  O211  1  0.77425000  0.23953000  0.02931000  1.0
  O  O212  1  0.42340000  0.79572000  0.58597000  1.0
  O  O213  1  0.79572000  0.42340000  0.08596000  1.0
  O  O214  1  0.14731000  0.77645000  0.40857000  1.0
  O  O215  1  0.77645000  0.14732000  0.90858000  1.0
  O  O216  1  0.93966000  0.74422000  0.39680000  1.0
  O  O217  1  0.74423000  0.93968000  0.89681000  1.0
  O  O218  1  0.96294000  0.13099000  0.01335000  1.0
  O  O219  1  0.13100000  0.96295000  0.51335000  1.0
  O  O220  1  0.89236000  0.92794000  0.02459000  1.0
  O  O221  1  0.92794000  0.89236000  0.52460000  1.0
  O  O222  1  0.44430000  0.06839000  0.53454000  1.0
  O  O223  1  0.06839000  0.44430000  0.03453000  1.0
  O  O224  1  0.61478000  0.06646000  0.59109000  1.0
  O  O225  1  0.06646000  0.61478000  0.09109000  1.0
  O  O226  1  0.93981000  0.76245000  0.07980000  1.0
  O  O227  1  0.76246000  0.93983000  0.57980000  1.0
  O  O228  1  0.87515000  0.19032000  0.27998000  1.0
  O  O229  1  0.19034000  0.87513000  0.77997000  1.0
  O  O230  1  0.87336000  0.79260000  0.88512000  1.0
  O  O231  1  0.79259000  0.87336000  0.38513000  1.0
