# generated using pymatgen
data_NiH14C21N2O7
_symmetry_space_group_name_H-M   'P 1'
_cell_length_a   8.97728000
_cell_length_b   10.66770000
_cell_length_c   11.10390000
_cell_angle_alpha   94.24140000
_cell_angle_beta   112.90100000
_cell_angle_gamma   102.82600000
_symmetry_Int_Tables_number   1
_chemical_formula_structural   NiH14C21N2O7
_chemical_formula_sum   'Ni2 H28 C42 N4 O14'
_cell_volume   939.78466389
_cell_formula_units_Z   2
loop_
 _symmetry_equiv_pos_site_id
 _symmetry_equiv_pos_as_xyz
  1  'x, y, z'
loop_
 _atom_site_type_symbol
 _atom_site_label
 _atom_site_symmetry_multiplicity
 _atom_site_fract_x
 _atom_site_fract_y
 _atom_site_fract_z
 _atom_site_occupancy
  Ni  Ni0  1  0.63957000  0.98348000  0.66115000  1.0
  Ni  Ni1  1  0.36043000  0.01652000  0.33886000  1.0
  H  H2  1  0.99820000  0.27864000  0.63412000  1.0
  H  H3  1  0.00180000  0.72134000  0.36591000  1.0
  H  H4  1  0.40598000  0.63407000  0.69340000  1.0
  H  H5  1  0.59402000  0.36592000  0.30659000  1.0
  H  H6  1  0.36900000  0.22366000  0.62437000  1.0
  H  H7  1  0.63100000  0.77632000  0.37564000  1.0
  H  H8  1  0.80547000  0.50773000  0.64430000  1.0
  H  H9  1  0.19453000  0.49227000  0.35571000  1.0
  H  H10  1  0.28653000  0.83067000  0.59173000  1.0
  H  H11  1  0.71348000  0.16930000  0.40828000  1.0
  H  H12  1  0.08156000  0.83582000  0.69154000  1.0
  H  H13  1  0.91845000  0.16417000  0.30846000  1.0
  H  H14  1  0.15822000  0.01159000  0.88486000  1.0
  H  H15  1  0.84177000  0.98842000  0.11512000  1.0
  H  H16  1  0.37927000  0.20988000  0.05230000  1.0
  H  H17  1  0.62071000  0.79013000  0.94770000  1.0
  H  H18  1  0.66853000  0.35872000  0.14187000  1.0
  H  H19  1  0.33144000  0.64131000  0.85811000  1.0
  H  H20  1  0.95375000  0.41924000  0.14062000  1.0
  H  H21  1  0.04624000  0.58078000  0.85938000  1.0
  H  H22  1  0.14758000  0.36729000  0.04195000  1.0
  H  H23  1  0.85242000  0.63274000  0.95805000  1.0
  H  H24  1  0.03778000  0.17780000  0.85613000  1.0
  H  H25  1  0.96223000  0.82221000  0.14389000  1.0
  H  H26  1  0.83945000  0.89163000  0.61676000  1.0
  H  H27  1  0.16056000  0.10836000  0.38325000  1.0
  H  H28  1  0.90322000  0.04997000  0.62059000  1.0
  H  H29  1  0.09679000  0.95003000  0.37943000  1.0
  C  C30  1  0.61805000  0.58691000  0.67481000  1.0
  C  C31  1  0.38194000  0.41308000  0.32518000  1.0
  C  C32  1  0.46156000  0.55612000  0.68069000  1.0
  C  C33  1  0.53843000  0.44387000  0.31928000  1.0
  C  C34  1  0.37128000  0.42642000  0.66392000  1.0
  C  C35  1  0.62872000  0.57356000  0.33608000  1.0
  C  C36  1  0.43875000  0.32546000  0.64090000  1.0
  C  C37  1  0.56125000  0.67452000  0.35910000  1.0
  C  C38  1  0.59590000  0.35556000  0.63540000  1.0
  C  C39  1  0.40410000  0.64445000  0.36460000  1.0
  C  C40  1  0.68538000  0.48607000  0.65217000  1.0
  C  C41  1  0.31462000  0.51393000  0.34783000  1.0
  C  C42  1  0.70261000  0.72679000  0.68084000  1.0
  C  C43  1  0.29739000  0.27320000  0.31916000  1.0
  C  C44  1  0.20228000  0.40462000  0.66582000  1.0
  C  C45  1  0.79773000  0.59538000  0.33419000  1.0
  C  C46  1  0.66993000  0.24872000  0.61053000  1.0
  C  C47  1  0.33007000  0.75129000  0.38947000  1.0
  C  C48  1  0.31887000  0.90293000  0.67879000  1.0
  C  C49  1  0.68114000  0.09707000  0.32121000  1.0
  C  C50  1  0.20295000  0.90881000  0.73344000  1.0
  C  C51  1  0.79705000  0.09119000  0.26655000  1.0
  C  C52  1  0.24613000  0.00578000  0.84037000  1.0
  C  C53  1  0.75387000  0.99421000  0.15963000  1.0
  C  C54  1  0.40750000  0.09544000  0.89553000  1.0
  C  C55  1  0.59249000  0.90457000  0.10446000  1.0
  C  C56  1  0.46440000  0.19906000  0.00628000  1.0
  C  C57  1  0.53560000  0.80096000  0.99371000  1.0
  C  C58  1  0.62381000  0.28059000  0.05671000  1.0
  C  C59  1  0.37617000  0.71943000  0.94327000  1.0
  C  C60  1  0.74178000  0.26166000  0.00444000  1.0
  C  C61  1  0.25820000  0.73836000  0.99554000  1.0
  C  C62  1  0.91041000  0.33903000  0.05751000  1.0
  C  C63  1  0.08957000  0.66100000  0.94248000  1.0
  C  C64  1  0.01686000  0.30964000  0.00377000  1.0
  C  C65  1  0.98314000  0.69038000  0.99624000  1.0
  C  C66  1  0.95547000  0.20248000  0.89948000  1.0
  C  C67  1  0.04452000  0.79753000  0.10054000  1.0
  C  C68  1  0.69095000  0.15751000  0.89739000  1.0
  C  C69  1  0.30905000  0.84250000  0.10260000  1.0
  C  C70  1  0.52003000  0.07781000  0.83883000  1.0
  C  C71  1  0.47996000  0.92220000  0.16117000  1.0
  N  N72  1  0.47249000  0.98494000  0.73056000  1.0
  N  N73  1  0.52751000  0.01506000  0.26945000  1.0
  N  N74  1  0.79767000  0.12743000  0.84774000  1.0
  N  N75  1  0.20234000  0.87258000  0.15226000  1.0
  O  O76  1  0.63262000  0.81031000  0.70994000  1.0
  O  O77  1  0.36738000  0.18968000  0.29006000  1.0
  O  O78  1  0.80539000  0.97428000  0.58649000  1.0
  O  O79  1  0.19463000  0.02571000  0.41352000  1.0
  O  O80  1  0.57139000  0.13141000  0.57572000  1.0
  O  O81  1  0.42860000  0.86859000  0.42429000  1.0
  O  O82  1  0.82925000  0.75419000  0.65367000  1.0
  O  O83  1  0.17076000  0.24581000  0.34633000  1.0
  O  O84  1  0.82058000  0.27867000  0.62594000  1.0
  O  O85  1  0.17943000  0.72134000  0.37409000  1.0
  O  O86  1  0.11313000  0.27880000  0.63799000  1.0
  O  O87  1  0.88689000  0.72117000  0.36204000  1.0
  O  O88  1  0.14899000  0.49567000  0.69071000  1.0
  O  O89  1  0.85101000  0.50432000  0.30928000  1.0
