# generated using pymatgen
data_ZnH8C5N2O7
_symmetry_space_group_name_H-M   'P 1'
_cell_length_a   7.05921000
_cell_length_b   7.11584000
_cell_length_c   11.34844257
_cell_angle_alpha   105.52414323
_cell_angle_beta   106.19689964
_cell_angle_gamma   67.01600000
_symmetry_Int_Tables_number   1
_chemical_formula_structural   ZnH8C5N2O7
_chemical_formula_sum   'Zn2 H16 C10 N4 O14'
_cell_volume   495.78352004
_cell_formula_units_Z   2
loop_
 _symmetry_equiv_pos_site_id
 _symmetry_equiv_pos_as_xyz
  1  'x, y, z'
loop_
 _atom_site_type_symbol
 _atom_site_label
 _atom_site_symmetry_multiplicity
 _atom_site_fract_x
 _atom_site_fract_y
 _atom_site_fract_z
 _atom_site_occupancy
  Zn  Zn0  1  0.00000000  0.00000000  0.00000000  1.0
  Zn  Zn1  1  0.00000000  0.50000000  0.49999000  1.0
  H  H2  1  0.82634000  0.27035000  0.56472000  1.0
  H  H3  1  0.17366000  0.72966000  0.43527000  1.0
  H  H4  1  0.95036000  0.37690000  0.69076000  1.0
  H  H5  1  0.04964000  0.62310000  0.30923000  1.0
  H  H6  1  0.13134000  0.22610000  0.30996000  1.0
  H  H7  1  0.86864000  0.77390000  0.69002000  1.0
  H  H8  1  0.97195000  0.17757000  0.35541000  1.0
  H  H9  1  0.02806000  0.82243000  0.64459000  1.0
  H  H10  1  0.17141000  0.16614000  0.88607000  1.0
  H  H11  1  0.82859000  0.83386000  0.11394000  1.0
  H  H12  1  0.25291000  0.92413000  0.83761000  1.0
  H  H13  1  0.74708000  0.07587000  0.16239000  1.0
  H  H14  1  0.58032000  0.16950000  0.74609000  1.0
  H  H15  1  0.41969000  0.83049000  0.25392000  1.0
  H  H16  1  0.59059000  0.75943000  0.94557000  1.0
  H  H17  1  0.40938000  0.24057000  0.05443000  1.0
  C  C18  1  0.35825000  0.56896000  0.70280000  1.0
  C  C19  1  0.64175000  0.43104000  0.29720000  1.0
  C  C20  1  0.53048000  0.49196000  0.80715000  1.0
  C  C21  1  0.46951000  0.50803000  0.19285000  1.0
  C  C22  1  0.62270000  0.59377000  0.91705000  1.0
  C  C23  1  0.37730000  0.40622000  0.08296000  1.0
  C  C24  1  0.76394000  0.43501000  0.98242000  1.0
  C  C25  1  0.23605000  0.56499000  0.01759000  1.0
  C  C26  1  0.90985000  0.44012000  0.10533000  1.0
  C  C27  1  0.09015000  0.55988000  0.89467000  1.0
  N  N28  1  0.75889000  0.24781000  0.91631000  1.0
  N  N29  1  0.24111000  0.75218000  0.08369000  1.0
  N  N30  1  0.61780000  0.28530000  0.81187000  1.0
  N  N31  1  0.38220000  0.71470000  0.18814000  1.0
  O  O32  1  0.28811000  0.76336000  0.70203000  1.0
  O  O33  1  0.71189000  0.23664000  0.29798000  1.0
  O  O34  1  0.29044000  0.43250000  0.62566000  1.0
  O  O35  1  0.70955000  0.56750000  0.37433000  1.0
  O  O36  1  0.91070000  0.61562000  0.16979000  1.0
  O  O37  1  0.08929000  0.38438000  0.83021000  1.0
  O  O38  1  0.02554000  0.26578000  0.13876000  1.0
  O  O39  1  0.97447000  0.73422000  0.86124000  1.0
  O  O40  1  0.86631000  0.39238000  0.60365000  1.0
  O  O41  1  0.13371000  0.60762000  0.39634000  1.0
  O  O42  1  0.11324000  0.19440000  0.38490000  1.0
  O  O43  1  0.88675000  0.80561000  0.61508000  1.0
  O  O44  1  0.21711000  0.03015000  0.91364000  1.0
  O  O45  1  0.78289000  0.96985000  0.08636000  1.0
