# generated using pymatgen
data_CuH7C10SNO3
_symmetry_space_group_name_H-M   'P 1'
_cell_length_a   7.04634000
_cell_length_b   12.08828022
_cell_length_c   14.63680000
_cell_angle_alpha   87.12210412
_cell_angle_beta   89.98260000
_cell_angle_gamma   73.08153351
_symmetry_Int_Tables_number   1
_chemical_formula_structural   CuH7C10SNO3
_chemical_formula_sum   'Cu4 H28 C40 S4 N4 O12'
_cell_volume   1191.13850850
_cell_formula_units_Z   4
loop_
 _symmetry_equiv_pos_site_id
 _symmetry_equiv_pos_as_xyz
  1  'x, y, z'
loop_
 _atom_site_type_symbol
 _atom_site_label
 _atom_site_symmetry_multiplicity
 _atom_site_fract_x
 _atom_site_fract_y
 _atom_site_fract_z
 _atom_site_occupancy
  Cu  Cu0  1  0.04546000  0.46929000  0.39949000  1.0
  Cu  Cu1  1  0.48571000  0.46933000  0.89954000  1.0
  Cu  Cu2  1  0.95454000  0.53069000  0.60049000  1.0
  Cu  Cu3  1  0.51428000  0.53068000  0.10047000  1.0
  H  H4  1  0.94728000  0.31696000  0.68355000  1.0
  H  H5  1  0.73646000  0.31687000  0.18334000  1.0
  H  H6  1  0.05272000  0.68306000  0.31643000  1.0
  H  H7  1  0.26350000  0.68314000  0.81666000  1.0
  H  H8  1  0.02662000  0.11088000  0.73499000  1.0
  H  H9  1  0.86310000  0.11075000  0.23483000  1.0
  H  H10  1  0.97336000  0.88914000  0.26501000  1.0
  H  H11  1  0.13688000  0.88925000  0.76517000  1.0
  H  H12  1  0.18542000  0.95545000  0.62742000  1.0
  H  H13  1  0.85897000  0.95534000  0.12737000  1.0
  H  H14  1  0.81459000  0.04455000  0.37260000  1.0
  H  H15  1  0.14107000  0.04466000  0.87262000  1.0
  H  H16  1  0.24259000  0.01240000  0.46789000  1.0
  H  H17  1  0.74486000  0.01210000  0.96788000  1.0
  H  H18  1  0.75745000  0.98759000  0.53212000  1.0
  H  H19  1  0.25517000  0.98790000  0.03212000  1.0
  H  H20  1  0.42647000  0.21120000  0.21080000  1.0
  H  H21  1  0.36113000  0.21141000  0.71097000  1.0
  H  H22  1  0.57353000  0.78879000  0.78919000  1.0
  H  H23  1  0.63886000  0.78859000  0.28904000  1.0
  H  H24  1  0.21678000  0.18536000  0.15765000  1.0
  H  H25  1  0.59648000  0.18550000  0.65764000  1.0
  H  H26  1  0.78322000  0.81464000  0.84234000  1.0
  H  H27  1  0.40350000  0.81451000  0.34236000  1.0
  H  H28  1  0.99393000  0.35322000  0.21398000  1.0
  H  H29  1  0.65241000  0.35309000  0.71399000  1.0
  H  H30  1  0.00609000  0.64678000  0.78602000  1.0
  H  H31  1  0.34757000  0.64693000  0.28601000  1.0
  C  C32  1  0.03892000  0.28528000  0.54481000  1.0
  C  C33  1  0.67546000  0.28515000  0.04478000  1.0
  C  C34  1  0.96109000  0.71472000  0.45518000  1.0
  C  C35  1  0.32450000  0.71485000  0.95522000  1.0
  C  C36  1  0.00817000  0.24983000  0.63583000  1.0
  C  C37  1  0.74209000  0.24971000  0.13572000  1.0
  C  C38  1  0.99184000  0.75017000  0.36416000  1.0
  C  C39  1  0.25787000  0.75029000  0.86428000  1.0
  C  C40  1  0.05732000  0.13371000  0.66466000  1.0
  C  C41  1  0.80902000  0.13362000  0.16457000  1.0
  C  C42  1  0.94268000  0.86630000  0.33534000  1.0
  C  C43  1  0.19097000  0.86638000  0.83542000  1.0
  C  C44  1  0.14439000  0.04659000  0.60492000  1.0
  C  C45  1  0.80864000  0.04648000  0.10490000  1.0
  C  C46  1  0.85563000  0.95341000  0.39508000  1.0
  C  C47  1  0.19135000  0.95353000  0.89510000  1.0
  C  C48  1  0.17673000  0.07897000  0.51571000  1.0
  C  C49  1  0.74395000  0.07874000  0.01567000  1.0
  C  C50  1  0.82329000  0.92104000  0.48429000  1.0
  C  C51  1  0.25606000  0.92125000  0.98433000  1.0
  C  C52  1  0.12395000  0.19598000  0.48312000  1.0
  C  C53  1  0.67965000  0.19579000  0.98310000  1.0
  C  C54  1  0.87606000  0.80401000  0.51688000  1.0
  C  C55  1  0.32034000  0.80420000  0.01690000  1.0
  C  C56  1  0.15343000  0.22086000  0.38739000  1.0
  C  C57  1  0.62518000  0.22077000  0.88740000  1.0
  C  C58  1  0.84658000  0.77913000  0.61261000  1.0
  C  C59  1  0.37481000  0.77923000  0.11260000  1.0
  C  C60  1  0.27193000  0.21173000  0.22046000  1.0
  C  C61  1  0.51522000  0.21181000  0.72053000  1.0
  C  C62  1  0.72806000  0.78827000  0.77953000  1.0
  C  C63  1  0.48477000  0.78820000  0.27947000  1.0
  C  C64  1  0.13941000  0.32939000  0.24942000  1.0
  C  C65  1  0.53062000  0.32940000  0.74950000  1.0
  C  C66  1  0.86059000  0.67060000  0.75058000  1.0
  C  C67  1  0.46938000  0.67060000  0.25051000  1.0
  C  C68  1  0.22071000  0.43202000  0.22796000  1.0
  C  C69  1  0.34705000  0.43218000  0.72813000  1.0
  C  C70  1  0.77931000  0.56797000  0.77205000  1.0
  C  C71  1  0.65293000  0.56783000  0.27188000  1.0
  S  S72  1  0.25986000  0.10855000  0.31407000  1.0
  S  S73  1  0.63043000  0.10853000  0.81404000  1.0
  S  S74  1  0.74015000  0.89143000  0.68592000  1.0
  S  S75  1  0.36959000  0.89147000  0.18595000  1.0
  N  N76  1  0.10332000  0.32341000  0.34708000  1.0
  N  N77  1  0.57301000  0.32336000  0.84714000  1.0
  N  N78  1  0.89667000  0.67658000  0.65291000  1.0
  N  N79  1  0.42701000  0.67664000  0.15287000  1.0
  O  O80  1  0.98916000  0.39800000  0.52034000  1.0
  O  O81  1  0.61262000  0.39791000  0.02034000  1.0
  O  O82  1  0.01085000  0.60200000  0.47965000  1.0
  O  O83  1  0.38735000  0.60209000  0.97966000  1.0
  O  O84  1  0.19208000  0.50798000  0.28955000  1.0
  O  O85  1  0.30062000  0.50829000  0.78962000  1.0
  O  O86  1  0.80791000  0.49201000  0.71045000  1.0
  O  O87  1  0.69937000  0.49171000  0.21040000  1.0
  O  O88  1  0.30337000  0.43670000  0.15313000  1.0
  O  O89  1  0.25911000  0.43678000  0.65348000  1.0
  O  O90  1  0.69667000  0.56329000  0.84689000  1.0
  O  O91  1  0.74085000  0.56324000  0.34653000  1.0
