# generated using pymatgen
data_TbP2H12C6NO11
_symmetry_space_group_name_H-M   'P 1'
_cell_length_a   8.84550000
_cell_length_b   10.85380000
_cell_length_c   15.25000000
_cell_angle_alpha   92.90210000
_cell_angle_beta   90.00000000
_cell_angle_gamma   90.00000000
_symmetry_Int_Tables_number   1
_chemical_formula_structural   TbP2H12C6NO11
_chemical_formula_sum   'Tb4 P8 H48 C24 N4 O44'
_cell_volume   1462.23342114
_cell_formula_units_Z   4
loop_
 _symmetry_equiv_pos_site_id
 _symmetry_equiv_pos_as_xyz
  1  'x, y, z'
loop_
 _atom_site_type_symbol
 _atom_site_label
 _atom_site_symmetry_multiplicity
 _atom_site_fract_x
 _atom_site_fract_y
 _atom_site_fract_z
 _atom_site_occupancy
  Tb  Tb0  1  0.24170000  0.40713000  0.61939000  1.0
  Tb  Tb1  1  0.74170000  0.59288000  0.88062000  1.0
  Tb  Tb2  1  0.75830000  0.59288000  0.38061000  1.0
  Tb  Tb3  1  0.25830000  0.40711000  0.11938000  1.0
  P  P4  1  0.15630000  0.63663000  0.45785000  1.0
  P  P5  1  0.65631000  0.36338000  0.04216000  1.0
  P  P6  1  0.84369000  0.36338000  0.54215000  1.0
  P  P7  1  0.34369000  0.63662000  0.95784000  1.0
  P  P8  1  0.18900000  0.06350000  0.61182000  1.0
  P  P9  1  0.68900000  0.93651000  0.88819000  1.0
  P  P10  1  0.81100000  0.93651000  0.38818000  1.0
  P  P11  1  0.31101000  0.06348000  0.11181000  1.0
  H  H12  1  0.33651000  0.05689000  0.72493000  1.0
  H  H13  1  0.83650000  0.94310000  0.77507000  1.0
  H  H14  1  0.66349000  0.94311000  0.27507000  1.0
  H  H15  1  0.16350000  0.05689000  0.22493000  1.0
  H  H16  1  0.47019000  0.37580000  0.45930000  1.0
  H  H17  1  0.97020000  0.62420000  0.04070000  1.0
  H  H18  1  0.52981000  0.62420000  0.54070000  1.0
  H  H19  1  0.02980000  0.37580000  0.95930000  1.0
  H  H20  1  0.54436000  0.37909000  0.55131000  1.0
  H  H21  1  0.04435000  0.62091000  0.94869000  1.0
  H  H22  1  0.45564000  0.62091000  0.44869000  1.0
  H  H23  1  0.95564000  0.37909000  0.05131000  1.0
  H  H24  1  0.10966000  0.91757000  0.44578000  1.0
  H  H25  1  0.60965000  0.08243000  0.05422000  1.0
  H  H26  1  0.89035000  0.08244000  0.55422000  1.0
  H  H27  1  0.39035000  0.91757000  0.94578000  1.0
  H  H28  1  0.12629000  0.79784000  0.57246000  1.0
  H  H29  1  0.62629000  0.20216000  0.92754000  1.0
  H  H30  1  0.87371000  0.20216000  0.42754000  1.0
  H  H31  1  0.37372000  0.79784000  0.07246000  1.0
  H  H32  1  0.32133000  0.76467000  0.55105000  1.0
  H  H33  1  0.82133000  0.23533000  0.94895000  1.0
  H  H34  1  0.67867000  0.23533000  0.44895000  1.0
  H  H35  1  0.17867000  0.76467000  0.05105000  1.0
  H  H36  1  0.30233000  0.07138000  0.47063000  1.0
  H  H37  1  0.80232000  0.92863000  0.02936000  1.0
  H  H38  1  0.69768000  0.92862000  0.52936000  1.0
  H  H39  1  0.19768000  0.07137000  0.97064000  1.0
  H  H40  1  0.40472000  0.96751000  0.53582000  1.0
  H  H41  1  0.90471000  0.03249000  0.96417000  1.0
  H  H42  1  0.59529000  0.03249000  0.46418000  1.0
  H  H43  1  0.09530000  0.96751000  0.03582000  1.0
  H  H44  1  0.30742000  0.95049000  0.34667000  1.0
  H  H45  1  0.80742000  0.04951000  0.15333000  1.0
  H  H46  1  0.69259000  0.04951000  0.65333000  1.0
  H  H47  1  0.19258000  0.95049000  0.84667000  1.0
  H  H48  1  0.42390000  0.83975000  0.39892000  1.0
  H  H49  1  0.92390000  0.16024000  0.10108000  1.0
  H  H50  1  0.57610000  0.16024000  0.60108000  1.0
  H  H51  1  0.07610000  0.83975000  0.89892000  1.0
  H  H52  1  0.11591000  0.78109000  0.31131000  1.0
  H  H53  1  0.61591000  0.21890000  0.18869000  1.0
  H  H54  1  0.88409000  0.21891000  0.68869000  1.0
  H  H55  1  0.38409000  0.78109000  0.81131000  1.0
  H  H56  1  0.29652000  0.75208000  0.26229000  1.0
  H  H57  1  0.79652000  0.24792000  0.23771000  1.0
  H  H58  1  0.70348000  0.24792000  0.73771000  1.0
  H  H59  1  0.20348000  0.75208000  0.76229000  1.0
  C  C60  1  0.21052000  0.77855000  0.52078000  1.0
  C  C61  1  0.71052000  0.22146000  0.97922000  1.0
  C  C62  1  0.78948000  0.22145000  0.47921000  1.0
  C  C63  1  0.28948000  0.77855000  0.02078000  1.0
  C  C64  1  0.29147000  0.99610000  0.51571000  1.0
  C  C65  1  0.79146000  0.00391000  0.98429000  1.0
  C  C66  1  0.70854000  0.00390000  0.48429000  1.0
  C  C67  1  0.20854000  0.99609000  0.01571000  1.0
  C  C68  1  0.30753000  0.86465000  0.38161000  1.0
  C  C69  1  0.80753000  0.13535000  0.11839000  1.0
  C  C70  1  0.69247000  0.13535000  0.61839000  1.0
  C  C71  1  0.19247000  0.86465000  0.88161000  1.0
  C  C72  1  0.23574000  0.76288000  0.32477000  1.0
  C  C73  1  0.73574000  0.23711000  0.17523000  1.0
  C  C74  1  0.76426000  0.23712000  0.67523000  1.0
  C  C75  1  0.26426000  0.76288000  0.82477000  1.0
  C  C76  1  0.52293000  0.55673000  0.71263000  1.0
  C  C77  1  0.02294000  0.44327000  0.78738000  1.0
  C  C78  1  0.47705000  0.44327000  0.28737000  1.0
  C  C79  1  0.97706000  0.55673000  0.21263000  1.0
  C  C80  1  0.51668000  0.43141000  0.75740000  1.0
  C  C81  1  0.01666000  0.56860000  0.74261000  1.0
  C  C82  1  0.48332000  0.56859000  0.24260000  1.0
  C  C83  1  0.98333000  0.43140000  0.25740000  1.0
  N  N84  1  0.22074000  0.88948000  0.46579000  1.0
  N  N85  1  0.72073000  0.11052000  0.03421000  1.0
  N  N86  1  0.77927000  0.11052000  0.53421000  1.0
  N  N87  1  0.27927000  0.88948000  0.96579000  1.0
  O  O88  1  0.22753000  0.52851000  0.49943000  1.0
  O  O89  1  0.72753000  0.47149000  0.00057000  1.0
  O  O90  1  0.77247000  0.47149000  0.50057000  1.0
  O  O91  1  0.27247000  0.52851000  0.99943000  1.0
  O  O92  1  0.25095000  0.64679000  0.36719000  1.0
  O  O93  1  0.75095000  0.35321000  0.13282000  1.0
  O  O94  1  0.74905000  0.35321000  0.63281000  1.0
  O  O95  1  0.24905000  0.64679000  0.86718000  1.0
  O  O96  1  0.98993000  0.64289000  0.44076000  1.0
  O  O97  1  0.48993000  0.35711000  0.05924000  1.0
  O  O98  1  0.01007000  0.35711000  0.55924000  1.0
  O  O99  1  0.51007000  0.64289000  0.94076000  1.0
  O  O100  1  0.02601000  0.02414000  0.60672000  1.0
  O  O101  1  0.52600000  0.97587000  0.89327000  1.0
  O  O102  1  0.97399000  0.97586000  0.39327000  1.0
  O  O103  1  0.47400000  0.02413000  0.10673000  1.0
  O  O104  1  0.23784000  0.19599000  0.61326000  1.0
  O  O105  1  0.73783000  0.80402000  0.88674000  1.0
  O  O106  1  0.76217000  0.80402000  0.38674000  1.0
  O  O107  1  0.26217000  0.19598000  0.11326000  1.0
  O  O108  1  0.26279000  0.00097000  0.69638000  1.0
  O  O109  1  0.76278000  0.99903000  0.80361000  1.0
  O  O110  1  0.73721000  0.99903000  0.30361000  1.0
  O  O111  1  0.23722000  0.00097000  0.19639000  1.0
  O  O112  1  0.44304000  0.56449000  0.64325000  1.0
  O  O113  1  0.94303000  0.43552000  0.85675000  1.0
  O  O114  1  0.55696000  0.43552000  0.35675000  1.0
  O  O115  1  0.05697000  0.56448000  0.14325000  1.0
  O  O116  1  0.60663000  0.63907000  0.74753000  1.0
  O  O117  1  0.10662000  0.36093000  0.75247000  1.0
  O  O118  1  0.39336000  0.36093000  0.25247000  1.0
  O  O119  1  0.89338000  0.63907000  0.24753000  1.0
  O  O120  1  0.42750000  0.35043000  0.72470000  1.0
  O  O121  1  0.92752000  0.64958000  0.77532000  1.0
  O  O122  1  0.57250000  0.64957000  0.27530000  1.0
  O  O123  1  0.07248000  0.35042000  0.22469000  1.0
  O  O124  1  0.60518000  0.41930000  0.82185000  1.0
  O  O125  1  0.10519000  0.58070000  0.67814000  1.0
  O  O126  1  0.39481000  0.58070000  0.17815000  1.0
  O  O127  1  0.89481000  0.41930000  0.32186000  1.0
  O  O128  1  0.45685000  0.34500000  0.51900000  1.0
  O  O129  1  0.95685000  0.65501000  0.98101000  1.0
  O  O130  1  0.54315000  0.65501000  0.48100000  1.0
  O  O131  1  0.04315000  0.34499000  0.01899000  1.0
