# generated using pymatgen
data_Zn4H16C40N4O21
_symmetry_space_group_name_H-M   'P 1'
_cell_length_a   23.71048015
_cell_length_b   23.71070000
_cell_length_c   23.70890000
_cell_angle_alpha   65.98320000
_cell_angle_beta   72.74974733
_cell_angle_gamma   107.24696128
_symmetry_Int_Tables_number   1
_chemical_formula_structural   Zn4H16C40N4O21
_chemical_formula_sum   'Zn8 H32 C80 N8 O42'
_cell_volume   10211.50133330
_cell_formula_units_Z   2
loop_
 _symmetry_equiv_pos_site_id
 _symmetry_equiv_pos_as_xyz
  1  'x, y, z'
loop_
 _atom_site_type_symbol
 _atom_site_label
 _atom_site_symmetry_multiplicity
 _atom_site_fract_x
 _atom_site_fract_y
 _atom_site_fract_z
 _atom_site_occupancy
  Zn  Zn0  1  0.05615000  0.09996000  0.46049000  1.0
  Zn  Zn1  1  0.05615000  0.95619000  0.48335000  1.0
  Zn  Zn2  1  0.94384000  0.96049000  0.59998000  1.0
  Zn  Zn3  1  0.94385000  0.98336000  0.45618000  1.0
  Zn  Zn4  1  0.93954000  0.40004000  0.04381000  1.0
  Zn  Zn5  1  0.06046000  0.54381000  0.90003000  1.0
  Zn  Zn6  1  0.93954000  0.53950000  0.01665000  1.0
  Zn  Zn7  1  0.06045000  0.51665000  0.03951000  1.0
  H  H8  1  0.92671000  0.27157000  0.96728000  1.0
  H  H9  1  0.92572000  0.20856000  0.90469000  1.0
  H  H10  1  0.07430000  0.40469000  0.70851000  1.0
  H  H11  1  0.07331000  0.46729000  0.77152000  1.0
  H  H12  1  0.92268000  0.09916000  0.79377000  1.0
  H  H13  1  0.92258000  0.03685000  0.73053000  1.0
  H  H14  1  0.07737000  0.23053000  0.53682000  1.0
  H  H15  1  0.07727000  0.29378000  0.59912000  1.0
  H  H16  1  0.07330000  0.60603000  0.15514000  1.0
  H  H17  1  0.07430000  0.66962000  0.21715000  1.0
  H  H18  1  0.92572000  0.71719000  0.16959000  1.0
  H  H19  1  0.92670000  0.65516000  0.10601000  1.0
  H  H20  1  0.07728000  0.78351000  0.32358000  1.0
  H  H21  1  0.07737000  0.84685000  0.38579000  1.0
  H  H22  1  0.92259000  0.88574000  0.34689000  1.0
  H  H23  1  0.92268000  0.82352000  0.28356000  1.0
  H  H24  1  0.73264000  0.26948000  0.15314000  1.0
  H  H25  1  0.60709000  0.20624000  0.21647000  1.0
  H  H26  1  0.60708000  0.40084000  0.17645000  1.0
  H  H27  1  0.73264000  0.46316000  0.11423000  1.0
  H  H28  1  0.38678000  0.09532000  0.33041000  1.0
  H  H29  1  0.26118000  0.03273000  0.39400000  1.0
  H  H30  1  0.26117000  0.22845000  0.34488000  1.0
  H  H31  1  0.38677000  0.29145000  0.28286000  1.0
  H  H32  1  0.26737000  0.65316000  0.76946000  1.0
  H  H33  1  0.39292000  0.71650000  0.70622000  1.0
  H  H34  1  0.39290000  0.67645000  0.90086000  1.0
  H  H35  1  0.26735000  0.61424000  0.96317000  1.0
  H  H36  1  0.61324000  0.83043000  0.59530000  1.0
  H  H37  1  0.73884000  0.89401000  0.53271000  1.0
  H  H38  1  0.73881000  0.84485000  0.72847000  1.0
  H  H39  1  0.61321000  0.78283000  0.79148000  1.0
  C  C40  1  0.17917000  0.08959000  0.41042000  1.0
  C  C41  1  0.99999000  0.86398000  0.63603000  1.0
  C  C42  1  0.99999000  0.09264000  0.59264000  1.0
  C  C43  1  0.82083000  0.91042000  0.58959000  1.0
  C  C44  1  0.00000000  0.13602000  0.36397000  1.0
  C  C45  1  0.00000000  0.90736000  0.40736000  1.0
  C  C46  1  0.00002000  0.41043000  0.91039000  1.0
  C  C47  1  0.00000000  0.63602000  0.86398000  1.0
  C  C48  1  0.81471000  0.40735000  0.09266000  1.0
  C  C49  1  0.99999000  0.58958000  0.08959000  1.0
  C  C50  1  0.99999000  0.36397000  0.13603000  1.0
  C  C51  1  0.18528000  0.59264000  0.90736000  1.0
  C  C52  1  0.00000000  0.19462000  0.30537000  1.0
  C  C53  1  0.99999000  0.30538000  0.19462000  1.0
  C  C54  1  0.95666000  0.18061000  0.27788000  1.0
  C  C55  1  0.04149000  0.31938000  0.22395000  1.0
  C  C56  1  0.95850000  0.23456000  0.22210000  1.0
  C  C57  1  0.04333000  0.26544000  0.27605000  1.0
  C  C58  1  0.00000000  0.80539000  0.69462000  1.0
  C  C59  1  0.00000000  0.69462000  0.80538000  1.0
  C  C60  1  0.95666000  0.77605000  0.76546000  1.0
  C  C61  1  0.04150000  0.72212000  0.73455000  1.0
  C  C62  1  0.95850000  0.72395000  0.81940000  1.0
  C  C63  1  0.04334000  0.77790000  0.68061000  1.0
  C  C64  1  0.00001000  0.37307000  0.87304000  1.0
  C  C65  1  0.95851000  0.30008000  0.91063000  1.0
  C  C66  1  0.95815000  0.26510000  0.87585000  1.0
  C  C67  1  0.00001000  0.30245000  0.80242000  1.0
  C  C68  1  0.04186000  0.37585000  0.76507000  1.0
  C  C69  1  0.04151000  0.41065000  0.80004000  1.0
  C  C70  1  0.00000000  0.26689000  0.76688000  1.0
  C  C71  1  0.99999000  0.23618000  0.73617000  1.0
  C  C72  1  0.99998000  0.20064000  0.70063000  1.0
  C  C73  1  0.95628000  0.12771000  0.73750000  1.0
  C  C74  1  0.95621000  0.09302000  0.70242000  1.0
  C  C75  1  0.99998000  0.13000000  0.62998000  1.0
  C  C76  1  0.04374000  0.20242000  0.59300000  1.0
  C  C77  1  0.04367000  0.23751000  0.62768000  1.0
  C  C78  1  0.00000000  0.62695000  0.12693000  1.0
  C  C79  1  0.04151000  0.63088000  0.15842000  1.0
  C  C80  1  0.04186000  0.66602000  0.19304000  1.0
  C  C81  1  0.00000000  0.69758000  0.19756000  1.0
  C  C82  1  0.95815000  0.69307000  0.16600000  1.0
  C  C83  1  0.95850000  0.65845000  0.13085000  1.0
  C  C84  1  0.00000000  0.73312000  0.23311000  1.0
  C  C85  1  0.99999000  0.76381000  0.26384000  1.0
  C  C86  1  0.99999000  0.79935000  0.29938000  1.0
  C  C87  1  0.04368000  0.80617000  0.32863000  1.0
  C  C88  1  0.04375000  0.84133000  0.36324000  1.0
  C  C89  1  0.99998000  0.86999000  0.37003000  1.0
  C  C90  1  0.95621000  0.86319000  0.34138000  1.0
  C  C91  1  0.95628000  0.82858000  0.30622000  1.0
  C  C92  1  0.74002000  0.37001000  0.13000000  1.0
  C  C93  1  0.70457000  0.29758000  0.15866000  1.0
  C  C94  1  0.63480000  0.26250000  0.19381000  1.0
  C  C95  1  0.59873000  0.29936000  0.20064000  1.0
  C  C96  1  0.63480000  0.37230000  0.17139000  1.0
  C  C97  1  0.70457000  0.40698000  0.13678000  1.0
  C  C98  1  0.52765000  0.26382000  0.23618000  1.0
  C  C99  1  0.46622000  0.23311000  0.26690000  1.0
  C  C100  1  0.39514000  0.19757000  0.30245000  1.0
  C  C101  1  0.35907000  0.12416000  0.33401000  1.0
  C  C102  1  0.28930000  0.08936000  0.36916000  1.0
  C  C103  1  0.25388000  0.12694000  0.37308000  1.0
  C  C104  1  0.28930000  0.19994000  0.34159000  1.0
  C  C105  1  0.35906000  0.23491000  0.30697000  1.0
  C  C106  1  0.25998000  0.63001000  0.87001000  1.0
  C  C107  1  0.29543000  0.65867000  0.79758000  1.0
  C  C108  1  0.36520000  0.69383000  0.76249000  1.0
  C  C109  1  0.40126000  0.70064000  0.79937000  1.0
  C  C110  1  0.36519000  0.67140000  0.87231000  1.0
  C  C111  1  0.29542000  0.63679000  0.90699000  1.0
  C  C112  1  0.47234000  0.73618000  0.76383000  1.0
  C  C113  1  0.53378000  0.76690000  0.73311000  1.0
  C  C114  1  0.60487000  0.80246000  0.69756000  1.0
  C  C115  1  0.64094000  0.83402000  0.62415000  1.0
  C  C116  1  0.71071000  0.86917000  0.58935000  1.0
  C  C117  1  0.74611000  0.87307000  0.62695000  1.0
  C  C118  1  0.71069000  0.84157000  0.69995000  1.0
  C  C119  1  0.64093000  0.80696000  0.73491000  1.0
  N  N120  1  0.90609000  0.10713000  0.30845000  1.0
  N  N121  1  0.08441000  0.39286000  0.20104000  1.0
  N  N122  1  0.91557000  0.21454000  0.19156000  1.0
  N  N123  1  0.09390000  0.28545000  0.29896000  1.0
  N  N124  1  0.90609000  0.79895000  0.78548000  1.0
  N  N125  1  0.08442000  0.69157000  0.71452000  1.0
  N  N126  1  0.91558000  0.70103000  0.89289000  1.0
  N  N127  1  0.09391000  0.80846000  0.60712000  1.0
  O  O128  1  0.00000000  0.00000000  0.50000000  1.0
  O  O129  1  0.14995000  0.12761000  0.40599000  1.0
  O  O130  1  0.02178000  0.86982000  0.57722000  1.0
  O  O131  1  0.95405000  0.02866000  0.62720000  1.0
  O  O132  1  0.14994000  0.02234000  0.44406000  1.0
  O  O133  1  0.04594000  0.12719000  0.52866000  1.0
  O  O134  1  0.97821000  0.90099000  0.65198000  1.0
  O  O135  1  0.85005000  0.90600000  0.62762000  1.0
  O  O136  1  0.97823000  0.07723000  0.36979000  1.0
  O  O137  1  0.85006000  0.94406000  0.52234000  1.0
  O  O138  1  0.02178000  0.15197000  0.40100000  1.0
  O  O139  1  0.04595000  0.91877000  0.42537000  1.0
  O  O140  1  0.95405000  0.92538000  0.41876000  1.0
  O  O141  1  0.00000000  0.50000000  0.99999000  1.0
  O  O142  1  0.96641000  0.37241000  0.97765000  1.0
  O  O143  1  0.05298000  0.63020000  0.84802000  1.0
  O  O144  1  0.84414000  0.47133000  0.07462000  1.0
  O  O145  1  0.03363000  0.47768000  0.87237000  1.0
  O  O146  1  0.84414000  0.37281000  0.08125000  1.0
  O  O147  1  0.94703000  0.59899000  0.92278000  1.0
  O  O148  1  0.96639000  0.59400000  0.05594000  1.0
  O  O149  1  0.05296000  0.42278000  0.09901000  1.0
  O  O150  1  0.03359000  0.55594000  0.09401000  1.0
  O  O151  1  0.94702000  0.34802000  0.13020000  1.0
  O  O152  1  0.15586000  0.58125000  0.87281000  1.0
  O  O153  1  0.15585000  0.57461000  0.97134000  1.0
  O  O154  1  0.85899000  0.07765000  0.36763000  1.0
  O  O155  1  0.91514000  0.08386000  0.27052000  1.0
  O  O156  1  0.05470000  0.42232000  0.21869000  1.0
  O  O157  1  0.14561000  0.41616000  0.16869000  1.0
  O  O158  1  0.94527000  0.22662000  0.13237000  1.0
  O  O159  1  0.85437000  0.18568000  0.22948000  1.0
  O  O160  1  0.14101000  0.27339000  0.28131000  1.0
  O  O161  1  0.08485000  0.31431000  0.33130000  1.0
  O  O162  1  0.85899000  0.78133000  0.77341000  1.0
  O  O163  1  0.91513000  0.83127000  0.81436000  1.0
  O  O164  1  0.05471000  0.63239000  0.72660000  1.0
  O  O165  1  0.14562000  0.72947000  0.68566000  1.0
  O  O166  1  0.94529000  0.71866000  0.92236000  1.0
  O  O167  1  0.85438000  0.66870000  0.91618000  1.0
  O  O168  1  0.14101000  0.86764000  0.57765000  1.0
  O  O169  1  0.08487000  0.77055000  0.58383000  1.0
