# generated using pymatgen
data_SnH10C10N2O5
_symmetry_space_group_name_H-M   'P 1'
_cell_length_a   8.39712000
_cell_length_b   11.63110000
_cell_length_c   12.01790000
_cell_angle_alpha   79.63300000
_cell_angle_beta   89.99950000
_cell_angle_gamma   89.99970000
_symmetry_Int_Tables_number   1
_chemical_formula_structural   SnH10C10N2O5
_chemical_formula_sum   'Sn4 H40 C40 N8 O20'
_cell_volume   1154.59983851
_cell_formula_units_Z   4
loop_
 _symmetry_equiv_pos_site_id
 _symmetry_equiv_pos_as_xyz
  1  'x, y, z'
loop_
 _atom_site_type_symbol
 _atom_site_label
 _atom_site_symmetry_multiplicity
 _atom_site_fract_x
 _atom_site_fract_y
 _atom_site_fract_z
 _atom_site_occupancy
  Sn  Sn0  1  0.72627000  0.22149000  0.71962000  1.0
  Sn  Sn1  1  0.22629000  0.77844000  0.78039000  1.0
  Sn  Sn2  1  0.27372000  0.77848000  0.28038000  1.0
  Sn  Sn3  1  0.77374000  0.22148000  0.21962000  1.0
  H  H4  1  0.65675000  0.55653000  0.35860000  1.0
  H  H5  1  0.15674000  0.44347000  0.14140000  1.0
  H  H6  1  0.34326000  0.44347000  0.64139000  1.0
  H  H7  1  0.84326000  0.55653000  0.85860000  1.0
  H  H8  1  0.84024000  0.70918000  0.41549000  1.0
  H  H9  1  0.34025000  0.29083000  0.08450000  1.0
  H  H10  1  0.15976000  0.29083000  0.58451000  1.0
  H  H11  1  0.65975000  0.70917000  0.91549000  1.0
  H  H12  1  0.93508000  0.46860000  0.72505000  1.0
  H  H13  1  0.43507000  0.53142000  0.77494000  1.0
  H  H14  1  0.06492000  0.53141000  0.27495000  1.0
  H  H15  1  0.56493000  0.46859000  0.22506000  1.0
  H  H16  1  0.46422000  0.95848000  0.91734000  1.0
  H  H17  1  0.96421000  0.04153000  0.58265000  1.0
  H  H18  1  0.53579000  0.04153000  0.08266000  1.0
  H  H19  1  0.03579000  0.95848000  0.41735000  1.0
  H  H20  1  0.12357000  0.13719000  0.73675000  1.0
  H  H21  1  0.62357000  0.86281000  0.76325000  1.0
  H  H22  1  0.87644000  0.86281000  0.26326000  1.0
  H  H23  1  0.37643000  0.13719000  0.23674000  1.0
  H  H24  1  0.31897000  0.20111000  0.71368000  1.0
  H  H25  1  0.81897000  0.79889000  0.78632000  1.0
  H  H26  1  0.68103000  0.79889000  0.28632000  1.0
  H  H27  1  0.18103000  0.20112000  0.21368000  1.0
  H  H28  1  0.18534000  0.24416000  0.81679000  1.0
  H  H29  1  0.68534000  0.75583000  0.68321000  1.0
  H  H30  1  0.81466000  0.75584000  0.18321000  1.0
  H  H31  1  0.31466000  0.24417000  0.31679000  1.0
  H  H32  1  0.15877000  0.10544000  0.00284000  1.0
  H  H33  1  0.65875000  0.89456000  0.49716000  1.0
  H  H34  1  0.84124000  0.89457000  0.99716000  1.0
  H  H35  1  0.34124000  0.10544000  0.50284000  1.0
  H  H36  1  0.25154000  0.96396000  0.01449000  1.0
  H  H37  1  0.75153000  0.03603000  0.48551000  1.0
  H  H38  1  0.74847000  0.03604000  0.98551000  1.0
  H  H39  1  0.24847000  0.96397000  0.51449000  1.0
  H  H40  1  0.08117000  0.99911000  0.92676000  1.0
  H  H41  1  0.58117000  0.00089000  0.57324000  1.0
  H  H42  1  0.91883000  0.00089000  0.07324000  1.0
  H  H43  1  0.41883000  0.99912000  0.42676000  1.0
  C  C44  1  0.70462000  0.43408000  0.51178000  1.0
  C  C45  1  0.20460000  0.56592000  0.98823000  1.0
  C  C46  1  0.29538000  0.56592000  0.48822000  1.0
  C  C47  1  0.79539000  0.43408000  0.01178000  1.0
  C  C48  1  0.72185000  0.54065000  0.43821000  1.0
  C  C49  1  0.22185000  0.45935000  0.06179000  1.0
  C  C50  1  0.27815000  0.45935000  0.56178000  1.0
  C  C51  1  0.77815000  0.54065000  0.93822000  1.0
  C  C52  1  0.82154000  0.62487000  0.46995000  1.0
  C  C53  1  0.32154000  0.37514000  0.03005000  1.0
  C  C54  1  0.17846000  0.37513000  0.53005000  1.0
  C  C55  1  0.67846000  0.62487000  0.96995000  1.0
  C  C56  1  0.90079000  0.60150000  0.57360000  1.0
  C  C57  1  0.40079000  0.39850000  0.92639000  1.0
  C  C58  1  0.09921000  0.39850000  0.42639000  1.0
  C  C59  1  0.59922000  0.60150000  0.07361000  1.0
  C  C60  1  0.87630000  0.49289000  0.64316000  1.0
  C  C61  1  0.37629000  0.50712000  0.85684000  1.0
  C  C62  1  0.12370000  0.50711000  0.35684000  1.0
  C  C63  1  0.62371000  0.49289000  0.14316000  1.0
  C  C64  1  0.60325000  0.33536000  0.48348000  1.0
  C  C65  1  0.10323000  0.66464000  0.01653000  1.0
  C  C66  1  0.39676000  0.66465000  0.51652000  1.0
  C  C67  1  0.89676000  0.33535000  0.98347000  1.0
  C  C68  1  0.01334000  0.68946000  0.60780000  1.0
  C  C69  1  0.51335000  0.31055000  0.89220000  1.0
  C  C70  1  0.98665000  0.31054000  0.39220000  1.0
  C  C71  1  0.48666000  0.68946000  0.10780000  1.0
  C  C72  1  0.43387000  0.03178000  0.84874000  1.0
  C  C73  1  0.93387000  0.96823000  0.65126000  1.0
  C  C74  1  0.56613000  0.96823000  0.15126000  1.0
  C  C75  1  0.06613000  0.03178000  0.34874000  1.0
  C  C76  1  0.22669000  0.17181000  0.77663000  1.0
  C  C77  1  0.72669000  0.82819000  0.72337000  1.0
  C  C78  1  0.77331000  0.82819000  0.22337000  1.0
  C  C79  1  0.27331000  0.17181000  0.27662000  1.0
  C  C80  1  0.19035000  0.03446000  0.95762000  1.0
  C  C81  1  0.69034000  0.96554000  0.54237000  1.0
  C  C82  1  0.80966000  0.96554000  0.04237000  1.0
  C  C83  1  0.30966000  0.03446000  0.45762000  1.0
  N  N84  1  0.78038000  0.41256000  0.61207000  1.0
  N  N85  1  0.28035000  0.58744000  0.88794000  1.0
  N  N86  1  0.21963000  0.58744000  0.38793000  1.0
  N  N87  1  0.71963000  0.41255000  0.11207000  1.0
  N  N88  1  0.29191000  0.07899000  0.86150000  1.0
  N  N89  1  0.79190000  0.92100000  0.63850000  1.0
  N  N90  1  0.70810000  0.92101000  0.13850000  1.0
  N  N91  1  0.20810000  0.07900000  0.36150000  1.0
  O  O92  1  0.58111000  0.24685000  0.56496000  1.0
  O  O93  1  0.08109000  0.75313000  0.93504000  1.0
  O  O94  1  0.41889000  0.75315000  0.43504000  1.0
  O  O95  1  0.91890000  0.24685000  0.06495000  1.0
  O  O96  1  0.54774000  0.34359000  0.38626000  1.0
  O  O97  1  0.04773000  0.65641000  0.11376000  1.0
  O  O98  1  0.45227000  0.65642000  0.61374000  1.0
  O  O99  1  0.95227000  0.34359000  0.88625000  1.0
  O  O100  1  0.05068000  0.66799000  0.71469000  1.0
  O  O101  1  0.55071000  0.33201000  0.78531000  1.0
  O  O102  1  0.94927000  0.33200000  0.28532000  1.0
  O  O103  1  0.44930000  0.66799000  0.21470000  1.0
  O  O104  1  0.06346000  0.77267000  0.53617000  1.0
  O  O105  1  0.56346000  0.22734000  0.96382000  1.0
  O  O106  1  0.93654000  0.22732000  0.46384000  1.0
  O  O107  1  0.43653000  0.77267000  0.03618000  1.0
  O  O108  1  0.52682000  0.06333000  0.76661000  1.0
  O  O109  1  0.02681000  0.93668000  0.73339000  1.0
  O  O110  1  0.47319000  0.93668000  0.23339000  1.0
  O  O111  1  0.97319000  0.06332000  0.26661000  1.0
