# generated using pymatgen
data_AgH13C14(NO)2
_symmetry_space_group_name_H-M   'P 1'
_cell_length_a   8.45368000
_cell_length_b   8.75837000
_cell_length_c   10.23530000
_cell_angle_alpha   114.73000000
_cell_angle_beta   93.57880000
_cell_angle_gamma   110.21300000
_symmetry_Int_Tables_number   1
_chemical_formula_structural   AgH13C14(NO)2
_chemical_formula_sum   'Ag2 H26 C28 N4 O4'
_cell_volume   626.60368246
_cell_formula_units_Z   2
loop_
 _symmetry_equiv_pos_site_id
 _symmetry_equiv_pos_as_xyz
  1  'x, y, z'
loop_
 _atom_site_type_symbol
 _atom_site_label
 _atom_site_symmetry_multiplicity
 _atom_site_fract_x
 _atom_site_fract_y
 _atom_site_fract_z
 _atom_site_occupancy
  Ag  Ag0  1  0.32613000  0.76902000  0.43196000  1.0
  Ag  Ag1  1  0.67389000  0.23098000  0.56803000  1.0
  H  H2  1  0.13500000  0.05908000  0.69865000  1.0
  H  H3  1  0.86499000  0.94092000  0.30135000  1.0
  H  H4  1  0.91590000  0.90049000  0.61095000  1.0
  H  H5  1  0.08409000  0.09950000  0.38906000  1.0
  H  H6  1  0.07891000  0.90438000  0.50692000  1.0
  H  H7  1  0.92107000  0.09561000  0.49308000  1.0
  H  H8  1  0.99617000  0.51591000  0.90367000  1.0
  H  H9  1  0.00383000  0.48408000  0.09632000  1.0
  H  H10  1  0.17285000  0.33247000  0.87347000  1.0
  H  H11  1  0.82716000  0.66755000  0.12652000  1.0
  H  H12  1  0.36543000  0.31488000  0.69972000  1.0
  H  H13  1  0.63460000  0.68512000  0.30028000  1.0
  H  H14  1  0.38829000  0.48297000  0.55040000  1.0
  H  H15  1  0.61173000  0.51706000  0.44961000  1.0
  H  H16  1  0.80130000  0.62604000  0.80359000  1.0
  H  H17  1  0.19870000  0.37393000  0.19641000  1.0
  H  H18  1  0.82491000  0.80761000  0.76015000  1.0
  H  H19  1  0.17508000  0.19237000  0.23984000  1.0
  H  H20  1  0.84834000  0.87742000  0.03447000  1.0
  H  H21  1  0.15164000  0.12257000  0.96552000  1.0
  H  H22  1  0.05529000  0.87073000  0.03840000  1.0
  H  H23  1  0.94472000  0.12926000  0.96160000  1.0
  H  H24  1  0.51207000  0.73154000  0.02211000  1.0
  H  H25  1  0.48795000  0.26846000  0.97789000  1.0
  H  H26  1  0.60004000  0.79012000  0.81254000  1.0
  H  H27  1  0.39998000  0.20990000  0.18747000  1.0
  C  C28  1  0.05117000  0.91796000  0.61350000  1.0
  C  C29  1  0.94881000  0.08203000  0.38650000  1.0
  C  C30  1  0.09192000  0.78469000  0.64565000  1.0
  C  C31  1  0.90807000  0.21531000  0.35435000  1.0
  C  C32  1  0.10182000  0.60810000  0.74877000  1.0
  C  C33  1  0.89817000  0.39190000  0.25124000  1.0
  C  C34  1  0.08279000  0.51072000  0.82911000  1.0
  C  C35  1  0.91722000  0.48929000  0.17089000  1.0
  C  C36  1  0.18132000  0.40742000  0.81003000  1.0
  C  C37  1  0.81869000  0.59258000  0.18996000  1.0
  C  C38  1  0.29078000  0.39756000  0.71123000  1.0
  C  C39  1  0.70923000  0.60242000  0.28876000  1.0
  C  C40  1  0.30512000  0.49140000  0.62809000  1.0
  C  C41  1  0.69489000  0.50862000  0.37192000  1.0
  C  C42  1  0.21073000  0.59932000  0.64891000  1.0
  C  C43  1  0.78927000  0.40069000  0.35111000  1.0
  C  C44  1  0.89395000  0.76041000  0.81906000  1.0
  C  C45  1  0.10605000  0.23957000  0.18093000  1.0
  C  C46  1  0.96034000  0.89968000  0.98468000  1.0
  C  C47  1  0.03967000  0.10034000  0.01533000  1.0
  C  C48  1  0.39256000  0.93517000  0.24328000  1.0
  C  C49  1  0.60747000  0.06484000  0.75673000  1.0
  C  C50  1  0.44912000  0.96728000  0.11738000  1.0
  C  C51  1  0.55091000  0.03275000  0.88263000  1.0
  C  C52  1  0.50886000  0.84997000  0.01283000  1.0
  C  C53  1  0.49110000  0.15001000  0.98716000  1.0
  C  C54  1  0.55845000  0.88296000  0.89688000  1.0
  C  C55  1  0.44155000  0.11705000  0.10312000  1.0
  N  N56  1  0.20128000  0.71076000  0.58682000  1.0
  N  N57  1  0.79870000  0.28925000  0.41319000  1.0
  N  N58  1  0.02851000  0.72569000  0.74385000  1.0
  N  N59  1  0.97147000  0.27430000  0.25614000  1.0
  O  O60  1  0.32127000  0.02994000  0.32527000  1.0
  O  O61  1  0.67874000  0.97005000  0.67473000  1.0
  O  O62  1  0.42337000  0.80719000  0.25825000  1.0
  O  O63  1  0.57663000  0.19279000  0.74173000  1.0
