# generated using pymatgen
data_AlH12C24S3(NO5)3
_symmetry_space_group_name_H-M   'P 1'
_cell_length_a   4.27579000
_cell_length_b   15.65440000
_cell_length_c   15.67320000
_cell_angle_alpha   60.19510000
_cell_angle_beta   84.80990000
_cell_angle_gamma   84.51540000
_symmetry_Int_Tables_number   1
_chemical_formula_structural   AlH12C24S3(NO5)3
_chemical_formula_sum   'Al1 H12 C24 S3 N3 O15'
_cell_volume   905.02606642
_cell_formula_units_Z   1
loop_
 _symmetry_equiv_pos_site_id
 _symmetry_equiv_pos_as_xyz
  1  'x, y, z'
loop_
 _atom_site_type_symbol
 _atom_site_label
 _atom_site_symmetry_multiplicity
 _atom_site_fract_x
 _atom_site_fract_y
 _atom_site_fract_z
 _atom_site_occupancy
  Al  Al0  1  0.09797000  0.49768000  0.50040000  1.0
  H  H1  1  0.52897000  0.49257000  0.25008000  1.0
  H  H2  1  0.45649000  0.40953000  0.15306000  1.0
  H  H3  1  0.63161000  0.12647000  0.40884000  1.0
  H  H4  1  0.48243000  0.41444000  0.96094000  1.0
  H  H5  1  0.49008000  0.24826000  0.76059000  1.0
  H  H6  1  0.42286000  0.15069000  0.94355000  1.0
  H  H7  1  0.31354000  0.95755000  0.14099000  1.0
  H  H8  1  0.71567000  0.75947000  0.47598000  1.0
  H  H9  1  0.66586000  0.94332000  0.39652000  1.0
  H  H10  1  0.18425000  0.20748000  0.58855000  1.0
  H  H11  1  0.04215000  0.59307000  0.69414000  1.0
  H  H12  1  0.75497000  0.70357000  0.19858000  1.0
  C  C13  1  0.57296000  0.64435000  0.41159000  1.0
  C  C14  1  0.64106000  0.40908000  0.44135000  1.0
  C  C15  1  0.56811000  0.44082000  0.64739000  1.0
  C  C16  1  0.44237000  0.21881000  0.07234000  1.0
  C  C17  1  0.50114000  0.21249000  0.21819000  1.0
  C  C18  1  0.47587000  0.07094000  0.21283000  1.0
  C  C19  1  0.55115000  0.41233000  0.28463000  1.0
  C  C20  1  0.50867000  0.36612000  0.23055000  1.0
  C  C21  1  0.53511000  0.26285000  0.27509000  1.0
  C  C22  1  0.60450000  0.20645000  0.37451000  1.0
  C  C23  1  0.64563000  0.25301000  0.42830000  1.0
  C  C24  1  0.61964000  0.35636000  0.38427000  1.0
  C  C25  1  0.47437000  0.37855000  0.91700000  1.0
  C  C26  1  0.51006000  0.43290000  0.81490000  1.0
  C  C27  1  0.51895000  0.38650000  0.75749000  1.0
  C  C28  1  0.48255000  0.28468000  0.80473000  1.0
  C  C29  1  0.44406000  0.23014000  0.90679000  1.0
  C  C30  1  0.44401000  0.27658000  0.96377000  1.0
  C  C31  1  0.39349000  0.91404000  0.21557000  1.0
  C  C32  1  0.40499000  0.81144000  0.26193000  1.0
  C  C33  1  0.52676000  0.75451000  0.35656000  1.0
  C  C34  1  0.62049000  0.80377000  0.40337000  1.0
  C  C35  1  0.59494000  0.90599000  0.35902000  1.0
  C  C36  1  0.48586000  0.96199000  0.26377000  1.0
  S  S37  1  0.75163000  0.17386000  0.55256000  1.0
  S  S38  1  0.58003000  0.56026000  0.76497000  1.0
  S  S39  1  0.26690000  0.76607000  0.18711000  1.0
  N  N40  1  0.46470000  0.26842000  0.12102000  1.0
  N  N41  1  0.51683000  0.11326000  0.26708000  1.0
  N  N42  1  0.43475000  0.12021000  0.11543000  1.0
  O  O43  1  0.82975000  0.42174000  0.61331000  1.0
  O  O44  1  0.81339000  0.61017000  0.46365000  1.0
  O  O45  1  0.87828000  0.45940000  0.42304000  1.0
  O  O46  1  0.33945000  0.49789000  0.59937000  1.0
  O  O47  1  0.40673000  0.39989000  0.50118000  1.0
  O  O48  1  0.37102000  0.59447000  0.40377000  1.0
  O  O49  1  0.47153000  0.15619000  0.61913000  1.0
  O  O50  1  0.92536000  0.08832000  0.55819000  1.0
  O  O51  1  0.95253000  0.23969000  0.57064000  1.0
  O  O52  1  0.30078000  0.62246000  0.71841000  1.0
  O  O53  1  0.70162000  0.57172000  0.84078000  1.0
  O  O54  1  0.82260000  0.57886000  0.67897000  1.0
  O  O55  1  0.01465000  0.69938000  0.24441000  1.0
  O  O56  1  0.17846000  0.84980000  0.09523000  1.0
  O  O57  1  0.53399000  0.70089000  0.17297000  1.0
