# generated using pymatgen
data_AgH3C5O3
_symmetry_space_group_name_H-M   'P 1'
_cell_length_a   4.40636000
_cell_length_b   5.50723720
_cell_length_c   23.63190000
_cell_angle_alpha   89.99980996
_cell_angle_beta   89.99700000
_cell_angle_gamma   74.82635732
_symmetry_Int_Tables_number   1
_chemical_formula_structural   AgH3C5O3
_chemical_formula_sum   'Ag4 H12 C20 O12'
_cell_volume   553.47927768
_cell_formula_units_Z   4
loop_
 _symmetry_equiv_pos_site_id
 _symmetry_equiv_pos_as_xyz
  1  'x, y, z'
loop_
 _atom_site_type_symbol
 _atom_site_label
 _atom_site_symmetry_multiplicity
 _atom_site_fract_x
 _atom_site_fract_y
 _atom_site_fract_z
 _atom_site_occupancy
  Ag  Ag0  1  0.71485000  0.14226000  0.52452000  1.0
  Ag  Ag1  1  0.28515000  0.35774000  0.02450000  1.0
  Ag  Ag2  1  0.28513000  0.85771000  0.47549000  1.0
  Ag  Ag3  1  0.71488000  0.64233000  0.97549000  1.0
  H  H4  1  0.65924000  0.54708000  0.67968000  1.0
  H  H5  1  0.34072000  0.95287000  0.17968000  1.0
  H  H6  1  0.34074000  0.45290000  0.32032000  1.0
  H  H7  1  0.65928000  0.04709000  0.82031000  1.0
  H  H8  1  0.98078000  0.12911000  0.73859000  1.0
  H  H9  1  0.01922000  0.37087000  0.23859000  1.0
  H  H10  1  0.01925000  0.87090000  0.26142000  1.0
  H  H11  1  0.98088000  0.62907000  0.76141000  1.0
  H  H12  1  0.51585000  0.93608000  0.67389000  1.0
  H  H13  1  0.48416000  0.56393000  0.17390000  1.0
  H  H14  1  0.48414000  0.06388000  0.32611000  1.0
  H  H15  1  0.51588000  0.43611000  0.82612000  1.0
  C  C16  1  0.04985000  0.20220000  0.69945000  1.0
  C  C17  1  0.95016000  0.29780000  0.19945000  1.0
  C  C18  1  0.95017000  0.79782000  0.30056000  1.0
  C  C19  1  0.04987000  0.70219000  0.80056000  1.0
  C  C20  1  0.06522000  0.44027000  0.62264000  1.0
  C  C21  1  0.93480000  0.05972000  0.12263000  1.0
  C  C22  1  0.93472000  0.55967000  0.37736000  1.0
  C  C23  1  0.06521000  0.94030000  0.87736000  1.0
  C  C24  1  0.88620000  0.42192000  0.66934000  1.0
  C  C25  1  0.11382000  0.07809000  0.16933000  1.0
  C  C26  1  0.11381000  0.57807000  0.33066000  1.0
  C  C27  1  0.88622000  0.92190000  0.83066000  1.0
  C  C28  1  0.31748000  0.09889000  0.66914000  1.0
  C  C29  1  0.68251000  0.40110000  0.16915000  1.0
  C  C30  1  0.68251000  0.90110000  0.33085000  1.0
  C  C31  1  0.31754000  0.59893000  0.83086000  1.0
  C  C32  1  0.04006000  0.62899000  0.57755000  1.0
  C  C33  1  0.95990000  0.87105000  0.07754000  1.0
  C  C34  1  0.95986000  0.37098000  0.42245000  1.0
  C  C35  1  0.04005000  0.12906000  0.92245000  1.0
  O  O36  1  0.32945000  0.24045000  0.62241000  1.0
  O  O37  1  0.67056000  0.25953000  0.12241000  1.0
  O  O38  1  0.67050000  0.75949000  0.37759000  1.0
  O  O39  1  0.32944000  0.74053000  0.87759000  1.0
  O  O40  1  0.81001000  0.82390000  0.58227000  1.0
  O  O41  1  0.18999000  0.67607000  0.08227000  1.0
  O  O42  1  0.18993000  0.17606000  0.41773000  1.0
  O  O43  1  0.81000000  0.32395000  0.91772000  1.0
  O  O44  1  0.25217000  0.58086000  0.53941000  1.0
  O  O45  1  0.74785000  0.91916000  0.03941000  1.0
  O  O46  1  0.74779000  0.41910000  0.46059000  1.0
  O  O47  1  0.25220000  0.08092000  0.96059000  1.0
