# generated using pymatgen
data_Cu4H12C21N20
_symmetry_space_group_name_H-M   'P 1'
_cell_length_a   22.85130000
_cell_length_b   23.12320000
_cell_length_c   23.22340000
_cell_angle_alpha   89.74960000
_cell_angle_beta   89.65670000
_cell_angle_gamma   90.70190000
_symmetry_Int_Tables_number   1
_chemical_formula_structural   Cu4H12C21N20
_chemical_formula_sum   'Cu12 H36 C63 N60'
_cell_volume   12269.87042925
_cell_formula_units_Z   3
loop_
 _symmetry_equiv_pos_site_id
 _symmetry_equiv_pos_as_xyz
  1  'x, y, z'
loop_
 _atom_site_type_symbol
 _atom_site_label
 _atom_site_symmetry_multiplicity
 _atom_site_fract_x
 _atom_site_fract_y
 _atom_site_fract_z
 _atom_site_occupancy
  Cu  Cu0  1  0.81672000  0.86841000  0.21681000  1.0
  Cu  Cu1  1  0.91919000  0.77618000  0.22419000  1.0
  Cu  Cu2  1  0.81157000  0.75621000  0.14109000  1.0
  Cu  Cu3  1  0.74019000  0.12494000  0.79045000  1.0
  Cu  Cu4  1  0.84014000  0.22355000  0.78454000  1.0
  Cu  Cu5  1  0.75063000  0.22201000  0.88724000  1.0
  Cu  Cu6  1  0.20715000  0.12980000  0.22433000  1.0
  Cu  Cu7  1  0.12443000  0.23381000  0.19851000  1.0
  Cu  Cu8  1  0.22534000  0.19961000  0.10734000  1.0
  Cu  Cu9  1  0.21603000  0.90255000  0.78849000  1.0
  Cu  Cu10  1  0.11475000  0.81101000  0.76686000  1.0
  Cu  Cu11  1  0.22971000  0.77247000  0.83030000  1.0
  H  H12  1  0.85510000  0.95446000  0.31554000  1.0
  H  H13  1  0.98442000  0.82060000  0.33690000  1.0
  H  H14  1  0.68027000  0.76360000  0.09391000  1.0
  H  H15  1  0.70073000  0.93126000  0.17448000  1.0
  H  H16  1  0.00714000  0.67995000  0.17700000  1.0
  H  H17  1  0.85933000  0.65538000  0.06322000  1.0
  H  H18  1  0.76867000  0.05655000  0.67467000  1.0
  H  H19  1  0.90684000  0.18662000  0.67232000  1.0
  H  H20  1  0.65881000  0.17490000  0.97829000  1.0
  H  H21  1  0.64556000  0.04049000  0.84934000  1.0
  H  H22  1  0.92494000  0.32735000  0.82232000  1.0
  H  H23  1  0.79446000  0.33195000  0.95844000  1.0
  H  H24  1  0.15397000  0.08296000  0.34112000  1.0
  H  H25  1  0.03540000  0.22376000  0.30686000  1.0
  H  H26  1  0.32978000  0.12844000  0.05124000  1.0
  H  H27  1  0.30464000  0.03440000  0.21151000  1.0
  H  H28  1  0.07044000  0.34016000  0.13574000  1.0
  H  H29  1  0.20394000  0.29606000  0.01073000  1.0
  H  H30  1  0.17968000  0.00219000  0.69988000  1.0
  H  H31  1  0.04041000  0.87633000  0.67345000  1.0
  H  H32  1  0.35732000  0.77938000  0.88489000  1.0
  H  H33  1  0.32009000  0.96094000  0.85977000  1.0
  H  H34  1  0.02958000  0.70458000  0.79762000  1.0
  H  H35  1  0.19054000  0.64874000  0.87717000  1.0
  H  H36  1  0.90702000  0.01332000  0.41371000  1.0
  H  H37  1  0.96088000  0.12672000  0.58081000  1.0
  H  H38  1  0.08461000  0.04802000  0.43320000  1.0
  H  H39  1  0.99219000  0.94944000  0.59004000  1.0
  H  H40  1  0.61033000  0.96796000  0.08791000  1.0
  H  H41  1  0.37933000  0.94149000  0.99788000  1.0
  H  H42  1  0.56085000  0.98108000  0.92706000  1.0
  H  H43  1  0.42754000  0.05464000  0.02740000  1.0
  H  H44  1  0.92822000  0.57937000  0.99642000  1.0
  H  H45  1  0.02652000  0.42007000  0.06200000  1.0
  H  H46  1  0.11862000  0.56281000  0.94020000  1.0
  H  H47  1  0.98761000  0.41957000  0.88239000  1.0
  C  C48  1  0.88315000  0.91704000  0.31259000  1.0
  C  C49  1  0.92974000  0.90019000  0.34769000  1.0
  C  C50  1  0.94911000  0.84832000  0.32329000  1.0
  C  C51  1  0.69482000  0.80170000  0.11712000  1.0
  C  C52  1  0.66625000  0.85449000  0.12487000  1.0
  C  C53  1  0.70529000  0.88780000  0.15773000  1.0
  C  C54  1  0.96592000  0.68154000  0.15418000  1.0
  C  C55  1  0.94706000  0.64895000  0.10678000  1.0
  C  C56  1  0.89051000  0.66895000  0.09569000  1.0
  C  C57  1  0.79821000  0.09267000  0.68257000  1.0
  C  C58  1  0.84808000  0.11046000  0.65133000  1.0
  C  C59  1  0.86909000  0.15898000  0.68117000  1.0
  C  C60  1  0.66238000  0.14752000  0.94067000  1.0
  C  C61  1  0.63477000  0.09421000  0.92965000  1.0
  C  C62  1  0.65528000  0.07858000  0.87488000  1.0
  C  C63  1  0.88805000  0.32072000  0.85136000  1.0
  C  C64  1  0.87283000  0.35029000  0.90180000  1.0
  C  C65  1  0.82106000  0.32284000  0.92081000  1.0
  C  C66  1  0.13049000  0.11996000  0.32462000  1.0
  C  C67  1  0.08007000  0.14677000  0.34585000  1.0
  C  C68  1  0.07002000  0.19210000  0.30687000  1.0
  C  C69  1  0.31622000  0.11174000  0.09304000  1.0
  C  C70  1  0.33715000  0.06449000  0.12469000  1.0
  C  C71  1  0.30304000  0.06386000  0.17512000  1.0
  C  C72  1  0.10585000  0.32149000  0.11096000  1.0
  C  C73  1  0.12903000  0.33810000  0.05722000  1.0
  C  C74  1  0.17433000  0.29893000  0.04725000  1.0
  C  C75  1  0.14950000  0.96563000  0.70114000  1.0
  C  C76  1  0.09964000  0.95506000  0.66762000  1.0
  C  C77  1  0.07806000  0.90148000  0.68751000  1.0
  C  C78  1  0.33956000  0.82114000  0.87341000  1.0
  C  C79  1  0.36061000  0.87670000  0.88646000  1.0
  C  C80  1  0.32011000  0.91401000  0.86124000  1.0
  C  C81  1  0.07386000  0.69952000  0.81324000  1.0
  C  C82  1  0.09714000  0.65468000  0.84663000  1.0
  C  C83  1  0.15596000  0.67077000  0.85432000  1.0
  C  C84  1  0.01632000  0.49781000  0.97084000  1.0
  C  C85  1  0.98577000  0.03594000  0.50474000  1.0
  C  C86  1  0.49972000  0.95568000  0.03290000  1.0
  C  C87  1  0.95351000  0.92876000  0.39774000  1.0
  C  C88  1  0.93909000  0.98065000  0.42332000  1.0
  C  C89  1  0.87455000  0.08223000  0.60244000  1.0
  C  C90  1  0.92742000  0.09372000  0.57522000  1.0
  C  C91  1  0.04489000  0.12864000  0.39478000  1.0
  C  C92  1  0.05191000  0.08137000  0.43059000  1.0
  C  C93  1  0.07737000  0.98947000  0.62069000  1.0
  C  C94  1  0.02740000  0.98113000  0.58835000  1.0
  C  C95  1  0.61048000  0.87103000  0.10099000  1.0
  C  C96  1  0.59110000  0.92508000  0.08513000  1.0
  C  C97  1  0.41165000  0.89269000  0.92036000  1.0
  C  C98  1  0.41348000  0.92386000  0.97096000  1.0
  C  C99  1  0.59553000  0.06345000  0.96838000  1.0
  C  C100  1  0.56426000  0.01231000  0.96149000  1.0
  C  C101  1  0.38319000  0.02483000  0.10977000  1.0
  C  C102  1  0.42110000  0.02516000  0.06323000  1.0
  C  C103  1  0.97827000  0.60412000  0.07674000  1.0
  C  C104  1  0.96403000  0.57560000  0.02640000  1.0
  C  C105  1  0.10911000  0.38512000  0.02141000  1.0
  C  C106  1  0.06059000  0.41930000  0.02947000  1.0
  C  C107  1  0.06514000  0.60583000  0.87065000  1.0
  C  C108  1  0.07986000  0.56787000  0.91423000  1.0
  C  C109  1  0.90338000  0.39724000  0.93007000  1.0
  C  C110  1  0.95593000  0.42463000  0.91680000  1.0
  N  N111  1  0.91632000  0.83540000  0.27701000  1.0
  N  N112  1  0.87535000  0.87793000  0.27036000  1.0
  N  N113  1  0.75374000  0.85698000  0.16867000  1.0
  N  N114  1  0.74731000  0.80370000  0.14325000  1.0
  N  N115  1  0.87671000  0.71049000  0.13373000  1.0
  N  N116  1  0.92349000  0.71837000  0.16992000  1.0
  N  N117  1  0.83437000  0.16917000  0.72701000  1.0
  N  N118  1  0.79044000  0.12801000  0.72794000  1.0
  N  N119  1  0.69264000  0.11970000  0.85487000  1.0
  N  N120  1  0.69695000  0.16237000  0.89572000  1.0
  N  N121  1  0.80671000  0.27995000  0.88428000  1.0
  N  N122  1  0.84814000  0.27864000  0.84118000  1.0
  N  N123  1  0.11154000  0.19195000  0.26534000  1.0
  N  N124  1  0.14897000  0.14725000  0.27640000  1.0
  N  N125  1  0.26472000  0.10762000  0.17348000  1.0
  N  N126  1  0.27276000  0.13733000  0.12261000  1.0
  N  N127  1  0.17762000  0.26162000  0.09196000  1.0
  N  N128  1  0.13513000  0.27570000  0.13145000  1.0
  N  N129  1  0.11272000  0.88153000  0.72968000  1.0
  N  N130  1  0.15696000  0.92134000  0.73822000  1.0
  N  N131  1  0.27780000  0.88283000  0.83511000  1.0
  N  N132  1  0.28966000  0.82517000  0.84298000  1.0
  N  N133  1  0.16683000  0.72166000  0.82752000  1.0
  N  N134  1  0.11583000  0.73951000  0.80225000  1.0
  N  N135  1  0.01266000  0.93849000  0.47147000  1.0
  N  N136  1  0.99849000  0.90486000  0.42901000  1.0
  N  N137  1  0.97578000  0.98488000  0.46919000  1.0
  N  N138  1  0.88472000  0.01432000  0.53726000  1.0
  N  N139  1  0.85013000  0.03369000  0.57721000  1.0
  N  N140  1  0.93209000  0.05143000  0.53486000  1.0
  N  N141  1  0.96989000  0.12901000  0.45457000  1.0
  N  N142  1  0.99444000  0.15642000  0.41159000  1.0
  N  N143  1  0.00537000  0.08322000  0.46738000  1.0
  N  N144  1  0.07897000  0.05794000  0.55466000  1.0
  N  N145  1  0.10707000  0.03699000  0.59847000  1.0
  N  N146  1  0.03028000  0.02346000  0.54753000  1.0
  N  N147  1  0.52392000  0.85666000  0.06242000  1.0
  N  N148  1  0.56771000  0.83096000  0.08635000  1.0
  N  N149  1  0.53757000  0.91461000  0.06121000  1.0
  N  N150  1  0.50431000  0.89859000  0.94397000  1.0
  N  N151  1  0.46821000  0.87823000  0.90577000  1.0
  N  N152  1  0.47140000  0.92699000  0.98424000  1.0
  N  N153  1  0.54787000  0.04934000  0.04982000  1.0
  N  N154  1  0.58395000  0.08410000  0.02295000  1.0
  N  N155  1  0.53464000  0.00532000  0.01235000  1.0
  N  N156  1  0.43944000  0.94900000  0.12107000  1.0
  N  N157  1  0.39643000  0.97749000  0.14375000  1.0
  N  N158  1  0.45529000  0.97787000  0.07173000  1.0
  N  N159  1  0.04755000  0.54044000  0.06315000  1.0
  N  N160  1  0.02966000  0.58112000  0.09718000  1.0
  N  N161  1  0.00693000  0.53579000  0.01993000  1.0
  N  N162  1  0.10920000  0.44682000  0.94906000  1.0
  N  N163  1  0.13725000  0.40371000  0.97180000  1.0
  N  N164  1  0.06245000  0.45730000  0.98469000  1.0
  N  N165  1  0.98812000  0.54925000  0.88348000  1.0
  N  N166  1  0.00889000  0.59216000  0.85323000  1.0
  N  N167  1  0.03186000  0.53257000  0.92036000  1.0
  N  N168  1  0.91761000  0.46166000  0.99805000  1.0
  N  N169  1  0.88180000  0.42172000  0.97988000  1.0
  N  N170  1  0.96291000  0.46465000  0.95916000  1.0
