# generated using pymatgen
data_NiH17C23N3Cl4O5
_symmetry_space_group_name_H-M   'P 1'
_cell_length_a   8.44922000
_cell_length_b   17.48520000
_cell_length_c   20.77300000
_cell_angle_alpha   69.25150000
_cell_angle_beta   79.61150000
_cell_angle_gamma   82.72600000
_symmetry_Int_Tables_number   1
_chemical_formula_structural   NiH17C23N3Cl4O5
_chemical_formula_sum   'Ni4 H68 C92 N12 Cl16 O20'
_cell_volume   2816.27251348
_cell_formula_units_Z   4
loop_
 _symmetry_equiv_pos_site_id
 _symmetry_equiv_pos_as_xyz
  1  'x, y, z'
loop_
 _atom_site_type_symbol
 _atom_site_label
 _atom_site_symmetry_multiplicity
 _atom_site_fract_x
 _atom_site_fract_y
 _atom_site_fract_z
 _atom_site_occupancy
  Ni  Ni0  1  0.45741000  0.48067000  0.23542000  1.0
  Ni  Ni1  1  0.54350000  0.52028000  0.76432000  1.0
  Ni  Ni2  1  0.01185000  0.01371000  0.76899000  1.0
  Ni  Ni3  1  0.98833000  0.98640000  0.23095000  1.0
  H  H4  1  0.58488000  0.58249000  0.27104000  1.0
  H  H5  1  0.41189000  0.41734000  0.72903000  1.0
  H  H6  1  0.48011000  0.52648000  0.34135000  1.0
  H  H7  1  0.51546000  0.47262000  0.65807000  1.0
  H  H8  1  0.98428000  0.95619000  0.66877000  1.0
  H  H9  1  0.01526000  0.04387000  0.33163000  1.0
  H  H10  1  0.88120000  0.90475000  0.74162000  1.0
  H  H11  1  0.11937000  0.09491000  0.25900000  1.0
  H  H12  1  0.35935000  0.65452000  0.23682000  1.0
  H  H13  1  0.63296000  0.34922000  0.76353000  1.0
  H  H14  1  0.10681000  0.73160000  0.26770000  1.0
  H  H15  1  0.88416000  0.27081000  0.73381000  1.0
  H  H16  1  0.84315000  0.66803000  0.29305000  1.0
  H  H17  1  0.14941000  0.33339000  0.70852000  1.0
  H  H18  1  0.84672000  0.52474000  0.28888000  1.0
  H  H19  1  0.14804000  0.47679000  0.71186000  1.0
  H  H20  1  0.11203000  0.45372000  0.26067000  1.0
  H  H21  1  0.88357000  0.54953000  0.73872000  1.0
  H  H22  1  0.31410000  0.57172000  0.10737000  1.0
  H  H23  1  0.68485000  0.42770000  0.89353000  1.0
  H  H24  1  0.25970000  0.54665000  0.00286000  1.0
  H  H25  1  0.74009000  0.45296000  0.99786000  1.0
  H  H26  1  0.30995000  0.40287000  0.99846000  1.0
  H  H27  1  0.69066000  0.59678000  0.00206000  1.0
  H  H28  1  0.39542000  0.29002000  0.10458000  1.0
  H  H29  1  0.60615000  0.70967000  0.89571000  1.0
  H  H30  1  0.43287000  0.32627000  0.20608000  1.0
  H  H31  1  0.56967000  0.67346000  0.79408000  1.0
  H  H32  1  0.70670000  0.46423000  0.11851000  1.0
  H  H33  1  0.30051000  0.53399000  0.88115000  1.0
  H  H34  1  0.98050000  0.39336000  0.10262000  1.0
  H  H35  1  0.02665000  0.60447000  0.89709000  1.0
  H  H36  1  0.09805000  0.30077000  0.20934000  1.0
  H  H37  1  0.90834000  0.69691000  0.79041000  1.0
  H  H38  1  0.93942000  0.28681000  0.32606000  1.0
  H  H39  1  0.06731000  0.71112000  0.67359000  1.0
  H  H40  1  0.66508000  0.36190000  0.33252000  1.0
  H  H41  1  0.34229000  0.63683000  0.66700000  1.0
  H  H42  1  0.10728000  0.83935000  0.77763000  1.0
  H  H43  1  0.89277000  0.16074000  0.22253000  1.0
  H  H44  1  0.36102000  0.75992000  0.75300000  1.0
  H  H45  1  0.63909000  0.24016000  0.24709000  1.0
  H  H46  1  0.62408000  0.82705000  0.72116000  1.0
  H  H47  1  0.37599000  0.17306000  0.27887000  1.0
  H  H48  1  0.61679000  0.97396000  0.71563000  1.0
  H  H49  1  0.38325000  0.02621000  0.28427000  1.0
  H  H50  1  0.34956000  0.04689000  0.73879000  1.0
  H  H51  1  0.65045000  0.95333000  0.26097000  1.0
  H  H52  1  0.16633000  0.92988000  0.89527000  1.0
  H  H53  1  0.83344000  0.07021000  0.10448000  1.0
  H  H54  1  0.23292000  0.96219000  0.99446000  1.0
  H  H55  1  0.76686000  0.03800000  0.00522000  1.0
  H  H56  1  0.17693000  0.10699000  0.99525000  1.0
  H  H57  1  0.82289000  0.89324000  0.00434000  1.0
  H  H58  1  0.07190000  0.21444000  0.89074000  1.0
  H  H59  1  0.92790000  0.78569000  0.10887000  1.0
  H  H60  1  0.02484000  0.17166000  0.79387000  1.0
  H  H61  1  0.97518000  0.82848000  0.20566000  1.0
  H  H62  1  0.81022000  0.12470000  0.66932000  1.0
  H  H63  1  0.19032000  0.87548000  0.33055000  1.0
  H  H64  1  0.53726000  0.20134000  0.67304000  1.0
  H  H65  1  0.46308000  0.79868000  0.32684000  1.0
  H  H66  1  0.37962000  0.19483000  0.78861000  1.0
  H  H67  1  0.62057000  0.80516000  0.21125000  1.0
  H  H68  1  0.49632000  0.10661000  0.89699000  1.0
  H  H69  1  0.50375000  0.89327000  0.10289000  1.0
  H  H70  1  0.76760000  0.03286000  0.88388000  1.0
  H  H71  1  0.23252000  0.96709000  0.11603000  1.0
  C  C72  1  0.61925000  0.64207000  0.14901000  1.0
  C  C73  1  0.37879000  0.35622000  0.85171000  1.0
  C  C74  1  0.67882000  0.69820000  0.07613000  1.0
  C  C75  1  0.31947000  0.29974000  0.92436000  1.0
  C  C76  1  0.84187000  0.69262000  0.04822000  1.0
  C  C77  1  0.15665000  0.30566000  0.95244000  1.0
  C  C78  1  0.89770000  0.74168000  0.97993000  1.0
  C  C79  1  0.10112000  0.25710000  0.02088000  1.0
  C  C80  1  0.78991000  0.79584000  0.93831000  1.0
  C  C81  1  0.20932000  0.20324000  0.06246000  1.0
  C  C82  1  0.62695000  0.80163000  0.96626000  1.0
  C  C83  1  0.37222000  0.19735000  0.03445000  1.0
  C  C84  1  0.57110000  0.75277000  0.03464000  1.0
  C  C85  1  0.42762000  0.24563000  0.96588000  1.0
  C  C86  1  0.84926000  0.85044000  0.86483000  1.0
  C  C87  1  0.15052000  0.14884000  0.13593000  1.0
  C  C88  1  0.30223000  0.32803000  0.34725000  1.0
  C  C89  1  0.69903000  0.67252000  0.65153000  1.0
  C  C90  1  0.26589000  0.28563000  0.42589000  1.0
  C  C91  1  0.73629000  0.71595000  0.57321000  1.0
  C  C92  1  0.12299000  0.30595000  0.46416000  1.0
  C  C93  1  0.87902000  0.69557000  0.53495000  1.0
  C  C94  1  0.08932000  0.26589000  0.53630000  1.0
  C  C95  1  0.91205000  0.73530000  0.46280000  1.0
  C  C96  1  0.19797000  0.20508000  0.57181000  1.0
  C  C97  1  0.80269000  0.79574000  0.42738000  1.0
  C  C98  1  0.34048000  0.18445000  0.53350000  1.0
  C  C99  1  0.66036000  0.81650000  0.46571000  1.0
  C  C100  1  0.37377000  0.22413000  0.46129000  1.0
  C  C101  1  0.62789000  0.77716000  0.53796000  1.0
  C  C102  1  0.16268000  0.16288000  0.65041000  1.0
  C  C103  1  0.83721000  0.83773000  0.34878000  1.0
  C  C104  1  0.24347000  0.62756000  0.24903000  1.0
  C  C105  1  0.74923000  0.37570000  0.75133000  1.0
  C  C106  1  0.10146000  0.67082000  0.26532000  1.0
  C  C107  1  0.89076000  0.33175000  0.73563000  1.0
  C  C108  1  0.95518000  0.63467000  0.28008000  1.0
  C  C109  1  0.03768000  0.36726000  0.72100000  1.0
  C  C110  1  0.95758000  0.55572000  0.27786000  1.0
  C  C111  1  0.03655000  0.44634000  0.72278000  1.0
  C  C112  1  0.10474000  0.51589000  0.26187000  1.0
  C  C113  1  0.89014000  0.48718000  0.73803000  1.0
  C  C114  1  0.32829000  0.51019000  0.10458000  1.0
  C  C115  1  0.67147000  0.48930000  0.89614000  1.0
  C  C116  1  0.30002000  0.49553000  0.04616000  1.0
  C  C117  1  0.69999000  0.50405000  0.95450000  1.0
  C  C118  1  0.32672000  0.41594000  0.04425000  1.0
  C  C119  1  0.67387000  0.58370000  0.95629000  1.0
  C  C120  1  0.37653000  0.35359000  0.10209000  1.0
  C  C121  1  0.62465000  0.64606000  0.89833000  1.0
  C  C122  1  0.39996000  0.37306000  0.15890000  1.0
  C  C123  1  0.60146000  0.62663000  0.84149000  1.0
  C  C124  1  0.76259000  0.42341000  0.16287000  1.0
  C  C125  1  0.24468000  0.57489000  0.83686000  1.0
  C  C126  1  0.91461000  0.38402000  0.15463000  1.0
  C  C127  1  0.09240000  0.61402000  0.84504000  1.0
  C  C128  1  0.98014000  0.33322000  0.21363000  1.0
  C  C129  1  0.02652000  0.66468000  0.78609000  1.0
  C  C130  1  0.89060000  0.32457000  0.27886000  1.0
  C  C131  1  0.11614000  0.67352000  0.72083000  1.0
  C  C132  1  0.73954000  0.36640000  0.28294000  1.0
  C  C133  1  0.26760000  0.63215000  0.71655000  1.0
  C  C134  1  0.22238000  0.86731000  0.76335000  1.0
  C  C135  1  0.77768000  0.13280000  0.23671000  1.0
  C  C136  1  0.36554000  0.82300000  0.75017000  1.0
  C  C137  1  0.63452000  0.17711000  0.24988000  1.0
  C  C138  1  0.51083000  0.86065000  0.73241000  1.0
  C  C139  1  0.48922000  0.13947000  0.26759000  1.0
  C  C140  1  0.50643000  0.94198000  0.72904000  1.0
  C  C141  1  0.49360000  0.05818000  0.27088000  1.0
  C  C142  1  0.35862000  0.98292000  0.74216000  1.0
  C  C143  1  0.64141000  0.01727000  0.25772000  1.0
  C  C144  1  0.15044000  0.99230000  0.89605000  1.0
  C  C145  1  0.84932000  0.00781000  0.10364000  1.0
  C  C146  1  0.18541000  0.01096000  0.95153000  1.0
  C  C147  1  0.81436000  0.98920000  0.04813000  1.0
  C  C148  1  0.15551000  0.09129000  0.95141000  1.0
  C  C149  1  0.84423000  0.90889000  0.04822000  1.0
  C  C150  1  0.09546000  0.15051000  0.89442000  1.0
  C  C151  1  0.90431000  0.84962000  0.10519000  1.0
  C  C152  1  0.06619000  0.12729000  0.84037000  1.0
  C  C153  1  0.93353000  0.87284000  0.15925000  1.0
  C  C154  1  0.73595000  0.12318000  0.71827000  1.0
  C  C155  1  0.26446000  0.87688000  0.28161000  1.0
  C  C156  1  0.58557000  0.16588000  0.72093000  1.0
  C  C157  1  0.41472000  0.83410000  0.27894000  1.0
  C  C158  1  0.49656000  0.16121000  0.78551000  1.0
  C  C159  1  0.50357000  0.83871000  0.21435000  1.0
  C  C160  1  0.56162000  0.11293000  0.84536000  1.0
  C  C161  1  0.43847000  0.88698000  0.15451000  1.0
  C  C162  1  0.71263000  0.07208000  0.83876000  1.0
  C  C163  1  0.28752000  0.92788000  0.16114000  1.0
  N  N164  1  0.24600000  0.55079000  0.24785000  1.0
  N  N165  1  0.74819000  0.45274000  0.75188000  1.0
  N  N166  1  0.37857000  0.45016000  0.16001000  1.0
  N  N167  1  0.62195000  0.54943000  0.84060000  1.0
  N  N168  1  0.67576000  0.41478000  0.22584000  1.0
  N  N169  1  0.33157000  0.58389000  0.77374000  1.0
  N  N170  1  0.21817000  0.94649000  0.75880000  1.0
  N  N171  1  0.78188000  0.05366000  0.24116000  1.0
  N  N172  1  0.09102000  0.04938000  0.84133000  1.0
  N  N173  1  0.90871000  0.95070000  0.15834000  1.0
  N  N174  1  0.79934000  0.07736000  0.77631000  1.0
  N  N175  1  0.20099000  0.92270000  0.22360000  1.0
  Cl  Cl176  1  0.97261000  0.62349000  0.09880000  1.0
  Cl  Cl177  1  0.02588000  0.37487000  0.90185000  1.0
  Cl  Cl178  1  0.09996000  0.73711000  0.94704000  1.0
  Cl  Cl179  1  0.89893000  0.26169000  0.05383000  1.0
  Cl  Cl180  1  0.36899000  0.75788000  0.06750000  1.0
  Cl  Cl181  1  0.62967000  0.24067000  0.93284000  1.0
  Cl  Cl182  1  0.49633000  0.86991000  0.91496000  1.0
  Cl  Cl183  1  0.50322000  0.12948000  0.08580000  1.0
  Cl  Cl184  1  0.91167000  0.29177000  0.58215000  1.0
  Cl  Cl185  1  0.08947000  0.70932000  0.41690000  1.0
  Cl  Cl186  1  0.98751000  0.38120000  0.42170000  1.0
  Cl  Cl187  1  0.01463000  0.62039000  0.57738000  1.0
  Cl  Cl188  1  0.54910000  0.19680000  0.41494000  1.0
  Cl  Cl189  1  0.45260000  0.80420000  0.58450000  1.0
  Cl  Cl190  1  0.47539000  0.10898000  0.57600000  1.0
  Cl  Cl191  1  0.52473000  0.89153000  0.42324000  1.0
  O  O192  1  0.55787000  0.57910000  0.14959000  1.0
  O  O193  1  0.44043000  0.41864000  0.85184000  1.0
  O  O194  1  0.63493000  0.66215000  0.19995000  1.0
  O  O195  1  0.36259000  0.33707000  0.80029000  1.0
  O  O196  1  0.83286000  0.82801000  0.81509000  1.0
  O  O197  1  0.16807000  0.17111000  0.18558000  1.0
  O  O198  1  0.91094000  0.91401000  0.86227000  1.0
  O  O199  1  0.08805000  0.08540000  0.13859000  1.0
  O  O200  1  0.37762000  0.39336000  0.32958000  1.0
  O  O201  1  0.62167000  0.60821000  0.66765000  1.0
  O  O202  1  0.25709000  0.29620000  0.30914000  1.0
  O  O203  1  0.74520000  0.70224000  0.69090000  1.0
  O  O204  1  0.20968000  0.19431000  0.68844000  1.0
  O  O205  1  0.78880000  0.80657000  0.31089000  1.0
  O  O206  1  0.08661000  0.09787000  0.66848000  1.0
  O  O207  1  0.91422000  0.90246000  0.33063000  1.0
  O  O208  1  0.56257000  0.52470000  0.30254000  1.0
  O  O209  1  0.43368000  0.47489000  0.69694000  1.0
  O  O210  1  0.90382000  0.96120000  0.70720000  1.0
  O  O211  1  0.09656000  0.03856000  0.29357000  1.0
