# generated using pymatgen
data_Cd3H10(C4O7)2
_symmetry_space_group_name_H-M   'P 1'
_cell_length_a   9.07166000
_cell_length_b   14.36310000
_cell_length_c   15.53360000
_cell_angle_alpha   89.99890000
_cell_angle_beta   90.00080000
_cell_angle_gamma   89.99710000
_symmetry_Int_Tables_number   1
_chemical_formula_structural   Cd3H10(C4O7)2
_chemical_formula_sum   'Cd12 H40 C32 O56'
_cell_volume   2023.98395747
_cell_formula_units_Z   4
loop_
 _symmetry_equiv_pos_site_id
 _symmetry_equiv_pos_as_xyz
  1  'x, y, z'
loop_
 _atom_site_type_symbol
 _atom_site_label
 _atom_site_symmetry_multiplicity
 _atom_site_fract_x
 _atom_site_fract_y
 _atom_site_fract_z
 _atom_site_occupancy
  Cd  Cd0  1  0.60882000  0.12508000  0.49969000  1.0
  Cd  Cd1  1  0.60882000  0.87490000  0.50032000  1.0
  Cd  Cd2  1  0.39118000  0.37492000  0.99969000  1.0
  Cd  Cd3  1  0.39118000  0.62509000  0.00032000  1.0
  Cd  Cd4  1  0.89550000  0.00707000  0.38435000  1.0
  Cd  Cd5  1  0.89553000  0.99290000  0.61566000  1.0
  Cd  Cd6  1  0.10450000  0.49293000  0.88433000  1.0
  Cd  Cd7  1  0.10449000  0.50709000  0.11566000  1.0
  Cd  Cd8  1  0.76724000  0.27024000  0.78900000  1.0
  Cd  Cd9  1  0.76722000  0.72976000  0.21099000  1.0
  Cd  Cd10  1  0.23277000  0.22976000  0.28900000  1.0
  Cd  Cd11  1  0.23279000  0.77025000  0.71100000  1.0
  H  H12  1  0.68280000  0.31617000  0.43791000  1.0
  H  H13  1  0.68282000  0.68380000  0.56208000  1.0
  H  H14  1  0.31719000  0.18382000  0.93792000  1.0
  H  H15  1  0.31718000  0.81619000  0.06207000  1.0
  H  H16  1  0.81201000  0.09768000  0.22124000  1.0
  H  H17  1  0.81205000  0.90231000  0.77877000  1.0
  H  H18  1  0.18796000  0.40233000  0.72123000  1.0
  H  H19  1  0.18797000  0.59768000  0.27877000  1.0
  H  H20  1  0.38837000  0.22342000  0.60099000  1.0
  H  H21  1  0.38839000  0.77658000  0.39901000  1.0
  H  H22  1  0.61163000  0.27658000  0.10099000  1.0
  H  H23  1  0.61161000  0.72341000  0.89901000  1.0
  H  H24  1  0.29369000  0.20892000  0.51678000  1.0
  H  H25  1  0.29370000  0.79106000  0.48322000  1.0
  H  H26  1  0.70631000  0.29108000  0.01679000  1.0
  H  H27  1  0.70630000  0.70893000  0.98322000  1.0
  H  H28  1  0.20333000  0.99791000  0.32706000  1.0
  H  H29  1  0.20336000  0.00207000  0.67295000  1.0
  H  H30  1  0.79665000  0.50208000  0.82704000  1.0
  H  H31  1  0.79665000  0.49793000  0.17295000  1.0
  H  H32  1  0.21056000  0.90831000  0.38667000  1.0
  H  H33  1  0.21057000  0.09166000  0.61333000  1.0
  H  H34  1  0.78943000  0.59168000  0.88667000  1.0
  H  H35  1  0.78944000  0.40833000  0.11333000  1.0
  H  H36  1  0.91972000  0.33503000  0.50154000  1.0
  H  H37  1  0.91974000  0.66495000  0.49844000  1.0
  H  H38  1  0.08027000  0.16498000  0.00155000  1.0
  H  H39  1  0.08025000  0.83505000  0.99845000  1.0
  H  H40  1  0.02228000  0.19067000  0.56527000  1.0
  H  H41  1  0.02230000  0.80931000  0.43472000  1.0
  H  H42  1  0.97771000  0.30934000  0.06527000  1.0
  H  H43  1  0.97769000  0.69069000  0.93472000  1.0
  H  H44  1  0.56914000  0.03330000  0.19502000  1.0
  H  H45  1  0.56919000  0.96670000  0.80500000  1.0
  H  H46  1  0.43083000  0.46670000  0.69501000  1.0
  H  H47  1  0.43083000  0.53330000  0.30500000  1.0
  H  H48  1  0.47707000  0.94146000  0.31947000  1.0
  H  H49  1  0.47708000  0.05854000  0.68055000  1.0
  H  H50  1  0.52293000  0.55853000  0.81945000  1.0
  H  H51  1  0.52294000  0.44147000  0.18055000  1.0
  C  C52  1  0.77884000  0.27369000  0.59862000  1.0
  C  C53  1  0.77884000  0.72631000  0.40138000  1.0
  C  C54  1  0.22116000  0.22631000  0.09862000  1.0
  C  C55  1  0.22116000  0.77371000  0.90138000  1.0
  C  C56  1  0.85098000  0.27258000  0.50968000  1.0
  C  C57  1  0.85099000  0.72740000  0.49031000  1.0
  C  C58  1  0.14901000  0.22742000  0.00968000  1.0
  C  C59  1  0.14901000  0.77260000  0.99031000  1.0
  C  C60  1  0.95174000  0.18471000  0.50761000  1.0
  C  C61  1  0.95176000  0.81526000  0.49238000  1.0
  C  C62  1  0.04824000  0.31529000  0.00762000  1.0
  C  C63  1  0.04824000  0.68474000  0.99238000  1.0
  C  C64  1  0.05200000  0.19422000  0.42947000  1.0
  C  C65  1  0.05204000  0.80575000  0.57052000  1.0
  C  C66  1  0.94798000  0.30579000  0.92946000  1.0
  C  C67  1  0.94797000  0.69424000  0.07052000  1.0
  C  C68  1  0.71671000  0.92358000  0.23494000  1.0
  C  C69  1  0.71675000  0.07643000  0.76506000  1.0
  C  C70  1  0.28329000  0.57643000  0.73494000  1.0
  C  C71  1  0.28328000  0.42357000  0.26506000  1.0
  C  C72  1  0.64121000  0.01673000  0.24979000  1.0
  C  C73  1  0.64127000  0.98328000  0.75021000  1.0
  C  C74  1  0.35877000  0.48328000  0.74979000  1.0
  C  C75  1  0.35877000  0.51672000  0.25022000  1.0
  C  C76  1  0.54416000  0.00420000  0.33177000  1.0
  C  C77  1  0.54419000  0.99578000  0.66824000  1.0
  C  C78  1  0.45583000  0.49579000  0.83176000  1.0
  C  C79  1  0.45583000  0.50421000  0.16825000  1.0
  C  C80  1  0.43795000  0.08640000  0.33391000  1.0
  C  C81  1  0.43799000  0.91359000  0.66612000  1.0
  C  C82  1  0.56203000  0.41359000  0.83390000  1.0
  C  C83  1  0.56201000  0.58641000  0.16611000  1.0
  O  O84  1  0.64907000  0.24106000  0.60715000  1.0
  O  O85  1  0.64909000  0.75896000  0.39285000  1.0
  O  O86  1  0.35093000  0.25895000  0.10714000  1.0
  O  O87  1  0.35091000  0.74105000  0.89286000  1.0
  O  O88  1  0.86157000  0.30267000  0.65873000  1.0
  O  O89  1  0.86156000  0.69731000  0.34126000  1.0
  O  O90  1  0.13844000  0.19732000  0.15873000  1.0
  O  O91  1  0.13843000  0.80271000  0.84126000  1.0
  O  O92  1  0.74762000  0.26214000  0.44043000  1.0
  O  O93  1  0.74763000  0.73783000  0.55956000  1.0
  O  O94  1  0.25237000  0.23785000  0.94043000  1.0
  O  O95  1  0.25237000  0.76216000  0.05957000  1.0
  O  O96  1  0.86862000  0.10265000  0.50757000  1.0
  O  O97  1  0.86863000  0.89732000  0.49243000  1.0
  O  O98  1  0.13138000  0.39735000  0.00758000  1.0
  O  O99  1  0.13137000  0.60267000  0.99243000  1.0
  O  O100  1  0.02669000  0.14738000  0.36136000  1.0
  O  O101  1  0.02672000  0.85260000  0.63863000  1.0
  O  O102  1  0.97331000  0.35262000  0.86135000  1.0
  O  O103  1  0.97329000  0.64740000  0.13863000  1.0
  O  O104  1  0.15817000  0.25206000  0.43479000  1.0
  O  O105  1  0.15821000  0.74792000  0.56519000  1.0
  O  O106  1  0.84182000  0.24795000  0.93479000  1.0
  O  O107  1  0.84179000  0.75208000  0.06519000  1.0
  O  O108  1  0.84513000  0.91018000  0.26542000  1.0
  O  O109  1  0.84516000  0.08983000  0.73457000  1.0
  O  O110  1  0.15487000  0.58984000  0.76541000  1.0
  O  O111  1  0.15487000  0.41017000  0.23458000  1.0
  O  O112  1  0.63984000  0.86227000  0.19664000  1.0
  O  O113  1  0.63985000  0.13773000  0.80335000  1.0
  O  O114  1  0.36018000  0.63774000  0.69665000  1.0
  O  O115  1  0.36017000  0.36226000  0.30336000  1.0
  O  O116  1  0.74196000  0.09088000  0.26843000  1.0
  O  O117  1  0.74202000  0.90913000  0.73157000  1.0
  O  O118  1  0.25800000  0.40914000  0.76843000  1.0
  O  O119  1  0.25800000  0.59087000  0.23157000  1.0
  O  O120  1  0.62993000  0.99610000  0.40593000  1.0
  O  O121  1  0.62994000  0.00389000  0.59408000  1.0
  O  O122  1  0.37005000  0.50391000  0.90592000  1.0
  O  O123  1  0.37006000  0.49610000  0.09408000  1.0
  O  O124  1  0.45403000  0.15257000  0.38702000  1.0
  O  O125  1  0.45403000  0.84744000  0.61299000  1.0
  O  O126  1  0.54597000  0.34743000  0.88703000  1.0
  O  O127  1  0.54597000  0.65257000  0.11298000  1.0
  O  O128  1  0.33524000  0.08473000  0.27767000  1.0
  O  O129  1  0.33530000  0.91527000  0.72236000  1.0
  O  O130  1  0.66473000  0.41526000  0.77766000  1.0
  O  O131  1  0.66472000  0.58475000  0.22236000  1.0
  O  O132  1  0.34629000  0.17560000  0.56374000  1.0
  O  O133  1  0.34629000  0.82440000  0.43626000  1.0
  O  O134  1  0.65373000  0.32440000  0.06374000  1.0
  O  O135  1  0.65371000  0.67560000  0.93626000  1.0
  O  O136  1  0.14399000  0.95673000  0.36402000  1.0
  O  O137  1  0.14403000  0.04323000  0.63596000  1.0
  O  O138  1  0.85600000  0.54327000  0.86401000  1.0
  O  O139  1  0.85599000  0.45676000  0.13597000  1.0
