# generated using pymatgen
data_SmH6(CO3)3
_symmetry_space_group_name_H-M   'P 1'
_cell_length_a   8.33790000
_cell_length_b   9.56141000
_cell_length_c   9.61372000
_cell_angle_alpha   90.00000000
_cell_angle_beta   91.37910000
_cell_angle_gamma   89.99950000
_symmetry_Int_Tables_number   1
_chemical_formula_structural   SmH6(CO3)3
_chemical_formula_sum   'Sm4 H24 C12 O36'
_cell_volume   766.20375279
_cell_formula_units_Z   4
loop_
 _symmetry_equiv_pos_site_id
 _symmetry_equiv_pos_as_xyz
  1  'x, y, z'
loop_
 _atom_site_type_symbol
 _atom_site_label
 _atom_site_symmetry_multiplicity
 _atom_site_fract_x
 _atom_site_fract_y
 _atom_site_fract_z
 _atom_site_occupancy
  Sm  Sm0  1  0.24974000  0.50615000  0.24727000  1.0
  Sm  Sm1  1  0.75026000  0.00615000  0.25273000  1.0
  Sm  Sm2  1  0.75026000  0.49385000  0.75273000  1.0
  Sm  Sm3  1  0.24974000  0.99385000  0.74727000  1.0
  H  H4  1  0.35189000  0.81383000  0.22842000  1.0
  H  H5  1  0.64812000  0.31383000  0.27157000  1.0
  H  H6  1  0.64811000  0.18618000  0.77158000  1.0
  H  H7  1  0.35189000  0.68617000  0.72842000  1.0
  H  H8  1  0.25078000  0.78409000  0.08512000  1.0
  H  H9  1  0.74923000  0.28410000  0.41487000  1.0
  H  H10  1  0.74923000  0.21591000  0.91487000  1.0
  H  H11  1  0.25078000  0.71591000  0.58513000  1.0
  H  H12  1  0.88769000  0.54434000  0.11416000  1.0
  H  H13  1  0.11231000  0.04434000  0.38584000  1.0
  H  H14  1  0.11231000  0.45566000  0.88584000  1.0
  H  H15  1  0.88769000  0.95566000  0.61416000  1.0
  H  H16  1  0.97781000  0.69183000  0.13127000  1.0
  H  H17  1  0.02219000  0.19183000  0.36873000  1.0
  H  H18  1  0.02219000  0.30817000  0.86873000  1.0
  H  H19  1  0.97781000  0.80817000  0.63127000  1.0
  H  H20  1  0.26211000  0.23377000  0.07065000  1.0
  H  H21  1  0.73789000  0.73377000  0.42934000  1.0
  H  H22  1  0.73789000  0.76623000  0.92934000  1.0
  H  H23  1  0.26211000  0.26623000  0.57065000  1.0
  H  H24  1  0.14646000  0.20250000  0.19769000  1.0
  H  H25  1  0.85353000  0.70250000  0.30230000  1.0
  H  H26  1  0.85354000  0.79751000  0.80230000  1.0
  H  H27  1  0.14646000  0.29750000  0.69769000  1.0
  C  C28  1  0.43110000  0.51854000  0.94646000  1.0
  C  C29  1  0.56891000  0.01854000  0.55353000  1.0
  C  C30  1  0.56891000  0.48146000  0.05353000  1.0
  C  C31  1  0.43109000  0.98145000  0.44646000  1.0
  C  C32  1  0.02890000  0.57312000  0.52323000  1.0
  C  C33  1  0.97110000  0.07312000  0.97678000  1.0
  C  C34  1  0.97109000  0.42689000  0.47680000  1.0
  C  C35  1  0.02890000  0.92688000  0.02320000  1.0
  C  C36  1  0.52656000  0.57476000  0.48059000  1.0
  C  C37  1  0.47345000  0.07477000  0.01940000  1.0
  C  C38  1  0.47346000  0.42523000  0.51942000  1.0
  C  C39  1  0.52655000  0.92523000  0.98058000  1.0
  O  O40  1  0.28830000  0.51137000  0.98917000  1.0
  O  O41  1  0.71170000  0.01137000  0.51083000  1.0
  O  O42  1  0.71170000  0.48863000  0.01083000  1.0
  O  O43  1  0.28830000  0.98863000  0.48916000  1.0
  O  O44  1  0.47273000  0.55256000  0.82545000  1.0
  O  O45  1  0.52728000  0.05256000  0.67455000  1.0
  O  O46  1  0.52727000  0.44744000  0.17455000  1.0
  O  O47  1  0.47273000  0.94743000  0.32544000  1.0
  O  O48  1  0.13866000  0.62947000  0.45383000  1.0
  O  O49  1  0.86133000  0.12946000  0.04618000  1.0
  O  O50  1  0.86134000  0.37054000  0.54619000  1.0
  O  O51  1  0.13866000  0.87053000  0.95382000  1.0
  O  O52  1  0.96321000  0.62633000  0.62806000  1.0
  O  O53  1  0.03678000  0.12633000  0.87195000  1.0
  O  O54  1  0.03679000  0.37368000  0.37197000  1.0
  O  O55  1  0.96320000  0.87367000  0.12804000  1.0
  O  O56  1  0.45452000  0.63345000  0.38094000  1.0
  O  O57  1  0.54548000  0.13346000  0.11906000  1.0
  O  O58  1  0.54549000  0.36654000  0.61906000  1.0
  O  O59  1  0.45452000  0.86654000  0.88094000  1.0
  O  O60  1  0.64210000  0.62758000  0.55279000  1.0
  O  O61  1  0.35790000  0.12759000  0.94721000  1.0
  O  O62  1  0.35792000  0.37242000  0.44721000  1.0
  O  O63  1  0.64208000  0.87243000  0.05279000  1.0
  O  O64  1  0.29593000  0.74191000  0.17151000  1.0
  O  O65  1  0.70407000  0.24191000  0.32848000  1.0
  O  O66  1  0.70406000  0.25809000  0.82849000  1.0
  O  O67  1  0.29594000  0.75809000  0.67152000  1.0
  O  O68  1  0.97438000  0.59395000  0.16707000  1.0
  O  O69  1  0.02562000  0.09395000  0.33292000  1.0
  O  O70  1  0.02563000  0.40605000  0.83292000  1.0
  O  O71  1  0.97437000  0.90605000  0.66707000  1.0
  O  O72  1  0.19771000  0.27761000  0.14482000  1.0
  O  O73  1  0.80229000  0.77761000  0.35518000  1.0
  O  O74  1  0.80228000  0.72239000  0.85518000  1.0
  O  O75  1  0.19772000  0.22239000  0.64482000  1.0
