# generated using pymatgen
data_Co3H34C36(N5O9)2
_symmetry_space_group_name_H-M   'P 1'
_cell_length_a   10.38380000
_cell_length_b   12.02190000
_cell_length_c   12.45450000
_cell_angle_alpha   67.38050000
_cell_angle_beta   70.26100000
_cell_angle_gamma   65.28630000
_symmetry_Int_Tables_number   1
_chemical_formula_structural   Co3H34C36(N5O9)2
_chemical_formula_sum   'Co3 H34 C36 N10 O18'
_cell_volume   1274.34105561
_cell_formula_units_Z   1
loop_
 _symmetry_equiv_pos_site_id
 _symmetry_equiv_pos_as_xyz
  1  'x, y, z'
loop_
 _atom_site_type_symbol
 _atom_site_label
 _atom_site_symmetry_multiplicity
 _atom_site_fract_x
 _atom_site_fract_y
 _atom_site_fract_z
 _atom_site_occupancy
  Co  Co0  1  0.83604000  0.41223000  0.91064000  1.0
  Co  Co1  1  0.16225000  0.58760000  0.08972000  1.0
  Co  Co2  1  0.50346000  0.49976000  0.99811000  1.0
  H  H3  1  0.49488000  0.20448000  0.01020000  1.0
  H  H4  1  0.50436000  0.79575000  0.98986000  1.0
  H  H5  1  0.08722000  0.52675000  0.84192000  1.0
  H  H6  1  0.91176000  0.47342000  0.15825000  1.0
  H  H7  1  0.90414000  0.07753000  0.25997000  1.0
  H  H8  1  0.09646000  0.92220000  0.74009000  1.0
  H  H9  1  0.89526000  0.22768000  0.26305000  1.0
  H  H10  1  0.10483000  0.77228000  0.73690000  1.0
  H  H11  1  0.36486000  0.37073000  0.87706000  1.0
  H  H12  1  0.63415000  0.62950000  0.12295000  1.0
  H  H13  1  0.60084000  0.35855000  0.66612000  1.0
  H  H14  1  0.39954000  0.64102000  0.33367000  1.0
  H  H15  1  0.61548000  0.21694000  0.78609000  1.0
  H  H16  1  0.38496000  0.78268000  0.21382000  1.0
  H  H17  1  0.29922000  0.99130000  0.94003000  1.0
  H  H18  1  0.70006000  0.00893000  0.05993000  1.0
  H  H19  1  0.08878000  0.14659000  0.00026000  1.0
  H  H20  1  0.91053000  0.85344000  0.00013000  1.0
  H  H21  1  0.87075000  0.29268000  0.59908000  1.0
  H  H22  1  0.12961000  0.70726000  0.40089000  1.0
  H  H23  1  0.89084000  0.15960000  0.72809000  1.0
  H  H24  1  0.10963000  0.84030000  0.27189000  1.0
  H  H25  1  0.64153000  0.15370000  0.27242000  1.0
  H  H26  1  0.35916000  0.84527000  0.72777000  1.0
  H  H27  1  0.62117000  0.30375000  0.28637000  1.0
  H  H28  1  0.37874000  0.69525000  0.71435000  1.0
  H  H29  1  0.60515000  0.87519000  0.77014000  1.0
  H  H30  1  0.39525000  0.12542000  0.22952000  1.0
  H  H31  1  0.61988000  0.81493000  0.65583000  1.0
  H  H32  1  0.38047000  0.18591000  0.34365000  1.0
  H  H33  1  0.88417000  0.78343000  0.73697000  1.0
  H  H34  1  0.11618000  0.21637000  0.26320000  1.0
  H  H35  1  0.88648000  0.75697000  0.60532000  1.0
  H  H36  1  0.11399000  0.24278000  0.39482000  1.0
  C  C37  1  0.81468000  0.02139000  0.66633000  1.0
  C  C38  1  0.18592000  0.97843000  0.33368000  1.0
  C  C39  1  0.81301000  0.19736000  0.48057000  1.0
  C  C40  1  0.18758000  0.80245000  0.51939000  1.0
  C  C41  1  0.81716000  0.98992000  0.48121000  1.0
  C  C42  1  0.18343000  0.00986000  0.51883000  1.0
  C  C43  1  0.49681000  0.11529000  0.00509000  1.0
  C  C44  1  0.50243000  0.88494000  0.99493000  1.0
  C  C45  1  0.38307000  0.11094000  0.97237000  1.0
  C  C46  1  0.61616000  0.88929000  0.02767000  1.0
  C  C47  1  0.67521000  0.35389000  0.80899000  1.0
  C  C48  1  0.32499000  0.64586000  0.19070000  1.0
  C  C49  1  0.12948000  0.42442000  0.88011000  1.0
  C  C50  1  0.86948000  0.57578000  0.12009000  1.0
  C  C51  1  0.83666000  0.15979000  0.29430000  1.0
  C  C52  1  0.16375000  0.83990000  0.70578000  1.0
  C  C53  1  0.26707000  0.34832000  0.89543000  1.0
  C  C54  1  0.73195000  0.65193000  0.10460000  1.0
  C  C55  1  0.66956000  0.28784000  0.72951000  1.0
  C  C56  1  0.33078000  0.71184000  0.27036000  1.0
  C  C57  1  0.73864000  0.27204000  0.11573000  1.0
  C  C58  1  0.26118000  0.72797000  0.88487000  1.0
  C  C59  1  0.38619000  0.99576000  0.96690000  1.0
  C  C60  1  0.61308000  0.00448000  0.03308000  1.0
  C  C61  1  0.12546000  0.22859000  0.95949000  1.0
  C  C62  1  0.87365000  0.77157000  0.04086000  1.0
  C  C63  1  0.82055000  0.22292000  0.66476000  1.0
  C  C64  1  0.17993000  0.77692000  0.33518000  1.0
  C  C65  1  0.69488000  0.22408000  0.24957000  1.0
  C  C66  1  0.30531000  0.77518000  0.75087000  1.0
  C  C67  1  0.67452000  0.80169000  0.72390000  1.0
  C  C68  1  0.32574000  0.19885000  0.27579000  1.0
  C  C69  1  0.68224000  0.67205000  0.81383000  1.0
  C  C70  1  0.31749000  0.32867000  0.18565000  1.0
  C  C71  1  0.82449000  0.81463000  0.66740000  1.0
  C  C72  1  0.17604000  0.18529000  0.33260000  1.0
  N  N73  1  0.26349000  0.22391000  0.94508000  1.0
  N  N74  1  0.73562000  0.77630000  0.05506000  1.0
  N  N75  1  0.04208000  0.34902000  0.92048000  1.0
  N  N76  1  0.95688000  0.65114000  0.07992000  1.0
  N  N77  1  0.81788000  0.94725000  0.60212000  1.0
  N  N78  1  0.18305000  0.05249000  0.39786000  1.0
  N  N79  1  0.81628000  0.14428000  0.60101000  1.0
  N  N80  1  0.18442000  0.85549000  0.39894000  1.0
  N  N81  1  0.81844000  0.11464000  0.42410000  1.0
  N  N82  1  0.18226000  0.88508000  0.57591000  1.0
  O  O83  1  0.80861000  0.59298000  0.82636000  1.0
  O  O84  1  0.19071000  0.40635000  0.17224000  1.0
  O  O85  1  0.82033000  0.19754000  0.05472000  1.0
  O  O86  1  0.17798000  0.80318000  0.94479000  1.0
  O  O87  1  0.70088000  0.39714000  0.06728000  1.0
  O  O88  1  0.30050000  0.60302000  0.93428000  1.0
  O  O89  1  0.79781000  0.36283000  0.79717000  1.0
  O  O90  1  0.20159000  0.63894000  0.20172000  1.0
  O  O91  1  0.55933000  0.39437000  0.88162000  1.0
  O  O92  1  0.44133000  0.60420000  0.11915000  1.0
  O  O93  1  0.56349000  0.65156000  0.87047000  1.0
  O  O94  1  0.43568000  0.35032000  0.12998000  1.0
  O  O95  1  0.81746000  0.92209000  0.42836000  1.0
  O  O96  1  0.18271000  0.07778000  0.57180000  1.0
  O  O97  1  0.81239000  0.98017000  0.77366000  1.0
  O  O98  1  0.18784000  0.01980000  0.22641000  1.0
  O  O99  1  0.80852000  0.30813000  0.42699000  1.0
  O  O100  1  0.19182000  0.69172000  0.57302000  1.0
