# generated using pymatgen
data_TmH13C8SO12
_symmetry_space_group_name_H-M   'P 1'
_cell_length_a   9.19636000
_cell_length_b   10.48880000
_cell_length_c   15.54420000
_cell_angle_alpha   89.99980000
_cell_angle_beta   94.69680000
_cell_angle_gamma   89.99970000
_symmetry_Int_Tables_number   1
_chemical_formula_structural   TmH13C8SO12
_chemical_formula_sum   'Tm4 H52 C32 S4 O48'
_cell_volume   1494.33962253
_cell_formula_units_Z   4
loop_
 _symmetry_equiv_pos_site_id
 _symmetry_equiv_pos_as_xyz
  1  'x, y, z'
loop_
 _atom_site_type_symbol
 _atom_site_label
 _atom_site_symmetry_multiplicity
 _atom_site_fract_x
 _atom_site_fract_y
 _atom_site_fract_z
 _atom_site_occupancy
  Tm  Tm0  1  0.32070000  0.94472000  0.82574000  1.0
  Tm  Tm1  1  0.17930000  0.44472000  0.67426000  1.0
  Tm  Tm2  1  0.67930000  0.05529000  0.17427000  1.0
  Tm  Tm3  1  0.82069000  0.55528000  0.32574000  1.0
  H  H4  1  0.63641000  0.92429000  0.89274000  1.0
  H  H5  1  0.86359000  0.42428000  0.60726000  1.0
  H  H6  1  0.36358000  0.07573000  0.10725000  1.0
  H  H7  1  0.13642000  0.57570000  0.39274000  1.0
  H  H8  1  0.58053000  0.05604000  0.92183000  1.0
  H  H9  1  0.91946000  0.55604000  0.57818000  1.0
  H  H10  1  0.41946000  0.94396000  0.07819000  1.0
  H  H11  1  0.08054000  0.44395000  0.42182000  1.0
  H  H12  1  0.46430000  0.82447000  0.68512000  1.0
  H  H13  1  0.03574000  0.32446000  0.81490000  1.0
  H  H14  1  0.53573000  0.17554000  0.31488000  1.0
  H  H15  1  0.96428000  0.67553000  0.18512000  1.0
  H  H16  1  0.44061000  0.71271000  0.75045000  1.0
  H  H17  1  0.05941000  0.21269000  0.74956000  1.0
  H  H18  1  0.55940000  0.28731000  0.24954000  1.0
  H  H19  1  0.94060000  0.78730000  0.25045000  1.0
  H  H20  1  0.32318000  0.22359000  0.84559000  1.0
  H  H21  1  0.17682000  0.72358000  0.65441000  1.0
  H  H22  1  0.67680000  0.77642000  0.15440000  1.0
  H  H23  1  0.82318000  0.27642000  0.34559000  1.0
  H  H24  1  0.29233000  0.16342000  0.93947000  1.0
  H  H25  1  0.20766000  0.66338000  0.56053000  1.0
  H  H26  1  0.70765000  0.83660000  0.06053000  1.0
  H  H27  1  0.79233000  0.33659000  0.43947000  1.0
  H  H28  1  0.49599000  0.09448000  0.70678000  1.0
  H  H29  1  0.00402000  0.59449000  0.79322000  1.0
  H  H30  1  0.50401000  0.90552000  0.29321000  1.0
  H  H31  1  0.99600000  0.40551000  0.20679000  1.0
  H  H32  1  0.33182000  0.12623000  0.68018000  1.0
  H  H33  1  0.16818000  0.62627000  0.81981000  1.0
  H  H34  1  0.66818000  0.87376000  0.31982000  1.0
  H  H35  1  0.83183000  0.37375000  0.18018000  1.0
  H  H36  1  0.04444000  0.86553000  0.89879000  1.0
  H  H37  1  0.45556000  0.36551000  0.60122000  1.0
  H  H38  1  0.95556000  0.13447000  0.10121000  1.0
  H  H39  1  0.54445000  0.63448000  0.39877000  1.0
  H  H40  1  0.04255000  0.01628000  0.89321000  1.0
  H  H41  1  0.45744000  0.51626000  0.60679000  1.0
  H  H42  1  0.95746000  0.98371000  0.10679000  1.0
  H  H43  1  0.54255000  0.48372000  0.39322000  1.0
  H  H44  1  0.49735000  0.72571000  0.08863000  1.0
  H  H45  1  0.00262000  0.22568000  0.41138000  1.0
  H  H46  1  0.50264000  0.27432000  0.91136000  1.0
  H  H47  1  0.99737000  0.77430000  0.58863000  1.0
  H  H48  1  0.37113000  0.34841000  0.16429000  1.0
  H  H49  1  0.12885000  0.84840000  0.33571000  1.0
  H  H50  1  0.62887000  0.65161000  0.83572000  1.0
  H  H51  1  0.87114000  0.15160000  0.66428000  1.0
  H  H52  1  0.15319000  0.52745000  0.94006000  1.0
  H  H53  1  0.34681000  0.02744000  0.55994000  1.0
  H  H54  1  0.84680000  0.47257000  0.05995000  1.0
  H  H55  1  0.65318000  0.97254000  0.44005000  1.0
  C  C56  1  0.32453000  0.63941000  0.00922000  1.0
  C  C57  1  0.17546000  0.13939000  0.49078000  1.0
  C  C58  1  0.67548000  0.36060000  0.99077000  1.0
  C  C59  1  0.82452000  0.86059000  0.50923000  1.0
  C  C60  1  0.42854000  0.64199000  0.07941000  1.0
  C  C61  1  0.07145000  0.14195000  0.42060000  1.0
  C  C62  1  0.57148000  0.35803000  0.92059000  1.0
  C  C63  1  0.92853000  0.85802000  0.57941000  1.0
  C  C64  1  0.44858000  0.53737000  0.13468000  1.0
  C  C65  1  0.05141000  0.03735000  0.36532000  1.0
  C  C66  1  0.55144000  0.46265000  0.86531000  1.0
  C  C67  1  0.94857000  0.96263000  0.63469000  1.0
  C  C68  1  0.35732000  0.43113000  0.12195000  1.0
  C  C69  1  0.14268000  0.93111000  0.37805000  1.0
  C  C70  1  0.64269000  0.56889000  0.87805000  1.0
  C  C71  1  0.85732000  0.06888000  0.62195000  1.0
  C  C72  1  0.25017000  0.43077000  0.05272000  1.0
  C  C73  1  0.24983000  0.93075000  0.44729000  1.0
  C  C74  1  0.74984000  0.56924000  0.94729000  1.0
  C  C75  1  0.75016000  0.06923000  0.55271000  1.0
  C  C76  1  0.23400000  0.53255000  0.99512000  1.0
  C  C77  1  0.26600000  0.03254000  0.50488000  1.0
  C  C78  1  0.76601000  0.46746000  0.00488000  1.0
  C  C79  1  0.73398000  0.96744000  0.49513000  1.0
  C  C80  1  0.32316000  0.74843000  0.94802000  1.0
  C  C81  1  0.17681000  0.24843000  0.55196000  1.0
  C  C82  1  0.67681000  0.25157000  0.05197000  1.0
  C  C83  1  0.82317000  0.75156000  0.44803000  1.0
  C  C84  1  0.57298000  0.53851000  0.20219000  1.0
  C  C85  1  0.92702000  0.03849000  0.29780000  1.0
  C  C86  1  0.42704000  0.46151000  0.79780000  1.0
  C  C87  1  0.07298000  0.96151000  0.70219000  1.0
  S  S88  1  0.14202000  0.29054000  0.03465000  1.0
  S  S89  1  0.35798000  0.79053000  0.46534000  1.0
  S  S90  1  0.85798000  0.70947000  0.96535000  1.0
  S  S91  1  0.64202000  0.20946000  0.53465000  1.0
  O  O92  1  0.26975000  0.73373000  0.86967000  1.0
  O  O93  1  0.23023000  0.23375000  0.63032000  1.0
  O  O94  1  0.73021000  0.26627000  0.13032000  1.0
  O  O95  1  0.76978000  0.76624000  0.36967000  1.0
  O  O96  1  0.38035000  0.85499000  0.97092000  1.0
  O  O97  1  0.11960000  0.35498000  0.52906000  1.0
  O  O98  1  0.61962000  0.14501000  0.02907000  1.0
  O  O99  1  0.88038000  0.64501000  0.47094000  1.0
  O  O100  1  0.65451000  0.63758000  0.21244000  1.0
  O  O101  1  0.84548000  0.13756000  0.28756000  1.0
  O  O102  1  0.34551000  0.36244000  0.78756000  1.0
  O  O103  1  0.15451000  0.86244000  0.71244000  1.0
  O  O104  1  0.60242000  0.44124000  0.24949000  1.0
  O  O105  1  0.89757000  0.94123000  0.25049000  1.0
  O  O106  1  0.39759000  0.55878000  0.75049000  1.0
  O  O107  1  0.10243000  0.05877000  0.74950000  1.0
  O  O108  1  0.05376000  0.27802000  0.10916000  1.0
  O  O109  1  0.44625000  0.77802000  0.39084000  1.0
  O  O110  1  0.94626000  0.72197000  0.89085000  1.0
  O  O111  1  0.55375000  0.22198000  0.60916000  1.0
  O  O112  1  0.25054000  0.18523000  0.03525000  1.0
  O  O113  1  0.24946000  0.68521000  0.46474000  1.0
  O  O114  1  0.74946000  0.81478000  0.96474000  1.0
  O  O115  1  0.75053000  0.31478000  0.53525000  1.0
  O  O116  1  0.05806000  0.30518000  0.95141000  1.0
  O  O117  1  0.44194000  0.80517000  0.54859000  1.0
  O  O118  1  0.94193000  0.69483000  0.04860000  1.0
  O  O119  1  0.55807000  0.19480000  0.45140000  1.0
  O  O120  1  0.57139000  0.99515000  0.87311000  1.0
  O  O121  1  0.92860000  0.49514000  0.62689000  1.0
  O  O122  1  0.42860000  0.00487000  0.12689000  1.0
  O  O123  1  0.07139000  0.50485000  0.37311000  1.0
  O  O124  1  0.46410000  0.80567000  0.74689000  1.0
  O  O125  1  0.03595000  0.30566000  0.75313000  1.0
  O  O126  1  0.53593000  0.19435000  0.25311000  1.0
  O  O127  1  0.96410000  0.69435000  0.24689000  1.0
  O  O128  1  0.32025000  0.14370000  0.87979000  1.0
  O  O129  1  0.17975000  0.64368000  0.62021000  1.0
  O  O130  1  0.67976000  0.85632000  0.12021000  1.0
  O  O131  1  0.82025000  0.35631000  0.37979000  1.0
  O  O132  1  0.39755000  0.06299000  0.71278000  1.0
  O  O133  1  0.10246000  0.56300000  0.78723000  1.0
  O  O134  1  0.60246000  0.93701000  0.28723000  1.0
  O  O135  1  0.89755000  0.43700000  0.21278000  1.0
  O  O136  1  0.10645000  0.94335000  0.90496000  1.0
  O  O137  1  0.39354000  0.44334000  0.59503000  1.0
  O  O138  1  0.89355000  0.05664000  0.09506000  1.0
  O  O139  1  0.60645000  0.55664000  0.40495000  1.0
