# generated using pymatgen
data_ZnH18C27(NO2)4
_symmetry_space_group_name_H-M   'P 1'
_cell_length_a   8.44352000
_cell_length_b   10.38430000
_cell_length_c   14.65550000
_cell_angle_alpha   92.33970000
_cell_angle_beta   100.08100000
_cell_angle_gamma   102.32400000
_symmetry_Int_Tables_number   1
_chemical_formula_structural   ZnH18C27(NO2)4
_chemical_formula_sum   'Zn2 H36 C54 N8 O16'
_cell_volume   1231.91235367
_cell_formula_units_Z   2
loop_
 _symmetry_equiv_pos_site_id
 _symmetry_equiv_pos_as_xyz
  1  'x, y, z'
loop_
 _atom_site_type_symbol
 _atom_site_label
 _atom_site_symmetry_multiplicity
 _atom_site_fract_x
 _atom_site_fract_y
 _atom_site_fract_z
 _atom_site_occupancy
  Zn  Zn0  1  0.63956000  0.96128000  0.55474000  1.0
  Zn  Zn1  1  0.36044000  0.03872000  0.44526000  1.0
  H  H2  1  0.99857000  0.05139000  0.58908000  1.0
  H  H3  1  0.00143000  0.94862000  0.41093000  1.0
  H  H4  1  0.24360000  0.01604000  0.70098000  1.0
  H  H5  1  0.75640000  0.98396000  0.29902000  1.0
  H  H6  1  0.91202000  0.72513000  0.82044000  1.0
  H  H7  1  0.08799000  0.27488000  0.17956000  1.0
  H  H8  1  0.67822000  0.77022000  0.70159000  1.0
  H  H9  1  0.32179000  0.22978000  0.29841000  1.0
  H  H10  1  0.65850000  0.02828000  0.81823000  1.0
  H  H11  1  0.34150000  0.97172000  0.18176000  1.0
  H  H12  1  0.91797000  0.01989000  0.93214000  1.0
  H  H13  1  0.08203000  0.98011000  0.06785000  1.0
  H  H14  1  0.64964000  0.76723000  0.09024000  1.0
  H  H15  1  0.35038000  0.23279000  0.90977000  1.0
  H  H16  1  0.38090000  0.76853000  0.98512000  1.0
  H  H17  1  0.61911000  0.23148000  0.01489000  1.0
  H  H18  1  0.37693000  0.64961000  0.69207000  1.0
  H  H19  1  0.62307000  0.35040000  0.30793000  1.0
  H  H20  1  0.88494000  0.42365000  0.69308000  1.0
  H  H21  1  0.11505000  0.57634000  0.30691000  1.0
  H  H22  1  0.96671000  0.71608000  0.49655000  1.0
  H  H23  1  0.03329000  0.28391000  0.50345000  1.0
  H  H24  1  0.23299000  0.54429000  0.84933000  1.0
  H  H25  1  0.76701000  0.45570000  0.15067000  1.0
  H  H26  1  0.10658000  0.38900000  0.80537000  1.0
  H  H27  1  0.89342000  0.61099000  0.19463000  1.0
  H  H28  1  0.51329000  0.54328000  0.90188000  1.0
  H  H29  1  0.48671000  0.45672000  0.09811000  1.0
  H  H30  1  0.73359000  0.25564000  0.78168000  1.0
  H  H31  1  0.26640000  0.74436000  0.21832000  1.0
  H  H32  1  0.23828000  0.27831000  0.66600000  1.0
  H  H33  1  0.76171000  0.72169000  0.33399000  1.0
  H  H34  1  0.55736000  0.58194000  0.45980000  1.0
  H  H35  1  0.44265000  0.41806000  0.54020000  1.0
  H  H36  1  0.92180000  0.57710000  0.01566000  1.0
  H  H37  1  0.07820000  0.42289000  0.98434000  1.0
  C  C38  1  0.98543000  0.98018000  0.64142000  1.0
  C  C39  1  0.01458000  0.01982000  0.35858000  1.0
  C  C40  1  0.12004000  0.96146000  0.70361000  1.0
  C  C41  1  0.87996000  0.03855000  0.29639000  1.0
  C  C42  1  0.09527000  0.86850000  0.76934000  1.0
  C  C43  1  0.90474000  0.13151000  0.23067000  1.0
  C  C44  1  0.93494000  0.79762000  0.76991000  1.0
  C  C45  1  0.06506000  0.20238000  0.23010000  1.0
  C  C46  1  0.80587000  0.82231000  0.70479000  1.0
  C  C47  1  0.19413000  0.17769000  0.29521000  1.0
  C  C48  1  0.50248000  0.89800000  0.89339000  1.0
  C  C49  1  0.49752000  0.10201000  0.10661000  1.0
  C  C50  1  0.65478000  0.96965000  0.87823000  1.0
  C  C51  1  0.34522000  0.03035000  0.12177000  1.0
  C  C52  1  0.79711000  0.96375000  0.94111000  1.0
  C  C53  1  0.20289000  0.03625000  0.05888000  1.0
  C  C54  1  0.64753000  0.82346000  0.02891000  1.0
  C  C55  1  0.35248000  0.17655000  0.97110000  1.0
  C  C56  1  0.49819000  0.82228000  0.97047000  1.0
  C  C57  1  0.50181000  0.17773000  0.02953000  1.0
  C  C58  1  0.18387000  0.69207000  0.58990000  1.0
  C  C59  1  0.81613000  0.30793000  0.41010000  1.0
  C  C60  1  0.24475000  0.62483000  0.66411000  1.0
  C  C61  1  0.75525000  0.37516000  0.33589000  1.0
  C  C62  1  0.13890000  0.52966000  0.70367000  1.0
  C  C63  1  0.86110000  0.47033000  0.29633000  1.0
  C  C64  1  0.97061000  0.49873000  0.66503000  1.0
  C  C65  1  0.02939000  0.50126000  0.33497000  1.0
  C  C66  1  0.90809000  0.56521000  0.59025000  1.0
  C  C67  1  0.09191000  0.43479000  0.40974000  1.0
  C  C68  1  0.01465000  0.66267000  0.55339000  1.0
  C  C69  1  0.98535000  0.33733000  0.44661000  1.0
  C  C70  1  0.29784000  0.79981000  0.55232000  1.0
  C  C71  1  0.70216000  0.20019000  0.44768000  1.0
  C  C72  1  0.72794000  0.53367000  0.55214000  1.0
  C  C73  1  0.27204000  0.46631000  0.44787000  1.0
  C  C74  1  0.20490000  0.46880000  0.79027000  1.0
  C  C75  1  0.79509000  0.53120000  0.20972000  1.0
  C  C76  1  0.35656000  0.41522000  0.78604000  1.0
  C  C77  1  0.64345000  0.58478000  0.21396000  1.0
  C  C78  1  0.50393000  0.46255000  0.84980000  1.0
  C  C79  1  0.49607000  0.53744000  0.15020000  1.0
  C  C80  1  0.63964000  0.40448000  0.84863000  1.0
  C  C81  1  0.36035000  0.59551000  0.15137000  1.0
  C  C82  1  0.62854000  0.30035000  0.78282000  1.0
  C  C83  1  0.37145000  0.69964000  0.21718000  1.0
  C  C84  1  0.48454000  0.25598000  0.71663000  1.0
  C  C85  1  0.51546000  0.74402000  0.28337000  1.0
  C  C86  1  0.34957000  0.31318000  0.71868000  1.0
  C  C87  1  0.65042000  0.68682000  0.28132000  1.0
  C  C88  1  0.79673000  0.44850000  0.91605000  1.0
  C  C89  1  0.20327000  0.55149000  0.08395000  1.0
  C  C90  1  0.48147000  0.15211000  0.64168000  1.0
  C  C91  1  0.51852000  0.84789000  0.35832000  1.0
  N  N92  1  0.83048000  0.91173000  0.64184000  1.0
  N  N93  1  0.16953000  0.08827000  0.35817000  1.0
  N  N94  1  0.22692000  0.84070000  0.83513000  1.0
  N  N95  1  0.77308000  0.15931000  0.16487000  1.0
  N  N96  1  0.36396000  0.91536000  0.82998000  1.0
  N  N97  1  0.63604000  0.08464000  0.17003000  1.0
  N  N98  1  0.79483000  0.89264000  0.01565000  1.0
  N  N99  1  0.20519000  0.10737000  0.98434000  1.0
  O  O100  1  0.23124000  0.86925000  0.49422000  1.0
  O  O101  1  0.76875000  0.13076000  0.50579000  1.0
  O  O102  1  0.45207000  0.81461000  0.58294000  1.0
  O  O103  1  0.54792000  0.18540000  0.41706000  1.0
  O  O104  1  0.68356000  0.60470000  0.48381000  1.0
  O  O105  1  0.31644000  0.39531000  0.51618000  1.0
  O  O106  1  0.62907000  0.44795000  0.58398000  1.0
  O  O107  1  0.37094000  0.55208000  0.41602000  1.0
  O  O108  1  0.90993000  0.38755000  0.91846000  1.0
  O  O109  1  0.09006000  0.61244000  0.08155000  1.0
  O  O110  1  0.80735000  0.55445000  0.97207000  1.0
  O  O111  1  0.19265000  0.44553000  0.02794000  1.0
  O  O112  1  0.59688000  0.09001000  0.65447000  1.0
  O  O113  1  0.40312000  0.90999000  0.34553000  1.0
  O  O114  1  0.36487000  0.13544000  0.57128000  1.0
  O  O115  1  0.63513000  0.86456000  0.42872000  1.0
