# generated using pymatgen
data_ZnH16C22(N3O)2
_symmetry_space_group_name_H-M   'P 1'
_cell_length_a   8.24194000
_cell_length_b   9.99023000
_cell_length_c   12.49660000
_cell_angle_alpha   78.06750000
_cell_angle_beta   80.34930000
_cell_angle_gamma   81.37490000
_symmetry_Int_Tables_number   1
_chemical_formula_structural   ZnH16C22(N3O)2
_chemical_formula_sum   'Zn2 H32 C44 N12 O4'
_cell_volume   985.35780937
_cell_formula_units_Z   2
loop_
 _symmetry_equiv_pos_site_id
 _symmetry_equiv_pos_as_xyz
  1  'x, y, z'
loop_
 _atom_site_type_symbol
 _atom_site_label
 _atom_site_symmetry_multiplicity
 _atom_site_fract_x
 _atom_site_fract_y
 _atom_site_fract_z
 _atom_site_occupancy
  Zn  Zn0  1  0.71195000  0.75366000  0.72856000  1.0
  Zn  Zn1  1  0.28806000  0.24633000  0.27144000  1.0
  H  H2  1  0.52369000  0.05170000  0.75679000  1.0
  H  H3  1  0.47631000  0.94831000  0.24320000  1.0
  H  H4  1  0.44839000  0.77294000  0.56437000  1.0
  H  H5  1  0.55163000  0.22704000  0.43563000  1.0
  H  H6  1  0.26646000  0.89450000  0.41083000  1.0
  H  H7  1  0.73354000  0.10548000  0.58916000  1.0
  H  H8  1  0.98843000  0.07669000  0.67773000  1.0
  H  H9  1  0.01158000  0.92331000  0.32226000  1.0
  H  H10  1  0.79572000  0.73075000  0.46650000  1.0
  H  H11  1  0.20428000  0.26925000  0.53350000  1.0
  H  H12  1  0.09148000  0.61651000  0.72438000  1.0
  H  H13  1  0.90854000  0.38347000  0.27562000  1.0
  H  H14  1  0.34466000  0.43069000  0.68702000  1.0
  H  H15  1  0.65535000  0.56930000  0.31298000  1.0
  H  H16  1  0.36176000  0.65537000  0.35128000  1.0
  H  H17  1  0.63824000  0.34461000  0.64873000  1.0
  H  H18  1  0.72016000  0.39712000  0.83990000  1.0
  H  H19  1  0.27983000  0.60288000  0.16010000  1.0
  H  H20  1  0.35675000  0.74312000  0.82443000  1.0
  H  H21  1  0.64325000  0.25689000  0.17557000  1.0
  H  H22  1  0.13727000  0.70144000  0.00917000  1.0
  H  H23  1  0.86271000  0.29858000  0.99084000  1.0
  H  H24  1  0.14957000  0.31847000  0.89830000  1.0
  H  H25  1  0.85042000  0.68154000  0.10170000  1.0
  H  H26  1  0.08669000  0.93068000  0.81724000  1.0
  H  H27  1  0.91332000  0.06932000  0.18276000  1.0
  H  H28  1  0.72390000  0.95459000  0.10541000  1.0
  H  H29  1  0.27609000  0.04542000  0.89458000  1.0
  H  H30  1  0.08090000  0.63482000  0.38524000  1.0
  H  H31  1  0.91909000  0.36518000  0.61477000  1.0
  H  H32  1  0.44011000  0.31325000  0.94392000  1.0
  H  H33  1  0.55987000  0.68677000  0.05609000  1.0
  C  C34  1  0.46565000  0.00671000  0.70279000  1.0
  C  C35  1  0.53435000  0.99329000  0.29721000  1.0
  C  C36  1  0.42645000  0.86239000  0.60376000  1.0
  C  C37  1  0.57357000  0.13760000  0.39624000  1.0
  C  C38  1  0.29451000  0.96704000  0.60338000  1.0
  C  C39  1  0.70550000  0.03295000  0.39661000  1.0
  C  C40  1  0.14563000  0.98301000  0.55099000  1.0
  C  C41  1  0.85437000  0.01698000  0.44899000  1.0
  C  C42  1  0.14875000  0.93888000  0.45083000  1.0
  C  C43  1  0.85125000  0.06111000  0.54916000  1.0
  C  C44  1  0.99335000  0.04415000  0.59906000  1.0
  C  C45  1  0.00667000  0.95584000  0.40093000  1.0
  C  C46  1  0.89837000  0.68843000  0.51271000  1.0
  C  C47  1  0.10164000  0.31156000  0.48730000  1.0
  C  C48  1  0.05698000  0.62666000  0.64281000  1.0
  C  C49  1  0.94302000  0.37333000  0.35719000  1.0
  C  C50  1  0.15524000  0.60154000  0.54607000  1.0
  C  C51  1  0.84476000  0.39845000  0.45394000  1.0
  C  C52  1  0.32955000  0.54942000  0.52227000  1.0
  C  C53  1  0.67045000  0.45058000  0.47773000  1.0
  C  C54  1  0.41255000  0.46289000  0.60527000  1.0
  C  C55  1  0.58746000  0.53710000  0.39474000  1.0
  C  C56  1  0.42050000  0.58518000  0.41670000  1.0
  C  C57  1  0.57950000  0.41480000  0.58329000  1.0
  C  C58  1  0.60153000  0.46042000  0.84766000  1.0
  C  C59  1  0.39846000  0.53958000  0.15235000  1.0
  C  C60  1  0.41043000  0.63666000  0.84423000  1.0
  C  C61  1  0.58956000  0.36335000  0.15577000  1.0
  C  C62  1  0.33476000  0.52237000  0.89827000  1.0
  C  C63  1  0.66523000  0.47764000  0.10173000  1.0
  C  C64  1  0.16399000  0.51054000  0.94876000  1.0
  C  C65  1  0.83600000  0.48949000  0.05125000  1.0
  C  C66  1  0.07724000  0.61264000  0.00586000  1.0
  C  C67  1  0.92276000  0.38738000  0.99415000  1.0
  C  C68  1  0.08430000  0.39820000  0.94274000  1.0
  C  C69  1  0.91569000  0.60183000  0.05726000  1.0
  C  C70  1  0.77965000  0.86009000  0.91201000  1.0
  C  C71  1  0.22035000  0.13992000  0.08797000  1.0
  C  C72  1  0.89226000  0.93524000  0.95615000  1.0
  C  C73  1  0.10774000  0.06477000  0.04384000  1.0
  C  C74  1  0.04872000  0.96141000  0.89723000  1.0
  C  C75  1  0.95128000  0.03859000  0.10276000  1.0
  C  C76  1  0.84481000  0.97470000  0.05932000  1.0
  C  C77  1  0.15518000  0.02531000  0.94067000  1.0
  N  N78  1  0.53492000  0.88734000  0.66788000  1.0
  N  N79  1  0.46508000  0.11265000  0.33212000  1.0
  N  N80  1  0.32144000  0.05887000  0.66641000  1.0
  N  N81  1  0.67856000  0.94112000  0.33358000  1.0
  N  N82  1  0.89862000  0.67969000  0.62068000  1.0
  N  N83  1  0.10138000  0.32030000  0.37933000  1.0
  N  N84  1  0.05040000  0.64122000  0.46616000  1.0
  N  N85  1  0.94960000  0.35878000  0.53385000  1.0
  N  N86  1  0.57618000  0.59677000  0.81279000  1.0
  N  N87  1  0.42381000  0.40324000  0.18721000  1.0
  N  N88  1  0.45816000  0.41145000  0.89882000  1.0
  N  N89  1  0.54183000  0.58857000  0.10118000  1.0
  O  O90  1  0.64300000  0.83151000  0.96750000  1.0
  O  O91  1  0.35700000  0.16849000  0.03249000  1.0
  O  O92  1  0.83839000  0.82832000  0.81660000  1.0
  O  O93  1  0.16161000  0.17169000  0.18339000  1.0
