# generated using pymatgen
data_DyH31C27O14
_symmetry_space_group_name_H-M   'P 1'
_cell_length_a   9.16522000
_cell_length_b   12.61580000
_cell_length_c   13.20140000
_cell_angle_alpha   92.86630000
_cell_angle_beta   94.51520000
_cell_angle_gamma   92.31420000
_symmetry_Int_Tables_number   1
_chemical_formula_structural   DyH31C27O14
_chemical_formula_sum   'Dy2 H62 C54 O28'
_cell_volume   1518.28554301
_cell_formula_units_Z   2
loop_
 _symmetry_equiv_pos_site_id
 _symmetry_equiv_pos_as_xyz
  1  'x, y, z'
loop_
 _atom_site_type_symbol
 _atom_site_label
 _atom_site_symmetry_multiplicity
 _atom_site_fract_x
 _atom_site_fract_y
 _atom_site_fract_z
 _atom_site_occupancy
  Dy  Dy0  1  0.74707000  0.49115000  0.49036000  1.0
  Dy  Dy1  1  0.25292000  0.50885000  0.50965000  1.0
  H  H2  1  0.64789000  0.28426000  0.43170000  1.0
  H  H3  1  0.35212000  0.71574000  0.56830000  1.0
  H  H4  1  0.49609000  0.33907000  0.40586000  1.0
  H  H5  1  0.50390000  0.66093000  0.59414000  1.0
  H  H6  1  0.80637000  0.46915000  0.28776000  1.0
  H  H7  1  0.19362000  0.53084000  0.71224000  1.0
  H  H8  1  0.96579000  0.43803000  0.33221000  1.0
  H  H9  1  0.03420000  0.56197000  0.66779000  1.0
  H  H10  1  0.23006000  0.59325000  0.27223000  1.0
  H  H11  1  0.76993000  0.40676000  0.72777000  1.0
  H  H12  1  0.55514000  0.79985000  0.06214000  1.0
  H  H13  1  0.44486000  0.20016000  0.93787000  1.0
  H  H14  1  0.66076000  0.70692000  0.21126000  1.0
  H  H15  1  0.33923000  0.29309000  0.78875000  1.0
  H  H16  1  0.03218000  0.53998000  0.16986000  1.0
  H  H17  1  0.96782000  0.46002000  0.83015000  1.0
  H  H18  1  0.88931000  0.62284000  0.12331000  1.0
  H  H19  1  0.11068000  0.37716000  0.87671000  1.0
  H  H20  1  0.99185000  0.65747000  0.24282000  1.0
  H  H21  1  0.00814000  0.34253000  0.75720000  1.0
  H  H22  1  0.40678000  0.92261000  0.98244000  1.0
  H  H23  1  0.59321000  0.07739000  0.01756000  1.0
  H  H24  1  0.27945000  0.88021000  0.87703000  1.0
  H  H25  1  0.72054000  0.11978000  0.12298000  1.0
  H  H26  1  0.43663000  0.80374000  0.90602000  1.0
  H  H27  1  0.56336000  0.19626000  0.09399000  1.0
  H  H28  1  0.62492000  0.81555000  0.68854000  1.0
  H  H29  1  0.37510000  0.18447000  0.31145000  1.0
  H  H30  1  0.97074000  0.75254000  0.98667000  1.0
  H  H31  1  0.02925000  0.24745000  0.01334000  1.0
  H  H32  1  0.94671000  0.62522000  0.83817000  1.0
  H  H33  1  0.05329000  0.37477000  0.16184000  1.0
  H  H34  1  0.60922000  0.99623000  0.68941000  1.0
  H  H35  1  0.39082000  0.00380000  0.31058000  1.0
  H  H36  1  0.49867000  0.06611000  0.77435000  1.0
  H  H37  1  0.50138000  0.93392000  0.22564000  1.0
  H  H38  1  0.45575000  0.92874000  0.73785000  1.0
  H  H39  1  0.54428000  0.07130000  0.26214000  1.0
  H  H40  1  0.87529000  0.83836000  0.12644000  1.0
  H  H41  1  0.12469000  0.16164000  0.87356000  1.0
  H  H42  1  0.89450000  0.97991000  0.14486000  1.0
  H  H43  1  0.10548000  0.02009000  0.85515000  1.0
  H  H44  1  0.02244000  0.90946000  0.07347000  1.0
  H  H45  1  0.97756000  0.09054000  0.92655000  1.0
  H  H46  1  0.75812000  0.75208000  0.45864000  1.0
  H  H47  1  0.24187000  0.24791000  0.54137000  1.0
  H  H48  1  0.09779000  0.02043000  0.32783000  1.0
  H  H49  1  0.90221000  0.97956000  0.67213000  1.0
  H  H50  1  0.18545000  0.84301000  0.37232000  1.0
  H  H51  1  0.81456000  0.15696000  0.62766000  1.0
  H  H52  1  0.51631000  0.80130000  0.39937000  1.0
  H  H53  1  0.48368000  0.19870000  0.60064000  1.0
  H  H54  1  0.44379000  0.90863000  0.47229000  1.0
  H  H55  1  0.55622000  0.09138000  0.52770000  1.0
  H  H56  1  0.58826000  0.83318000  0.52780000  1.0
  H  H57  1  0.41174000  0.16683000  0.47220000  1.0
  H  H58  1  0.01183000  0.18025000  0.37177000  1.0
  H  H59  1  0.98816000  0.81974000  0.62822000  1.0
  H  H60  1  0.85501000  0.23399000  0.30622000  1.0
  H  H61  1  0.14498000  0.76600000  0.69377000  1.0
  H  H62  1  0.95978000  0.13756000  0.24210000  1.0
  H  H63  1  0.04021000  0.86242000  0.75790000  1.0
  C  C64  1  0.51425000  0.58906000  0.33935000  1.0
  C  C65  1  0.48575000  0.41094000  0.66066000  1.0
  C  C66  1  0.45175000  0.64424000  0.25026000  1.0
  C  C67  1  0.54824000  0.35577000  0.74975000  1.0
  C  C68  1  0.29935000  0.63864000  0.22539000  1.0
  C  C69  1  0.70064000  0.36137000  0.77461000  1.0
  C  C70  1  0.23977000  0.68793000  0.14114000  1.0
  C  C71  1  0.76022000  0.31208000  0.85887000  1.0
  C  C72  1  0.33230000  0.74701000  0.08094000  1.0
  C  C73  1  0.66769000  0.25299000  0.91906000  1.0
  C  C74  1  0.48353000  0.75379000  0.10711000  1.0
  C  C75  1  0.51646000  0.24621000  0.89290000  1.0
  C  C76  1  0.54305000  0.70178000  0.19066000  1.0
  C  C77  1  0.45696000  0.29824000  0.80935000  1.0
  C  C78  1  0.99725000  0.62213000  0.16539000  1.0
  C  C79  1  0.00274000  0.37787000  0.83463000  1.0
  C  C80  1  0.35395000  0.85334000  0.93842000  1.0
  C  C81  1  0.64604000  0.14665000  0.06159000  1.0
  C  C82  1  0.77200000  0.63677000  0.66375000  1.0
  C  C83  1  0.22800000  0.36323000  0.33625000  1.0
  C  C84  1  0.78327000  0.71136000  0.75402000  1.0
  C  C85  1  0.21673000  0.28864000  0.24599000  1.0
  C  C86  1  0.69959000  0.80272000  0.75446000  1.0
  C  C87  1  0.30043000  0.19728000  0.24554000  1.0
  C  C88  1  0.71163000  0.87539000  0.83775000  1.0
  C  C89  1  0.28838000  0.12462000  0.16225000  1.0
  C  C90  1  0.80840000  0.85618000  0.92404000  1.0
  C  C91  1  0.19162000  0.14383000  0.07595000  1.0
  C  C92  1  0.89229000  0.76617000  0.92290000  1.0
  C  C93  1  0.10771000  0.23382000  0.07710000  1.0
  C  C94  1  0.87942000  0.69435000  0.83854000  1.0
  C  C95  1  0.12057000  0.30564000  0.16147000  1.0
  C  C96  1  0.54460000  0.98957000  0.75584000  1.0
  C  C97  1  0.45543000  0.01046000  0.24415000  1.0
  C  C98  1  0.90763000  0.91230000  0.09172000  1.0
  C  C99  1  0.09236000  0.08770000  0.90828000  1.0
  C  C100  1  0.02879000  0.68285000  0.44901000  1.0
  C  C101  1  0.97123000  0.31714000  0.55099000  1.0
  C  C102  1  0.97676000  0.78739000  0.41833000  1.0
  C  C103  1  0.02324000  0.21260000  0.58167000  1.0
  C  C104  1  0.83035000  0.81192000  0.42983000  1.0
  C  C105  1  0.16967000  0.18808000  0.57017000  1.0
  C  C106  1  0.78116000  0.91148000  0.40800000  1.0
  C  C107  1  0.21885000  0.08851000  0.59198000  1.0
  C  C108  1  0.87811000  0.98795000  0.37012000  1.0
  C  C109  1  0.12189000  0.01202000  0.62984000  1.0
  C  C110  1  0.02285000  0.96223000  0.35681000  1.0
  C  C111  1  0.97713000  0.03774000  0.64314000  1.0
  C  C112  1  0.07246000  0.86287000  0.38165000  1.0
  C  C113  1  0.92754000  0.13712000  0.61833000  1.0
  C  C114  1  0.54260000  0.86644000  0.45730000  1.0
  C  C115  1  0.45740000  0.13356000  0.54269000  1.0
  C  C116  1  0.91843000  0.16293000  0.31510000  1.0
  C  C117  1  0.08156000  0.83706000  0.68490000  1.0
  O  O118  1  0.65251000  0.57593000  0.34788000  1.0
  O  O119  1  0.34749000  0.42408000  0.65212000  1.0
  O  O120  1  0.43164000  0.55676000  0.40583000  1.0
  O  O121  1  0.56836000  0.44324000  0.59417000  1.0
  O  O122  1  0.93703000  0.60930000  0.46783000  1.0
  O  O123  1  0.06298000  0.39069000  0.53217000  1.0
  O  O124  1  0.16699000  0.66967000  0.45666000  1.0
  O  O125  1  0.83301000  0.33032000  0.54334000  1.0
  O  O126  1  0.09385000  0.68365000  0.10910000  1.0
  O  O127  1  0.90613000  0.31635000  0.89092000  1.0
  O  O128  1  0.26377000  0.79263000  0.00034000  1.0
  O  O129  1  0.73621000  0.20737000  0.99966000  1.0
  O  O130  1  0.64311000  0.94380000  0.42217000  1.0
  O  O131  1  0.35689000  0.05620000  0.57782000  1.0
  O  O132  1  0.82056000  0.08289000  0.34925000  1.0
  O  O133  1  0.17943000  0.91709000  0.65073000  1.0
  O  O134  1  0.68170000  0.65190000  0.58665000  1.0
  O  O135  1  0.31830000  0.34811000  0.41334000  1.0
  O  O136  1  0.85270000  0.55582000  0.66013000  1.0
  O  O137  1  0.14729000  0.44418000  0.33987000  1.0
  O  O138  1  0.63656000  0.96623000  0.84417000  1.0
  O  O139  1  0.36347000  0.03379000  0.15583000  1.0
  O  O140  1  0.81198000  0.92969000  0.00304000  1.0
  O  O141  1  0.18802000  0.07032000  0.99696000  1.0
  O  O142  1  0.60378000  0.34379000  0.39829000  1.0
  O  O143  1  0.39622000  0.65622000  0.60172000  1.0
  O  O144  1  0.85822000  0.42576000  0.33673000  1.0
  O  O145  1  0.14177000  0.57423000  0.66327000  1.0
