# generated using pymatgen
data_MgH16C16(O4F)2
_symmetry_space_group_name_H-M   'P 1'
_cell_length_a   6.81928000
_cell_length_b   7.54011000
_cell_length_c   17.16900000
_cell_angle_alpha   94.43650000
_cell_angle_beta   89.99920000
_cell_angle_gamma   89.99940000
_symmetry_Int_Tables_number   1
_chemical_formula_structural   MgH16C16(O4F)2
_chemical_formula_sum   'Mg2 H32 C32 O16 F4'
_cell_volume   880.15257718
_cell_formula_units_Z   2
loop_
 _symmetry_equiv_pos_site_id
 _symmetry_equiv_pos_as_xyz
  1  'x, y, z'
loop_
 _atom_site_type_symbol
 _atom_site_label
 _atom_site_symmetry_multiplicity
 _atom_site_fract_x
 _atom_site_fract_y
 _atom_site_fract_z
 _atom_site_occupancy
  Mg  Mg0  1  0.50000000  0.50000000  0.00000000  1.0
  Mg  Mg1  1  0.00000000  0.00000000  0.00000000  1.0
  H  H2  1  0.76340000  0.37034000  0.31263000  1.0
  H  H3  1  0.26341000  0.12966000  0.68737000  1.0
  H  H4  1  0.23660000  0.62965000  0.68737000  1.0
  H  H5  1  0.73660000  0.87034000  0.31263000  1.0
  H  H6  1  0.75852000  0.51755000  0.44883000  1.0
  H  H7  1  0.25852000  0.98245000  0.55117000  1.0
  H  H8  1  0.24149000  0.48244000  0.55117000  1.0
  H  H9  1  0.74148000  0.01755000  0.44883000  1.0
  H  H10  1  0.21588000  0.87408000  0.38692000  1.0
  H  H11  1  0.71588000  0.62592000  0.61308000  1.0
  H  H12  1  0.78413000  0.12593000  0.61308000  1.0
  H  H13  1  0.28412000  0.37408000  0.38692000  1.0
  H  H14  1  0.22178000  0.73057000  0.25188000  1.0
  H  H15  1  0.72178000  0.76942000  0.74812000  1.0
  H  H16  1  0.77821000  0.26943000  0.74812000  1.0
  H  H17  1  0.27821000  0.23058000  0.25188000  1.0
  H  H18  1  0.27337000  0.49731000  0.17095000  1.0
  H  H19  1  0.77336000  0.00269000  0.82905000  1.0
  H  H20  1  0.72663000  0.50270000  0.82905000  1.0
  H  H21  1  0.22663000  0.99731000  0.17095000  1.0
  H  H22  1  0.09679000  0.63039000  0.12576000  1.0
  H  H23  1  0.59679000  0.86961000  0.87424000  1.0
  H  H24  1  0.90322000  0.36961000  0.87424000  1.0
  H  H25  1  0.40321000  0.13039000  0.12576000  1.0
  H  H26  1  0.71253000  0.40033000  0.12885000  1.0
  H  H27  1  0.21254000  0.09967000  0.87115000  1.0
  H  H28  1  0.28747000  0.59967000  0.87115000  1.0
  H  H29  1  0.78746000  0.90033000  0.12885000  1.0
  H  H30  1  0.67878000  0.25390000  0.05941000  1.0
  H  H31  1  0.17878000  0.24610000  0.94059000  1.0
  H  H32  1  0.32122000  0.74610000  0.94059000  1.0
  H  H33  1  0.82122000  0.75390000  0.05940000  1.0
  C  C34  1  0.98951000  0.54240000  0.27366000  1.0
  C  C35  1  0.48952000  0.95760000  0.72635000  1.0
  C  C36  1  0.01048000  0.45760000  0.72634000  1.0
  C  C37  1  0.51048000  0.04240000  0.27365000  1.0
  C  C38  1  0.86034000  0.48179000  0.32925000  1.0
  C  C39  1  0.36034000  0.01821000  0.67075000  1.0
  C  C40  1  0.13966000  0.51821000  0.67075000  1.0
  C  C41  1  0.63966000  0.98178000  0.32925000  1.0
  C  C42  1  0.85837000  0.56211000  0.40495000  1.0
  C  C43  1  0.35837000  0.93790000  0.59505000  1.0
  C  C44  1  0.14163000  0.43789000  0.59505000  1.0
  C  C45  1  0.64163000  0.06210000  0.40495000  1.0
  C  C46  1  0.98651000  0.70257000  0.42377000  1.0
  C  C47  1  0.48650000  0.79743000  0.57623000  1.0
  C  C48  1  0.01350000  0.29743000  0.57623000  1.0
  C  C49  1  0.51350000  0.20257000  0.42377000  1.0
  C  C50  1  0.11709000  0.76417000  0.37014000  1.0
  C  C51  1  0.61709000  0.73583000  0.62986000  1.0
  C  C52  1  0.88292000  0.23583000  0.62986000  1.0
  C  C53  1  0.38292000  0.26417000  0.37014000  1.0
  C  C54  1  0.11861000  0.68308000  0.29391000  1.0
  C  C55  1  0.61862000  0.81692000  0.70609000  1.0
  C  C56  1  0.88139000  0.31692000  0.70609000  1.0
  C  C57  1  0.38138000  0.18308000  0.29391000  1.0
  C  C58  1  0.12477000  0.49728000  0.14538000  1.0
  C  C59  1  0.62478000  0.00272000  0.85463000  1.0
  C  C60  1  0.87523000  0.50272000  0.85462000  1.0
  C  C61  1  0.37522000  0.99728000  0.14537000  1.0
  C  C62  1  0.12268000  0.36133000  0.07555000  1.0
  C  C63  1  0.62268000  0.13869000  0.92444000  1.0
  C  C64  1  0.87732000  0.63868000  0.92445000  1.0
  C  C65  1  0.37732000  0.86131000  0.07556000  1.0
  O  O66  1  0.98013000  0.45256000  0.20056000  1.0
  O  O67  1  0.48013000  0.04745000  0.79944000  1.0
  O  O68  1  0.01987000  0.54745000  0.79944000  1.0
  O  O69  1  0.51987000  0.95255000  0.20056000  1.0
  O  O70  1  0.61418000  0.35524000  0.09085000  1.0
  O  O71  1  0.11419000  0.14476000  0.90915000  1.0
  O  O72  1  0.38582000  0.64476000  0.90915000  1.0
  O  O73  1  0.88581000  0.85525000  0.09085000  1.0
  O  O74  1  0.22336000  0.40139000  0.01664000  1.0
  O  O75  1  0.72337000  0.09862000  0.98336000  1.0
  O  O76  1  0.77664000  0.59862000  0.98336000  1.0
  O  O77  1  0.27664000  0.90139000  0.01664000  1.0
  O  O78  1  0.02773000  0.21904000  0.07895000  1.0
  O  O79  1  0.52774000  0.28097000  0.92104000  1.0
  O  O80  1  0.97227000  0.78097000  0.92105000  1.0
  O  O81  1  0.47225000  0.71904000  0.07896000  1.0
  F  F82  1  0.98135000  0.78381000  0.49807000  1.0
  F  F83  1  0.48134000  0.71619000  0.50194000  1.0
  F  F84  1  0.01865000  0.21618000  0.50193000  1.0
  F  F85  1  0.51865000  0.28381000  0.49806000  1.0
