# generated using pymatgen
data_MnH10(C7O3)2
_symmetry_space_group_name_H-M   'P 1'
_cell_length_a   6.03286000
_cell_length_b   7.59266000
_cell_length_c   14.45390000
_cell_angle_alpha   77.84500000
_cell_angle_beta   89.99530000
_cell_angle_gamma   89.99480000
_symmetry_Int_Tables_number   1
_chemical_formula_structural   MnH10(C7O3)2
_chemical_formula_sum   'Mn2 H20 C28 O12'
_cell_volume   647.22494412
_cell_formula_units_Z   2
loop_
 _symmetry_equiv_pos_site_id
 _symmetry_equiv_pos_as_xyz
  1  'x, y, z'
loop_
 _atom_site_type_symbol
 _atom_site_label
 _atom_site_symmetry_multiplicity
 _atom_site_fract_x
 _atom_site_fract_y
 _atom_site_fract_z
 _atom_site_occupancy
  Mn  Mn0  1  0.30450000  0.75001000  0.50001000  1.0
  Mn  Mn1  1  0.69551000  0.25000000  0.49999000  1.0
  H  H2  1  0.97862000  0.32624000  0.68311000  1.0
  H  H3  1  0.97860000  0.17374000  0.31687000  1.0
  H  H4  1  0.02137000  0.67376000  0.31689000  1.0
  H  H5  1  0.02142000  0.82625000  0.68313000  1.0
  H  H6  1  0.13230000  0.21328000  0.84548000  1.0
  H  H7  1  0.13226000  0.28672000  0.15449000  1.0
  H  H8  1  0.86768000  0.78673000  0.15452000  1.0
  H  H9  1  0.86775000  0.71326000  0.84551000  1.0
  H  H10  1  0.54712000  0.40211000  0.96570000  1.0
  H  H11  1  0.54714000  0.09789000  0.03430000  1.0
  H  H12  1  0.45290000  0.59788000  0.03430000  1.0
  H  H13  1  0.45288000  0.90210000  0.96570000  1.0
  H  H14  1  0.39791000  0.51811000  0.80374000  1.0
  H  H15  1  0.39796000  0.98187000  0.19625000  1.0
  H  H16  1  0.60208000  0.48189000  0.19626000  1.0
  H  H17  1  0.60206000  0.01811000  0.80375000  1.0
  H  H18  1  0.86572000  0.85777000  0.47872000  1.0
  H  H19  1  0.86573000  0.64222000  0.52134000  1.0
  H  H20  1  0.13427000  0.14224000  0.52129000  1.0
  H  H21  1  0.13425000  0.35780000  0.47866000  1.0
  C  C22  1  0.67848000  0.42958000  0.73335000  1.0
  C  C23  1  0.67848000  0.07040000  0.26664000  1.0
  C  C24  1  0.32150000  0.57043000  0.26665000  1.0
  C  C25  1  0.32153000  0.92958000  0.73336000  1.0
  C  C26  1  0.88536000  0.34267000  0.74529000  1.0
  C  C27  1  0.88533000  0.15730000  0.25470000  1.0
  C  C28  1  0.11461000  0.65733000  0.25471000  1.0
  C  C29  1  0.11468000  0.84269000  0.74530000  1.0
  C  C30  1  0.97115000  0.27932000  0.83521000  1.0
  C  C31  1  0.97114000  0.22068000  0.16476000  1.0
  C  C32  1  0.02883000  0.72068000  0.16478000  1.0
  C  C33  1  0.02887000  0.77931000  0.83524000  1.0
  C  C34  1  0.84984000  0.30216000  0.91447000  1.0
  C  C35  1  0.84983000  0.19783000  0.08552000  1.0
  C  C36  1  0.15016000  0.69784000  0.08553000  1.0
  C  C37  1  0.15019000  0.80216000  0.91448000  1.0
  C  C38  1  0.64155000  0.38569000  0.90400000  1.0
  C  C39  1  0.64157000  0.11430000  0.09598000  1.0
  C  C40  1  0.35845000  0.61430000  0.09600000  1.0
  C  C41  1  0.35845000  0.88569000  0.90402000  1.0
  C  C42  1  0.55777000  0.44977000  0.81344000  1.0
  C  C43  1  0.55779000  0.05020000  0.18655000  1.0
  C  C44  1  0.44223000  0.55022000  0.18656000  1.0
  C  C45  1  0.44223000  0.94978000  0.81345000  1.0
  C  C46  1  0.59340000  0.50514000  0.63701000  1.0
  C  C47  1  0.59339000  0.99483000  0.36298000  1.0
  C  C48  1  0.40658000  0.49488000  0.36299000  1.0
  C  C49  1  0.40660000  0.00517000  0.63701000  1.0
  O  O50  1  0.41770000  0.60027000  0.62795000  1.0
  O  O51  1  0.41771000  0.89971000  0.37205000  1.0
  O  O52  1  0.58229000  0.39976000  0.37204000  1.0
  O  O53  1  0.58229000  0.10029000  0.62795000  1.0
  O  O54  1  0.96251000  0.75001000  0.50007000  1.0
  O  O55  1  0.03748000  0.25000000  0.49994000  1.0
  O  O56  1  0.70508000  0.47753000  0.56514000  1.0
  O  O57  1  0.70507000  0.02245000  0.43484000  1.0
  O  O58  1  0.29492000  0.52248000  0.43486000  1.0
  O  O59  1  0.29494000  0.97756000  0.56515000  1.0
  O  O60  1  0.95801000  0.25001000  0.99999000  1.0
  O  O61  1  0.04200000  0.75000000  0.00001000  1.0
