# generated using pymatgen
data_KH25C19(NO)2
_symmetry_space_group_name_H-M   'P 1'
_cell_length_a   7.65083000
_cell_length_b   10.25950000
_cell_length_c   13.18550000
_cell_angle_alpha   72.07500000
_cell_angle_beta   88.91610000
_cell_angle_gamma   71.76400000
_symmetry_Int_Tables_number   1
_chemical_formula_structural   KH25C19(NO)2
_chemical_formula_sum   'K2 H50 C38 N4 O4'
_cell_volume   931.84641455
_cell_formula_units_Z   2
loop_
 _symmetry_equiv_pos_site_id
 _symmetry_equiv_pos_as_xyz
  1  'x, y, z'
loop_
 _atom_site_type_symbol
 _atom_site_label
 _atom_site_symmetry_multiplicity
 _atom_site_fract_x
 _atom_site_fract_y
 _atom_site_fract_z
 _atom_site_occupancy
  K  K0  1  0.70587000  0.02774000  0.47287000  1.0
  K  K1  1  0.29413000  0.97226000  0.52713000  1.0
  H  H2  1  0.11742000  0.72720000  0.54814000  1.0
  H  H3  1  0.88258000  0.27281000  0.45186000  1.0
  H  H4  1  0.21575000  0.68385000  0.43248000  1.0
  H  H5  1  0.78425000  0.31615000  0.56752000  1.0
  H  H6  1  0.97408000  0.71668000  0.44734000  1.0
  H  H7  1  0.02591000  0.28332000  0.55266000  1.0
  H  H8  1  0.39379000  0.02761000  0.05736000  1.0
  H  H9  1  0.60622000  0.97239000  0.94265000  1.0
  H  H10  1  0.81710000  0.51874000  0.95138000  1.0
  H  H11  1  0.18292000  0.48125000  0.04863000  1.0
  H  H12  1  0.62920000  0.71832000  0.79551000  1.0
  H  H13  1  0.37080000  0.28167000  0.20449000  1.0
  H  H14  1  0.68654000  0.61119000  0.49555000  1.0
  H  H15  1  0.31345000  0.38881000  0.50445000  1.0
  H  H16  1  0.72027000  0.35541000  0.14659000  1.0
  H  H17  1  0.27972000  0.64460000  0.85341000  1.0
  H  H18  1  0.13846000  0.88150000  0.26136000  1.0
  H  H19  1  0.86153000  0.11851000  0.73864000  1.0
  H  H20  1  0.25429000  0.26658000  0.94298000  1.0
  H  H21  1  0.74572000  0.73340000  0.05702000  1.0
  H  H22  1  0.09206000  0.17421000  0.95255000  1.0
  H  H23  1  0.90796000  0.82578000  0.04745000  1.0
  H  H24  1  0.09302000  0.13431000  0.26791000  1.0
  H  H25  1  0.90698000  0.86569000  0.73209000  1.0
  H  H26  1  0.50926000  0.59552000  0.38005000  1.0
  H  H27  1  0.49073000  0.40447000  0.61995000  1.0
  H  H28  1  0.07005000  0.29641000  0.02636000  1.0
  H  H29  1  0.92996000  0.70358000  0.97363000  1.0
  H  H30  1  0.40396000  0.58928000  0.20767000  1.0
  H  H31  1  0.59604000  0.41072000  0.79233000  1.0
  H  H32  1  0.96427000  0.12755000  0.15936000  1.0
  H  H33  1  0.03572000  0.87245000  0.84064000  1.0
  H  H34  1  0.50045000  0.03536000  0.23100000  1.0
  H  H35  1  0.49955000  0.96463000  0.76901000  1.0
  H  H36  1  0.89877000  0.90866000  0.28032000  1.0
  H  H37  1  0.10122000  0.09134000  0.71968000  1.0
  H  H38  1  0.95518000  0.51254000  0.58374000  1.0
  H  H39  1  0.04482000  0.48747000  0.41626000  1.0
  H  H40  1  0.24131000  0.90549000  0.96288000  1.0
  H  H41  1  0.75868000  0.09452000  0.03711000  1.0
  H  H42  1  0.26442000  0.71907000  0.02414000  1.0
  H  H43  1  0.73558000  0.28094000  0.97586000  1.0
  H  H44  1  0.45302000  0.77005000  0.96545000  1.0
  H  H45  1  0.54699000  0.22995000  0.03454000  1.0
  H  H46  1  0.14040000  0.31568000  0.73824000  1.0
  H  H47  1  0.85961000  0.68431000  0.26175000  1.0
  H  H48  1  0.86008000  0.37311000  0.24615000  1.0
  H  H49  1  0.13992000  0.62689000  0.75385000  1.0
  H  H50  1  0.62789000  0.37314000  0.26911000  1.0
  H  H51  1  0.37211000  0.62687000  0.73090000  1.0
  C  C52  1  0.77173000  0.62932000  0.67711000  1.0
  C  C53  1  0.22827000  0.37068000  0.32289000  1.0
  C  C54  1  0.91961000  0.51300000  0.66408000  1.0
  C  C55  1  0.08040000  0.48699000  0.33592000  1.0
  C  C56  1  0.02484000  0.40163000  0.75160000  1.0
  C  C57  1  0.97517000  0.59837000  0.24839000  1.0
  C  C58  1  0.99039000  0.39998000  0.85678000  1.0
  C  C59  1  0.00963000  0.60000000  0.14322000  1.0
  C  C60  1  0.84660000  0.51626000  0.87042000  1.0
  C  C61  1  0.15341000  0.48373000  0.12958000  1.0
  C  C62  1  0.74045000  0.62880000  0.78316000  1.0
  C  C63  1  0.25957000  0.37118000  0.21684000  1.0
  C  C64  1  0.10697000  0.27854000  0.94981000  1.0
  C  C65  1  0.89305000  0.72145000  0.05019000  1.0
  C  C66  1  0.51735000  0.81626000  0.31903000  1.0
  C  C67  1  0.48264000  0.18375000  0.68097000  1.0
  C  C68  1  0.48932000  0.69033000  0.30949000  1.0
  C  C69  1  0.51067000  0.30967000  0.69051000  1.0
  C  C70  1  0.43024000  0.68636000  0.21139000  1.0
  C  C71  1  0.56976000  0.31365000  0.78861000  1.0
  C  C72  1  0.39600000  0.80613000  0.11829000  1.0
  C  C73  1  0.60400000  0.19388000  0.88171000  1.0
  C  C74  1  0.42217000  0.93164000  0.12769000  1.0
  C  C75  1  0.57783000  0.06838000  0.87230000  1.0
  C  C76  1  0.48189000  0.93666000  0.22486000  1.0
  C  C77  1  0.51811000  0.06335000  0.77514000  1.0
  C  C78  1  0.33490000  0.80006000  0.01251000  1.0
  C  C79  1  0.66510000  0.19996000  0.98749000  1.0
  C  C80  1  0.64169000  0.72332000  0.49989000  1.0
  C  C81  1  0.35831000  0.27667000  0.50012000  1.0
  C  C82  1  0.97846000  0.10025000  0.24733000  1.0
  C  C83  1  0.02153000  0.89975000  0.75267000  1.0
  C  C84  1  0.01919000  0.93933000  0.29648000  1.0
  C  C85  1  0.98080000  0.06067000  0.70352000  1.0
  C  C86  1  0.75320000  0.32726000  0.23340000  1.0
  C  C87  1  0.24679000  0.67274000  0.76661000  1.0
  C  C88  1  0.09398000  0.74812000  0.46192000  1.0
  C  C89  1  0.90601000  0.25188000  0.53807000  1.0
  N  N90  1  0.66362000  0.74446000  0.59274000  1.0
  N  N91  1  0.33638000  0.25553000  0.40727000  1.0
  N  N92  1  0.56652000  0.83534000  0.41299000  1.0
  N  N93  1  0.43348000  0.16465000  0.58701000  1.0
  O  O94  1  0.81043000  0.17398000  0.28381000  1.0
  O  O95  1  0.18956000  0.82602000  0.71619000  1.0
  O  O96  1  0.05800000  0.89978000  0.41032000  1.0
  O  O97  1  0.94199000  0.10023000  0.58968000  1.0
