# generated using pymatgen
data_Al4H31C56N8O20F
_symmetry_space_group_name_H-M   'P 1'
_cell_length_a   6.67139000
_cell_length_b   21.96940000
_cell_length_c   23.80610000
_cell_angle_alpha   68.04940000
_cell_angle_beta   89.82730000
_cell_angle_gamma   89.86550000
_symmetry_Int_Tables_number   1
_chemical_formula_structural   Al4H31C56N8O20F
_chemical_formula_sum   'Al4 H31 C56 N8 O20 F1'
_cell_volume   3236.21516691
_cell_formula_units_Z   1
loop_
 _symmetry_equiv_pos_site_id
 _symmetry_equiv_pos_as_xyz
  1  'x, y, z'
loop_
 _atom_site_type_symbol
 _atom_site_label
 _atom_site_symmetry_multiplicity
 _atom_site_fract_x
 _atom_site_fract_y
 _atom_site_fract_z
 _atom_site_occupancy
  Al  Al0  1  0.09665000  0.49884000  0.50369000  1.0
  Al  Al1  1  0.59625000  0.50065000  0.49987000  1.0
  Al  Al2  1  0.66951000  0.00098000  0.99853000  1.0
  Al  Al3  1  0.16955000  0.99860000  0.00177000  1.0
  H  H4  1  0.24446000  0.12563000  0.83000000  1.0
  H  H5  1  0.48909000  0.28053000  0.76980000  1.0
  H  H6  1  0.27660000  0.21960000  0.73120000  1.0
  H  H7  1  0.52082000  0.37420000  0.67053000  1.0
  H  H8  1  0.13244000  0.32121000  0.65376000  1.0
  H  H9  1  0.59067000  0.09250000  0.11595000  1.0
  H  H10  1  0.21489000  0.18281000  0.16844000  1.0
  H  H11  1  0.22955000  0.11566000  0.10306000  1.0
  H  H12  1  0.54646000  0.31210000  0.33853000  1.0
  H  H13  1  0.54305000  0.37941000  0.40315000  1.0
  H  H14  1  0.18128000  0.34754000  0.30987000  1.0
  H  H15  1  0.67535000  0.59570000  0.61345000  1.0
  H  H16  1  0.04743000  0.68018000  0.67170000  1.0
  H  H17  1  0.03435000  0.61273000  0.60654000  1.0
  H  H18  1  0.72220000  0.82023000  0.82869000  1.0
  H  H19  1  0.73416000  0.88710000  0.89438000  1.0
  H  H20  1  0.09298000  0.90325000  0.88775000  1.0
  H  H21  1  0.07973000  0.83762000  0.82108000  1.0
  H  H22  1  0.13485000  0.81934000  0.15297000  1.0
  H  H23  1  0.74287000  0.87444000  0.17017000  1.0
  H  H24  1  0.77480000  0.78118000  0.26946000  1.0
  H  H25  1  0.02299000  0.62511000  0.33019000  1.0
  H  H26  1  0.62983000  0.68082000  0.34789000  1.0
  H  H27  1  0.63457000  0.17991000  0.84762000  1.0
  H  H28  1  0.68973000  0.66212000  0.67946000  1.0
  H  H29  1  0.99108000  0.71830000  0.23090000  1.0
  H  H30  1  0.57490000  0.15773000  0.18298000  1.0
  H  H31  1  0.34452000  0.42651000  0.49063000  1.0
  H  H32  1  0.85138000  0.58475000  0.46401000  1.0
  H  H33  1  0.41407000  0.08590000  0.96916000  1.0
  H  H34  1  0.91491000  0.91345000  0.02942000  1.0
  C  C35  1  0.34800000  0.56224000  0.56622000  1.0
  C  C36  1  0.34154000  0.59296000  0.40487000  1.0
  C  C37  1  0.84954000  0.43626000  0.43658000  1.0
  C  C38  1  0.84358000  0.40851000  0.59749000  1.0
  C  C39  1  0.93691000  0.14801000  0.84456000  1.0
  C  C40  1  0.82963000  0.35254000  0.65689000  1.0
  C  C41  1  0.62841000  0.28882000  0.74389000  1.0
  C  C42  1  0.64578000  0.34087000  0.68948000  1.0
  C  C43  1  0.99196000  0.31131000  0.67920000  1.0
  C  C44  1  0.97599000  0.25606000  0.73400000  1.0
  C  C45  1  0.79063000  0.24458000  0.76728000  1.0
  C  C46  1  0.77499000  0.18946000  0.82220000  1.0
  C  C47  1  0.12010000  0.15939000  0.81160000  1.0
  C  C48  1  0.13765000  0.21153000  0.75725000  1.0
  C  C49  1  0.72600000  0.11233000  0.12815000  1.0
  C  C50  1  0.71726000  0.14854000  0.16504000  1.0
  C  C51  1  0.89396000  0.17444000  0.17936000  1.0
  C  C52  1  0.07937000  0.16244000  0.15701000  1.0
  C  C53  1  0.08737000  0.12546000  0.12075000  1.0
  C  C54  1  0.91077000  0.10067000  0.10565000  1.0
  C  C55  1  0.87077000  0.28488000  0.28277000  1.0
  C  C56  1  0.88526000  0.21431000  0.21699000  1.0
  C  C57  1  0.68345000  0.33425000  0.34679000  1.0
  C  C58  1  0.68209000  0.37131000  0.38294000  1.0
  C  C59  1  0.85771000  0.39954000  0.39491000  1.0
  C  C60  1  0.03494000  0.38993000  0.36720000  1.0
  C  C61  1  0.04077000  0.35357000  0.33060000  1.0
  C  C62  1  0.86404000  0.32473000  0.32053000  1.0
  C  C63  1  0.53928000  0.61442000  0.62674000  1.0
  C  C64  1  0.54724000  0.65119000  0.66312000  1.0
  C  C65  1  0.36938000  0.67523000  0.67925000  1.0
  C  C66  1  0.18377000  0.66121000  0.65887000  1.0
  C  C67  1  0.17657000  0.62401000  0.62282000  1.0
  C  C68  1  0.35414000  0.60069000  0.60627000  1.0
  C  C69  1  0.39212000  0.78517000  0.78330000  1.0
  C  C70  1  0.37751000  0.71504000  0.71701000  1.0
  C  C71  1  0.58557000  0.83889000  0.84170000  1.0
  C  C72  1  0.59208000  0.87575000  0.87808000  1.0
  C  C73  1  0.41423000  0.89857000  0.89501000  1.0
  C  C74  1  0.22944000  0.88486000  0.87431000  1.0
  C  C75  1  0.22210000  0.84849000  0.83756000  1.0
  C  C76  1  0.40020000  0.82476000  0.82123000  1.0
  C  C77  1  0.43604000  0.85175000  0.15595000  1.0
  C  C78  1  0.32900000  0.64822000  0.34484000  1.0
  C  C79  1  0.12947000  0.71067000  0.25700000  1.0
  C  C80  1  0.14691000  0.65897000  0.31164000  1.0
  C  C81  1  0.49020000  0.68985000  0.32233000  1.0
  C  C82  1  0.47482000  0.74450000  0.26704000  1.0
  C  C83  1  0.29048000  0.75534000  0.23357000  1.0
  C  C84  1  0.27479000  0.81014000  0.17842000  1.0
  C  C85  1  0.61876000  0.84071000  0.18886000  1.0
  C  C86  1  0.63615000  0.78896000  0.24348000  1.0
  C  C87  1  0.42277000  0.90744000  0.09635000  1.0
  C  C88  1  0.41961000  0.93632000  0.93574000  1.0
  C  C89  1  0.92358000  0.09227000  0.90408000  1.0
  C  C90  1  0.91746000  0.06297000  0.06482000  1.0
  N  N91  1  0.05706000  0.24315000  0.22465000  1.0
  N  N92  1  0.04964000  0.27887000  0.25825000  1.0
  N  N93  1  0.69882000  0.25645000  0.27494000  1.0
  N  N94  1  0.70626000  0.22036000  0.24158000  1.0
  N  N95  1  0.20301000  0.73930000  0.72934000  1.0
  N  N96  1  0.21040000  0.77495000  0.76304000  1.0
  N  N97  1  0.56667000  0.76101000  0.77089000  1.0
  N  N98  1  0.55926000  0.72538000  0.73717000  1.0
  O  O99  1  0.51480000  0.57378000  0.42715000  1.0
  O  O100  1  0.17662000  0.54765000  0.55141000  1.0
  O  O101  1  0.01696000  0.42931000  0.57666000  1.0
  O  O102  1  0.17419000  0.56995000  0.42965000  1.0
  O  O103  1  0.01541000  0.44749000  0.45698000  1.0
  O  O104  1  0.51577000  0.54756000  0.54911000  1.0
  O  O105  1  0.34744000  0.46048000  0.50745000  1.0
  O  O106  1  0.67633000  0.45217000  0.44943000  1.0
  O  O107  1  0.67796000  0.43065000  0.57146000  1.0
  O  O108  1  0.84677000  0.53952000  0.49209000  1.0
  O  O109  1  0.25089000  0.94929000  0.95386000  1.0
  O  O110  1  0.58919000  0.93060000  0.07115000  1.0
  O  O111  1  0.74921000  0.04990000  0.04691000  1.0
  O  O112  1  0.59107000  0.95169000  0.94993000  1.0
  O  O113  1  0.75041000  0.07239000  0.92609000  1.0
  O  O114  1  0.24969000  0.92732000  0.07451000  1.0
  O  O115  1  0.41842000  0.03908000  0.99211000  1.0
  O  O116  1  0.08993000  0.06901000  0.92921000  1.0
  O  O117  1  0.08941000  0.04783000  0.05048000  1.0
  O  O118  1  0.91878000  0.96058000  0.00828000  1.0
  F  F119  1  0.21083000  0.41722000  0.37458000  1.0
