# generated using pymatgen
data_CdH18C22(NO2)2
_symmetry_space_group_name_H-M   'P 1'
_cell_length_a   9.39416000
_cell_length_b   10.10140000
_cell_length_c   11.38090000
_cell_angle_alpha   99.06620000
_cell_angle_beta   92.05050000
_cell_angle_gamma   117.61700000
_symmetry_Int_Tables_number   1
_chemical_formula_structural   CdH18C22(NO2)2
_chemical_formula_sum   'Cd2 H36 C44 N4 O8'
_cell_volume   937.64225854
_cell_formula_units_Z   2
loop_
 _symmetry_equiv_pos_site_id
 _symmetry_equiv_pos_as_xyz
  1  'x, y, z'
loop_
 _atom_site_type_symbol
 _atom_site_label
 _atom_site_symmetry_multiplicity
 _atom_site_fract_x
 _atom_site_fract_y
 _atom_site_fract_z
 _atom_site_occupancy
  Cd  Cd0  1  0.16434000  0.49836000  0.10565000  1.0
  Cd  Cd1  1  0.83566000  0.50164000  0.89435000  1.0
  H  H2  1  0.39169000  0.49170000  0.89625000  1.0
  H  H3  1  0.60830000  0.50830000  0.10375000  1.0
  H  H4  1  0.39345000  0.31867000  0.72037000  1.0
  H  H5  1  0.60655000  0.68133000  0.27963000  1.0
  H  H6  1  0.97495000  0.95451000  0.82744000  1.0
  H  H7  1  0.02504000  0.04549000  0.17256000  1.0
  H  H8  1  0.98782000  0.14991000  0.00041000  1.0
  H  H9  1  0.01218000  0.85009000  0.99959000  1.0
  H  H10  1  0.05990000  0.89228000  0.64852000  1.0
  H  H11  1  0.94009000  0.10772000  0.35148000  1.0
  H  H12  1  0.35365000  0.14330000  0.56090000  1.0
  H  H13  1  0.64635000  0.85670000  0.43910000  1.0
  H  H14  1  0.46356000  0.03473000  0.40523000  1.0
  H  H15  1  0.53644000  0.96527000  0.59477000  1.0
  H  H16  1  0.41540000  0.82881000  0.22996000  1.0
  H  H17  1  0.58460000  0.17119000  0.77004000  1.0
  H  H18  1  0.93687000  0.57601000  0.28276000  1.0
  H  H19  1  0.06313000  0.42399000  0.71724000  1.0
  H  H20  1  0.96370000  0.76843000  0.46010000  1.0
  H  H21  1  0.03630000  0.23157000  0.53990000  1.0
  H  H22  1  0.53928000  0.40822000  0.53902000  1.0
  H  H23  1  0.46072000  0.59178000  0.46098000  1.0
  H  H24  1  0.81324000  0.43110000  0.53547000  1.0
  H  H25  1  0.18676000  0.56890000  0.46453000  1.0
  H  H26  1  0.88575000  0.32115000  0.34892000  1.0
  H  H27  1  0.11425000  0.67885000  0.65108000  1.0
  H  H28  1  0.41395000  0.17968000  0.16846000  1.0
  H  H29  1  0.58605000  0.82032000  0.83154000  1.0
  H  H30  1  0.27586000  0.32000000  0.44683000  1.0
  H  H31  1  0.72414000  0.68000000  0.55317000  1.0
  H  H32  1  0.20103000  0.15491000  0.33392000  1.0
  H  H33  1  0.79897000  0.84508000  0.66608000  1.0
  H  H34  1  0.59514000  0.06233000  0.09348000  1.0
  H  H35  1  0.40486000  0.93767000  0.90652000  1.0
  H  H36  1  0.80406000  0.16289000  0.15628000  1.0
  H  H37  1  0.19594000  0.83711000  0.84372000  1.0
  C  C38  1  0.29970000  0.37206000  0.87748000  1.0
  C  C39  1  0.70030000  0.62794000  0.12252000  1.0
  C  C40  1  0.29894000  0.27268000  0.77780000  1.0
  C  C41  1  0.70106000  0.72732000  0.22220000  1.0
  C  C42  1  0.17866000  0.11915000  0.75542000  1.0
  C  C43  1  0.82134000  0.88085000  0.24458000  1.0
  C  C44  1  0.06689000  0.07366000  0.83913000  1.0
  C  C45  1  0.93311000  0.92635000  0.16087000  1.0
  C  C46  1  0.07482000  0.18072000  0.93553000  1.0
  C  C47  1  0.92518000  0.81928000  0.06447000  1.0
  C  C48  1  0.15863000  0.00671000  0.64988000  1.0
  C  C49  1  0.84137000  0.99329000  0.35013000  1.0
  C  C50  1  0.24854000  0.03207000  0.55776000  1.0
  C  C51  1  0.75145000  0.96793000  0.44224000  1.0
  C  C52  1  0.21912000  0.91696000  0.45156000  1.0
  C  C53  1  0.78088000  0.08304000  0.54844000  1.0
  C  C54  1  0.34533000  0.93399000  0.38221000  1.0
  C  C55  1  0.65467000  0.06602000  0.61779000  1.0
  C  C56  1  0.31990000  0.82029000  0.28497000  1.0
  C  C57  1  0.68011000  0.17971000  0.71503000  1.0
  C  C58  1  0.05213000  0.67863000  0.31411000  1.0
  C  C59  1  0.94788000  0.32137000  0.68589000  1.0
  C  C60  1  0.06836000  0.78611000  0.41337000  1.0
  C  C61  1  0.93164000  0.21389000  0.58663000  1.0
  C  C62  1  0.45862000  0.29418000  0.35364000  1.0
  C  C63  1  0.54138000  0.70582000  0.64635000  1.0
  C  C64  1  0.57196000  0.36411000  0.45653000  1.0
  C  C65  1  0.42804000  0.63588000  0.54347000  1.0
  C  C66  1  0.72578000  0.37558000  0.45482000  1.0
  C  C67  1  0.27422000  0.62442000  0.54518000  1.0
  C  C68  1  0.76641000  0.31411000  0.35106000  1.0
  C  C69  1  0.23359000  0.68589000  0.64894000  1.0
  C  C70  1  0.65323000  0.24121000  0.24764000  1.0
  C  C71  1  0.34677000  0.75879000  0.75236000  1.0
  C  C72  1  0.50114000  0.23431000  0.24957000  1.0
  C  C73  1  0.49886000  0.76569000  0.75043000  1.0
  C  C74  1  0.29103000  0.27637000  0.35578000  1.0
  C  C75  1  0.70897000  0.72363000  0.64422000  1.0
  C  C76  1  0.24558000  0.35836000  0.27122000  1.0
  C  C77  1  0.75442000  0.64164000  0.72878000  1.0
  C  C78  1  0.69621000  0.17443000  0.13469000  1.0
  C  C79  1  0.30379000  0.82557000  0.86530000  1.0
  C  C80  1  0.73155000  0.28156000  0.04637000  1.0
  C  C81  1  0.26845000  0.71844000  0.95363000  1.0
  N  N82  1  0.18834000  0.32797000  0.95452000  1.0
  N  N83  1  0.81165000  0.67202000  0.04548000  1.0
  N  N84  1  0.17616000  0.69366000  0.25170000  1.0
  N  N85  1  0.82385000  0.30634000  0.74830000  1.0
  O  O86  1  0.09522000  0.30597000  0.23685000  1.0
  O  O87  1  0.90478000  0.69403000  0.76315000  1.0
  O  O88  1  0.35657000  0.47457000  0.24021000  1.0
  O  O89  1  0.64343000  0.52543000  0.75979000  1.0
  O  O90  1  0.87905000  0.38594000  0.04976000  1.0
  O  O91  1  0.12095000  0.61406000  0.95024000  1.0
  O  O92  1  0.61767000  0.27063000  0.97658000  1.0
  O  O93  1  0.38233000  0.72937000  0.02342000  1.0
