# generated using pymatgen
data_MnH5C4(NO2)3
_symmetry_space_group_name_H-M   'P 1'
_cell_length_a   7.04812000
_cell_length_b   10.25110000
_cell_length_c   10.38540000
_cell_angle_alpha   90.00000000
_cell_angle_beta   94.34270000
_cell_angle_gamma   90.00000000
_symmetry_Int_Tables_number   1
_chemical_formula_structural   MnH5C4(NO2)3
_chemical_formula_sum   'Mn4 H20 C16 N12 O24'
_cell_volume   748.20107162
_cell_formula_units_Z   4
loop_
 _symmetry_equiv_pos_site_id
 _symmetry_equiv_pos_as_xyz
  1  'x, y, z'
loop_
 _atom_site_type_symbol
 _atom_site_label
 _atom_site_symmetry_multiplicity
 _atom_site_fract_x
 _atom_site_fract_y
 _atom_site_fract_z
 _atom_site_occupancy
  Mn  Mn0  1  0.18519000  0.11567000  0.82787000  1.0
  Mn  Mn1  1  0.81480000  0.61567000  0.67213000  1.0
  Mn  Mn2  1  0.81481000  0.88433000  0.17213000  1.0
  Mn  Mn3  1  0.18519000  0.38433000  0.32787000  1.0
  H  H4  1  0.39601000  0.81550000  0.43226000  1.0
  H  H5  1  0.60399000  0.31550000  0.06775000  1.0
  H  H6  1  0.60399000  0.18450000  0.56774000  1.0
  H  H7  1  0.39601000  0.68450000  0.93226000  1.0
  H  H8  1  0.84382000  0.00083000  0.72027000  1.0
  H  H9  1  0.15617000  0.50083000  0.77973000  1.0
  H  H10  1  0.15618000  0.99917000  0.27973000  1.0
  H  H11  1  0.84382000  0.49917000  0.22027000  1.0
  H  H12  1  0.93433000  0.90179000  0.82483000  1.0
  H  H13  1  0.06567000  0.40179000  0.67517000  1.0
  H  H14  1  0.06567000  0.09821000  0.17517000  1.0
  H  H15  1  0.93433000  0.59821000  0.32483000  1.0
  H  H16  1  0.35396000  0.91304000  0.94998000  1.0
  H  H17  1  0.64604000  0.41304000  0.55002000  1.0
  H  H18  1  0.64605000  0.08696000  0.05002000  1.0
  H  H19  1  0.35395000  0.58696000  0.44998000  1.0
  H  H20  1  0.22338000  0.97260000  0.06091000  1.0
  H  H21  1  0.77661000  0.47260000  0.43909000  1.0
  H  H22  1  0.77662000  0.02740000  0.93909000  1.0
  H  H23  1  0.22338000  0.52740000  0.56091000  1.0
  C  C24  1  0.20874000  0.06091000  0.54592000  1.0
  C  C25  1  0.79126000  0.56091000  0.95409000  1.0
  C  C26  1  0.79126000  0.93909000  0.45408000  1.0
  C  C27  1  0.20874000  0.43909000  0.04592000  1.0
  C  C28  1  0.35506000  0.89280000  0.62436000  1.0
  C  C29  1  0.64494000  0.39279000  0.87564000  1.0
  C  C30  1  0.64494000  0.10721000  0.37564000  1.0
  C  C31  1  0.35506000  0.60721000  0.12436000  1.0
  C  C32  1  0.10971000  0.18932000  0.54440000  1.0
  C  C33  1  0.89029000  0.68932000  0.95560000  1.0
  C  C34  1  0.89029000  0.81068000  0.45560000  1.0
  C  C35  1  0.10970000  0.31068000  0.04440000  1.0
  C  C36  1  0.45335000  0.79074000  0.70881000  1.0
  C  C37  1  0.54665000  0.29073000  0.79119000  1.0
  C  C38  1  0.54665000  0.20927000  0.29119000  1.0
  C  C39  1  0.45335000  0.70927000  0.20881000  1.0
  N  N40  1  0.26916000  0.00227000  0.65931000  1.0
  N  N41  1  0.73083000  0.50227000  0.84069000  1.0
  N  N42  1  0.73084000  0.99773000  0.34069000  1.0
  N  N43  1  0.26916000  0.49773000  0.15931000  1.0
  N  N44  1  0.25202000  0.99201000  0.44264000  1.0
  N  N45  1  0.74798000  0.49201000  0.05736000  1.0
  N  N46  1  0.74798000  0.00799000  0.55736000  1.0
  N  N47  1  0.25202000  0.50799000  0.94264000  1.0
  N  N48  1  0.34442000  0.88727000  0.49391000  1.0
  N  N49  1  0.65558000  0.38727000  0.00610000  1.0
  N  N50  1  0.65558000  0.11273000  0.50610000  1.0
  N  N51  1  0.34442000  0.61273000  0.99390000  1.0
  O  O52  1  0.08052000  0.23527000  0.65565000  1.0
  O  O53  1  0.91948000  0.73527000  0.84435000  1.0
  O  O54  1  0.91948000  0.76474000  0.34435000  1.0
  O  O55  1  0.08051000  0.26474000  0.15565000  1.0
  O  O56  1  0.06081000  0.24223000  0.43707000  1.0
  O  O57  1  0.93919000  0.74223000  0.06293000  1.0
  O  O58  1  0.93920000  0.75777000  0.56294000  1.0
  O  O59  1  0.06080000  0.25777000  0.93706000  1.0
  O  O60  1  0.54008000  0.70550000  0.64679000  1.0
  O  O61  1  0.45991000  0.20550000  0.85322000  1.0
  O  O62  1  0.45991000  0.29450000  0.35321000  1.0
  O  O63  1  0.54009000  0.79450000  0.14679000  1.0
  O  O64  1  0.44155000  0.79832000  0.82931000  1.0
  O  O65  1  0.55845000  0.29831000  0.67069000  1.0
  O  O66  1  0.55845000  0.20168000  0.17069000  1.0
  O  O67  1  0.44155000  0.70168000  0.32930000  1.0
  O  O68  1  0.91166000  0.99710000  0.80839000  1.0
  O  O69  1  0.08834000  0.49710000  0.69161000  1.0
  O  O70  1  0.08834000  0.00290000  0.19161000  1.0
  O  O71  1  0.91166000  0.50290000  0.30839000  1.0
  O  O72  1  0.27597000  0.98652000  0.97597000  1.0
  O  O73  1  0.72403000  0.48652000  0.52403000  1.0
  O  O74  1  0.72403000  0.01348000  0.02403000  1.0
  O  O75  1  0.27597000  0.51348000  0.47598000  1.0
