# generated using pymatgen
data_GdH19C30N5O7
_symmetry_space_group_name_H-M   'P 1'
_cell_length_a   10.50050000
_cell_length_b   11.18150000
_cell_length_c   13.47600000
_cell_angle_alpha   110.01600000
_cell_angle_beta   101.34200000
_cell_angle_gamma   107.87500000
_symmetry_Int_Tables_number   1
_chemical_formula_structural   GdH19C30N5O7
_chemical_formula_sum   'Gd2 H38 C60 N10 O14'
_cell_volume   1331.92732882
_cell_formula_units_Z   2
loop_
 _symmetry_equiv_pos_site_id
 _symmetry_equiv_pos_as_xyz
  1  'x, y, z'
loop_
 _atom_site_type_symbol
 _atom_site_label
 _atom_site_symmetry_multiplicity
 _atom_site_fract_x
 _atom_site_fract_y
 _atom_site_fract_z
 _atom_site_occupancy
  Gd  Gd0  1  0.49960000  0.91699000  0.62295000  1.0
  Gd  Gd1  1  0.50040000  0.08301000  0.37705000  1.0
  H  H2  1  0.41770000  0.56885000  0.99467000  1.0
  H  H3  1  0.58230000  0.43115000  0.00533000  1.0
  H  H4  1  0.26764000  0.32599000  0.95929000  1.0
  H  H5  1  0.73236000  0.67401000  0.04071000  1.0
  H  H6  1  0.96234000  0.44977000  0.38645000  1.0
  H  H7  1  0.03766000  0.55023000  0.61355000  1.0
  H  H8  1  0.03113000  0.30510000  0.47512000  1.0
  H  H9  1  0.96887000  0.69490000  0.52488000  1.0
  H  H10  1  0.23716000  0.24368000  0.44448000  1.0
  H  H11  1  0.76284000  0.75632000  0.55552000  1.0
  H  H12  1  0.06581000  0.68376000  0.29274000  1.0
  H  H13  1  0.93419000  0.31624000  0.70726000  1.0
  H  H14  1  0.80000000  0.55800000  0.21533000  1.0
  H  H15  1  0.20000000  0.44200000  0.78467000  1.0
  H  H16  1  0.65589000  0.67796000  0.30007000  1.0
  H  H17  1  0.34411000  0.32204000  0.69993000  1.0
  H  H18  1  0.84863000  0.07118000  0.77406000  1.0
  H  H19  1  0.15137000  0.92882000  0.22594000  1.0
  H  H20  1  0.03001000  0.22618000  0.96917000  1.0
  H  H21  1  0.96999000  0.77382000  0.03083000  1.0
  H  H22  1  0.94620000  0.31628000  0.12822000  1.0
  H  H23  1  0.05380000  0.68372000  0.87178000  1.0
  H  H24  1  0.73858000  0.31566000  0.19709000  1.0
  H  H25  1  0.26142000  0.68434000  0.80291000  1.0
  H  H26  1  0.48054000  0.24528000  0.15513000  1.0
  H  H27  1  0.51946000  0.75472000  0.84486000  1.0
  H  H28  1  0.23359000  0.11474000  0.01468000  1.0
  H  H29  1  0.76641000  0.88526000  0.98532000  1.0
  H  H30  1  0.07491000  0.96087000  0.81267000  1.0
  H  H31  1  0.92509000  0.03913000  0.18733000  1.0
  H  H32  1  0.18812000  0.89411000  0.66685000  1.0
  H  H33  1  0.81188000  0.10589000  0.33315000  1.0
  H  H34  1  0.49523000  0.75987000  0.19006000  1.0
  H  H35  1  0.50477000  0.24013000  0.80994000  1.0
  H  H36  1  0.36657000  0.64752000  0.63249000  1.0
  H  H37  1  0.63343000  0.35248000  0.36751000  1.0
  H  H38  1  0.25757000  0.65034000  0.53508000  1.0
  H  H39  1  0.74243000  0.34966000  0.46492000  1.0
  C  C40  1  0.42723000  0.74187000  0.36373000  1.0
  C  C41  1  0.57277000  0.25813000  0.63627000  1.0
  C  C42  1  0.37991000  0.62374000  0.25012000  1.0
  C  C43  1  0.62009000  0.37626000  0.74988000  1.0
  C  C44  1  0.38484000  0.54763000  0.06080000  1.0
  C  C45  1  0.61516000  0.45237000  0.93920000  1.0
  C  C46  1  0.30136000  0.41293000  0.04156000  1.0
  C  C47  1  0.69864000  0.58707000  0.95844000  1.0
  C  C48  1  0.29496000  0.48452000  0.22229000  1.0
  C  C49  1  0.70504000  0.51548000  0.77771000  1.0
  C  C50  1  0.23227000  0.44061000  0.30118000  1.0
  C  C51  1  0.76772000  0.55939000  0.69882000  1.0
  C  C52  1  0.05273000  0.42355000  0.37722000  1.0
  C  C53  1  0.94727000  0.57645000  0.62278000  1.0
  C  C54  1  0.09043000  0.34205000  0.42601000  1.0
  C  C55  1  0.90957000  0.65795000  0.57399000  1.0
  C  C56  1  0.20453000  0.30886000  0.40989000  1.0
  C  C57  1  0.79547000  0.69113000  0.59011000  1.0
  C  C58  1  0.27861000  0.36014000  0.34742000  1.0
  C  C59  1  0.72139000  0.63986000  0.65258000  1.0
  C  C60  1  0.40317000  0.32621000  0.33172000  1.0
  C  C61  1  0.59683000  0.67379000  0.66828000  1.0
  C  C62  1  0.22214000  0.93509000  0.45518000  1.0
  C  C63  1  0.77786000  0.06491000  0.54482000  1.0
  C  C64  1  0.06193000  0.86970000  0.41118000  1.0
  C  C65  1  0.93807000  0.13030000  0.58882000  1.0
  C  C66  1  0.99891000  0.73464000  0.32401000  1.0
  C  C67  1  0.00109000  0.26536000  0.67599000  1.0
  C  C68  1  0.85166000  0.66398000  0.28167000  1.0
  C  C69  1  0.14834000  0.33602000  0.71833000  1.0
  C  C70  1  0.77126000  0.73132000  0.32831000  1.0
  C  C71  1  0.22874000  0.26868000  0.67169000  1.0
  C  C72  1  0.97195000  0.92958000  0.45292000  1.0
  C  C73  1  0.02805000  0.07042000  0.54709000  1.0
  C  C74  1  0.81688000  0.11196000  0.84660000  1.0
  C  C75  1  0.18312000  0.88804000  0.15340000  1.0
  C  C76  1  0.91703000  0.19816000  0.95490000  1.0
  C  C77  1  0.08297000  0.80184000  0.04510000  1.0
  C  C78  1  0.87062000  0.24748000  0.04351000  1.0
  C  C79  1  0.12938000  0.75252000  0.95649000  1.0
  C  C80  1  0.72339000  0.20780000  0.02372000  1.0
  C  C81  1  0.27661000  0.79220000  0.97628000  1.0
  C  C82  1  0.63000000  0.11976000  0.91151000  1.0
  C  C83  1  0.37000000  0.88024000  0.08849000  1.0
  C  C84  1  0.66602000  0.25147000  0.11094000  1.0
  C  C85  1  0.33398000  0.74853000  0.88906000  1.0
  C  C86  1  0.52275000  0.21132000  0.08792000  1.0
  C  C87  1  0.47725000  0.78868000  0.91208000  1.0
  C  C88  1  0.42574000  0.12375000  0.97571000  1.0
  C  C89  1  0.57427000  0.87625000  0.02429000  1.0
  C  C90  1  0.47871000  0.07693000  0.88708000  1.0
  C  C91  1  0.52129000  0.92307000  0.11292000  1.0
  C  C92  1  0.27692000  0.08057000  0.94801000  1.0
  C  C93  1  0.72308000  0.91944000  0.05199000  1.0
  C  C94  1  0.19020000  0.99745000  0.83745000  1.0
  C  C95  1  0.80980000  0.00256000  0.16255000  1.0
  C  C96  1  0.25233000  0.95797000  0.75508000  1.0
  C  C97  1  0.74767000  0.04203000  0.24492000  1.0
  C  C98  1  0.42582000  0.65323000  0.16745000  1.0
  C  C99  1  0.57418000  0.34677000  0.83255000  1.0
  N  N100  1  0.25782000  0.38093000  0.11996000  1.0
  N  N101  1  0.74218000  0.61907000  0.88004000  1.0
  N  N102  1  0.12098000  0.47165000  0.31517000  1.0
  N  N103  1  0.87902000  0.52835000  0.68483000  1.0
  N  N104  1  0.82954000  0.86042000  0.41048000  1.0
  N  N105  1  0.17046000  0.13958000  0.58952000  1.0
  N  N106  1  0.67754000  0.07506000  0.82495000  1.0
  N  N107  1  0.32246000  0.92494000  0.17505000  1.0
  N  N108  1  0.39211000  0.99606000  0.77856000  1.0
  N  N109  1  0.60789000  0.00394000  0.22144000  1.0
  O  O110  1  0.46068000  0.86366000  0.36838000  1.0
  O  O111  1  0.53932000  0.13634000  0.63162000  1.0
  O  O112  1  0.43393000  0.71694000  0.44908000  1.0
  O  O113  1  0.56607000  0.28305000  0.55092000  1.0
  O  O114  1  0.51405000  0.41720000  0.33667000  1.0
  O  O115  1  0.48595000  0.58280000  0.66333000  1.0
  O  O116  1  0.38568000  0.20125000  0.31423000  1.0
  O  O117  1  0.61432000  0.79875000  0.68577000  1.0
  O  O118  1  0.27812000  0.89467000  0.52281000  1.0
  O  O119  1  0.72188000  0.10533000  0.47719000  1.0
  O  O120  1  0.28514000  0.00868000  0.41184000  1.0
  O  O121  1  0.71486000  0.99132000  0.58816000  1.0
  O  O122  1  0.31144000  0.70222000  0.61518000  1.0
  O  O123  1  0.68856000  0.29778000  0.38482000  1.0
