# generated using pymatgen
data_Cd5H24C42N4O23
_symmetry_space_group_name_H-M   'P 1'
_cell_length_a   13.43960000
_cell_length_b   14.32720000
_cell_length_c   26.26500000
_cell_angle_alpha   90.00030000
_cell_angle_beta   90.00020000
_cell_angle_gamma   69.65800000
_symmetry_Int_Tables_number   1
_chemical_formula_structural   Cd5H24C42N4O23
_chemical_formula_sum   'Cd20 H96 C168 N16 O92'
_cell_volume   4741.96766352
_cell_formula_units_Z   4
loop_
 _symmetry_equiv_pos_site_id
 _symmetry_equiv_pos_as_xyz
  1  'x, y, z'
loop_
 _atom_site_type_symbol
 _atom_site_label
 _atom_site_symmetry_multiplicity
 _atom_site_fract_x
 _atom_site_fract_y
 _atom_site_fract_z
 _atom_site_occupancy
  Cd  Cd0  1  0.36520000  0.14191000  0.07754000  1.0
  Cd  Cd1  1  0.37508000  0.85504000  0.99659000  1.0
  Cd  Cd2  1  0.26808000  0.75802000  0.09939000  1.0
  Cd  Cd3  1  0.24452000  0.76035000  0.90025000  1.0
  Cd  Cd4  1  0.61470000  0.37228000  0.75182000  1.0
  Cd  Cd5  1  0.13480000  0.35809000  0.57754000  1.0
  Cd  Cd6  1  0.12492000  0.64496000  0.49658000  1.0
  Cd  Cd7  1  0.23193000  0.74198000  0.59938000  1.0
  Cd  Cd8  1  0.25548000  0.73965000  0.40026000  1.0
  Cd  Cd9  1  0.88530000  0.12772000  0.25183000  1.0
  Cd  Cd10  1  0.63479000  0.85809000  0.92246000  1.0
  Cd  Cd11  1  0.62493000  0.14495000  0.00342000  1.0
  Cd  Cd12  1  0.73192000  0.24198000  0.90062000  1.0
  Cd  Cd13  1  0.75548000  0.23966000  0.09975000  1.0
  Cd  Cd14  1  0.38529000  0.62772000  0.24818000  1.0
  Cd  Cd15  1  0.86521000  0.64191000  0.42246000  1.0
  Cd  Cd16  1  0.87508000  0.35505000  0.50342000  1.0
  Cd  Cd17  1  0.76807000  0.25802000  0.40061000  1.0
  Cd  Cd18  1  0.74453000  0.26034000  0.59974000  1.0
  Cd  Cd19  1  0.11471000  0.87228000  0.74818000  1.0
  H  H20  1  0.44650000  0.28688000  0.12828000  1.0
  H  H21  1  0.53352000  0.18043000  0.12420000  1.0
  H  H22  1  0.30813000  0.06231000  0.16000000  1.0
  H  H23  1  0.19788000  0.09171000  0.13120000  1.0
  H  H24  1  0.55260000  0.00350000  0.12866000  1.0
  H  H25  1  0.49433000  0.93165000  0.11328000  1.0
  H  H26  1  0.05146000  0.14042000  0.02407000  1.0
  H  H27  1  0.33386000  0.47602000  0.02934000  1.0
  H  H28  1  0.28019000  0.53839000  0.10374000  1.0
  H  H29  1  0.17251000  0.43168000  0.09481000  1.0
  H  H30  1  0.83427000  0.57086000  0.15655000  1.0
  H  H31  1  0.73976000  0.44898000  0.15263000  1.0
  H  H32  1  0.95368000  0.27434000  0.04764000  1.0
  H  H33  1  0.05966000  0.38602000  0.04756000  1.0
  H  H34  1  0.89281000  0.69390000  0.11987000  1.0
  H  H35  1  0.01373000  0.79054000  0.12713000  1.0
  H  H36  1  0.12343000  0.06638000  0.70825000  1.0
  H  H37  1  0.23563000  0.17142000  0.70618000  1.0
  H  H38  1  0.54212000  0.04119000  0.79742000  1.0
  H  H39  1  0.64828000  0.15257000  0.79683000  1.0
  H  H40  1  0.47667000  0.31425000  0.67418000  1.0
  H  H41  1  0.36548000  0.20925000  0.66935000  1.0
  H  H42  1  0.49525000  0.91719000  0.76258000  1.0
  H  H43  1  0.37138000  0.82360000  0.76423000  1.0
  H  H44  1  0.05350000  0.21312000  0.62827000  1.0
  H  H45  1  0.96648000  0.31957000  0.62419000  1.0
  H  H46  1  0.19186000  0.43770000  0.66000000  1.0
  H  H47  1  0.30212000  0.40829000  0.63119000  1.0
  H  H48  1  0.94741000  0.49650000  0.62866000  1.0
  H  H49  1  0.00568000  0.56834000  0.61327000  1.0
  H  H50  1  0.44855000  0.35957000  0.52407000  1.0
  H  H51  1  0.16615000  0.02397000  0.52934000  1.0
  H  H52  1  0.21980000  0.96162000  0.60374000  1.0
  H  H53  1  0.32749000  0.06832000  0.59481000  1.0
  H  H54  1  0.66572000  0.92914000  0.65655000  1.0
  H  H55  1  0.76024000  0.05102000  0.65263000  1.0
  H  H56  1  0.54632000  0.22566000  0.54764000  1.0
  H  H57  1  0.44034000  0.11398000  0.54757000  1.0
  H  H58  1  0.60718000  0.80611000  0.61988000  1.0
  H  H59  1  0.48626000  0.70946000  0.62712000  1.0
  H  H60  1  0.37657000  0.43363000  0.20825000  1.0
  H  H61  1  0.26437000  0.32858000  0.20618000  1.0
  H  H62  1  0.95788000  0.45881000  0.29742000  1.0
  H  H63  1  0.85172000  0.34743000  0.29683000  1.0
  H  H64  1  0.02332000  0.18576000  0.17418000  1.0
  H  H65  1  0.13452000  0.29076000  0.16934000  1.0
  H  H66  1  0.00474000  0.58280000  0.26258000  1.0
  H  H67  1  0.12861000  0.67641000  0.26422000  1.0
  H  H68  1  0.55350000  0.71313000  0.87172000  1.0
  H  H69  1  0.46647000  0.81957000  0.87581000  1.0
  H  H70  1  0.69186000  0.93770000  0.84000000  1.0
  H  H71  1  0.80212000  0.90829000  0.86881000  1.0
  H  H72  1  0.44740000  0.99650000  0.87135000  1.0
  H  H73  1  0.50567000  0.06835000  0.88673000  1.0
  H  H74  1  0.94855000  0.85958000  0.97593000  1.0
  H  H75  1  0.66615000  0.52398000  0.97066000  1.0
  H  H76  1  0.71981000  0.46161000  0.89626000  1.0
  H  H77  1  0.82749000  0.56832000  0.90519000  1.0
  H  H78  1  0.16572000  0.42914000  0.84345000  1.0
  H  H79  1  0.26023000  0.55103000  0.84737000  1.0
  H  H80  1  0.04632000  0.72566000  0.95236000  1.0
  H  H81  1  0.94034000  0.61398000  0.95244000  1.0
  H  H82  1  0.10719000  0.30610000  0.88012000  1.0
  H  H83  1  0.98626000  0.20946000  0.87288000  1.0
  H  H84  1  0.87657000  0.93363000  0.29175000  1.0
  H  H85  1  0.76437000  0.82858000  0.29382000  1.0
  H  H86  1  0.45788000  0.95881000  0.20258000  1.0
  H  H87  1  0.35172000  0.84743000  0.20317000  1.0
  H  H88  1  0.52332000  0.68576000  0.32582000  1.0
  H  H89  1  0.63452000  0.79076000  0.33065000  1.0
  H  H90  1  0.50474000  0.08280000  0.23742000  1.0
  H  H91  1  0.62861000  0.17640000  0.23577000  1.0
  H  H92  1  0.94650000  0.78688000  0.37172000  1.0
  H  H93  1  0.03352000  0.68043000  0.37581000  1.0
  H  H94  1  0.80813000  0.56231000  0.33999000  1.0
  H  H95  1  0.69788000  0.59171000  0.36881000  1.0
  H  H96  1  0.05259000  0.50350000  0.37135000  1.0
  H  H97  1  0.99432000  0.43166000  0.38673000  1.0
  H  H98  1  0.55145000  0.64043000  0.47593000  1.0
  H  H99  1  0.83384000  0.97602000  0.47066000  1.0
  H  H100  1  0.78019000  0.03838000  0.39626000  1.0
  H  H101  1  0.67251000  0.93168000  0.40519000  1.0
  H  H102  1  0.33428000  0.07086000  0.34345000  1.0
  H  H103  1  0.23976000  0.94897000  0.34737000  1.0
  H  H104  1  0.45369000  0.77434000  0.45236000  1.0
  H  H105  1  0.55966000  0.88602000  0.45243000  1.0
  H  H106  1  0.39281000  0.19390000  0.38012000  1.0
  H  H107  1  0.51374000  0.29054000  0.37287000  1.0
  H  H108  1  0.62343000  0.56637000  0.79175000  1.0
  H  H109  1  0.73563000  0.67142000  0.79382000  1.0
  H  H110  1  0.04212000  0.54119000  0.70257000  1.0
  H  H111  1  0.14828000  0.65258000  0.70317000  1.0
  H  H112  1  0.97666000  0.81426000  0.82581000  1.0
  H  H113  1  0.86547000  0.70925000  0.83065000  1.0
  H  H114  1  0.99526000  0.41719000  0.73741000  1.0
  H  H115  1  0.87139000  0.32359000  0.73577000  1.0
  C  C116  1  0.97187000  0.09701000  0.96258000  1.0
  C  C117  1  0.98307000  0.05024000  0.91465000  1.0
  C  C118  1  0.08559000  0.01274000  0.89321000  1.0
  C  C119  1  0.17500000  0.02052000  0.91824000  1.0
  C  C120  1  0.16122000  0.07137000  0.96509000  1.0
  C  C121  1  0.06005000  0.10799000  0.98619000  1.0
  C  C122  1  0.87012000  0.13161000  0.99184000  1.0
  C  C123  1  0.89394000  0.02950000  0.88607000  1.0
  C  C124  1  0.09753000  0.96074000  0.84301000  1.0
  C  C125  1  0.28369000  0.97443000  0.89450000  1.0
  C  C126  1  0.24807000  0.08359000  0.99757000  1.0
  C  C127  1  0.38834000  0.53567000  0.96466000  1.0
  C  C128  1  0.43555000  0.51583000  0.91603000  1.0
  C  C129  1  0.46704000  0.41724000  0.89765000  1.0
  C  C130  1  0.45270000  0.33997000  0.92652000  1.0
  C  C131  1  0.40088000  0.36251000  0.97404000  1.0
  C  C132  1  0.36959000  0.45989000  0.99183000  1.0
  C  C133  1  0.36082000  0.63405000  0.99098000  1.0
  C  C134  1  0.45910000  0.59406000  0.88349000  1.0
  C  C135  1  0.51864000  0.39655000  0.84627000  1.0
  C  C136  1  0.49257000  0.23432000  0.90659000  1.0
  C  C137  1  0.38237000  0.28864000  0.00995000  1.0
  C  C138  1  0.19396000  0.57081000  0.10633000  1.0
  C  C139  1  0.13244000  0.51087000  0.10185000  1.0
  C  C140  1  0.02173000  0.55311000  0.10651000  1.0
  C  C141  1  0.95662000  0.48882000  0.10271000  1.0
  C  C142  1  0.86391000  0.50634000  0.13157000  1.0
  C  C143  1  0.81074000  0.43855000  0.12981000  1.0
  C  C144  1  0.93076000  0.34083000  0.07124000  1.0
  C  C145  1  0.98908000  0.40403000  0.07145000  1.0
  C  C146  1  0.97822000  0.65574000  0.11621000  1.0
  C  C147  1  0.04536000  0.71077000  0.11974000  1.0
  C  C148  1  0.20619000  0.03624000  0.72025000  1.0
  C  C149  1  0.26998000  0.09423000  0.71859000  1.0
  C  C150  1  0.37654000  0.05316000  0.73362000  1.0
  C  C151  1  0.44534000  0.11409000  0.73281000  1.0
  C  C152  1  0.52800000  0.09806000  0.76804000  1.0
  C  C153  1  0.58618000  0.16138000  0.76858000  1.0
  C  C154  1  0.48989000  0.25205000  0.70048000  1.0
  C  C155  1  0.42790000  0.19234000  0.69793000  1.0
  C  C156  1  0.41366000  0.95373000  0.75002000  1.0
  C  C157  1  0.34486000  0.90043000  0.75081000  1.0
  C  C158  1  0.52814000  0.40299000  0.46258000  1.0
  C  C159  1  0.51693000  0.44975000  0.41465000  1.0
  C  C160  1  0.41442000  0.48725000  0.39321000  1.0
  C  C161  1  0.32500000  0.47948000  0.41824000  1.0
  C  C162  1  0.33879000  0.42862000  0.46509000  1.0
  C  C163  1  0.43996000  0.39200000  0.48619000  1.0
  C  C164  1  0.62989000  0.36839000  0.49184000  1.0
  C  C165  1  0.60606000  0.47049000  0.38607000  1.0
  C  C166  1  0.40247000  0.53926000  0.34300000  1.0
  C  C167  1  0.21631000  0.52557000  0.39450000  1.0
  C  C168  1  0.25193000  0.41641000  0.49757000  1.0
  C  C169  1  0.11166000  0.96433000  0.46466000  1.0
  C  C170  1  0.06445000  0.98417000  0.41603000  1.0
  C  C171  1  0.03297000  0.08276000  0.39765000  1.0
  C  C172  1  0.04730000  0.16003000  0.42652000  1.0
  C  C173  1  0.09913000  0.13749000  0.47404000  1.0
  C  C174  1  0.13042000  0.04011000  0.49183000  1.0
  C  C175  1  0.13918000  0.86595000  0.49098000  1.0
  C  C176  1  0.04090000  0.90595000  0.38349000  1.0
  C  C177  1  0.98137000  0.10345000  0.34627000  1.0
  C  C178  1  0.00744000  0.26568000  0.40659000  1.0
  C  C179  1  0.11763000  0.21136000  0.50995000  1.0
  C  C180  1  0.30603000  0.92920000  0.60633000  1.0
  C  C181  1  0.36755000  0.98913000  0.60186000  1.0
  C  C182  1  0.47826000  0.94690000  0.60651000  1.0
  C  C183  1  0.54338000  0.01119000  0.60271000  1.0
  C  C184  1  0.63609000  0.99366000  0.63157000  1.0
  C  C185  1  0.68925000  0.06145000  0.62981000  1.0
  C  C186  1  0.56923000  0.15917000  0.57124000  1.0
  C  C187  1  0.51091000  0.09598000  0.57145000  1.0
  C  C188  1  0.52176000  0.84426000  0.61621000  1.0
  C  C189  1  0.45463000  0.78924000  0.61974000  1.0
  C  C190  1  0.29381000  0.46377000  0.22025000  1.0
  C  C191  1  0.23002000  0.40577000  0.21859000  1.0
  C  C192  1  0.12346000  0.44684000  0.23362000  1.0
  C  C193  1  0.05466000  0.38591000  0.23281000  1.0
  C  C194  1  0.97200000  0.40194000  0.26804000  1.0
  C  C195  1  0.91382000  0.33862000  0.26858000  1.0
  C  C196  1  0.01011000  0.24795000  0.20048000  1.0
  C  C197  1  0.07210000  0.30766000  0.19793000  1.0
  C  C198  1  0.08634000  0.54627000  0.25002000  1.0
  C  C199  1  0.15513000  0.59957000  0.25081000  1.0
  C  C200  1  0.02814000  0.90299000  0.03742000  1.0
  C  C201  1  0.01693000  0.94975000  0.08535000  1.0
  C  C202  1  0.91442000  0.98725000  0.10679000  1.0
  C  C203  1  0.82500000  0.97948000  0.08176000  1.0
  C  C204  1  0.83879000  0.92863000  0.03491000  1.0
  C  C205  1  0.93996000  0.89200000  0.01381000  1.0
  C  C206  1  0.12989000  0.86839000  0.00816000  1.0
  C  C207  1  0.10606000  0.97049000  0.11393000  1.0
  C  C208  1  0.90247000  0.03926000  0.15700000  1.0
  C  C209  1  0.71631000  0.02557000  0.10550000  1.0
  C  C210  1  0.75193000  0.91641000  0.00243000  1.0
  C  C211  1  0.61166000  0.46434000  0.03534000  1.0
  C  C212  1  0.56445000  0.48417000  0.08397000  1.0
  C  C213  1  0.53296000  0.58276000  0.10236000  1.0
  C  C214  1  0.54730000  0.66003000  0.07349000  1.0
  C  C215  1  0.59913000  0.63750000  0.02597000  1.0
  C  C216  1  0.63042000  0.54012000  0.00818000  1.0
  C  C217  1  0.63918000  0.36595000  0.00903000  1.0
  C  C218  1  0.54090000  0.40595000  0.11651000  1.0
  C  C219  1  0.48136000  0.60345000  0.15373000  1.0
  C  C220  1  0.50744000  0.76568000  0.09342000  1.0
  C  C221  1  0.61763000  0.71136000  0.99005000  1.0
  C  C222  1  0.80604000  0.42919000  0.89368000  1.0
  C  C223  1  0.86756000  0.48913000  0.89815000  1.0
  C  C224  1  0.97826000  0.44690000  0.89349000  1.0
  C  C225  1  0.04338000  0.51119000  0.89729000  1.0
  C  C226  1  0.13609000  0.49366000  0.86843000  1.0
  C  C227  1  0.18925000  0.56145000  0.87019000  1.0
  C  C228  1  0.06923000  0.65917000  0.92876000  1.0
  C  C229  1  0.01091000  0.59597000  0.92855000  1.0
  C  C230  1  0.02177000  0.34426000  0.88379000  1.0
  C  C231  1  0.95464000  0.28923000  0.88026000  1.0
  C  C232  1  0.79380000  0.96377000  0.27974000  1.0
  C  C233  1  0.73001000  0.90578000  0.28140000  1.0
  C  C234  1  0.62345000  0.94684000  0.26638000  1.0
  C  C235  1  0.55466000  0.88591000  0.26719000  1.0
  C  C236  1  0.47200000  0.90194000  0.23196000  1.0
  C  C237  1  0.41382000  0.83862000  0.23142000  1.0
  C  C238  1  0.51011000  0.74795000  0.29952000  1.0
  C  C239  1  0.57209000  0.80766000  0.30207000  1.0
  C  C240  1  0.58634000  0.04627000  0.24997000  1.0
  C  C241  1  0.65513000  0.09957000  0.24919000  1.0
  C  C242  1  0.47187000  0.59701000  0.53742000  1.0
  C  C243  1  0.48307000  0.55024000  0.58535000  1.0
  C  C244  1  0.58559000  0.51274000  0.60679000  1.0
  C  C245  1  0.67500000  0.52052000  0.58176000  1.0
  C  C246  1  0.66122000  0.57137000  0.53491000  1.0
  C  C247  1  0.56005000  0.60800000  0.51381000  1.0
  C  C248  1  0.37012000  0.63161000  0.50816000  1.0
  C  C249  1  0.39394000  0.52950000  0.61393000  1.0
  C  C250  1  0.59754000  0.46074000  0.65699000  1.0
  C  C251  1  0.78369000  0.47443000  0.60550000  1.0
  C  C252  1  0.74807000  0.58358000  0.50243000  1.0
  C  C253  1  0.88834000  0.03566000  0.53534000  1.0
  C  C254  1  0.93555000  0.01583000  0.58397000  1.0
  C  C255  1  0.96704000  0.91724000  0.60235000  1.0
  C  C256  1  0.95270000  0.83997000  0.57348000  1.0
  C  C257  1  0.90087000  0.86250000  0.52596000  1.0
  C  C258  1  0.86958000  0.95988000  0.50818000  1.0
  C  C259  1  0.86082000  0.13405000  0.50902000  1.0
  C  C260  1  0.95910000  0.09405000  0.61651000  1.0
  C  C261  1  0.01864000  0.89655000  0.65373000  1.0
  C  C262  1  0.99256000  0.73432000  0.59342000  1.0
  C  C263  1  0.88237000  0.78864000  0.49005000  1.0
  C  C264  1  0.69396000  0.07081000  0.39367000  1.0
  C  C265  1  0.63244000  0.01087000  0.39814000  1.0
  C  C266  1  0.52174000  0.05311000  0.39349000  1.0
  C  C267  1  0.45662000  0.98881000  0.39729000  1.0
  C  C268  1  0.36392000  0.00634000  0.36843000  1.0
  C  C269  1  0.31075000  0.93855000  0.37019000  1.0
  C  C270  1  0.43077000  0.84083000  0.42875000  1.0
  C  C271  1  0.48908000  0.90402000  0.42854000  1.0
  C  C272  1  0.47823000  0.15574000  0.38378000  1.0
  C  C273  1  0.54536000  0.21076000  0.38026000  1.0
  C  C274  1  0.70620000  0.53623000  0.77974000  1.0
  C  C275  1  0.76999000  0.59422000  0.78141000  1.0
  C  C276  1  0.87655000  0.55316000  0.76638000  1.0
  C  C277  1  0.94534000  0.61409000  0.76718000  1.0
  C  C278  1  0.02800000  0.59807000  0.73195000  1.0
  C  C279  1  0.08618000  0.66139000  0.73142000  1.0
  C  C280  1  0.98988000  0.75206000  0.79952000  1.0
  C  C281  1  0.92790000  0.69234000  0.80206000  1.0
  C  C282  1  0.91366000  0.45373000  0.74997000  1.0
  C  C283  1  0.84487000  0.40043000  0.74919000  1.0
  N  N284  1  0.15146000  0.66978000  0.11432000  1.0
  N  N285  1  0.84388000  0.35648000  0.10033000  1.0
  N  N286  1  0.24293000  0.94068000  0.73593000  1.0
  N  N287  1  0.56692000  0.23786000  0.73569000  1.0
  N  N288  1  0.34853000  0.83022000  0.61432000  1.0
  N  N289  1  0.65612000  0.14352000  0.60032000  1.0
  N  N290  1  0.25707000  0.55933000  0.23593000  1.0
  N  N291  1  0.93308000  0.26214000  0.23569000  1.0
  N  N292  1  0.84853000  0.33022000  0.88569000  1.0
  N  N293  1  0.15612000  0.64352000  0.89967000  1.0
  N  N294  1  0.75707000  0.05932000  0.26406000  1.0
  N  N295  1  0.43308000  0.76214000  0.26431000  1.0
  N  N296  1  0.65147000  0.16978000  0.38568000  1.0
  N  N297  1  0.34388000  0.85648000  0.39967000  1.0
  N  N298  1  0.74294000  0.44067000  0.76406000  1.0
  N  N299  1  0.06692000  0.73787000  0.76431000  1.0
  O  O300  1  0.87149000  0.16541000  0.03608000  1.0
  O  O301  1  0.78830000  0.12405000  0.96950000  1.0
  O  O302  1  0.82461000  0.09953000  0.86198000  1.0
  O  O303  1  0.90034000  0.93943000  0.88622000  1.0
  O  O304  1  0.04334000  0.00587000  0.80563000  1.0
  O  O305  1  0.16271000  0.87007000  0.83872000  1.0
  O  O306  1  0.31582000  0.02508000  0.86460000  1.0
  O  O307  1  0.33711000  0.88266000  0.90710000  1.0
  O  O308  1  0.34228000  0.01890000  0.99703000  1.0
  O  O309  1  0.22165000  0.15870000  0.02665000  1.0
  O  O310  1  0.32483000  0.64124000  0.03564000  1.0
  O  O311  1  0.37605000  0.70506000  0.96571000  1.0
  O  O312  1  0.38265000  0.65612000  0.85852000  1.0
  O  O313  1  0.55423000  0.58966000  0.88155000  1.0
  O  O314  1  0.46989000  0.44431000  0.80815000  1.0
  O  O315  1  0.61338000  0.33165000  0.84162000  1.0
  O  O316  1  0.43201000  0.20234000  0.88223000  1.0
  O  O317  1  0.59104000  0.18164000  0.91691000  1.0
  O  O318  1  0.44626000  0.19616000  0.00866000  1.0
  O  O319  1  0.30806000  0.31773000  0.04154000  1.0
  O  O320  1  0.45764000  0.21456000  0.13293000  1.0
  O  O321  1  0.25609000  0.11796000  0.14250000  1.0
  O  O322  1  0.47959000  0.00346000  0.12064000  1.0
  O  O323  1  0.62852000  0.33459000  0.53607000  1.0
  O  O324  1  0.71170000  0.37595000  0.46950000  1.0
  O  O325  1  0.67539000  0.40046000  0.36198000  1.0
  O  O326  1  0.59967000  0.56057000  0.38622000  1.0
  O  O327  1  0.45666000  0.49413000  0.30563000  1.0
  O  O328  1  0.33729000  0.62993000  0.33872000  1.0
  O  O329  1  0.18418000  0.47492000  0.36460000  1.0
  O  O330  1  0.16290000  0.61733000  0.40709000  1.0
  O  O331  1  0.15772000  0.48110000  0.49702000  1.0
  O  O332  1  0.27835000  0.34130000  0.52665000  1.0
  O  O333  1  0.17517000  0.85876000  0.53564000  1.0
  O  O334  1  0.12395000  0.79494000  0.46571000  1.0
  O  O335  1  0.11735000  0.84388000  0.35852000  1.0
  O  O336  1  0.94577000  0.91034000  0.38155000  1.0
  O  O337  1  0.03011000  0.05569000  0.30815000  1.0
  O  O338  1  0.88662000  0.16835000  0.34162000  1.0
  O  O339  1  0.06799000  0.29766000  0.38223000  1.0
  O  O340  1  0.90896000  0.31836000  0.41691000  1.0
  O  O341  1  0.05375000  0.30384000  0.50866000  1.0
  O  O342  1  0.19195000  0.18228000  0.54154000  1.0
  O  O343  1  0.04236000  0.28544000  0.63293000  1.0
  O  O344  1  0.24391000  0.38204000  0.64250000  1.0
  O  O345  1  0.02041000  0.49654000  0.62063000  1.0
  O  O346  1  0.12852000  0.83459000  0.96393000  1.0
  O  O347  1  0.21170000  0.87595000  0.03051000  1.0
  O  O348  1  0.17540000  0.90046000  0.13802000  1.0
  O  O349  1  0.09966000  0.06057000  0.11379000  1.0
  O  O350  1  0.95666000  0.99413000  0.19437000  1.0
  O  O351  1  0.83729000  0.12993000  0.16128000  1.0
  O  O352  1  0.68419000  0.97492000  0.13540000  1.0
  O  O353  1  0.66290000  0.11734000  0.09291000  1.0
  O  O354  1  0.65772000  0.98110000  0.00298000  1.0
  O  O355  1  0.77835000  0.84130000  0.97335000  1.0
  O  O356  1  0.67518000  0.35876000  0.96437000  1.0
  O  O357  1  0.62395000  0.29494000  0.03429000  1.0
  O  O358  1  0.61735000  0.34388000  0.14148000  1.0
  O  O359  1  0.44577000  0.41034000  0.11845000  1.0
  O  O360  1  0.53011000  0.55569000  0.19185000  1.0
  O  O361  1  0.38661000  0.66835000  0.15838000  1.0
  O  O362  1  0.56800000  0.79766000  0.11778000  1.0
  O  O363  1  0.40897000  0.81836000  0.08309000  1.0
  O  O364  1  0.55374000  0.80385000  0.99134000  1.0
  O  O365  1  0.69195000  0.68228000  0.95847000  1.0
  O  O366  1  0.54236000  0.78544000  0.86707000  1.0
  O  O367  1  0.74391000  0.88204000  0.85750000  1.0
  O  O368  1  0.52041000  0.99655000  0.87937000  1.0
  O  O369  1  0.37149000  0.66541000  0.46392000  1.0
  O  O370  1  0.28830000  0.62405000  0.53050000  1.0
  O  O371  1  0.32461000  0.59953000  0.63802000  1.0
  O  O372  1  0.40033000  0.43943000  0.61378000  1.0
  O  O373  1  0.54334000  0.50587000  0.69437000  1.0
  O  O374  1  0.66271000  0.37007000  0.66128000  1.0
  O  O375  1  0.81582000  0.52508000  0.63540000  1.0
  O  O376  1  0.83710000  0.38266000  0.59290000  1.0
  O  O377  1  0.84229000  0.51890000  0.50297000  1.0
  O  O378  1  0.72165000  0.65870000  0.47335000  1.0
  O  O379  1  0.82483000  0.14123000  0.46436000  1.0
  O  O380  1  0.87605000  0.20506000  0.53429000  1.0
  O  O381  1  0.88266000  0.15611000  0.64148000  1.0
  O  O382  1  0.05423000  0.08966000  0.61845000  1.0
  O  O383  1  0.96989000  0.94431000  0.69185000  1.0
  O  O384  1  0.11339000  0.83165000  0.65838000  1.0
  O  O385  1  0.93200000  0.70234000  0.61777000  1.0
  O  O386  1  0.09103000  0.68164000  0.58309000  1.0
  O  O387  1  0.94626000  0.69616000  0.49133000  1.0
  O  O388  1  0.80805000  0.81772000  0.45846000  1.0
  O  O389  1  0.95764000  0.71456000  0.36707000  1.0
  O  O390  1  0.75609000  0.61796000  0.35750000  1.0
  O  O391  1  0.97958000  0.50346000  0.37937000  1.0
