# generated using pymatgen
data_CdH4(CN)8
_symmetry_space_group_name_H-M   'P 1'
_cell_length_a   9.47347000
_cell_length_b   11.02520000
_cell_length_c   12.06820000
_cell_angle_alpha   90.00260000
_cell_angle_beta   74.80500000
_cell_angle_gamma   90.00060000
_symmetry_Int_Tables_number   1
_chemical_formula_structural   CdH4(CN)8
_chemical_formula_sum   'Cd4 H16 C32 N32'
_cell_volume   1216.41870814
_cell_formula_units_Z   4
loop_
 _symmetry_equiv_pos_site_id
 _symmetry_equiv_pos_as_xyz
  1  'x, y, z'
loop_
 _atom_site_type_symbol
 _atom_site_label
 _atom_site_symmetry_multiplicity
 _atom_site_fract_x
 _atom_site_fract_y
 _atom_site_fract_z
 _atom_site_occupancy
  Cd  Cd0  1  0.82473000  0.85503000  0.19210000  1.0
  Cd  Cd1  1  0.17529000  0.35504000  0.30790000  1.0
  Cd  Cd2  1  0.17527000  0.14499000  0.80791000  1.0
  Cd  Cd3  1  0.82472000  0.64496000  0.69209000  1.0
  H  H4  1  0.08554000  0.56704000  0.13482000  1.0
  H  H5  1  0.91450000  0.06705000  0.36519000  1.0
  H  H6  1  0.91447000  0.43296000  0.86519000  1.0
  H  H7  1  0.08551000  0.93296000  0.63482000  1.0
  H  H8  1  0.50092000  0.79237000  0.95873000  1.0
  H  H9  1  0.49908000  0.29235000  0.54128000  1.0
  H  H10  1  0.49910000  0.20767000  0.04129000  1.0
  H  H11  1  0.50096000  0.70762000  0.45873000  1.0
  H  H12  1  0.47204000  0.04218000  0.63302000  1.0
  H  H13  1  0.52791000  0.54218000  0.86698000  1.0
  H  H14  1  0.52793000  0.95781000  0.36697000  1.0
  H  H15  1  0.47207000  0.45783000  0.13301000  1.0
  H  H16  1  0.30959000  0.95865000  0.97961000  1.0
  H  H17  1  0.69040000  0.45863000  0.52039000  1.0
  H  H18  1  0.69041000  0.04138000  0.02040000  1.0
  H  H19  1  0.30964000  0.54133000  0.47961000  1.0
  C  C20  1  0.03053000  0.59100000  0.22284000  1.0
  C  C21  1  0.96950000  0.09100000  0.27718000  1.0
  C  C22  1  0.96948000  0.40902000  0.77717000  1.0
  C  C23  1  0.03051000  0.90900000  0.72283000  1.0
  C  C24  1  0.58108000  0.89318000  0.69455000  1.0
  C  C25  1  0.41888000  0.39318000  0.80544000  1.0
  C  C26  1  0.41891000  0.10683000  0.30544000  1.0
  C  C27  1  0.58112000  0.60682000  0.19456000  1.0
  C  C28  1  0.49432000  0.84880000  0.88575000  1.0
  C  C29  1  0.50565000  0.34878000  0.61425000  1.0
  C  C30  1  0.50568000  0.15124000  0.11426000  1.0
  C  C31  1  0.49436000  0.65119000  0.38576000  1.0
  C  C32  1  0.47928000  0.98855000  0.70717000  1.0
  C  C33  1  0.52069000  0.48855000  0.79282000  1.0
  C  C34  1  0.52070000  0.01143000  0.29282000  1.0
  C  C35  1  0.47931000  0.51145000  0.20717000  1.0
  C  C36  1  0.39031000  0.94095000  0.89830000  1.0
  C  C37  1  0.60966000  0.44092000  0.60171000  1.0
  C  C38  1  0.60968000  0.05908000  0.10171000  1.0
  C  C39  1  0.39037000  0.55904000  0.39827000  1.0
  C  C40  1  0.90823000  0.67956000  0.37229000  1.0
  C  C41  1  0.09176000  0.17956000  0.12771000  1.0
  C  C42  1  0.09176000  0.32045000  0.62771000  1.0
  C  C43  1  0.90826000  0.82042000  0.87229000  1.0
  C  C44  1  0.81509000  0.76764000  0.44411000  1.0
  C  C45  1  0.18488000  0.26763000  0.05589000  1.0
  C  C46  1  0.18489000  0.23237000  0.55589000  1.0
  C  C47  1  0.81513000  0.73236000  0.94411000  1.0
  C  C48  1  0.67426000  0.86321000  0.58175000  1.0
  C  C49  1  0.32569000  0.36321000  0.91824000  1.0
  C  C50  1  0.32571000  0.13679000  0.41824000  1.0
  C  C51  1  0.67431000  0.63677000  0.08174000  1.0
  N  N52  1  0.58842000  0.82347000  0.78443000  1.0
  N  N53  1  0.41155000  0.32345000  0.71556000  1.0
  N  N54  1  0.41157000  0.17655000  0.21557000  1.0
  N  N55  1  0.58845000  0.67653000  0.28444000  1.0
  N  N56  1  0.03480000  0.52117000  0.31352000  1.0
  N  N57  1  0.96522000  0.02116000  0.18649000  1.0
  N  N58  1  0.96521000  0.47885000  0.68650000  1.0
  N  N59  1  0.03478000  0.97884000  0.81352000  1.0
  N  N60  1  0.38372000  0.01057000  0.80790000  1.0
  N  N61  1  0.61625000  0.51056000  0.69209000  1.0
  N  N62  1  0.61627000  0.98944000  0.19209000  1.0
  N  N63  1  0.38377000  0.48942000  0.30789000  1.0
  N  N64  1  0.95536000  0.57797000  0.41054000  1.0
  N  N65  1  0.04463000  0.07796000  0.08947000  1.0
  N  N66  1  0.04465000  0.42204000  0.58947000  1.0
  N  N67  1  0.95537000  0.92202000  0.91054000  1.0
  N  N68  1  0.76119000  0.86284000  0.39839000  1.0
  N  N69  1  0.23878000  0.36284000  0.10160000  1.0
  N  N70  1  0.23878000  0.13715000  0.60160000  1.0
  N  N71  1  0.76122000  0.63716000  0.89839000  1.0
  N  N72  1  0.95155000  0.69241000  0.25561000  1.0
  N  N73  1  0.04846000  0.19241000  0.24440000  1.0
  N  N74  1  0.04845000  0.30760000  0.74439000  1.0
  N  N75  1  0.95155000  0.80758000  0.75561000  1.0
  N  N76  1  0.76423000  0.76454000  0.55942000  1.0
  N  N77  1  0.23573000  0.26454000  0.94057000  1.0
  N  N78  1  0.23575000  0.23546000  0.44058000  1.0
  N  N79  1  0.76427000  0.73544000  0.05943000  1.0
  N  N80  1  0.67104000  0.92457000  0.48610000  1.0
  N  N81  1  0.32891000  0.42457000  0.01389000  1.0
  N  N82  1  0.32892000  0.07542000  0.51389000  1.0
  N  N83  1  0.67108000  0.57543000  0.98610000  1.0
