# generated using pymatgen
data_ZnH24C29N2O5
_symmetry_space_group_name_H-M   'P 1'
_cell_length_a   8.96286000
_cell_length_b   9.49268000
_cell_length_c   14.93530000
_cell_angle_alpha   90.41060000
_cell_angle_beta   100.31800000
_cell_angle_gamma   106.79000000
_symmetry_Int_Tables_number   1
_chemical_formula_structural   ZnH24C29N2O5
_chemical_formula_sum   'Zn2 H48 C58 N4 O10'
_cell_volume   1194.53191296
_cell_formula_units_Z   2
loop_
 _symmetry_equiv_pos_site_id
 _symmetry_equiv_pos_as_xyz
  1  'x, y, z'
loop_
 _atom_site_type_symbol
 _atom_site_label
 _atom_site_symmetry_multiplicity
 _atom_site_fract_x
 _atom_site_fract_y
 _atom_site_fract_z
 _atom_site_occupancy
  Zn  Zn0  1  0.91797000  0.30012000  0.43075000  1.0
  Zn  Zn1  1  0.08203000  0.69988000  0.56925000  1.0
  H  H2  1  0.80682000  0.29725000  0.89178000  1.0
  H  H3  1  0.19318000  0.70275000  0.10822000  1.0
  H  H4  1  0.05980000  0.13489000  0.58644000  1.0
  H  H5  1  0.94020000  0.86511000  0.41356000  1.0
  H  H6  1  0.85221000  0.94470000  0.81108000  1.0
  H  H7  1  0.14779000  0.05530000  0.18892000  1.0
  H  H8  1  0.92093000  0.40882000  0.76704000  1.0
  H  H9  1  0.07906000  0.59117000  0.23295000  1.0
  H  H10  1  0.81088000  0.15180000  0.01176000  1.0
  H  H11  1  0.18911000  0.84820000  0.98824000  1.0
  H  H12  1  0.90403000  0.04539000  0.95685000  1.0
  H  H13  1  0.09597000  0.95461000  0.04315000  1.0
  H  H14  1  0.30706000  0.36372000  0.22662000  1.0
  H  H15  1  0.69294000  0.63629000  0.77338000  1.0
  H  H16  1  0.56341000  0.04521000  0.79999000  1.0
  H  H17  1  0.43659000  0.95478000  0.20001000  1.0
  H  H18  1  0.57433000  0.55360000  0.25453000  1.0
  H  H19  1  0.42568000  0.44640000  0.74548000  1.0
  H  H20  1  0.83558000  0.94831000  0.09170000  1.0
  H  H21  1  0.16442000  0.05170000  0.90830000  1.0
  H  H22  1  0.12332000  0.34539000  0.07969000  1.0
  H  H23  1  0.87668000  0.65463000  0.92031000  1.0
  H  H24  1  0.12650000  0.61783000  0.81156000  1.0
  H  H25  1  0.87350000  0.38217000  0.18844000  1.0
  H  H26  1  0.66387000  0.12889000  0.61931000  1.0
  H  H27  1  0.33612000  0.87111000  0.38070000  1.0
  H  H28  1  0.46045000  0.03284000  0.62390000  1.0
  H  H29  1  0.53954000  0.96716000  0.37610000  1.0
  H  H30  1  0.54905000  0.21508000  0.67509000  1.0
  H  H31  1  0.45095000  0.78492000  0.32491000  1.0
  H  H32  1  0.76732000  0.76731000  0.20357000  1.0
  H  H33  1  0.23268000  0.23269000  0.79643000  1.0
  H  H34  1  0.30790000  0.84502000  0.76719000  1.0
  H  H35  1  0.69210000  0.15498000  0.23280000  1.0
  H  H36  1  0.05913000  0.43456000  0.92711000  1.0
  H  H37  1  0.94086000  0.56545000  0.07289000  1.0
  H  H38  1  0.62675000  0.34415000  0.34780000  1.0
  H  H39  1  0.37326000  0.65584000  0.65220000  1.0
  H  H40  1  0.49030000  0.40477000  0.40029000  1.0
  H  H41  1  0.50971000  0.59523000  0.59972000  1.0
  H  H42  1  0.42914000  0.22816000  0.34349000  1.0
  H  H43  1  0.57087000  0.77184000  0.65651000  1.0
  H  H44  1  0.29327000  0.24419000  0.45114000  1.0
  H  H45  1  0.70674000  0.75581000  0.54886000  1.0
  H  H46  1  0.31573000  0.27930000  0.57068000  1.0
  H  H47  1  0.68427000  0.72070000  0.42932000  1.0
  H  H48  1  0.24983000  0.09411000  0.52330000  1.0
  H  H49  1  0.75017000  0.90590000  0.47670000  1.0
  C  C50  1  0.05489000  0.41378000  0.61818000  1.0
  C  C51  1  0.94511000  0.58621000  0.38182000  1.0
  C  C52  1  0.01115000  0.14841000  0.64629000  1.0
  C  C53  1  0.98885000  0.85159000  0.35371000  1.0
  C  C54  1  0.97073000  0.88035000  0.66794000  1.0
  C  C55  1  0.02927000  0.11965000  0.33206000  1.0
  C  C56  1  0.99708000  0.28526000  0.67226000  1.0
  C  C57  1  0.00292000  0.71474000  0.32774000  1.0
  C  C58  1  0.96002000  0.02773000  0.69762000  1.0
  C  C59  1  0.03999000  0.97227000  0.30238000  1.0
  C  C60  1  0.89518000  0.04251000  0.77435000  1.0
  C  C61  1  0.10482000  0.95749000  0.22565000  1.0
  C  C62  1  0.93281000  0.30168000  0.74881000  1.0
  C  C63  1  0.06718000  0.69831000  0.25119000  1.0
  C  C64  1  0.88280000  0.18066000  0.80192000  1.0
  C  C65  1  0.11720000  0.81934000  0.19808000  1.0
  C  C66  1  0.64870000  0.96699000  0.92745000  1.0
  C  C67  1  0.35130000  0.03300000  0.07255000  1.0
  C  C68  1  0.46725000  0.74534000  0.97454000  1.0
  C  C69  1  0.53275000  0.25467000  0.02546000  1.0
  C  C70  1  0.80282000  0.09196000  0.94690000  1.0
  C  C71  1  0.19717000  0.90804000  0.05310000  1.0
  C  C72  1  0.42752000  0.64042000  0.04073000  1.0
  C  C73  1  0.57247000  0.35958000  0.95927000  1.0
  C  C74  1  0.35618000  0.73836000  0.89167000  1.0
  C  C75  1  0.64382000  0.26164000  0.10833000  1.0
  C  C76  1  0.61520000  0.85960000  0.99217000  1.0
  C  C77  1  0.38479000  0.14040000  0.00783000  1.0
  C  C78  1  0.34315000  0.44001000  0.17489000  1.0
  C  C79  1  0.65685000  0.55999000  0.82512000  1.0
  C  C80  1  0.53756000  0.95914000  0.84767000  1.0
  C  C81  1  0.46244000  0.04086000  0.15233000  1.0
  C  C82  1  0.49065000  0.54720000  0.19068000  1.0
  C  C83  1  0.50935000  0.45280000  0.80932000  1.0
  C  C84  1  0.58932000  0.24613000  0.47282000  1.0
  C  C85  1  0.41068000  0.75386000  0.52718000  1.0
  C  C86  1  0.53532000  0.64866000  0.12499000  1.0
  C  C87  1  0.46468000  0.35135000  0.87501000  1.0
  C  C88  1  0.72207000  0.86245000  0.07642000  1.0
  C  C89  1  0.27793000  0.13755000  0.92358000  1.0
  C  C90  1  0.23826000  0.42991000  0.09220000  1.0
  C  C91  1  0.76173000  0.57010000  0.90780000  1.0
  C  C92  1  0.27774000  0.52822000  0.02415000  1.0
  C  C93  1  0.72225000  0.47178000  0.97585000  1.0
  C  C94  1  0.20819000  0.62336000  0.87602000  1.0
  C  C95  1  0.79181000  0.37664000  0.12398000  1.0
  C  C96  1  0.54555000  0.14019000  0.61761000  1.0
  C  C97  1  0.45445000  0.85980000  0.38240000  1.0
  C  C98  1  0.68417000  0.76163000  0.13978000  1.0
  C  C99  1  0.31583000  0.23837000  0.86022000  1.0
  C  C100  1  0.39407000  0.84702000  0.82934000  1.0
  C  C101  1  0.60593000  0.15297000  0.17066000  1.0
  C  C102  1  0.17119000  0.52248000  0.93943000  1.0
  C  C103  1  0.82880000  0.47753000  0.06058000  1.0
  C  C104  1  0.53054000  0.30941000  0.38617000  1.0
  C  C105  1  0.46946000  0.69058000  0.61383000  1.0
  C  C106  1  0.32895000  0.20508000  0.51781000  1.0
  C  C107  1  0.67105000  0.79492000  0.48219000  1.0
  N  N108  1  0.82449000  0.19895000  0.87864000  1.0
  N  N109  1  0.17551000  0.80105000  0.12136000  1.0
  N  N110  1  0.49195000  0.19924000  0.53190000  1.0
  N  N111  1  0.50805000  0.80075000  0.46810000  1.0
  O  O112  1  0.07746000  0.54250000  0.65467000  1.0
  O  O113  1  0.92255000  0.45750000  0.34533000  1.0
  O  O114  1  0.72911000  0.23434000  0.49066000  1.0
  O  O115  1  0.27089000  0.76563000  0.50934000  1.0
  O  O116  1  0.07663000  0.88739000  0.61680000  1.0
  O  O117  1  0.92337000  0.11261000  0.38320000  1.0
  O  O118  1  0.88164000  0.76358000  0.68955000  1.0
  O  O119  1  0.11836000  0.23642000  0.31045000  1.0
  O  O120  1  0.08432000  0.39444000  0.53894000  1.0
  O  O121  1  0.91568000  0.60555000  0.46106000  1.0
