# generated using pymatgen
data_Zn3H43C50N3O14
_symmetry_space_group_name_H-M   'P 1'
_cell_length_a   9.50391000
_cell_length_b   10.92761944
_cell_length_c   25.69780000
_cell_angle_alpha   93.39440601
_cell_angle_beta   90.01670000
_cell_angle_gamma   115.69130094
_symmetry_Int_Tables_number   1
_chemical_formula_structural   Zn3H43C50N3O14
_chemical_formula_sum   'Zn6 H86 C100 N6 O28'
_cell_volume   2399.79397373
_cell_formula_units_Z   2
loop_
 _symmetry_equiv_pos_site_id
 _symmetry_equiv_pos_as_xyz
  1  'x, y, z'
loop_
 _atom_site_type_symbol
 _atom_site_label
 _atom_site_symmetry_multiplicity
 _atom_site_fract_x
 _atom_site_fract_y
 _atom_site_fract_z
 _atom_site_occupancy
  Zn  Zn0  1  0.63041000  0.16930000  0.47068000  1.0
  Zn  Zn1  1  0.46144000  0.83096000  0.02942000  1.0
  Zn  Zn2  1  0.36965000  0.83071000  0.52936000  1.0
  Zn  Zn3  1  0.53850000  0.16900000  0.97061000  1.0
  Zn  Zn4  1  0.00000000  0.50001000  0.50001000  1.0
  Zn  Zn5  1  0.50000000  0.49999000  1.00000000  1.0
  H  H6  1  0.78506000  0.76559000  0.49718000  1.0
  H  H7  1  0.01931000  0.23434000  0.00269000  1.0
  H  H8  1  0.21501000  0.23443000  0.50286000  1.0
  H  H9  1  0.98066000  0.76568000  0.99736000  1.0
  H  H10  1  0.19763000  0.98538000  0.41201000  1.0
  H  H11  1  0.21304000  0.01523000  0.08825000  1.0
  H  H12  1  0.80242000  0.01461000  0.58801000  1.0
  H  H13  1  0.78694000  0.98479000  0.91179000  1.0
  H  H14  1  0.78910000  0.05882000  0.39246000  1.0
  H  H15  1  0.73120000  0.94187000  0.10755000  1.0
  H  H16  1  0.21098000  0.94124000  0.60760000  1.0
  H  H17  1  0.26874000  0.05804000  0.89246000  1.0
  H  H18  1  0.22240000  0.03592000  0.32655000  1.0
  H  H19  1  0.18748000  0.96442000  0.17382000  1.0
  H  H20  1  0.77786000  0.96425000  0.67353000  1.0
  H  H21  1  0.81248000  0.03570000  0.82624000  1.0
  H  H22  1  0.33495000  0.19240000  0.25703000  1.0
  H  H23  1  0.14342000  0.80886000  0.24364000  1.0
  H  H24  1  0.66533000  0.80780000  0.74307000  1.0
  H  H25  1  0.85659000  0.19126000  0.75642000  1.0
  H  H26  1  0.06888000  0.41130000  0.30674000  1.0
  H  H27  1  0.65951000  0.58892000  0.19343000  1.0
  H  H28  1  0.93087000  0.58852000  0.69322000  1.0
  H  H29  1  0.34055000  0.41098000  0.80658000  1.0
  H  H30  1  0.96313000  0.25920000  0.37752000  1.0
  H  H31  1  0.70566000  0.74108000  0.12249000  1.0
  H  H32  1  0.03675000  0.74073000  0.62247000  1.0
  H  H33  1  0.29438000  0.25883000  0.87752000  1.0
  H  H34  1  0.26540000  0.23461000  0.17901000  1.0
  H  H35  1  0.02696000  0.76737000  0.32218000  1.0
  H  H36  1  0.73495000  0.76545000  0.82106000  1.0
  H  H37  1  0.97271000  0.23276000  0.67791000  1.0
  H  H38  1  0.34507000  0.37217000  0.10203000  1.0
  H  H39  1  0.96802000  0.62911000  0.39905000  1.0
  H  H40  1  0.65540000  0.62789000  0.89804000  1.0
  H  H41  1  0.03154000  0.37101000  0.60105000  1.0
  H  H42  1  0.35326000  0.71800000  0.19263000  1.0
  H  H43  1  0.64636000  0.27940000  0.30630000  1.0
  H  H44  1  0.64604000  0.28180000  0.80732000  1.0
  H  H45  1  0.35419000  0.72047000  0.69366000  1.0
  H  H46  1  0.26725000  0.58046000  0.26971000  1.0
  H  H47  1  0.69513000  0.41850000  0.22979000  1.0
  H  H48  1  0.73222000  0.41941000  0.73026000  1.0
  H  H49  1  0.30542000  0.58140000  0.77019000  1.0
  H  H50  1  0.53147000  0.57568000  0.55455000  1.0
  H  H51  1  0.95613000  0.42371000  0.94549000  1.0
  H  H52  1  0.46851000  0.42433000  0.44540000  1.0
  H  H53  1  0.04389000  0.57627000  0.05448000  1.0
  H  H54  1  0.49614000  0.55876000  0.62258000  1.0
  H  H55  1  0.93786000  0.44080000  0.87746000  1.0
  H  H56  1  0.50372000  0.44128000  0.37737000  1.0
  H  H57  1  0.06217000  0.55918000  0.12252000  1.0
  H  H58  1  0.38276000  0.42197000  0.57657000  1.0
  H  H59  1  0.96022000  0.57730000  0.92350000  1.0
  H  H60  1  0.61720000  0.57804000  0.42338000  1.0
  H  H61  1  0.03981000  0.42268000  0.07648000  1.0
  H  H62  1  0.47306000  0.26282000  0.62060000  1.0
  H  H63  1  0.20973000  0.73760000  0.88004000  1.0
  H  H64  1  0.52687000  0.73722000  0.37937000  1.0
  H  H65  1  0.79030000  0.26237000  0.11993000  1.0
  H  H66  1  0.58394000  0.39703000  0.66745000  1.0
  H  H67  1  0.18573000  0.60405000  0.83286000  1.0
  H  H68  1  0.41589000  0.60298000  0.33254000  1.0
  H  H69  1  0.81438000  0.39592000  0.16712000  1.0
  H  H70  1  0.67950000  0.31721000  0.62698000  1.0
  H  H71  1  0.36149000  0.68282000  0.87312000  1.0
  H  H72  1  0.32044000  0.68286000  0.37303000  1.0
  H  H73  1  0.63856000  0.31717000  0.12688000  1.0
  H  H74  1  0.74232000  0.56353000  0.53149000  1.0
  H  H75  1  0.17922000  0.43609000  0.96854000  1.0
  H  H76  1  0.25770000  0.43653000  0.46852000  1.0
  H  H77  1  0.82076000  0.56388000  0.03145000  1.0
  H  H78  1  0.67385000  0.96252000  0.24273000  1.0
  H  H79  1  0.32641000  0.03797000  0.75645000  1.0
  H  H80  1  0.50553000  0.12050000  0.21324000  1.0
  H  H81  1  0.40866000  0.87169000  0.28370000  1.0
  H  H82  1  0.49271000  0.87916000  0.78693000  1.0
  H  H83  1  0.59269000  0.12826000  0.71629000  1.0
  H  H84  1  0.43605000  0.94533000  0.19156000  1.0
  H  H85  1  0.47099000  0.04376000  0.30875000  1.0
  H  H86  1  0.56217000  0.05432000  0.80863000  1.0
  H  H87  1  0.53057000  0.95608000  0.69141000  1.0
  H  H88  1  0.62255000  0.06623000  0.17299000  1.0
  H  H89  1  0.57523000  0.95288000  0.32739000  1.0
  H  H90  1  0.37469000  0.93371000  0.82653000  1.0
  H  H91  1  0.42722000  0.04712000  0.67214000  1.0
  C  C92  1  0.84464000  0.83832000  0.46831000  1.0
  C  C93  1  0.00646000  0.16174000  0.03161000  1.0
  C  C94  1  0.15543000  0.16170000  0.53173000  1.0
  C  C95  1  0.99350000  0.83824000  0.96843000  1.0
  C  C96  1  0.99704000  0.86476000  0.45505000  1.0
  C  C97  1  0.13254000  0.13544000  0.04498000  1.0
  C  C98  1  0.00304000  0.13527000  0.54498000  1.0
  C  C99  1  0.86744000  0.86457000  0.95506000  1.0
  C  C100  1  0.07621000  0.96274000  0.41955000  1.0
  C  C101  1  0.11409000  0.03770000  0.08061000  1.0
  C  C102  1  0.92386000  0.03728000  0.58048000  1.0
  C  C103  1  0.88587000  0.96230000  0.91942000  1.0
  C  C104  1  0.00270000  0.03305000  0.39574000  1.0
  C  C105  1  0.97053000  0.96750000  0.10444000  1.0
  C  C106  1  0.99739000  0.96701000  0.60430000  1.0
  C  C107  1  0.02943000  0.03249000  0.89560000  1.0
  C  C108  1  0.84946000  0.00544000  0.40979000  1.0
  C  C109  1  0.84484000  0.99497000  0.09025000  1.0
  C  C110  1  0.15063000  0.99461000  0.59025000  1.0
  C  C111  1  0.15510000  0.00497000  0.90978000  1.0
  C  C112  1  0.77158000  0.91067000  0.44642000  1.0
  C  C113  1  0.86131000  0.08942000  0.05350000  1.0
  C  C114  1  0.22849000  0.08936000  0.55362000  1.0
  C  C115  1  0.13865000  0.91054000  0.94653000  1.0
  C  C116  1  0.08104000  0.13343000  0.35673000  1.0
  C  C117  1  0.94875000  0.86739000  0.14360000  1.0
  C  C118  1  0.91905000  0.86663000  0.64331000  1.0
  C  C119  1  0.05124000  0.13261000  0.85645000  1.0
  C  C120  1  0.18968000  0.11919000  0.32275000  1.0
  C  C121  1  0.07144000  0.88167000  0.17768000  1.0
  C  C122  1  0.81049000  0.88093000  0.67732000  1.0
  C  C123  1  0.92856000  0.11840000  0.82237000  1.0
  C  C124  1  0.25202000  0.20686000  0.28306000  1.0
  C  C125  1  0.04612000  0.79422000  0.21750000  1.0
  C  C126  1  0.74816000  0.79327000  0.71701000  1.0
  C  C127  1  0.95390000  0.20585000  0.78255000  1.0
  C  C128  1  0.20870000  0.31270000  0.27568000  1.0
  C  C129  1  0.89724000  0.68839000  0.22486000  1.0
  C  C130  1  0.79134000  0.68732000  0.72435000  1.0
  C  C131  1  0.10282000  0.31163000  0.77518000  1.0
  C  C132  1  0.10555000  0.33063000  0.31117000  1.0
  C  C133  1  0.77636000  0.67022000  0.18920000  1.0
  C  C134  1  0.89435000  0.66930000  0.68882000  1.0
  C  C135  1  0.22369000  0.32974000  0.81083000  1.0
  C  C136  1  0.04334000  0.24301000  0.35085000  1.0
  C  C137  1  0.80169000  0.75777000  0.14944000  1.0
  C  C138  1  0.95662000  0.75697000  0.64916000  1.0
  C  C139  1  0.19832000  0.24218000  0.85059000  1.0
  C  C140  1  0.26353000  0.39772000  0.23071000  1.0
  C  C141  1  0.86714000  0.60304000  0.26978000  1.0
  C  C142  1  0.73646000  0.60228000  0.76931000  1.0
  C  C143  1  0.13294000  0.39698000  0.73026000  1.0
  C  C144  1  0.28782000  0.34148000  0.18274000  1.0
  C  C145  1  0.94471000  0.65997000  0.31813000  1.0
  C  C146  1  0.71239000  0.65855000  0.81731000  1.0
  C  C147  1  0.05510000  0.34012000  0.68195000  1.0
  C  C148  1  0.33059000  0.41755000  0.13916000  1.0
  C  C149  1  0.91112000  0.58341000  0.36157000  1.0
  C  C150  1  0.66961000  0.58246000  0.86089000  1.0
  C  C151  1  0.08866000  0.41667000  0.63850000  1.0
  C  C152  1  0.35480000  0.55379000  0.14238000  1.0
  C  C153  1  0.80234000  0.44617000  0.35781000  1.0
  C  C154  1  0.64511000  0.44614000  0.85763000  1.0
  C  C155  1  0.19768000  0.55383000  0.64223000  1.0
  C  C156  1  0.33441000  0.61207000  0.19020000  1.0
  C  C157  1  0.72787000  0.38688000  0.30953000  1.0
  C  C158  1  0.66519000  0.38781000  0.80979000  1.0
  C  C159  1  0.27247000  0.61307000  0.69047000  1.0
  C  C160  1  0.28692000  0.53445000  0.23335000  1.0
  C  C161  1  0.75759000  0.46520000  0.26656000  1.0
  C  C162  1  0.71277000  0.46547000  0.76664000  1.0
  C  C163  1  0.24277000  0.53475000  0.73344000  1.0
  C  C164  1  0.07745000  0.79297000  0.48141000  1.0
  C  C165  1  0.28459000  0.20709000  0.01864000  1.0
  C  C166  1  0.92261000  0.20706000  0.51863000  1.0
  C  C167  1  0.71538000  0.79291000  0.98139000  1.0
  C  C168  1  0.61578000  0.89524000  0.46457000  1.0
  C  C169  1  0.72084000  0.10473000  0.03532000  1.0
  C  C170  1  0.38430000  0.10478000  0.53547000  1.0
  C  C171  1  0.27912000  0.89523000  0.96471000  1.0
  C  C172  1  0.39027000  0.63158000  0.09473000  1.0
  C  C173  1  0.75902000  0.36827000  0.40543000  1.0
  C  C174  1  0.60969000  0.36837000  0.90528000  1.0
  C  C175  1  0.24096000  0.63174000  0.59461000  1.0
  C  C176  1  0.49968000  0.50446000  0.58556000  1.0
  C  C177  1  0.99525000  0.49504000  0.91452000  1.0
  C  C178  1  0.50027000  0.49557000  0.41440000  1.0
  C  C179  1  0.00478000  0.50494000  0.08545000  1.0
  C  C180  1  0.58645000  0.35078000  0.62855000  1.0
  C  C181  1  0.23504000  0.64957000  0.87175000  1.0
  C  C182  1  0.41346000  0.64926000  0.37143000  1.0
  C  C183  1  0.76500000  0.35040000  0.12823000  1.0
  C  C184  1  0.73740000  0.48995000  0.55963000  1.0
  C  C185  1  0.24756000  0.50998000  0.94049000  1.0
  C  C186  1  0.26260000  0.51011000  0.44038000  1.0
  C  C187  1  0.75246000  0.49000000  0.05950000  1.0
  C  C188  1  0.54160000  0.03802000  0.20536000  1.0
  C  C189  1  0.51317000  0.96899000  0.29442000  1.0
  C  C190  1  0.45682000  0.96185000  0.79449000  1.0
  C  C191  1  0.48829000  0.03104000  0.70539000  1.0
  N  N192  1  0.61345000  0.44950000  0.58983000  1.0
  N  N193  1  0.16384000  0.55037000  0.91032000  1.0
  N  N194  1  0.38651000  0.55056000  0.41016000  1.0
  N  N195  1  0.83618000  0.44960000  0.08965000  1.0
  N  N196  1  0.61845000  0.02237000  0.25175000  1.0
  N  N197  1  0.38171000  0.97788000  0.74776000  1.0
  O  O198  1  0.55616000  0.96825000  0.44625000  1.0
  O  O199  1  0.58857000  0.03185000  0.05374000  1.0
  O  O200  1  0.44391000  0.03176000  0.55379000  1.0
  O  O201  1  0.41140000  0.96812000  0.94629000  1.0
  O  O202  1  0.43697000  0.76141000  0.10034000  1.0
  O  O203  1  0.67512000  0.23868000  0.39981000  1.0
  O  O204  1  0.56297000  0.23854000  0.89968000  1.0
  O  O205  1  0.32485000  0.76132000  0.60022000  1.0
  O  O206  1  0.22559000  0.84319000  0.47721000  1.0
  O  O207  1  0.38258000  0.15680000  0.02294000  1.0
  O  O208  1  0.77447000  0.15682000  0.52282000  1.0
  O  O209  1  0.61739000  0.84320000  0.97710000  1.0
  O  O210  1  0.54912000  0.80830000  0.49877000  1.0
  O  O211  1  0.74057000  0.19144000  0.00104000  1.0
  O  O212  1  0.45094000  0.19171000  0.50127000  1.0
  O  O213  1  0.25938000  0.80851000  0.99898000  1.0
  O  O214  1  0.99523000  0.68997000  0.50619000  1.0
  O  O215  1  0.30526000  0.30995000  0.99373000  1.0
  O  O216  1  0.00480000  0.31006000  0.49384000  1.0
  O  O217  1  0.69471000  0.69003000  0.00629000  1.0
  O  O218  1  0.84302000  0.45004000  0.56203000  1.0
  O  O219  1  0.39306000  0.55019000  0.93816000  1.0
  O  O220  1  0.15695000  0.55000000  0.43800000  1.0
  O  O221  1  0.60695000  0.44976000  0.06184000  1.0
  O  O222  1  0.36790000  0.56960000  0.04990000  1.0
  O  O223  1  0.79824000  0.43016000  0.45030000  1.0
  O  O224  1  0.63211000  0.43038000  0.95011000  1.0
  O  O225  1  0.20175000  0.56986000  0.54973000  1.0
