# generated using pymatgen
data_ZnH11C18NO4
_symmetry_space_group_name_H-M   'P 1'
_cell_length_a   16.15070000
_cell_length_b   18.16730000
_cell_length_c   19.09990000
_cell_angle_alpha   90.00000000
_cell_angle_beta   90.00000000
_cell_angle_gamma   92.61880000
_symmetry_Int_Tables_number   1
_chemical_formula_structural   ZnH11C18NO4
_chemical_formula_sum   'Zn8 H88 C144 N8 O32'
_cell_volume   5598.33691017
_cell_formula_units_Z   8
loop_
 _symmetry_equiv_pos_site_id
 _symmetry_equiv_pos_as_xyz
  1  'x, y, z'
loop_
 _atom_site_type_symbol
 _atom_site_label
 _atom_site_symmetry_multiplicity
 _atom_site_fract_x
 _atom_site_fract_y
 _atom_site_fract_z
 _atom_site_occupancy
  Zn  Zn0  1  0.63794000  0.32872000  0.49974000  1.0
  Zn  Zn1  1  0.36206000  0.17128000  0.99974000  1.0
  Zn  Zn2  1  0.36206000  0.67128000  0.50026000  1.0
  Zn  Zn3  1  0.63794000  0.82872000  0.00026000  1.0
  Zn  Zn4  1  0.81133000  0.35778000  0.50027000  1.0
  Zn  Zn5  1  0.18868000  0.14222000  0.00028000  1.0
  Zn  Zn6  1  0.18868000  0.64222000  0.49972000  1.0
  Zn  Zn7  1  0.81132000  0.85778000  0.99972000  1.0
  H  H8  1  0.57017000  0.49301000  0.64943000  1.0
  H  H9  1  0.42983000  0.00699000  0.14943000  1.0
  H  H10  1  0.42983000  0.50699000  0.35057000  1.0
  H  H11  1  0.57017000  0.99301000  0.85057000  1.0
  H  H12  1  0.55362000  0.58681000  0.74356000  1.0
  H  H13  1  0.44638000  0.91319000  0.24356000  1.0
  H  H14  1  0.44638000  0.41319000  0.25644000  1.0
  H  H15  1  0.55362000  0.08681000  0.75644000  1.0
  H  H16  1  0.61818000  0.67161000  0.83334000  1.0
  H  H17  1  0.38182000  0.82839000  0.33333333  1.0
  H  H18  1  0.38182000  0.32839000  0.16666000  1.0
  H  H19  1  0.61818000  0.17161000  0.66666667  1.0
  H  H20  1  0.87827000  0.66602000  0.87687000  1.0
  H  H21  1  0.12173000  0.83398000  0.37686000  1.0
  H  H22  1  0.12173000  0.33398000  0.12314000  1.0
  H  H23  1  0.87827000  0.16602000  0.62314000  1.0
  H  H24  1  0.89352000  0.56771000  0.78704000  1.0
  H  H25  1  0.10648000  0.93229000  0.28704000  1.0
  H  H26  1  0.10648000  0.43229000  0.21296000  1.0
  H  H27  1  0.89352000  0.06771000  0.71296000  1.0
  H  H28  1  0.83058000  0.48847000  0.69204000  1.0
  H  H29  1  0.16942000  0.01152000  0.19204000  1.0
  H  H30  1  0.16942000  0.51152000  0.30797000  1.0
  H  H31  1  0.83058000  0.98848000  0.80796000  1.0
  H  H32  1  0.57840000  0.46422000  0.32621000  1.0
  H  H33  1  0.42161000  0.03578000  0.82621000  1.0
  H  H34  1  0.42161000  0.53578000  0.67379000  1.0
  H  H35  1  0.57839000  0.96422000  0.17380000  1.0
  H  H36  1  0.56203000  0.55264000  0.22741000  1.0
  H  H37  1  0.43797000  0.94735000  0.72741000  1.0
  H  H38  1  0.43798000  0.44735000  0.77259000  1.0
  H  H39  1  0.56202000  0.05264000  0.27259000  1.0
  H  H40  1  0.62277000  0.65315000  0.15128000  1.0
  H  H41  1  0.37723000  0.84685000  0.65128000  1.0
  H  H42  1  0.37723000  0.34685000  0.84872000  1.0
  H  H43  1  0.62277000  0.15315000  0.34872000  1.0
  H  H44  1  0.87189000  0.73688000  0.18560000  1.0
  H  H45  1  0.12811000  0.76312000  0.68561000  1.0
  H  H46  1  0.12811000  0.26312000  0.81439000  1.0
  H  H47  1  0.87189000  0.23689000  0.31439000  1.0
  H  H48  1  0.88783000  0.64909000  0.28507000  1.0
  H  H49  1  0.11217000  0.85091000  0.78507000  1.0
  H  H50  1  0.11217000  0.35092000  0.71493000  1.0
  H  H51  1  0.88783000  0.14909000  0.21493000  1.0
  H  H52  1  0.82738000  0.54809000  0.36101000  1.0
  H  H53  1  0.17262000  0.95191000  0.86101000  1.0
  H  H54  1  0.17263000  0.45191000  0.63899000  1.0
  H  H55  1  0.82737000  0.04809000  0.13899000  1.0
  H  H56  1  0.94718000  0.30083000  0.58182000  1.0
  H  H57  1  0.05281000  0.19917000  0.08181000  1.0
  H  H58  1  0.05282000  0.69917000  0.41818000  1.0
  H  H59  1  0.94719000  0.80083000  0.91818000  1.0
  H  H60  1  0.10223000  0.30811000  0.58301000  1.0
  H  H61  1  0.89777000  0.19189000  0.08301000  1.0
  H  H62  1  0.89777000  0.69189000  0.41699000  1.0
  H  H63  1  0.10223000  0.80811000  0.91699000  1.0
  H  H64  1  0.22888000  0.43601000  0.46292000  1.0
  H  H65  1  0.77112000  0.06399000  0.96292000  1.0
  H  H66  1  0.77112000  0.56399000  0.53708000  1.0
  H  H67  1  0.22888000  0.93601000  0.03708000  1.0
  H  H68  1  0.21879000  0.28390000  0.53524000  1.0
  H  H69  1  0.78121000  0.21610000  0.03524000  1.0
  H  H70  1  0.78121000  0.71610000  0.46476000  1.0
  H  H71  1  0.21879000  0.78390000  0.96476000  1.0
  H  H72  1  0.34209000  0.21700000  0.53512000  1.0
  H  H73  1  0.65791000  0.28300000  0.03513000  1.0
  H  H74  1  0.65791000  0.78300000  0.46488000  1.0
  H  H75  1  0.34209000  0.71700000  0.96487000  1.0
  H  H76  1  0.49698000  0.21564000  0.52768000  1.0
  H  H77  1  0.50301000  0.28436000  0.02768000  1.0
  H  H78  1  0.50302000  0.78436000  0.47232000  1.0
  H  H79  1  0.49699000  0.71564000  0.97232000  1.0
  H  H80  1  0.51589000  0.43654000  0.47532000  1.0
  H  H81  1  0.48411000  0.06346000  0.97532000  1.0
  H  H82  1  0.48411000  0.56346000  0.52468000  1.0
  H  H83  1  0.51589000  0.93654000  0.02468000  1.0
  H  H84  1  0.36341000  0.44908000  0.48179000  1.0
  H  H85  1  0.63659000  0.05092000  0.98179000  1.0
  H  H86  1  0.63659000  0.55092000  0.51821000  1.0
  H  H87  1  0.36341000  0.94908000  0.01821000  1.0
  H  H88  1  0.09345000  0.46353000  0.41203000  1.0
  H  H89  1  0.90655000  0.03647000  0.91203000  1.0
  H  H90  1  0.90655000  0.53647000  0.58797000  1.0
  H  H91  1  0.09345000  0.96353000  0.08797000  1.0
  H  H92  1  0.93757000  0.44904000  0.41831000  1.0
  H  H93  1  0.06243000  0.05096000  0.91831000  1.0
  H  H94  1  0.06244000  0.55096000  0.58169000  1.0
  H  H95  1  0.93757000  0.94904000  0.08169000  1.0
  C  C96  1  0.71220000  0.43539000  0.60447000  1.0
  C  C97  1  0.28781000  0.06461000  0.10447000  1.0
  C  C98  1  0.28781000  0.56461000  0.39553000  1.0
  C  C99  1  0.71219000  0.93539000  0.89553000  1.0
  C  C100  1  0.70231000  0.48725000  0.66461000  1.0
  C  C101  1  0.29769000  0.01275000  0.16461000  1.0
  C  C102  1  0.29769000  0.51275000  0.33539000  1.0
  C  C103  1  0.70231000  0.98725000  0.83539000  1.0
  C  C104  1  0.62304000  0.51402000  0.68005000  1.0
  C  C105  1  0.37696000  0.98598000  0.18005000  1.0
  C  C106  1  0.37696000  0.48598000  0.31995000  1.0
  C  C107  1  0.62304000  0.01402000  0.81995000  1.0
  C  C108  1  0.61426000  0.56541000  0.73209000  1.0
  C  C109  1  0.38574000  0.93459000  0.23209000  1.0
  C  C110  1  0.38574000  0.43459000  0.26791000  1.0
  C  C111  1  0.61426000  0.06541000  0.76791000  1.0
  C  C112  1  0.68400000  0.59263000  0.77132000  1.0
  C  C113  1  0.31600000  0.90737000  0.27132000  1.0
  C  C114  1  0.31600000  0.40737000  0.22868000  1.0
  C  C115  1  0.68400000  0.09263000  0.72868000  1.0
  C  C116  1  0.67781000  0.64811000  0.82270000  1.0
  C  C117  1  0.32219000  0.85189000  0.32270000  1.0
  C  C118  1  0.32219000  0.35189000  0.17730000  1.0
  C  C119  1  0.67781000  0.14811000  0.67730000  1.0
  C  C120  1  0.74689000  0.67472000  0.85923000  1.0
  C  C121  1  0.25310000  0.82528000  0.35922000  1.0
  C  C122  1  0.25311000  0.32528000  0.14078000  1.0
  C  C123  1  0.74690000  0.17472000  0.64077000  1.0
  C  C124  1  0.82523000  0.64484000  0.84657000  1.0
  C  C125  1  0.17477000  0.85515000  0.34657000  1.0
  C  C126  1  0.17477000  0.35515000  0.15343000  1.0
  C  C127  1  0.82524000  0.14485000  0.65343000  1.0
  C  C128  1  0.83330000  0.59058000  0.79708000  1.0
  C  C129  1  0.16670000  0.90941000  0.29708000  1.0
  C  C130  1  0.16670000  0.40941000  0.20292000  1.0
  C  C131  1  0.83330000  0.09059000  0.70292000  1.0
  C  C132  1  0.76376000  0.56376000  0.75746000  1.0
  C  C133  1  0.23624000  0.93624000  0.25746000  1.0
  C  C134  1  0.23624000  0.43624000  0.24254000  1.0
  C  C135  1  0.76376000  0.06376000  0.74254000  1.0
  C  C136  1  0.77063000  0.51091000  0.70369000  1.0
  C  C137  1  0.22938000  0.98909000  0.20369000  1.0
  C  C138  1  0.22937000  0.48909000  0.29631000  1.0
  C  C139  1  0.77063000  0.01091000  0.79631000  1.0
  C  C140  1  0.73872000  0.73615000  0.91086000  1.0
  C  C141  1  0.26128000  0.76385000  0.41086000  1.0
  C  C142  1  0.26128000  0.26385000  0.08914000  1.0
  C  C143  1  0.73873000  0.23615000  0.58914000  1.0
  C  C144  1  0.71248000  0.44798000  0.40745000  1.0
  C  C145  1  0.28752000  0.05202000  0.90745000  1.0
  C  C146  1  0.28752000  0.55202000  0.59255000  1.0
  C  C147  1  0.71248000  0.94798000  0.09255000  1.0
  C  C148  1  0.70414000  0.50202000  0.34907000  1.0
  C  C149  1  0.29586000  0.99798000  0.84906000  1.0
  C  C150  1  0.29587000  0.49798000  0.65093000  1.0
  C  C151  1  0.70414000  0.00202000  0.15094000  1.0
  C  C152  1  0.62855000  0.50316000  0.31115000  1.0
  C  C153  1  0.37145000  0.99684000  0.81114000  1.0
  C  C154  1  0.37146000  0.49684000  0.68886000  1.0
  C  C155  1  0.62854000  0.00316000  0.18886000  1.0
  C  C156  1  0.62004000  0.55173000  0.25670000  1.0
  C  C157  1  0.37996000  0.94827000  0.75670000  1.0
  C  C158  1  0.37996000  0.44827000  0.74330000  1.0
  C  C159  1  0.62004000  0.05173000  0.24330000  1.0
  C  C160  1  0.68656000  0.60158000  0.23738000  1.0
  C  C161  1  0.31344000  0.89842000  0.73738000  1.0
  C  C162  1  0.31344000  0.39842000  0.76262000  1.0
  C  C163  1  0.68656000  0.10158000  0.26262000  1.0
  C  C164  1  0.68009000  0.65174000  0.18129000  1.0
  C  C165  1  0.31991000  0.84826000  0.68128000  1.0
  C  C166  1  0.31991000  0.34826000  0.81871000  1.0
  C  C167  1  0.68009000  0.15174000  0.31871000  1.0
  C  C168  1  0.74581000  0.69950000  0.16322000  1.0
  C  C169  1  0.25419000  0.80050000  0.66322000  1.0
  C  C170  1  0.25419000  0.30050000  0.83678000  1.0
  C  C171  1  0.74581000  0.19950000  0.33678000  1.0
  C  C172  1  0.82130000  0.69870000  0.20128000  1.0
  C  C173  1  0.17870000  0.80130000  0.70128000  1.0
  C  C174  1  0.17870000  0.30130000  0.79872000  1.0
  C  C175  1  0.82130000  0.19871000  0.29872000  1.0
  C  C176  1  0.82958000  0.65043000  0.25612000  1.0
  C  C177  1  0.17042000  0.84957000  0.75612000  1.0
  C  C178  1  0.17042000  0.34957000  0.74388000  1.0
  C  C179  1  0.82958000  0.15043000  0.24388000  1.0
  C  C180  1  0.76309000  0.60068000  0.27576000  1.0
  C  C181  1  0.23691000  0.89932000  0.77576000  1.0
  C  C182  1  0.23691000  0.39932000  0.72424000  1.0
  C  C183  1  0.76309000  0.10068000  0.22424000  1.0
  C  C184  1  0.76978000  0.54999000  0.33143000  1.0
  C  C185  1  0.23022000  0.95001000  0.83142000  1.0
  C  C186  1  0.23022000  0.45001000  0.66858000  1.0
  C  C187  1  0.76978000  0.04999000  0.16858000  1.0
  C  C188  1  0.73704000  0.75180000  0.10322000  1.0
  C  C189  1  0.26296000  0.74820000  0.60322000  1.0
  C  C190  1  0.26296000  0.24820000  0.89678000  1.0
  C  C191  1  0.73704000  0.25181000  0.39678000  1.0
  C  C192  1  0.98280000  0.33559000  0.54505000  1.0
  C  C193  1  0.01720000  0.16441000  0.04505000  1.0
  C  C194  1  0.01720000  0.66441000  0.45495000  1.0
  C  C195  1  0.98280000  0.83559000  0.95495000  1.0
  C  C196  1  0.06861000  0.33943000  0.54454000  1.0
  C  C197  1  0.93139000  0.16057000  0.04454000  1.0
  C  C198  1  0.93139000  0.66057000  0.45546000  1.0
  C  C199  1  0.06861000  0.83943000  0.95546000  1.0
  C  C200  1  0.11126000  0.38430000  0.49499000  1.0
  C  C201  1  0.88874000  0.11570000  0.99499000  1.0
  C  C202  1  0.88874000  0.61570000  0.50501000  1.0
  C  C203  1  0.11126000  0.88430000  0.00501000  1.0
  C  C204  1  0.20126000  0.38767000  0.48941000  1.0
  C  C205  1  0.79874000  0.11233000  0.98941000  1.0
  C  C206  1  0.79874000  0.61233000  0.51059000  1.0
  C  C207  1  0.20126000  0.88767000  0.01059000  1.0
  C  C208  1  0.24888000  0.33355000  0.51263000  1.0
  C  C209  1  0.75112000  0.16645000  0.01263000  1.0
  C  C210  1  0.75112000  0.66645000  0.48737000  1.0
  C  C211  1  0.24888000  0.83355000  0.98737000  1.0
  C  C212  1  0.33872000  0.33301000  0.50835000  1.0
  C  C213  1  0.66128000  0.16700000  0.00835000  1.0
  C  C214  1  0.66128000  0.66699000  0.49165000  1.0
  C  C215  1  0.33872000  0.83300000  0.99165000  1.0
  C  C216  1  0.37842000  0.26708000  0.52174000  1.0
  C  C217  1  0.62158000  0.23292000  0.02174000  1.0
  C  C218  1  0.62158000  0.73292000  0.47826000  1.0
  C  C219  1  0.37842000  0.76708000  0.97825000  1.0
  C  C220  1  0.46411000  0.26567000  0.51755000  1.0
  C  C221  1  0.53589000  0.23433000  0.01755000  1.0
  C  C222  1  0.53589000  0.73433000  0.48245000  1.0
  C  C223  1  0.46411000  0.76567000  0.98245000  1.0
  C  C224  1  0.47431000  0.38970000  0.48847000  1.0
  C  C225  1  0.52569000  0.11031000  0.98847000  1.0
  C  C226  1  0.52569000  0.61030000  0.51153000  1.0
  C  C227  1  0.47430000  0.88969000  0.01153000  1.0
  C  C228  1  0.38927000  0.39572000  0.49169000  1.0
  C  C229  1  0.61073000  0.10428000  0.99169000  1.0
  C  C230  1  0.61073000  0.60428000  0.50831000  1.0
  C  C231  1  0.38927000  0.89572000  0.00831000  1.0
  C  C232  1  0.06326000  0.42606000  0.44971000  1.0
  C  C233  1  0.93674000  0.07394000  0.94971000  1.0
  C  C234  1  0.93675000  0.57394000  0.55029000  1.0
  C  C235  1  0.06326000  0.92606000  0.05029000  1.0
  C  C236  1  0.97736000  0.41873000  0.45309000  1.0
  C  C237  1  0.02264000  0.08127000  0.95309000  1.0
  C  C238  1  0.02264000  0.58127000  0.54691000  1.0
  C  C239  1  0.97736000  0.91873000  0.04691000  1.0
  N  N240  1  0.93765000  0.37392000  0.49955000  1.0
  N  N241  1  0.06235000  0.12608000  0.99955000  1.0
  N  N242  1  0.06235000  0.62608000  0.50045000  1.0
  N  N243  1  0.93765000  0.87392000  0.00045000  1.0
  N  N244  1  0.51143000  0.32598000  0.50106000  1.0
  N  N245  1  0.48856000  0.17402000  0.00106000  1.0
  N  N246  1  0.48857000  0.67402000  0.49894000  1.0
  N  N247  1  0.51144000  0.82598000  0.99894000  1.0
  O  O248  1  0.64710000  0.41742000  0.56967000  1.0
  O  O249  1  0.35290000  0.08258000  0.06967000  1.0
  O  O250  1  0.35290000  0.58258000  0.43033000  1.0
  O  O251  1  0.64710000  0.91742000  0.93033000  1.0
  O  O252  1  0.78506000  0.41485000  0.59111000  1.0
  O  O253  1  0.21494000  0.08515000  0.09111000  1.0
  O  O254  1  0.21494000  0.58515000  0.40889000  1.0
  O  O255  1  0.78506000  0.91485000  0.90889000  1.0
  O  O256  1  0.80482000  0.76141000  0.94050000  1.0
  O  O257  1  0.19517000  0.73858000  0.44050000  1.0
  O  O258  1  0.19518000  0.23859000  0.05950000  1.0
  O  O259  1  0.80483000  0.26141000  0.55950000  1.0
  O  O260  1  0.66617000  0.75905000  0.92064000  1.0
  O  O261  1  0.33383000  0.74095000  0.42064000  1.0
  O  O262  1  0.33383000  0.24095000  0.07936000  1.0
  O  O263  1  0.66618000  0.25905000  0.57936000  1.0
  O  O264  1  0.78124000  0.44835000  0.44056000  1.0
  O  O265  1  0.21876000  0.05165000  0.94056000  1.0
  O  O266  1  0.21876000  0.55165000  0.55944000  1.0
  O  O267  1  0.78124000  0.94835000  0.05944000  1.0
  O  O268  1  0.64950000  0.40527000  0.41979000  1.0
  O  O269  1  0.35050000  0.09473000  0.91979000  1.0
  O  O270  1  0.35050000  0.59473000  0.58021000  1.0
  O  O271  1  0.64950000  0.90527000  0.08021000  1.0
  O  O272  1  0.66808000  0.74913000  0.07068000  1.0
  O  O273  1  0.33191000  0.75087000  0.57068000  1.0
  O  O274  1  0.33192000  0.25087000  0.92932000  1.0
  O  O275  1  0.66808000  0.24913000  0.42932000  1.0
  O  O276  1  0.79931000  0.79504000  0.08941000  1.0
  O  O277  1  0.20069000  0.70496000  0.58941000  1.0
  O  O278  1  0.20069000  0.20496000  0.91059000  1.0
  O  O279  1  0.79930000  0.29504000  0.41059000  1.0
