# generated using pymatgen
data_Zn4H12C18N6O13
_symmetry_space_group_name_H-M   'P 1'
_cell_length_a   15.91240000
_cell_length_b   16.86187098
_cell_length_c   19.03468355
_cell_angle_alpha   66.35254652
_cell_angle_beta   67.26452875
_cell_angle_gamma   62.79863922
_symmetry_Int_Tables_number   1
_chemical_formula_structural   Zn4H12C18N6O13
_chemical_formula_sum   'Zn8 H24 C36 N12 O26'
_cell_volume   4029.59880702
_cell_formula_units_Z   2
loop_
 _symmetry_equiv_pos_site_id
 _symmetry_equiv_pos_as_xyz
  1  'x, y, z'
loop_
 _atom_site_type_symbol
 _atom_site_label
 _atom_site_symmetry_multiplicity
 _atom_site_fract_x
 _atom_site_fract_y
 _atom_site_fract_z
 _atom_site_occupancy
  Zn  Zn0  1  0.04430000  0.02938000  0.07626000  1.0
  Zn  Zn1  1  0.83117000  0.02553000  0.11805000  1.0
  Zn  Zn2  1  0.01664000  0.84113000  0.09958000  1.0
  Zn  Zn3  1  0.98018000  0.01074000  0.94613000  1.0
  Zn  Zn4  1  0.40062000  0.43851000  0.51952000  1.0
  Zn  Zn5  1  0.60414000  0.40521000  0.53147000  1.0
  Zn  Zn6  1  0.41461000  0.44869000  0.67628000  1.0
  Zn  Zn7  1  0.43742000  0.61330000  0.51333000  1.0
  H  H8  1  0.87493000  0.24193000  0.20053000  1.0
  H  H9  1  0.88369000  0.14675000  0.28550000  1.0
  H  H10  1  0.66568000  0.23969000  0.19720000  1.0
  H  H11  1  0.50752000  0.33101000  0.30159000  1.0
  H  H12  1  0.30802000  0.83479000  0.16094000  1.0
  H  H13  1  0.33107000  0.74729000  0.11838000  1.0
  H  H14  1  0.16862000  0.66828000  0.23559000  1.0
  H  H15  1  0.19014000  0.57085000  0.38863000  1.0
  H  H16  1  0.03623000  0.30008000  0.90067000  1.0
  H  H17  1  0.96473000  0.29793000  0.84845000  1.0
  H  H18  1  0.10724000  0.17745000  0.74266000  1.0
  H  H19  1  0.26204000  0.22661000  0.62903000  1.0
  H  H20  1  0.74237000  0.84162000  0.34909000  1.0
  H  H21  1  0.86595000  0.78203000  0.35662000  1.0
  H  H22  1  0.94318000  0.62477000  0.28521000  1.0
  H  H23  1  0.85438000  0.49322000  0.35409000  1.0
  H  H24  1  0.61417000  0.15106000  0.97254000  1.0
  H  H25  1  0.65884000  0.03424000  0.97081000  1.0
  H  H26  1  0.82041000  0.02325000  0.82073000  1.0
  H  H27  1  0.78568000  0.14097000  0.67506000  1.0
  H  H28  1  0.02801000  0.74756000  0.89602000  1.0
  H  H29  1  0.13668000  0.68049000  0.92833000  1.0
  H  H30  1  0.10475000  0.91120000  0.76070000  1.0
  H  H31  1  0.23516000  0.85635000  0.62684000  1.0
  C  C32  1  0.87582000  0.12378000  0.18627000  1.0
  C  C33  1  0.84571000  0.18600000  0.23783000  1.0
  C  C34  1  0.66150000  0.25462000  0.24890000  1.0
  C  C35  1  0.58396000  0.29955000  0.30175000  1.0
  C  C36  1  0.62602000  0.29534000  0.35710000  1.0
  C  C37  1  0.57638000  0.33772000  0.42380000  1.0
  C  C38  1  0.18607000  0.84745000  0.12747000  1.0
  C  C39  1  0.27725000  0.78969000  0.15907000  1.0
  C  C40  1  0.20744000  0.67102000  0.26987000  1.0
  C  C41  1  0.21905000  0.62367000  0.34569000  1.0
  C  C42  1  0.27856000  0.65840000  0.35557000  1.0
  C  C43  1  0.31887000  0.62279000  0.42506000  1.0
  C  C44  1  0.03698000  0.16454000  0.91891000  1.0
  C  C45  1  0.03343000  0.26205000  0.86722000  1.0
  C  C46  1  0.14372000  0.22001000  0.73946000  1.0
  C  C47  1  0.22039000  0.24520000  0.68406000  1.0
  C  C48  1  0.23342000  0.30167000  0.71470000  1.0
  C  C49  1  0.30348000  0.35066000  0.67467000  1.0
  C  C50  1  0.85159000  0.84253000  0.23819000  1.0
  C  C51  1  0.81393000  0.79505000  0.32471000  1.0
  C  C52  1  0.87003000  0.62878000  0.32074000  1.0
  C  C53  1  0.82421000  0.56483000  0.35531000  1.0
  C  C54  1  0.72795000  0.61345000  0.39317000  1.0
  C  C55  1  0.64912000  0.57577000  0.44240000  1.0
  C  C56  1  0.76391000  0.07276000  0.97855000  1.0
  C  C57  1  0.67727000  0.09723000  0.94771000  1.0
  C  C58  1  0.76341000  0.08957000  0.80560000  1.0
  C  C59  1  0.74524000  0.14948000  0.73379000  1.0
  C  C60  1  0.66047000  0.22517000  0.75349000  1.0
  C  C61  1  0.60686000  0.30690000  0.69801000  1.0
  C  C62  1  0.06657000  0.81897000  0.94049000  1.0
  C  C63  1  0.09678000  0.74957000  0.89542000  1.0
  C  C64  1  0.15226000  0.84305000  0.75266000  1.0
  C  C65  1  0.21782000  0.81400000  0.68688000  1.0
  C  C66  1  0.25828000  0.71619000  0.71503000  1.0
  C  C67  1  0.32819000  0.64778000  0.66958000  1.0
  N  N68  1  0.74296000  0.22538000  0.27478000  1.0
  N  N69  1  0.72311000  0.25012000  0.34007000  1.0
  N  N70  1  0.25791000  0.73012000  0.23920000  1.0
  N  N71  1  0.30190000  0.72357000  0.29019000  1.0
  N  N72  1  0.11566000  0.26090000  0.79821000  1.0
  N  N73  1  0.16921000  0.31073000  0.78467000  1.0
  N  N74  1  0.80190000  0.70938000  0.33852000  1.0
  N  N75  1  0.71497000  0.70174000  0.38247000  1.0
  N  N76  1  0.69262000  0.13086000  0.86258000  1.0
  N  N77  1  0.62876000  0.21319000  0.83227000  1.0
  N  N78  1  0.15729000  0.76451000  0.81496000  1.0
  N  N79  1  0.22074000  0.68679000  0.79317000  1.0
  O  O80  1  0.96782000  0.97658000  0.05975000  1.0
  O  O81  1  0.81192000  0.12122000  0.16349000  1.0
  O  O82  1  0.96750000  0.08024000  0.16830000  1.0
  O  O83  1  0.62710000  0.32618000  0.46722000  1.0
  O  O84  1  0.48480000  0.38433000  0.43092000  1.0
  O  O85  1  0.13937000  0.80276000  0.12814000  1.0
  O  O86  1  0.16636000  0.93465000  0.10188000  1.0
  O  O87  1  0.37066000  0.66068000  0.42737000  1.0
  O  O88  1  0.29879000  0.55281000  0.47774000  1.0
  O  O89  1  0.02309000  0.11701000  0.88934000  1.0
  O  O90  1  0.05183000  0.14003000  0.98676000  1.0
  O  O91  1  0.31547000  0.39080000  0.71220000  1.0
  O  O92  1  0.34611000  0.34804000  0.60261000  1.0
  O  O93  1  0.92969000  0.79402000  0.19833000  1.0
  O  O94  1  0.80331000  0.92824000  0.21478000  1.0
  O  O95  1  0.56334000  0.63257000  0.46199000  1.0
  O  O96  1  0.67722000  0.48727000  0.46099000  1.0
  O  O97  1  0.84802000  0.05494000  0.93137000  1.0
  O  O98  1  0.74233000  0.06945000  0.05129000  1.0
  O  O99  1  0.52116000  0.35700000  0.72704000  1.0
  O  O100  1  0.65286000  0.31792000  0.62482000  1.0
  O  O101  1  0.04784000  0.78532000  0.01544000  1.0
  O  O102  1  0.05718000  0.90298000  0.90215000  1.0
  O  O103  1  0.35526000  0.68107000  0.59466000  1.0
  O  O104  1  0.35341000  0.56286000  0.70892000  1.0
  O  O105  1  0.46530000  0.47912000  0.56062000  1.0
