# generated using pymatgen
data_AgH6C6S2NO5
_symmetry_space_group_name_H-M   'P 1'
_cell_length_a   8.11435000
_cell_length_b   8.18372000
_cell_length_c   8.18378000
_cell_angle_alpha   92.57910000
_cell_angle_beta   113.19200000
_cell_angle_gamma   113.19200000
_symmetry_Int_Tables_number   1
_chemical_formula_structural   AgH6C6S2NO5
_chemical_formula_sum   'Ag2 H12 C12 S4 N2 O10'
_cell_volume   446.10450456
_cell_formula_units_Z   2
loop_
 _symmetry_equiv_pos_site_id
 _symmetry_equiv_pos_as_xyz
  1  'x, y, z'
loop_
 _atom_site_type_symbol
 _atom_site_label
 _atom_site_symmetry_multiplicity
 _atom_site_fract_x
 _atom_site_fract_y
 _atom_site_fract_z
 _atom_site_occupancy
  Ag  Ag0  1  0.68862000  0.95746000  0.95746000  1.0
  Ag  Ag1  1  0.31138000  0.04254000  0.04254000  1.0
  H  H2  1  0.41910000  0.72813000  0.10661000  1.0
  H  H3  1  0.58090000  0.89339000  0.27187000  1.0
  H  H4  1  0.58090000  0.27187000  0.89339000  1.0
  H  H5  1  0.41911000  0.10661000  0.72813000  1.0
  H  H6  1  0.77557000  0.26851000  0.69277000  1.0
  H  H7  1  0.22443000  0.30723000  0.73149000  1.0
  H  H8  1  0.22443000  0.73150000  0.30723000  1.0
  H  H9  1  0.77557000  0.69278000  0.26851000  1.0
  H  H10  1  0.74921000  0.17750000  0.38720000  1.0
  H  H11  1  0.25078000  0.61279000  0.82250000  1.0
  H  H12  1  0.25078000  0.82249000  0.61279000  1.0
  H  H13  1  0.74921000  0.38721000  0.17749000  1.0
  C  C14  1  0.78762000  0.53131000  0.64954000  1.0
  C  C15  1  0.21238000  0.35045000  0.46869000  1.0
  C  C16  1  0.21237000  0.46870000  0.35045000  1.0
  C  C17  1  0.78762000  0.64955000  0.53131000  1.0
  C  C18  1  0.77172000  0.35943000  0.60000000  1.0
  C  C19  1  0.22828000  0.40002000  0.64058000  1.0
  C  C20  1  0.22827000  0.64056000  0.40001000  1.0
  C  C21  1  0.77173000  0.59999000  0.35941000  1.0
  C  C22  1  0.75575000  0.30910000  0.42677000  1.0
  C  C23  1  0.24425000  0.57321000  0.69091000  1.0
  C  C24  1  0.24424000  0.69091000  0.57322000  1.0
  C  C25  1  0.75575000  0.42678000  0.30911000  1.0
  S  S26  1  0.82668000  0.63741000  0.86427000  1.0
  S  S27  1  0.17334000  0.13573000  0.36260000  1.0
  S  S28  1  0.17334000  0.36260000  0.13573000  1.0
  S  S29  1  0.82667000  0.86427000  0.63740000  1.0
  N  N30  1  0.76945000  0.80079000  0.80079000  1.0
  N  N31  1  0.23056000  0.19921000  0.19922000  1.0
  O  O32  1  0.50000000  0.86251000  0.13748000  1.0
  O  O33  1  0.50001000  0.13749000  0.86252000  1.0
  O  O34  1  0.03776000  0.70542000  0.99367000  1.0
  O  O35  1  0.96224000  0.00632000  0.29458000  1.0
  O  O36  1  0.96223000  0.29458000  0.00632000  1.0
  O  O37  1  0.03776000  0.99367000  0.70542000  1.0
  O  O38  1  0.68301000  0.51919000  0.92286000  1.0
  O  O39  1  0.31699000  0.07714000  0.48081000  1.0
  O  O40  1  0.31699000  0.48081000  0.07715000  1.0
  O  O41  1  0.68301000  0.92286000  0.51920000  1.0
