# generated using pymatgen
data_ZnH10C12N4O
_symmetry_space_group_name_H-M   'P 1'
_cell_length_a   10.67900000
_cell_length_b   10.68150000
_cell_length_c   47.99130000
_cell_angle_alpha   90.00440000
_cell_angle_beta   90.00310000
_cell_angle_gamma   89.99820000
_symmetry_Int_Tables_number   1
_chemical_formula_structural   ZnH10C12N4O
_chemical_formula_sum   'Zn16 H160 C192 N64 O16'
_cell_volume   5474.25903182
_cell_formula_units_Z   16
loop_
 _symmetry_equiv_pos_site_id
 _symmetry_equiv_pos_as_xyz
  1  'x, y, z'
loop_
 _atom_site_type_symbol
 _atom_site_label
 _atom_site_symmetry_multiplicity
 _atom_site_fract_x
 _atom_site_fract_y
 _atom_site_fract_z
 _atom_site_occupancy
  Zn  Zn0  1  0.75381000  0.68308000  0.99452000  1.0
  Zn  Zn1  1  0.24623000  0.31703000  0.49454000  1.0
  Zn  Zn2  1  0.68310000  0.24608000  0.24453000  1.0
  Zn  Zn3  1  0.31681000  0.75379000  0.74451000  1.0
  Zn  Zn4  1  0.75388000  0.31696000  0.00546000  1.0
  Zn  Zn5  1  0.24626000  0.68312000  0.50547000  1.0
  Zn  Zn6  1  0.68307000  0.75377000  0.75547000  1.0
  Zn  Zn7  1  0.31681000  0.24617000  0.25550000  1.0
  Zn  Zn8  1  0.93731000  0.50005000  0.99999000  1.0
  Zn  Zn9  1  0.06276000  0.50009000  0.50001000  1.0
  Zn  Zn10  1  0.49992000  0.06272000  0.25002000  1.0
  Zn  Zn11  1  0.49994000  0.93723000  0.74999000  1.0
  Zn  Zn12  1  0.55980000  0.50000000  0.99999000  1.0
  Zn  Zn13  1  0.44031000  0.50005000  0.50000000  1.0
  Zn  Zn14  1  0.49999000  0.44011000  0.25001000  1.0
  Zn  Zn15  1  0.49995000  0.55977000  0.74999000  1.0
  H  H16  1  0.65906000  0.19352000  0.18369000  1.0
  H  H17  1  0.34088000  0.80642000  0.68369000  1.0
  H  H18  1  0.19359000  0.34116000  0.43372000  1.0
  H  H19  1  0.80640000  0.65898000  0.93371000  1.0
  H  H20  1  0.65897000  0.80639000  0.81630000  1.0
  H  H21  1  0.34087000  0.19354000  0.31632000  1.0
  H  H22  1  0.19363000  0.65900000  0.56629000  1.0
  H  H23  1  0.80650000  0.34104000  0.06627000  1.0
  H  H24  1  0.05101000  0.41651000  0.94215000  1.0
  H  H25  1  0.94920000  0.58361000  0.44214000  1.0
  H  H26  1  0.41639000  0.94920000  0.19213000  1.0
  H  H27  1  0.58354000  0.05077000  0.69212000  1.0
  H  H28  1  0.05089000  0.58355000  0.05785000  1.0
  H  H29  1  0.94914000  0.41653000  0.55786000  1.0
  H  H30  1  0.41639000  0.05073000  0.80788000  1.0
  H  H31  1  0.58350000  0.94914000  0.30787000  1.0
  H  H32  1  0.13323000  0.75105000  0.98361000  1.0
  H  H33  1  0.86696000  0.24916000  0.48363000  1.0
  H  H34  1  0.75086000  0.86689000  0.23364000  1.0
  H  H35  1  0.24904000  0.13308000  0.73361000  1.0
  H  H36  1  0.13313000  0.24905000  0.01638000  1.0
  H  H37  1  0.86680000  0.75104000  0.51640000  1.0
  H  H38  1  0.75083000  0.13304000  0.76637000  1.0
  H  H39  1  0.24897000  0.86683000  0.26638000  1.0
  H  H40  1  0.65418000  0.19014000  0.13626000  1.0
  H  H41  1  0.34582000  0.80987000  0.63625000  1.0
  H  H42  1  0.19007000  0.34611000  0.38630000  1.0
  H  H43  1  0.80994000  0.65394000  0.88629000  1.0
  H  H44  1  0.65414000  0.80983000  0.86373000  1.0
  H  H45  1  0.34580000  0.19015000  0.36374000  1.0
  H  H46  1  0.19006000  0.65392000  0.61371000  1.0
  H  H47  1  0.80996000  0.34606000  0.11370000  1.0
  H  H48  1  0.44834000  0.58059000  0.80752000  1.0
  H  H49  1  0.55162000  0.41939000  0.30753000  1.0
  H  H50  1  0.58063000  0.55167000  0.05752000  1.0
  H  H51  1  0.41941000  0.44833000  0.55753000  1.0
  H  H52  1  0.44839000  0.41939000  0.19248000  1.0
  H  H53  1  0.55158000  0.58055000  0.69247000  1.0
  H  H54  1  0.58062000  0.44834000  0.94247000  1.0
  H  H55  1  0.41941000  0.55170000  0.44247000  1.0
  H  H56  1  0.49188000  0.88727000  0.00700000  1.0
  H  H57  1  0.50806000  0.11271000  0.50700000  1.0
  H  H58  1  0.88720000  0.50793000  0.25699000  1.0
  H  H59  1  0.11270000  0.49187000  0.75699000  1.0
  H  H60  1  0.49212000  0.11262000  0.99300000  1.0
  H  H61  1  0.50817000  0.88737000  0.49300000  1.0
  H  H62  1  0.88732000  0.49193000  0.74300000  1.0
  H  H63  1  0.11271000  0.50809000  0.24301000  1.0
  H  H64  1  0.98631000  0.08805000  0.22607000  1.0
  H  H65  1  0.01361000  0.91185000  0.72606000  1.0
  H  H66  1  0.08811000  0.01403000  0.47611000  1.0
  H  H67  1  0.91194000  0.98616000  0.97608000  1.0
  H  H68  1  0.98617000  0.91176000  0.77390000  1.0
  H  H69  1  0.01359000  0.08809000  0.27395000  1.0
  H  H70  1  0.08808000  0.98619000  0.52393000  1.0
  H  H71  1  0.91203000  0.01383000  0.02391000  1.0
  H  H72  1  0.98833000  0.97163000  0.17458000  1.0
  H  H73  1  0.01163000  0.02836000  0.67458000  1.0
  H  H74  1  0.97148000  0.01205000  0.42463000  1.0
  H  H75  1  0.02856000  0.98804000  0.92461000  1.0
  H  H76  1  0.98827000  0.02828000  0.82538000  1.0
  H  H77  1  0.01166000  0.97160000  0.32543000  1.0
  H  H78  1  0.97146000  0.98807000  0.57540000  1.0
  H  H79  1  0.02857000  0.01192000  0.07540000  1.0
  H  H80  1  0.48771000  0.01174000  0.05806000  1.0
  H  H81  1  0.51224000  0.98819000  0.55804000  1.0
  H  H82  1  0.01157000  0.51240000  0.30807000  1.0
  H  H83  1  0.98840000  0.48751000  0.80807000  1.0
  H  H84  1  0.48788000  0.98813000  0.94195000  1.0
  H  H85  1  0.51235000  0.01178000  0.44194000  1.0
  H  H86  1  0.01170000  0.48759000  0.69194000  1.0
  H  H87  1  0.98840000  0.51247000  0.19194000  1.0
  H  H88  1  0.05279000  0.41367000  0.89532000  1.0
  H  H89  1  0.94733000  0.58637000  0.39532000  1.0
  H  H90  1  0.41388000  0.94755000  0.14527000  1.0
  H  H91  1  0.58610000  0.05246000  0.64527000  1.0
  H  H92  1  0.05272000  0.58635000  0.10469000  1.0
  H  H93  1  0.94727000  0.41365000  0.60468000  1.0
  H  H94  1  0.41387000  0.05244000  0.85473000  1.0
  H  H95  1  0.58614000  0.94745000  0.35472000  1.0
  H  H96  1  0.81955000  0.78944000  0.04945000  1.0
  H  H97  1  0.18051000  0.21070000  0.54946000  1.0
  H  H98  1  0.78940000  0.18049000  0.29949000  1.0
  H  H99  1  0.21047000  0.81944000  0.79945000  1.0
  H  H100  1  0.81959000  0.21068000  0.95052000  1.0
  H  H101  1  0.18051000  0.78950000  0.45056000  1.0
  H  H102  1  0.78936000  0.81939000  0.70053000  1.0
  H  H103  1  0.21049000  0.18053000  0.20055000  1.0
  H  H104  1  0.44335000  0.58755000  0.85472000  1.0
  H  H105  1  0.55662000  0.41256000  0.35476000  1.0
  H  H106  1  0.58749000  0.55676000  0.10474000  1.0
  H  H107  1  0.41253000  0.44326000  0.60475000  1.0
  H  H108  1  0.44338000  0.41250000  0.14526000  1.0
  H  H109  1  0.55665000  0.58751000  0.64527000  1.0
  H  H110  1  0.58746000  0.44325000  0.89525000  1.0
  H  H111  1  0.41244000  0.55679000  0.39527000  1.0
  H  H112  1  0.37982000  0.64756000  0.90242000  1.0
  H  H113  1  0.62021000  0.35261000  0.40245000  1.0
  H  H114  1  0.64743000  0.62033000  0.15244000  1.0
  H  H115  1  0.35257000  0.37969000  0.65244000  1.0
  H  H116  1  0.37979000  0.35251000  0.09757000  1.0
  H  H117  1  0.62021000  0.64752000  0.59758000  1.0
  H  H118  1  0.64739000  0.37966000  0.84755000  1.0
  H  H119  1  0.35246000  0.62032000  0.34757000  1.0
  H  H120  1  0.81681000  0.79139000  0.09734000  1.0
  H  H121  1  0.18318000  0.20863000  0.59735000  1.0
  H  H122  1  0.79134000  0.18330000  0.34737000  1.0
  H  H123  1  0.20863000  0.81668000  0.84735000  1.0
  H  H124  1  0.81688000  0.20858000  0.90262000  1.0
  H  H125  1  0.18322000  0.79143000  0.40267000  1.0
  H  H126  1  0.79133000  0.81668000  0.65264000  1.0
  H  H127  1  0.20867000  0.18331000  0.15265000  1.0
  H  H128  1  0.26663000  0.75058000  0.93359000  1.0
  H  H129  1  0.73344000  0.24957000  0.43362000  1.0
  H  H130  1  0.75058000  0.73361000  0.18360000  1.0
  H  H131  1  0.24941000  0.26645000  0.68359000  1.0
  H  H132  1  0.26656000  0.24947000  0.06640000  1.0
  H  H133  1  0.73334000  0.75052000  0.56641000  1.0
  H  H134  1  0.75051000  0.26643000  0.81639000  1.0
  H  H135  1  0.24935000  0.73353000  0.31642000  1.0
  H  H136  1  0.59515000  0.12584000  0.08857000  1.0
  H  H137  1  0.40485000  0.87418000  0.58857000  1.0
  H  H138  1  0.12580000  0.40500000  0.33860000  1.0
  H  H139  1  0.87418000  0.59495000  0.83860000  1.0
  H  H140  1  0.59516000  0.87419000  0.91141000  1.0
  H  H141  1  0.40488000  0.12589000  0.41143000  1.0
  H  H142  1  0.12579000  0.59496000  0.66140000  1.0
  H  H143  1  0.87419000  0.40502000  0.16140000  1.0
  H  H144  1  0.22689000  0.24888000  0.81681000  1.0
  H  H145  1  0.77315000  0.75106000  0.31681000  1.0
  H  H146  1  0.24893000  0.77325000  0.06679000  1.0
  H  H147  1  0.75105000  0.22671000  0.56681000  1.0
  H  H148  1  0.22689000  0.75109000  0.18319000  1.0
  H  H149  1  0.77317000  0.24893000  0.68319000  1.0
  H  H150  1  0.24899000  0.22668000  0.93321000  1.0
  H  H151  1  0.75105000  0.77332000  0.43320000  1.0
  H  H152  1  0.88130000  0.85912000  0.14442000  1.0
  H  H153  1  0.11864000  0.14086000  0.64442000  1.0
  H  H154  1  0.85914000  0.11880000  0.39444000  1.0
  H  H155  1  0.14094000  0.88118000  0.89442000  1.0
  H  H156  1  0.88134000  0.14078000  0.85556000  1.0
  H  H157  1  0.11868000  0.85912000  0.35560000  1.0
  H  H158  1  0.85908000  0.88121000  0.60558000  1.0
  H  H159  1  0.14097000  0.11881000  0.10558000  1.0
  H  H160  1  0.33606000  0.25847000  0.76441000  1.0
  H  H161  1  0.66392000  0.74145000  0.26441000  1.0
  H  H162  1  0.25844000  0.66390000  0.01440000  1.0
  H  H163  1  0.74160000  0.33605000  0.51442000  1.0
  H  H164  1  0.33608000  0.74149000  0.23560000  1.0
  H  H165  1  0.66393000  0.25849000  0.73558000  1.0
  H  H166  1  0.25850000  0.33603000  0.98559000  1.0
  H  H167  1  0.74157000  0.66401000  0.48559000  1.0
  H  H168  1  0.11943000  0.34945000  0.84827000  1.0
  H  H169  1  0.88062000  0.65051000  0.34826000  1.0
  H  H170  1  0.34968000  0.88082000  0.09821000  1.0
  H  H171  1  0.65034000  0.11919000  0.59822000  1.0
  H  H172  1  0.11941000  0.65053000  0.15174000  1.0
  H  H173  1  0.88059000  0.34946000  0.65173000  1.0
  H  H174  1  0.34967000  0.11918000  0.90178000  1.0
  H  H175  1  0.65038000  0.88077000  0.40177000  1.0
  C  C176  1  0.28637000  0.46338000  0.84830000  1.0
  C  C177  1  0.71363000  0.53663000  0.34832000  1.0
  C  C178  1  0.46346000  0.71378000  0.09829000  1.0
  C  C179  1  0.53654000  0.28622000  0.59830000  1.0
  C  C180  1  0.28639000  0.53662000  0.15170000  1.0
  C  C181  1  0.71363000  0.46337000  0.65169000  1.0
  C  C182  1  0.46347000  0.28620000  0.90171000  1.0
  C  C183  1  0.53654000  0.71378000  0.40171000  1.0
  C  C184  1  0.74910000  0.15003000  0.18786000  1.0
  C  C185  1  0.25083000  0.84990000  0.68785000  1.0
  C  C186  1  0.15009000  0.25113000  0.43788000  1.0
  C  C187  1  0.84995000  0.74899000  0.93787000  1.0
  C  C188  1  0.74902000  0.84985000  0.81213000  1.0
  C  C189  1  0.25083000  0.15007000  0.31216000  1.0
  C  C190  1  0.15008000  0.74902000  0.56213000  1.0
  C  C191  1  0.85003000  0.25101000  0.06212000  1.0
  C  C192  1  0.09207000  0.50762000  0.94621000  1.0
  C  C193  1  0.90809000  0.49250000  0.44620000  1.0
  C  C194  1  0.50753000  0.90812000  0.19619000  1.0
  C  C195  1  0.49240000  0.09185000  0.69618000  1.0
  C  C196  1  0.09196000  0.49243000  0.05380000  1.0
  C  C197  1  0.90803000  0.50764000  0.55380000  1.0
  C  C198  1  0.50752000  0.09181000  0.80381000  1.0
  C  C199  1  0.49237000  0.90805000  0.30381000  1.0
  C  C200  1  0.13997000  0.68035000  0.96746000  1.0
  C  C201  1  0.86020000  0.31981000  0.46747000  1.0
  C  C202  1  0.68023000  0.86018000  0.21747000  1.0
  C  C203  1  0.31969000  0.13980000  0.71745000  1.0
  C  C204  1  0.13987000  0.31972000  0.03253000  1.0
  C  C205  1  0.86008000  0.68036000  0.53255000  1.0
  C  C206  1  0.68020000  0.13976000  0.78253000  1.0
  C  C207  1  0.31964000  0.86012000  0.28254000  1.0
  C  C208  1  0.68923000  0.10215000  0.12787000  1.0
  C  C209  1  0.31076000  0.89786000  0.62787000  1.0
  C  C210  1  0.10208000  0.31103000  0.37790000  1.0
  C  C211  1  0.89793000  0.68901000  0.87789000  1.0
  C  C212  1  0.68922000  0.89781000  0.87211000  1.0
  C  C213  1  0.31076000  0.10217000  0.37214000  1.0
  C  C214  1  0.10206000  0.68901000  0.62210000  1.0
  C  C215  1  0.89795000  0.31098000  0.12210000  1.0
  C  C216  1  0.77273000  0.02962000  0.14357000  1.0
  C  C217  1  0.22723000  0.97037000  0.64357000  1.0
  C  C218  1  0.02957000  0.22752000  0.39360000  1.0
  C  C219  1  0.97046000  0.77252000  0.89359000  1.0
  C  C220  1  0.77272000  0.97032000  0.85641000  1.0
  C  C221  1  0.22725000  0.02962000  0.35644000  1.0
  C  C222  1  0.02955000  0.77254000  0.60640000  1.0
  C  C223  1  0.97049000  0.22747000  0.10640000  1.0
  C  C224  1  0.40085000  0.49191000  0.80359000  1.0
  C  C225  1  0.59910000  0.50804000  0.30360000  1.0
  C  C226  1  0.49194000  0.59916000  0.05358000  1.0
  C  C227  1  0.50810000  0.40086000  0.55359000  1.0
  C  C228  1  0.40090000  0.50806000  0.19641000  1.0
  C  C229  1  0.59907000  0.49190000  0.69640000  1.0
  C  C230  1  0.49195000  0.40085000  0.94641000  1.0
  C  C231  1  0.50808000  0.59919000  0.44641000  1.0
  C  C232  1  0.55989000  0.88866000  0.02374000  1.0
  C  C233  1  0.44009000  0.11134000  0.52374000  1.0
  C  C234  1  0.88859000  0.44001000  0.27374000  1.0
  C  C235  1  0.11133000  0.55983000  0.77373000  1.0
  C  C236  1  0.56007000  0.11128000  0.97626000  1.0
  C  C237  1  0.44017000  0.88874000  0.47627000  1.0
  C  C238  1  0.88867000  0.55987000  0.72626000  1.0
  C  C239  1  0.11133000  0.44014000  0.22627000  1.0
  C  C240  1  0.91711000  0.09141000  0.20955000  1.0
  C  C241  1  0.08283000  0.90851000  0.70954000  1.0
  C  C242  1  0.09145000  0.08320000  0.45959000  1.0
  C  C243  1  0.90860000  0.91696000  0.95956000  1.0
  C  C244  1  0.91699000  0.90843000  0.79042000  1.0
  C  C245  1  0.08282000  0.09144000  0.29047000  1.0
  C  C246  1  0.09143000  0.91699000  0.54044000  1.0
  C  C247  1  0.90867000  0.08303000  0.04043000  1.0
  C  C248  1  0.91926000  0.03167000  0.18425000  1.0
  C  C249  1  0.08069000  0.96830000  0.68425000  1.0
  C  C250  1  0.03162000  0.08106000  0.43429000  1.0
  C  C251  1  0.96842000  0.91904000  0.93427000  1.0
  C  C252  1  0.91919000  0.96822000  0.81572000  1.0
  C  C253  1  0.08069000  0.03166000  0.31576000  1.0
  C  C254  1  0.03159000  0.91908000  0.56573000  1.0
  C  C255  1  0.96847000  0.08093000  0.06572000  1.0
  C  C256  1  0.55606000  0.94940000  0.04888000  1.0
  C  C257  1  0.44391000  0.05059000  0.54888000  1.0
  C  C258  1  0.94929000  0.44396000  0.29889000  1.0
  C  C259  1  0.05065000  0.55593000  0.79889000  1.0
  C  C260  1  0.55622000  0.05055000  0.95112000  1.0
  C  C261  1  0.44400000  0.94946000  0.45112000  1.0
  C  C262  1  0.94937000  0.55597000  0.70111000  1.0
  C  C263  1  0.05065000  0.44405000  0.20112000  1.0
  C  C264  1  0.70099000  0.95353000  0.08985000  1.0
  C  C265  1  0.29902000  0.04650000  0.58985000  1.0
  C  C266  1  0.95345000  0.29918000  0.33988000  1.0
  C  C267  1  0.04652000  0.70080000  0.83986000  1.0
  C  C268  1  0.70103000  0.04647000  0.91013000  1.0
  C  C269  1  0.29904000  0.95356000  0.41016000  1.0
  C  C270  1  0.95345000  0.70081000  0.66013000  1.0
  C  C271  1  0.04653000  0.29918000  0.16014000  1.0
  C  C272  1  0.14025000  0.44939000  0.88680000  1.0
  C  C273  1  0.85981000  0.55066000  0.38680000  1.0
  C  C274  1  0.44952000  0.86001000  0.13676000  1.0
  C  C275  1  0.55046000  0.14000000  0.63676000  1.0
  C  C276  1  0.14021000  0.55063000  0.11321000  1.0
  C  C277  1  0.85979000  0.44937000  0.61320000  1.0
  C  C278  1  0.44952000  0.13998000  0.86324000  1.0
  C  C279  1  0.55048000  0.85995000  0.36323000  1.0
  C  C280  1  0.73006000  0.83559000  0.04561000  1.0
  C  C281  1  0.26997000  0.16450000  0.54563000  1.0
  C  C282  1  0.83553000  0.26996000  0.29564000  1.0
  C  C283  1  0.16438000  0.72995000  0.79562000  1.0
  C  C284  1  0.73013000  0.16446000  0.95436000  1.0
  C  C285  1  0.27001000  0.83564000  0.45439000  1.0
  C  C286  1  0.83552000  0.72993000  0.70437000  1.0
  C  C287  1  0.16440000  0.27002000  0.20438000  1.0
  C  C288  1  0.21178000  0.53495000  0.90212000  1.0
  C  C289  1  0.78830000  0.46514000  0.40214000  1.0
  C  C290  1  0.53498000  0.78845000  0.15211000  1.0
  C  C291  1  0.46500000  0.21157000  0.65211000  1.0
  C  C292  1  0.21173000  0.46508000  0.09787000  1.0
  C  C293  1  0.78827000  0.53493000  0.59788000  1.0
  C  C294  1  0.53496000  0.21153000  0.84789000  1.0
  C  C295  1  0.46498000  0.78840000  0.34789000  1.0
  C  C296  1  0.35735000  0.54977000  0.86357000  1.0
  C  C297  1  0.64263000  0.45031000  0.36359000  1.0
  C  C298  1  0.54978000  0.64278000  0.11357000  1.0
  C  C299  1  0.45023000  0.35724000  0.61357000  1.0
  C  C300  1  0.35737000  0.45026000  0.13642000  1.0
  C  C301  1  0.64264000  0.54975000  0.63643000  1.0
  C  C302  1  0.54976000  0.35722000  0.88643000  1.0
  C  C303  1  0.45018000  0.64279000  0.38644000  1.0
  C  C304  1  0.32099000  0.58441000  0.89031000  1.0
  C  C305  1  0.67905000  0.41572000  0.39033000  1.0
  C  C306  1  0.58438000  0.67918000  0.14031000  1.0
  C  C307  1  0.41562000  0.32084000  0.64031000  1.0
  C  C308  1  0.32097000  0.41564000  0.10968000  1.0
  C  C309  1  0.67904000  0.58438000  0.60969000  1.0
  C  C310  1  0.58435000  0.32080000  0.85969000  1.0
  C  C311  1  0.41556000  0.67917000  0.35970000  1.0
  C  C312  1  0.78326000  0.88019000  0.10563000  1.0
  C  C313  1  0.21674000  0.11982000  0.60563000  1.0
  C  C314  1  0.88013000  0.21691000  0.35566000  1.0
  C  C315  1  0.11985000  0.78309000  0.85564000  1.0
  C  C316  1  0.78330000  0.11977000  0.89434000  1.0
  C  C317  1  0.21676000  0.88023000  0.39438000  1.0
  C  C318  1  0.88012000  0.78309000  0.64435000  1.0
  C  C319  1  0.11988000  0.21690000  0.14436000  1.0
  C  C320  1  0.20419000  0.68225000  0.94273000  1.0
  C  C321  1  0.79593000  0.31790000  0.44275000  1.0
  C  C322  1  0.68220000  0.79602000  0.19273000  1.0
  C  C323  1  0.31776000  0.20400000  0.69272000  1.0
  C  C324  1  0.20411000  0.31781000  0.05726000  1.0
  C  C325  1  0.79583000  0.68222000  0.55728000  1.0
  C  C326  1  0.68216000  0.20397000  0.80727000  1.0
  C  C327  1  0.31771000  0.79595000  0.30728000  1.0
  C  C328  1  0.65475000  0.06530000  0.10115000  1.0
  C  C329  1  0.34525000  0.93472000  0.60115000  1.0
  C  C330  1  0.06522000  0.34545000  0.35118000  1.0
  C  C331  1  0.93475000  0.65454000  0.85117000  1.0
  C  C332  1  0.65476000  0.93471000  0.89884000  1.0
  C  C333  1  0.34527000  0.06533000  0.39886000  1.0
  C  C334  1  0.06522000  0.65454000  0.64882000  1.0
  C  C335  1  0.93477000  0.34544000  0.14883000  1.0
  C  C336  1  0.28490000  0.31960000  0.80712000  1.0
  C  C337  1  0.71510000  0.68034000  0.30712000  1.0
  C  C338  1  0.31964000  0.71519000  0.05710000  1.0
  C  C339  1  0.68038000  0.28479000  0.55712000  1.0
  C  C340  1  0.28492000  0.68037000  0.19289000  1.0
  C  C341  1  0.71511000  0.31962000  0.69287000  1.0
  C  C342  1  0.31968000  0.28476000  0.94290000  1.0
  C  C343  1  0.68035000  0.71524000  0.44289000  1.0
  C  C344  1  0.81929000  0.91834000  0.13214000  1.0
  C  C345  1  0.18068000  0.08164000  0.63214000  1.0
  C  C346  1  0.91831000  0.18089000  0.38217000  1.0
  C  C347  1  0.08171000  0.81912000  0.88215000  1.0
  C  C348  1  0.81932000  0.08159000  0.86783000  1.0
  C  C349  1  0.18070000  0.91836000  0.36787000  1.0
  C  C350  1  0.91829000  0.81914000  0.61784000  1.0
  C  C351  1  0.08174000  0.18086000  0.11785000  1.0
  C  C352  1  0.34013000  0.32529000  0.78136000  1.0
  C  C353  1  0.65984000  0.67463000  0.28137000  1.0
  C  C354  1  0.32529000  0.65986000  0.03135000  1.0
  C  C355  1  0.67475000  0.34012000  0.53137000  1.0
  C  C356  1  0.34016000  0.67467000  0.21864000  1.0
  C  C357  1  0.65984000  0.32531000  0.71863000  1.0
  C  C358  1  0.32533000  0.34009000  0.96864000  1.0
  C  C359  1  0.67472000  0.65993000  0.46864000  1.0
  C  C360  1  0.17766000  0.41356000  0.86023000  1.0
  C  C361  1  0.82238000  0.58646000  0.36024000  1.0
  C  C362  1  0.41370000  0.82257000  0.11020000  1.0
  C  C363  1  0.58630000  0.17743000  0.61020000  1.0
  C  C364  1  0.17765000  0.58645000  0.13977000  1.0
  C  C365  1  0.82237000  0.41354000  0.63977000  1.0
  C  C366  1  0.41370000  0.17742000  0.88980000  1.0
  C  C367  1  0.58632000  0.82253000  0.38979000  1.0
  N  N368  1  0.81105000  0.16465000  0.21145000  1.0
  N  N369  1  0.18887000  0.83526000  0.71144000  1.0
  N  N370  1  0.16477000  0.18919000  0.46148000  1.0
  N  N371  1  0.83527000  0.81097000  0.96146000  1.0
  N  N372  1  0.81094000  0.83519000  0.78853000  1.0
  N  N373  1  0.18886000  0.16470000  0.28857000  1.0
  N  N374  1  0.16477000  0.81100000  0.53854000  1.0
  N  N375  1  0.83537000  0.18905000  0.03852000  1.0
  N  N376  1  0.66865000  0.82004000  0.02199000  1.0
  N  N377  1  0.33136000  0.18004000  0.52200000  1.0
  N  N378  1  0.82001000  0.33125000  0.27201000  1.0
  N  N379  1  0.17989000  0.66860000  0.77199000  1.0
  N  N380  1  0.66878000  0.17997000  0.97799000  1.0
  N  N381  1  0.33142000  0.82011000  0.47801000  1.0
  N  N382  1  0.82002000  0.66860000  0.72799000  1.0
  N  N383  1  0.17990000  0.33136000  0.22801000  1.0
  N  N384  1  0.07244000  0.57084000  0.96933000  1.0
  N  N385  1  0.92777000  0.42931000  0.46934000  1.0
  N  N386  1  0.57069000  0.92772000  0.21934000  1.0
  N  N387  1  0.42921000  0.07223000  0.71932000  1.0
  N  N388  1  0.07231000  0.42923000  0.03066000  1.0
  N  N389  1  0.92768000  0.57086000  0.53067000  1.0
  N  N390  1  0.57068000  0.07220000  0.78067000  1.0
  N  N391  1  0.42917000  0.92766000  0.28067000  1.0
  N  N392  1  0.17246000  0.57193000  0.92895000  1.0
  N  N393  1  0.82767000  0.42821000  0.42896000  1.0
  N  N394  1  0.57189000  0.82778000  0.17894000  1.0
  N  N395  1  0.42808000  0.17224000  0.67894000  1.0
  N  N396  1  0.17237000  0.42813000  0.07104000  1.0
  N  N397  1  0.82760000  0.57190000  0.57105000  1.0
  N  N398  1  0.57187000  0.17220000  0.82106000  1.0
  N  N399  1  0.42804000  0.82771000  0.32106000  1.0
  N  N400  1  0.41123000  0.43266000  0.77950000  1.0
  N  N401  1  0.58875000  0.56728000  0.27951000  1.0
  N  N402  1  0.43264000  0.58873000  0.02950000  1.0
  N  N403  1  0.56741000  0.41126000  0.52951000  1.0
  N  N404  1  0.41126000  0.56731000  0.22050000  1.0
  N  N405  1  0.58871000  0.43265000  0.72049000  1.0
  N  N406  1  0.43267000  0.41124000  0.97050000  1.0
  N  N407  1  0.56739000  0.58879000  0.47050000  1.0
  N  N408  1  0.66477000  0.91457000  0.06296000  1.0
  N  N409  1  0.33523000  0.08546000  0.56296000  1.0
  N  N410  1  0.91449000  0.33532000  0.31298000  1.0
  N  N411  1  0.08545000  0.66461000  0.81297000  1.0
  N  N412  1  0.66485000  0.08544000  0.93702000  1.0
  N  N413  1  0.33528000  0.91462000  0.43705000  1.0
  N  N414  1  0.91451000  0.66461000  0.68702000  1.0
  N  N415  1  0.08546000  0.33537000  0.18703000  1.0
  N  N416  1  0.81106000  0.06885000  0.17034000  1.0
  N  N417  1  0.18889000  0.93112000  0.67034000  1.0
  N  N418  1  0.06881000  0.18923000  0.42038000  1.0
  N  N419  1  0.93123000  0.81086000  0.92036000  1.0
  N  N420  1  0.81101000  0.93106000  0.82963000  1.0
  N  N421  1  0.18891000  0.06884000  0.32967000  1.0
  N  N422  1  0.06879000  0.81088000  0.57963000  1.0
  N  N423  1  0.93127000  0.18914000  0.07963000  1.0
  N  N424  1  0.32359000  0.42669000  0.82131000  1.0
  N  N425  1  0.67641000  0.57330000  0.32132000  1.0
  N  N426  1  0.42673000  0.67651000  0.07129000  1.0
  N  N427  1  0.57328000  0.32348000  0.57130000  1.0
  N  N428  1  0.32361000  0.57330000  0.17869000  1.0
  N  N429  1  0.67641000  0.42668000  0.67868000  1.0
  N  N430  1  0.42676000  0.32347000  0.92870000  1.0
  N  N431  1  0.57327000  0.67654000  0.42870000  1.0
  O  O432  1  0.89425000  0.65190000  0.01780000  1.0
  O  O433  1  0.10579000  0.34823000  0.51782000  1.0
  O  O434  1  0.65187000  0.10571000  0.26781000  1.0
  O  O435  1  0.34799000  0.89422000  0.76778000  1.0
  O  O436  1  0.89428000  0.34820000  0.98217000  1.0
  O  O437  1  0.10582000  0.65192000  0.48219000  1.0
  O  O438  1  0.65189000  0.89420000  0.73220000  1.0
  O  O439  1  0.34798000  0.10574000  0.23222000  1.0
  O  O440  1  0.62920000  0.60825000  0.97257000  1.0
  O  O441  1  0.37087000  0.39176000  0.47259000  1.0
  O  O442  1  0.60824000  0.37067000  0.22258000  1.0
  O  O443  1  0.39165000  0.62916000  0.72257000  1.0
  O  O444  1  0.62927000  0.39175000  0.02741000  1.0
  O  O445  1  0.37088000  0.60833000  0.52742000  1.0
  O  O446  1  0.60824000  0.62918000  0.77741000  1.0
  O  O447  1  0.39173000  0.37074000  0.27743000  1.0
