# generated using pymatgen
data_BaH10C10(N6O)2
_symmetry_space_group_name_H-M   'P 1'
_cell_length_a   9.57043000
_cell_length_b   11.55130000
_cell_length_c   15.79060000
_cell_angle_alpha   90.00000000
_cell_angle_beta   89.99840000
_cell_angle_gamma   89.99960000
_symmetry_Int_Tables_number   1
_chemical_formula_structural   BaH10C10(N6O)2
_chemical_formula_sum   'Ba4 H40 C40 N48 O8'
_cell_volume   1745.66516807
_cell_formula_units_Z   4
loop_
 _symmetry_equiv_pos_site_id
 _symmetry_equiv_pos_as_xyz
  1  'x, y, z'
loop_
 _atom_site_type_symbol
 _atom_site_label
 _atom_site_symmetry_multiplicity
 _atom_site_fract_x
 _atom_site_fract_y
 _atom_site_fract_z
 _atom_site_occupancy
  Ba  Ba0  1  0.50000000  0.03835000  0.24998000  1.0
  Ba  Ba1  1  0.99999000  0.46165000  0.75001000  1.0
  Ba  Ba2  1  0.49999000  0.96165000  0.74999000  1.0
  Ba  Ba3  1  0.99999000  0.53835000  0.25001000  1.0
  H  H4  1  0.57371000  0.78243000  0.42233000  1.0
  H  H5  1  0.92635000  0.71752000  0.92240000  1.0
  H  H6  1  0.42632000  0.78247000  0.07765000  1.0
  H  H7  1  0.07373000  0.71755000  0.57768000  1.0
  H  H8  1  0.42632000  0.21752000  0.57764000  1.0
  H  H9  1  0.07370000  0.28248000  0.07764000  1.0
  H  H10  1  0.57369000  0.21755000  0.92234000  1.0
  H  H11  1  0.92631000  0.28246000  0.42235000  1.0
  H  H12  1  0.50667000  0.58268000  0.46900000  1.0
  H  H13  1  0.99335000  0.91729000  0.96904000  1.0
  H  H14  1  0.49333000  0.58270000  0.03101000  1.0
  H  H15  1  0.00671000  0.91731000  0.53102000  1.0
  H  H16  1  0.49332000  0.41730000  0.53099000  1.0
  H  H17  1  0.00669000  0.08272000  0.03097000  1.0
  H  H18  1  0.50668000  0.41731000  0.96899000  1.0
  H  H19  1  0.99334000  0.08269000  0.46900000  1.0
  H  H20  1  0.28676000  0.49596000  0.40475000  1.0
  H  H21  1  0.21321000  0.00405000  0.90476000  1.0
  H  H22  1  0.71321000  0.49596000  0.09526000  1.0
  H  H23  1  0.78681000  0.00404000  0.59526000  1.0
  H  H24  1  0.71318000  0.50405000  0.59526000  1.0
  H  H25  1  0.78680000  0.99598000  0.09522000  1.0
  H  H26  1  0.28678000  0.50404000  0.90475000  1.0
  H  H27  1  0.21323000  0.99597000  0.40475000  1.0
  H  H28  1  0.67939000  0.00659000  0.42154000  1.0
  H  H29  1  0.82056000  0.49344000  0.92156000  1.0
  H  H30  1  0.32057000  0.00655000  0.07844000  1.0
  H  H31  1  0.17940000  0.49343000  0.57845000  1.0
  H  H32  1  0.32059000  0.99345000  0.57844000  1.0
  H  H33  1  0.17940000  0.50659000  0.07843000  1.0
  H  H34  1  0.67940000  0.99341000  0.92155000  1.0
  H  H35  1  0.82058000  0.50654000  0.42156000  1.0
  H  H36  1  0.53735000  0.95954000  0.45536000  1.0
  H  H37  1  0.96264000  0.54037000  0.95542000  1.0
  H  H38  1  0.46264000  0.95962000  0.04457000  1.0
  H  H39  1  0.03735000  0.54044000  0.54462000  1.0
  H  H40  1  0.46267000  0.04036000  0.54457000  1.0
  H  H41  1  0.03735000  0.45956000  0.04463000  1.0
  H  H42  1  0.53736000  0.04045000  0.95537000  1.0
  H  H43  1  0.96266000  0.45961000  0.45543000  1.0
  C  C44  1  0.22406000  0.80137000  0.23497000  1.0
  C  C45  1  0.27593000  0.69862000  0.73498000  1.0
  C  C46  1  0.77594000  0.80138000  0.26503000  1.0
  C  C47  1  0.72407000  0.69863000  0.76504000  1.0
  C  C48  1  0.77592000  0.19862000  0.76502000  1.0
  C  C49  1  0.72407000  0.30136000  0.26503000  1.0
  C  C50  1  0.22407000  0.19863000  0.73497000  1.0
  C  C51  1  0.27593000  0.30138000  0.23496000  1.0
  C  C52  1  0.29581000  0.74432000  0.30520000  1.0
  C  C53  1  0.20421000  0.75567000  0.80522000  1.0
  C  C54  1  0.70420000  0.74434000  0.19480000  1.0
  C  C55  1  0.79582000  0.75568000  0.69481000  1.0
  C  C56  1  0.70419000  0.25566000  0.69479000  1.0
  C  C57  1  0.79582000  0.24432000  0.19479000  1.0
  C  C58  1  0.29579000  0.25568000  0.80520000  1.0
  C  C59  1  0.20419000  0.24434000  0.30519000  1.0
  C  C60  1  0.48110000  0.73998000  0.39648000  1.0
  C  C61  1  0.01894000  0.75999000  0.89653000  1.0
  C  C62  1  0.51892000  0.74001000  0.10351000  1.0
  C  C63  1  0.98112000  0.76001000  0.60353000  1.0
  C  C64  1  0.51891000  0.25998000  0.60350000  1.0
  C  C65  1  0.98110000  0.24002000  0.10349000  1.0
  C  C66  1  0.48109000  0.26001000  0.89649000  1.0
  C  C67  1  0.01891000  0.24000000  0.39649000  1.0
  C  C68  1  0.44463000  0.62894000  0.42258000  1.0
  C  C69  1  0.05538000  0.87104000  0.92261000  1.0
  C  C70  1  0.55537000  0.62896000  0.07742000  1.0
  C  C71  1  0.94467000  0.87106000  0.57743000  1.0
  C  C72  1  0.55535000  0.37104000  0.57741000  1.0
  C  C73  1  0.94464000  0.12897000  0.07739000  1.0
  C  C74  1  0.44464000  0.37105000  0.92258000  1.0
  C  C75  1  0.05537000  0.12895000  0.42258000  1.0
  C  C76  1  0.32440000  0.58197000  0.38702000  1.0
  C  C77  1  0.17560000  0.91803000  0.88704000  1.0
  C  C78  1  0.67558000  0.58198000  0.11299000  1.0
  C  C79  1  0.82443000  0.91803000  0.61299000  1.0
  C  C80  1  0.67556000  0.41803000  0.61298000  1.0
  C  C81  1  0.82442000  0.08199000  0.11296000  1.0
  C  C82  1  0.32441000  0.41803000  0.88702000  1.0
  C  C83  1  0.17560000  0.08198000  0.38702000  1.0
  N  N84  1  0.40794000  0.79898000  0.33836000  1.0
  N  N85  1  0.09210000  0.70099000  0.83840000  1.0
  N  N86  1  0.59208000  0.79901000  0.16163000  1.0
  N  N87  1  0.90795000  0.70101000  0.66165000  1.0
  N  N88  1  0.59207000  0.20099000  0.66162000  1.0
  N  N89  1  0.90794000  0.29901000  0.16162000  1.0
  N  N90  1  0.40792000  0.20100000  0.83836000  1.0
  N  N91  1  0.09206000  0.29900000  0.33836000  1.0
  N  N92  1  0.26085000  0.90536000  0.20419000  1.0
  N  N93  1  0.23913000  0.59463000  0.70420000  1.0
  N  N94  1  0.73914000  0.90538000  0.29581000  1.0
  N  N95  1  0.76086000  0.59465000  0.79583000  1.0
  N  N96  1  0.73912000  0.09463000  0.79580000  1.0
  N  N97  1  0.76087000  0.40535000  0.29581000  1.0
  N  N98  1  0.26085000  0.09464000  0.70419000  1.0
  N  N99  1  0.23912000  0.40537000  0.20417000  1.0
  N  N100  1  0.09507000  0.83014000  0.12640000  1.0
  N  N101  1  0.40490000  0.66984000  0.62639000  1.0
  N  N102  1  0.90491000  0.83016000  0.37361000  1.0
  N  N103  1  0.59506000  0.66987000  0.87361000  1.0
  N  N104  1  0.90491000  0.16984000  0.87360000  1.0
  N  N105  1  0.59509000  0.33013000  0.37361000  1.0
  N  N106  1  0.09509000  0.16986000  0.62638000  1.0
  N  N107  1  0.40493000  0.33017000  0.12639000  1.0
  N  N108  1  0.17913000  0.92139000  0.13622000  1.0
  N  N109  1  0.32084000  0.57859000  0.63623000  1.0
  N  N110  1  0.82086000  0.92141000  0.36378000  1.0
  N  N111  1  0.67912000  0.57861000  0.86379000  1.0
  N  N112  1  0.82085000  0.07859000  0.86377000  1.0
  N  N113  1  0.67914000  0.42138000  0.36379000  1.0
  N  N114  1  0.17914000  0.07861000  0.63621000  1.0
  N  N115  1  0.32086000  0.42141000  0.13620000  1.0
  N  N116  1  0.12172000  0.75344000  0.18771000  1.0
  N  N117  1  0.37828000  0.74654000  0.68771000  1.0
  N  N118  1  0.87827000  0.75346000  0.31230000  1.0
  N  N119  1  0.62171000  0.74656000  0.81230000  1.0
  N  N120  1  0.87826000  0.24654000  0.81229000  1.0
  N  N121  1  0.62173000  0.25343000  0.31229000  1.0
  N  N122  1  0.12172000  0.24656000  0.68770000  1.0
  N  N123  1  0.37830000  0.25347000  0.18770000  1.0
  N  N124  1  0.24929000  0.63898000  0.32873000  1.0
  N  N125  1  0.25070000  0.86102000  0.82875000  1.0
  N  N126  1  0.75070000  0.63899000  0.17127000  1.0
  N  N127  1  0.74931000  0.86102000  0.67127000  1.0
  N  N128  1  0.75069000  0.36101000  0.67127000  1.0
  N  N129  1  0.74931000  0.13899000  0.17125000  1.0
  N  N130  1  0.24929000  0.36102000  0.82874000  1.0
  N  N131  1  0.25071000  0.13899000  0.32872000  1.0
  O  O132  1  0.58067000  0.02894000  0.43161000  1.0
  O  O133  1  0.91926000  0.47103000  0.93162000  1.0
  O  O134  1  0.41927000  0.02896000  0.06838000  1.0
  O  O135  1  0.08069000  0.47106000  0.56838000  1.0
  O  O136  1  0.41929000  0.97103000  0.56839000  1.0
  O  O137  1  0.08069000  0.52896000  0.06837000  1.0
  O  O138  1  0.58069000  0.97105000  0.93162000  1.0
  O  O139  1  0.91929000  0.52895000  0.43162000  1.0
