# generated using pymatgen
data_AlH9C17O5F4
_symmetry_space_group_name_H-M   'P 1'
_cell_length_a   6.66058000
_cell_length_b   23.12960000
_cell_length_c   26.54200000
_cell_angle_alpha   78.02500000
_cell_angle_beta   89.99950000
_cell_angle_gamma   89.99950000
_symmetry_Int_Tables_number   1
_chemical_formula_structural   AlH9C17O5F4
_chemical_formula_sum   'Al4 H36 C68 O20 F16'
_cell_volume   3999.98576284
_cell_formula_units_Z   4
loop_
 _symmetry_equiv_pos_site_id
 _symmetry_equiv_pos_as_xyz
  1  'x, y, z'
loop_
 _atom_site_type_symbol
 _atom_site_label
 _atom_site_symmetry_multiplicity
 _atom_site_fract_x
 _atom_site_fract_y
 _atom_site_fract_z
 _atom_site_occupancy
  Al  Al0  1  0.86763000  0.50068000  0.50028000  1.0
  Al  Al1  1  0.36764000  0.49931000  0.49972000  1.0
  Al  Al2  1  0.31957000  0.99921000  0.99970000  1.0
  Al  Al3  1  0.81957000  0.00079000  0.00030000  1.0
  H  H4  1  0.76110000  0.11952000  0.09533000  1.0
  H  H5  1  0.26108000  0.88048000  0.90467000  1.0
  H  H6  1  0.79417000  0.18621000  0.25035000  1.0
  H  H7  1  0.29417000  0.81379000  0.74966000  1.0
  H  H8  1  0.81807000  0.25129000  0.31257000  1.0
  H  H9  1  0.31808000  0.74872000  0.68743000  1.0
  H  H10  1  0.37260000  0.24805000  0.18818000  1.0
  H  H11  1  0.87259000  0.75195000  0.81182000  1.0
  H  H12  1  0.87863000  0.16159000  0.75242000  1.0
  H  H13  1  0.37869000  0.83841000  0.24758000  1.0
  H  H14  1  0.13322000  0.15156000  0.73707000  1.0
  H  H15  1  0.63327000  0.84844000  0.26293000  1.0
  H  H16  1  0.08042000  0.22515000  0.66287000  1.0
  H  H17  1  0.58042000  0.77484000  0.33712000  1.0
  H  H18  1  0.84719000  0.24580000  0.68592000  1.0
  H  H19  1  0.34721000  0.75421000  0.31407000  1.0
  H  H20  1  0.05502000  0.34725000  0.76595000  1.0
  H  H21  1  0.55502000  0.65276000  0.23405000  1.0
  H  H22  1  0.33857000  0.25815000  0.81416000  1.0
  H  H23  1  0.83861000  0.74185000  0.18584000  1.0
  H  H24  1  0.39947000  0.31787000  0.73249000  1.0
  H  H25  1  0.89950000  0.68212000  0.26751000  1.0
  H  H26  1  0.42723000  0.38029000  0.40548000  1.0
  H  H27  1  0.92721000  0.61972000  0.59451000  1.0
  H  H28  1  0.79999000  0.35098000  0.31337000  1.0
  H  H29  1  0.30002000  0.64903000  0.68662000  1.0
  H  H30  1  0.39023000  0.14865000  0.18664000  1.0
  H  H31  1  0.89023000  0.85134000  0.81337000  1.0
  H  H32  1  0.79257000  0.24277000  0.79757000  1.0
  H  H33  1  0.29261000  0.75723000  0.20243000  1.0
  H  H34  1  0.39646000  0.31303000  0.25047000  1.0
  H  H35  1  0.89648000  0.68698000  0.74954000  1.0
  H  H36  1  0.62041000  0.42384000  0.52377000  1.0
  H  H37  1  0.12039000  0.57615000  0.47623000  1.0
  H  H38  1  0.56605000  0.07733000  0.98115000  1.0
  H  H39  1  0.06607000  0.92266000  0.01885000  1.0
  C  C40  1  0.57040000  0.92275000  0.07698000  1.0
  C  C41  1  0.07039000  0.07725000  0.92302000  1.0
  C  C42  1  0.61699000  0.57692000  0.42264000  1.0
  C  C43  1  0.11704000  0.42308000  0.57736000  1.0
  C  C44  1  0.61558000  0.56293000  0.56242000  1.0
  C  C45  1  0.11560000  0.43708000  0.43758000  1.0
  C  C46  1  0.24984000  0.10780000  0.13078000  1.0
  C  C47  1  0.74983000  0.89220000  0.86923000  1.0
  C  C48  1  0.25055000  0.14359000  0.16672000  1.0
  C  C49  1  0.75054000  0.85641000  0.83328000  1.0
  C  C50  1  0.07549000  0.17244000  0.17774000  1.0
  C  C51  1  0.57548000  0.82757000  0.82226000  1.0
  C  C52  1  0.90193000  0.16175000  0.15103000  1.0
  C  C53  1  0.40191000  0.83825000  0.84897000  1.0
  C  C54  1  0.89959000  0.12618000  0.11513000  1.0
  C  C55  1  0.39958000  0.87383000  0.88487000  1.0
  C  C56  1  0.07621000  0.09849000  0.10349000  1.0
  C  C57  1  0.57619000  0.90152000  0.89650000  1.0
  C  C58  1  0.92564000  0.21434000  0.24977000  1.0
  C  C59  1  0.42565000  0.78566000  0.75023000  1.0
  C  C60  1  0.93913000  0.25119000  0.28488000  1.0
  C  C61  1  0.43914000  0.74881000  0.71512000  1.0
  C  C62  1  0.10848000  0.28728000  0.28607000  1.0
  C  C63  1  0.60850000  0.71273000  0.71393000  1.0
  C  C64  1  0.26499000  0.28494000  0.25100000  1.0
  C  C65  1  0.76502000  0.71507000  0.74900000  1.0
  C  C66  1  0.25152000  0.24807000  0.21589000  1.0
  C  C67  1  0.75151000  0.75193000  0.78411000  1.0
  C  C68  1  0.08201000  0.21208000  0.21464000  1.0
  C  C69  1  0.58200000  0.78792000  0.78537000  1.0
  C  C70  1  0.28762000  0.33790000  0.34965000  1.0
  C  C71  1  0.78761000  0.66209000  0.65034000  1.0
  C  C72  1  0.28924000  0.37358000  0.38547000  1.0
  C  C73  1  0.78922000  0.62642000  0.61452000  1.0
  C  C74  1  0.11225000  0.40138000  0.39674000  1.0
  C  C75  1  0.61223000  0.59862000  0.60325000  1.0
  C  C76  1  0.93925000  0.39212000  0.36923000  1.0
  C  C77  1  0.43926000  0.60789000  0.63077000  1.0
  C  C78  1  0.93916000  0.35609000  0.33348000  1.0
  C  C79  1  0.43919000  0.64392000  0.66652000  1.0
  C  C80  1  0.11440000  0.32711000  0.32282000  1.0
  C  C81  1  0.61443000  0.67290000  0.67718000  1.0
  C  C82  1  0.30434000  0.23453000  0.78322000  1.0
  C  C83  1  0.80434000  0.76546000  0.21678000  1.0
  C  C84  1  0.02296000  0.18437000  0.74370000  1.0
  C  C85  1  0.52299000  0.81563000  0.25630000  1.0
  C  C86  1  0.00474000  0.23583000  0.69644000  1.0
  C  C87  1  0.50475000  0.76416000  0.30356000  1.0
  C  C88  1  0.11461000  0.37799000  0.62401000  1.0
  C  C89  1  0.61458000  0.62200000  0.37600000  1.0
  C  C90  1  0.09174000  0.20744000  0.79194000  1.0
  C  C91  1  0.59177000  0.79255000  0.20806000  1.0
  C  C92  1  0.31606000  0.27760000  0.72991000  1.0
  C  C93  1  0.81609000  0.72239000  0.27010000  1.0
  C  C94  1  0.10109000  0.29256000  0.70840000  1.0
  C  C95  1  0.60111000  0.70744000  0.29160000  1.0
  C  C96  1  0.97876000  0.31132000  0.75201000  1.0
  C  C97  1  0.47880000  0.68869000  0.24799000  1.0
  C  C98  1  0.94854000  0.25858000  0.79693000  1.0
  C  C99  1  0.44855000  0.74142000  0.20307000  1.0
  C  C100  1  0.10787000  0.33955000  0.66278000  1.0
  C  C101  1  0.60787000  0.66044000  0.33722000  1.0
  C  C102  1  0.08303000  0.16116000  0.83797000  1.0
  C  C103  1  0.58303000  0.83884000  0.16203000  1.0
  C  C104  1  0.07355000  0.12238000  0.87645000  1.0
  C  C105  1  0.57359000  0.87762000  0.12355000  1.0
  C  C106  1  0.57195000  0.93727000  0.93734000  1.0
  C  C107  1  0.07197000  0.06273000  0.06265000  1.0
  O  O108  1  0.44722000  0.54933000  0.54560000  1.0
  O  O109  1  0.94724000  0.45066000  0.45440000  1.0
  O  O110  1  0.78798000  0.56028000  0.44156000  1.0
  O  O111  1  0.28803000  0.43971000  0.55842000  1.0
  O  O112  1  0.78789000  0.55048000  0.54666000  1.0
  O  O113  1  0.28791000  0.44953000  0.45334000  1.0
  O  O114  1  0.94667000  0.44145000  0.55916000  1.0
  O  O115  1  0.44662000  0.55855000  0.44085000  1.0
  O  O116  1  0.23989000  0.04904000  0.04569000  1.0
  O  O117  1  0.73987000  0.95096000  0.95431000  1.0
  O  O118  1  0.61846000  0.46430000  0.50450000  1.0
  O  O119  1  0.11844000  0.53569000  0.49551000  1.0
  O  O120  1  0.39920000  0.93917000  0.05805000  1.0
  O  O121  1  0.89918000  0.06083000  0.94195000  1.0
  O  O122  1  0.56864000  0.03540000  0.99601000  1.0
  O  O123  1  0.06863000  0.96459000  0.00399000  1.0
  O  O124  1  0.74085000  0.94124000  0.05891000  1.0
  O  O125  1  0.24083000  0.05876000  0.94109000  1.0
  O  O126  1  0.39937000  0.94971000  0.95296000  1.0
  O  O127  1  0.89939000  0.05029000  0.04704000  1.0
  F  F128  1  0.42564000  0.08079000  0.12386000  1.0
  F  F129  1  0.92562000  0.91922000  0.87613000  1.0
  F  F130  1  0.76349000  0.41943000  0.37568000  1.0
  F  F131  1  0.26351000  0.58059000  0.62431000  1.0
  F  F132  1  0.42116000  0.25085000  0.69504000  1.0
  F  F133  1  0.92117000  0.74916000  0.30497000  1.0
  F  F134  1  0.45003000  0.19032000  0.78601000  1.0
  F  F135  1  0.95004000  0.80967000  0.21399000  1.0
  F  F136  1  0.98281000  0.27714000  0.84356000  1.0
  F  F137  1  0.48280000  0.72286000  0.15644000  1.0
  F  F138  1  0.79009000  0.33333333  0.73324000  1.0
  F  F139  1  0.29013000  0.66659000  0.26676000  1.0
  F  F140  1  0.72611000  0.18930000  0.15937000  1.0
  F  F141  1  0.22609000  0.81070000  0.84063000  1.0
  F  F142  1  0.46350000  0.31025000  0.34163000  1.0
  F  F143  1  0.96351000  0.68973000  0.65838000  1.0
