# generated using pymatgen
data_CuH6C3S2I
_symmetry_space_group_name_H-M   'P 1'
_cell_length_a   7.25503000
_cell_length_b   7.75360000
_cell_length_c   12.02130000
_cell_angle_alpha   89.99990000
_cell_angle_beta   89.99970000
_cell_angle_gamma   103.67600000
_symmetry_Int_Tables_number   1
_chemical_formula_structural   CuH6C3S2I
_chemical_formula_sum   'Cu4 H24 C12 S8 I4'
_cell_volume   657.05709525
_cell_formula_units_Z   4
loop_
 _symmetry_equiv_pos_site_id
 _symmetry_equiv_pos_as_xyz
  1  'x, y, z'
loop_
 _atom_site_type_symbol
 _atom_site_label
 _atom_site_symmetry_multiplicity
 _atom_site_fract_x
 _atom_site_fract_y
 _atom_site_fract_z
 _atom_site_occupancy
  Cu  Cu0  1  0.66461000  0.12497000  0.47705000  1.0
  Cu  Cu1  1  0.83539000  0.37503000  0.97706000  1.0
  Cu  Cu2  1  0.33539000  0.87504000  0.52295000  1.0
  Cu  Cu3  1  0.16461000  0.62497000  0.02295000  1.0
  H  H4  1  0.88527000  0.07412000  0.14906000  1.0
  H  H5  1  0.61476000  0.42590000  0.64905000  1.0
  H  H6  1  0.11475000  0.92590000  0.85095000  1.0
  H  H7  1  0.38525000  0.57412000  0.35094000  1.0
  H  H8  1  0.67324000  0.95968000  0.22056000  1.0
  H  H9  1  0.82680000  0.54033000  0.72055000  1.0
  H  H10  1  0.32679000  0.04033000  0.77944000  1.0
  H  H11  1  0.17321000  0.45969000  0.27944000  1.0
  H  H12  1  0.52769000  0.45414000  0.15179000  1.0
  H  H13  1  0.97229000  0.04582000  0.65179000  1.0
  H  H14  1  0.47231000  0.54584000  0.84821000  1.0
  H  H15  1  0.02769000  0.95415000  0.34821000  1.0
  H  H16  1  0.44392000  0.27943000  0.25062000  1.0
  H  H17  1  0.05607000  0.22054000  0.75063000  1.0
  H  H18  1  0.55608000  0.72057000  0.74937000  1.0
  H  H19  1  0.94393000  0.77943000  0.24938000  1.0
  H  H20  1  0.71001000  0.48631000  0.34503000  1.0
  H  H21  1  0.78997000  0.01368000  0.84504000  1.0
  H  H22  1  0.29000000  0.51369000  0.65497000  1.0
  H  H23  1  0.21001000  0.98629000  0.15497000  1.0
  H  H24  1  0.85079000  0.50434000  0.22040000  1.0
  H  H25  1  0.64919000  0.99567000  0.72041000  1.0
  H  H26  1  0.14921000  0.49566000  0.77959000  1.0
  H  H27  1  0.35078000  0.00435000  0.27959000  1.0
  C  C28  1  0.75852000  0.08967000  0.19411000  1.0
  C  C29  1  0.74149000  0.41034000  0.69411000  1.0
  C  C30  1  0.24149000  0.91034000  0.80589000  1.0
  C  C31  1  0.25851000  0.58967000  0.30589000  1.0
  C  C32  1  0.56556000  0.34744000  0.20017000  1.0
  C  C33  1  0.93445000  0.15256000  0.70015000  1.0
  C  C34  1  0.43445000  0.65257000  0.79985000  1.0
  C  C35  1  0.06558000  0.84747000  0.29981000  1.0
  C  C36  1  0.74034000  0.41659000  0.27008000  1.0
  C  C37  1  0.75962000  0.08341000  0.77009000  1.0
  C  C38  1  0.25965000  0.58342000  0.72991000  1.0
  C  C39  1  0.24031000  0.91660000  0.22993000  1.0
  S  S40  1  0.82884000  0.22824000  0.31699000  1.0
  S  S41  1  0.67118000  0.27175000  0.81699000  1.0
  S  S42  1  0.17117000  0.77175000  0.68301000  1.0
  S  S43  1  0.32884000  0.72823000  0.18300000  1.0
  S  S44  1  0.62455000  0.19536000  0.09897000  1.0
  S  S45  1  0.87545000  0.30461000  0.59898000  1.0
  S  S46  1  0.37545000  0.80462000  0.90102000  1.0
  S  S47  1  0.12455000  0.69536000  0.40104000  1.0
  I  I48  1  0.33745000  0.21055000  0.49745000  1.0
  I  I49  1  0.16255000  0.28946000  0.99745000  1.0
  I  I50  1  0.66255000  0.78946000  0.50254000  1.0
  I  I51  1  0.83745000  0.71055000  0.00255000  1.0
