# generated using pymatgen
data_CuH16C16(N3O2)2
_symmetry_space_group_name_H-M   'P 1'
_cell_length_a   8.60418000
_cell_length_b   9.00583000
_cell_length_c   13.55550000
_cell_angle_alpha   109.37900000
_cell_angle_beta   90.05040000
_cell_angle_gamma   118.43800000
_symmetry_Int_Tables_number   1
_chemical_formula_structural   CuH16C16(N3O2)2
_chemical_formula_sum   'Cu2 H32 C32 N12 O8'
_cell_volume   855.17530903
_cell_formula_units_Z   2
loop_
 _symmetry_equiv_pos_site_id
 _symmetry_equiv_pos_as_xyz
  1  'x, y, z'
loop_
 _atom_site_type_symbol
 _atom_site_label
 _atom_site_symmetry_multiplicity
 _atom_site_fract_x
 _atom_site_fract_y
 _atom_site_fract_z
 _atom_site_occupancy
  Cu  Cu0  1  0.50000000  0.00000000  0.00000000  1.0
  Cu  Cu1  1  0.50000000  0.00000000  0.50000000  1.0
  H  H2  1  0.14529000  0.69206000  0.57477000  1.0
  H  H3  1  0.45363000  0.30804000  0.92511000  1.0
  H  H4  1  0.85471000  0.30795000  0.42523000  1.0
  H  H5  1  0.54637000  0.69196000  0.07489000  1.0
  H  H6  1  0.92230000  0.57269000  0.59451000  1.0
  H  H7  1  0.35005000  0.42771000  0.90536000  1.0
  H  H8  1  0.07770000  0.42731000  0.40549000  1.0
  H  H9  1  0.64995000  0.57229000  0.09465000  1.0
  H  H10  1  0.97807000  0.32674000  0.60608000  1.0
  H  H11  1  0.65151000  0.67363000  0.89423000  1.0
  H  H12  1  0.02193000  0.67326000  0.39392000  1.0
  H  H13  1  0.34850000  0.32637000  0.10576000  1.0
  H  H14  1  0.20260000  0.45143000  0.58699000  1.0
  H  H15  1  0.75117000  0.54835000  0.91324000  1.0
  H  H16  1  0.79740000  0.54857000  0.41301000  1.0
  H  H17  1  0.24883000  0.45166000  0.08676000  1.0
  H  H18  1  0.08753000  0.66666667  0.96911000  1.0
  H  H19  1  0.42064000  0.33410000  0.53118000  1.0
  H  H20  1  0.91247000  0.33328000  0.03089000  1.0
  H  H21  1  0.57935000  0.66590000  0.46882000  1.0
  H  H22  1  0.42312000  0.76716000  0.74361000  1.0
  H  H23  1  0.65678000  0.23320000  0.75626000  1.0
  H  H24  1  0.57687000  0.23285000  0.25639000  1.0
  H  H25  1  0.34322000  0.76680000  0.24374000  1.0
  H  H26  1  0.97902000  0.96865000  0.06113000  1.0
  H  H27  1  0.01016000  0.03127000  0.43850000  1.0
  H  H28  1  0.02097000  0.03135000  0.93887000  1.0
  H  H29  1  0.98984000  0.96873000  0.56150000  1.0
  H  H30  1  0.73829000  0.98636000  0.15485000  1.0
  H  H31  1  0.75122000  0.01266000  0.34437000  1.0
  H  H32  1  0.26171000  0.01365000  0.84516000  1.0
  H  H33  1  0.24878000  0.98735000  0.65563000  1.0
  C  C34  1  0.03110000  0.55512000  0.55991000  1.0
  C  C35  1  0.47624000  0.44508000  0.94008000  1.0
  C  C36  1  0.96890000  0.44488000  0.44009000  1.0
  C  C37  1  0.52376000  0.55493000  0.05993000  1.0
  C  C38  1  0.08879000  0.46330000  0.61686000  1.0
  C  C39  1  0.62573000  0.53692000  0.88334000  1.0
  C  C40  1  0.91120000  0.53670000  0.38314000  1.0
  C  C41  1  0.37428000  0.46309000  0.11666000  1.0
  C  C42  1  0.13497000  0.65721000  0.89447000  1.0
  C  C43  1  0.47783000  0.34349000  0.60573000  1.0
  C  C44  1  0.86503000  0.34278000  0.10553000  1.0
  C  C45  1  0.52217000  0.65651000  0.39427000  1.0
  C  C46  1  0.31122000  0.71121000  0.78330000  1.0
  C  C47  1  0.60058000  0.28916000  0.71664000  1.0
  C  C48  1  0.68878000  0.28879000  0.21670000  1.0
  C  C49  1  0.39943000  0.71085000  0.28336000  1.0
  C  C50  1  0.13217000  0.99127000  0.19623000  1.0
  C  C51  1  0.14104000  0.00911000  0.30374000  1.0
  C  C52  1  0.86782000  0.00873000  0.80377000  1.0
  C  C53  1  0.85895000  0.99089000  0.69626000  1.0
  C  C54  1  0.98673000  0.98430000  0.14441000  1.0
  C  C55  1  0.00228000  0.01564000  0.35526000  1.0
  C  C56  1  0.01327000  0.01570000  0.85559000  1.0
  C  C57  1  0.99771000  0.98436000  0.64474000  1.0
  C  C58  1  0.85023000  0.99247000  0.19691000  1.0
  C  C59  1  0.85726000  0.00683000  0.30251000  1.0
  C  C60  1  0.14977000  0.00753000  0.80309000  1.0
  C  C61  1  0.14273000  0.99317000  0.69749000  1.0
  C  C62  1  0.26666000  0.96716000  0.13249000  1.0
  C  C63  1  0.29979000  0.03329000  0.36754000  1.0
  C  C64  1  0.73333000  0.03284000  0.86751000  1.0
  C  C65  1  0.70021000  0.96671000  0.63246000  1.0
  N  N66  1  0.14835000  0.56792000  0.73159000  1.0
  N  N67  1  0.58092000  0.43252000  0.76853000  1.0
  N  N68  1  0.85165000  0.43208000  0.26841000  1.0
  N  N69  1  0.41909000  0.56748000  0.23147000  1.0
  N  N70  1  0.03383000  0.53081000  0.80103000  1.0
  N  N71  1  0.50315000  0.46980000  0.69923000  1.0
  N  N72  1  0.96617000  0.46918000  0.19897000  1.0
  N  N73  1  0.49686000  0.53020000  0.30077000  1.0
  N  N74  1  0.30710000  0.77196000  0.88750000  1.0
  N  N75  1  0.53540000  0.22853000  0.61247000  1.0
  N  N76  1  0.69290000  0.22803000  0.11250000  1.0
  N  N77  1  0.46460000  0.77147000  0.38753000  1.0
  O  O78  1  0.31450000  0.05255000  0.06759000  1.0
  O  O79  1  0.26247000  0.94813000  0.43256000  1.0
  O  O80  1  0.68550000  0.94745000  0.93241000  1.0
  O  O81  1  0.73753000  0.05186000  0.56744000  1.0
  O  O82  1  0.32230000  0.86423000  0.13923000  1.0
  O  O83  1  0.45794000  0.13588000  0.36053000  1.0
  O  O84  1  0.67769000  0.13577000  0.86077000  1.0
  O  O85  1  0.54205000  0.86412000  0.63947000  1.0
