# generated using pymatgen
data_Zn4H8C40Br12O13
_symmetry_space_group_name_H-M   'P 1'
_cell_length_a   24.00150062
_cell_length_b   24.00180000
_cell_length_c   23.99990000
_cell_angle_alpha   66.62880000
_cell_angle_beta   72.44022282
_cell_angle_gamma   107.55652197
_symmetry_Int_Tables_number   1
_chemical_formula_structural   Zn4H8C40Br12O13
_chemical_formula_sum   'Zn8 H16 C80 Br24 O26'
_cell_volume   10605.63378776
_cell_formula_units_Z   2
loop_
 _symmetry_equiv_pos_site_id
 _symmetry_equiv_pos_as_xyz
  1  'x, y, z'
loop_
 _atom_site_type_symbol
 _atom_site_label
 _atom_site_symmetry_multiplicity
 _atom_site_fract_x
 _atom_site_fract_y
 _atom_site_fract_z
 _atom_site_occupancy
  Zn  Zn0  1  0.05692000  0.09927000  0.45764000  1.0
  Zn  Zn1  1  0.05692000  0.95764000  0.48544000  1.0
  Zn  Zn2  1  0.94307000  0.95763000  0.59929000  1.0
  Zn  Zn3  1  0.94309000  0.98545000  0.45763000  1.0
  Zn  Zn4  1  0.94308000  0.40073000  0.04236000  1.0
  Zn  Zn5  1  0.05693000  0.54237000  0.90071000  1.0
  Zn  Zn6  1  0.94307000  0.54235000  0.01457000  1.0
  Zn  Zn7  1  0.05691000  0.51456000  0.04236000  1.0
  H  H8  1  0.92399000  0.20918000  0.90060000  1.0
  H  H9  1  0.07599000  0.40060000  0.70915000  1.0
  H  H10  1  0.92400000  0.09941000  0.79085000  1.0
  H  H11  1  0.07595000  0.29084000  0.59939000  1.0
  H  H12  1  0.07601000  0.67544000  0.21480000  1.0
  H  H13  1  0.92401000  0.71486000  0.17538000  1.0
  H  H14  1  0.07595000  0.78512000  0.32464000  1.0
  H  H15  1  0.92400000  0.82460000  0.28516000  1.0
  H  H16  1  0.60976000  0.20917000  0.21487000  1.0
  H  H17  1  0.60976000  0.40060000  0.17538000  1.0
  H  H18  1  0.39024000  0.09940000  0.32463000  1.0
  H  H19  1  0.39023000  0.29081000  0.28522000  1.0
  H  H20  1  0.39025000  0.71489000  0.70916000  1.0
  H  H21  1  0.39023000  0.67539000  0.90062000  1.0
  H  H22  1  0.60977000  0.82463000  0.59938000  1.0
  H  H23  1  0.60975000  0.78518000  0.79083000  1.0
  C  C24  1  0.18110000  0.09054000  0.40945000  1.0
  C  C25  1  0.99999000  0.86315000  0.63686000  1.0
  C  C26  1  0.99999000  0.09053000  0.59056000  1.0
  C  C27  1  0.81890000  0.90945000  0.59054000  1.0
  C  C28  1  0.00001000  0.13686000  0.36315000  1.0
  C  C29  1  0.99999000  0.90944000  0.40946000  1.0
  C  C30  1  1.00000000  0.40946000  0.90944000  1.0
  C  C31  1  0.00001000  0.63685000  0.86314000  1.0
  C  C32  1  0.81890000  0.40946000  0.09056000  1.0
  C  C33  1  0.99999000  0.59055000  0.09055000  1.0
  C  C34  1  0.99999000  0.36315000  0.13685000  1.0
  C  C35  1  0.18110000  0.59056000  0.90946000  1.0
  C  C36  1  0.00001000  0.19494000  0.30506000  1.0
  C  C37  1  0.00000000  0.30508000  0.19492000  1.0
  C  C38  1  0.95723000  0.18036000  0.27687000  1.0
  C  C39  1  0.04278000  0.31966000  0.22312000  1.0
  C  C40  1  0.95723000  0.23411000  0.22312000  1.0
  C  C41  1  0.04278000  0.26590000  0.27687000  1.0
  C  C42  1  0.00000000  0.80508000  0.69492000  1.0
  C  C43  1  0.00000000  0.69492000  0.80507000  1.0
  C  C44  1  0.95722000  0.77687000  0.76591000  1.0
  C  C45  1  0.04278000  0.72313000  0.73409000  1.0
  C  C46  1  0.95722000  0.72311000  0.81966000  1.0
  C  C47  1  0.04278000  0.77689000  0.68033000  1.0
  C  C48  1  0.00000000  0.37196000  0.87194000  1.0
  C  C49  1  0.95745000  0.29940000  0.90651000  1.0
  C  C50  1  0.95736000  0.26459000  0.87196000  1.0
  C  C51  1  0.99999000  0.30044000  0.80044000  1.0
  C  C52  1  0.04263000  0.37197000  0.76457000  1.0
  C  C53  1  0.04254000  0.40651000  0.79937000  1.0
  C  C54  1  0.99999000  0.26521000  0.76520000  1.0
  C  C55  1  0.99999000  0.23480000  0.73479000  1.0
  C  C56  1  0.99998000  0.19956000  0.69956000  1.0
  C  C57  1  0.95735000  0.12803000  0.73544000  1.0
  C  C58  1  0.95745000  0.09349000  0.70063000  1.0
  C  C59  1  0.99999000  0.12805000  0.62805000  1.0
  C  C60  1  0.04251000  0.20061000  0.59349000  1.0
  C  C61  1  0.04260000  0.23542000  0.62803000  1.0
  C  C62  1  0.00001000  0.62808000  0.12802000  1.0
  C  C63  1  0.04256000  0.63607000  0.15804000  1.0
  C  C64  1  0.04264000  0.67070000  0.19276000  1.0
  C  C65  1  0.00000000  0.69957000  0.19955000  1.0
  C  C66  1  0.95737000  0.69280000  0.17066000  1.0
  C  C67  1  0.95746000  0.65809000  0.13602000  1.0
  C  C68  1  0.00000000  0.73480000  0.23478000  1.0
  C  C69  1  0.99999000  0.76520000  0.26521000  1.0
  C  C70  1  0.99998000  0.80043000  0.30045000  1.0
  C  C71  1  0.04260000  0.80718000  0.32935000  1.0
  C  C72  1  0.04251000  0.84189000  0.36399000  1.0
  C  C73  1  0.99998000  0.87193000  0.37197000  1.0
  C  C74  1  0.95744000  0.86395000  0.34194000  1.0
  C  C75  1  0.95735000  0.82932000  0.30722000  1.0
  C  C76  1  0.74390000  0.37196000  0.12805000  1.0
  C  C77  1  0.70589000  0.29939000  0.15810000  1.0
  C  C78  1  0.63654000  0.26458000  0.19281000  1.0
  C  C79  1  0.60088000  0.30045000  0.19957000  1.0
  C  C80  1  0.63654000  0.37197000  0.17066000  1.0
  C  C81  1  0.70588000  0.40651000  0.13603000  1.0
  C  C82  1  0.53041000  0.26521000  0.23481000  1.0
  C  C83  1  0.46958000  0.23478000  0.26523000  1.0
  C  C84  1  0.39912000  0.19955000  0.30046000  1.0
  C  C85  1  0.36346000  0.12803000  0.32935000  1.0
  C  C86  1  0.29411000  0.09348000  0.36399000  1.0
  C  C87  1  0.25610000  0.12804000  0.37198000  1.0
  C  C88  1  0.29411000  0.20060000  0.34197000  1.0
  C  C89  1  0.36346000  0.23541000  0.30725000  1.0
  C  C90  1  0.25610000  0.62806000  0.87196000  1.0
  C  C91  1  0.29412000  0.65811000  0.79938000  1.0
  C  C92  1  0.36347000  0.69283000  0.76458000  1.0
  C  C93  1  0.39912000  0.69957000  0.80045000  1.0
  C  C94  1  0.36345000  0.67067000  0.87198000  1.0
  C  C95  1  0.29410000  0.63602000  0.90653000  1.0
  C  C96  1  0.46959000  0.73481000  0.76521000  1.0
  C  C97  1  0.53041000  0.76522000  0.73479000  1.0
  C  C98  1  0.60088000  0.80046000  0.69955000  1.0
  C  C99  1  0.63655000  0.82935000  0.62802000  1.0
  C  C100  1  0.70590000  0.86399000  0.59347000  1.0
  C  C101  1  0.74390000  0.87196000  0.62804000  1.0
  C  C102  1  0.70588000  0.84194000  0.70062000  1.0
  C  C103  1  0.63653000  0.80722000  0.73542000  1.0
  Br  Br104  1  0.89698000  0.08824000  0.30874000  1.0
  Br  Br105  1  0.10302000  0.41177000  0.19125000  1.0
  Br  Br106  1  0.89698000  0.20572000  0.19125000  1.0
  Br  Br107  1  0.10305000  0.29429000  0.30871000  1.0
  Br  Br108  1  0.89698000  0.80874000  0.79430000  1.0
  Br  Br109  1  0.10302000  0.69126000  0.70569000  1.0
  Br  Br110  1  0.89697000  0.69124000  0.91179000  1.0
  Br  Br111  1  0.10303000  0.80876000  0.58821000  1.0
  Br  Br112  1  0.89507000  0.23888000  0.00309000  1.0
  Br  Br113  1  0.10493000  0.50309000  0.73882000  1.0
  Br  Br114  1  0.89508000  0.99691000  0.76118000  1.0
  Br  Br115  1  0.10485000  0.26115000  0.49689000  1.0
  Br  Br116  1  0.10495000  0.60189000  0.15617000  1.0
  Br  Br117  1  0.89510000  0.65627000  0.10180000  1.0
  Br  Br118  1  0.10486000  0.84371000  0.39822000  1.0
  Br  Br119  1  0.89507000  0.89816000  0.34378000  1.0
  Br  Br120  1  0.74193000  0.23885000  0.15628000  1.0
  Br  Br121  1  0.74192000  0.50309000  0.10179000  1.0
  Br  Br122  1  0.25807000  0.99691000  0.39820000  1.0
  Br  Br123  1  0.25806000  0.26111000  0.34387000  1.0
  Br  Br124  1  0.25808000  0.65630000  0.73884000  1.0
  Br  Br125  1  0.25805000  0.60178000  0.00312000  1.0
  Br  Br126  1  0.74195000  0.89820000  0.49689000  1.0
  Br  Br127  1  0.74192000  0.84379000  0.76115000  1.0
  O  O128  1  0.00000000  0.00000000  0.50000000  1.0
  O  O129  1  0.15181000  0.12605000  0.41381000  1.0
  O  O130  1  0.03952000  0.88566000  0.57486000  1.0
  O  O131  1  0.96008000  0.02575000  0.62607000  1.0
  O  O132  1  0.15181000  0.02575000  0.43435000  1.0
  O  O133  1  0.03992000  0.12604000  0.52577000  1.0
  O  O134  1  0.96046000  0.88561000  0.65389000  1.0
  O  O135  1  0.84818000  0.91382000  0.62606000  1.0
  O  O136  1  0.96054000  0.07487000  0.38560000  1.0
  O  O137  1  0.84819000  0.93435000  0.52574000  1.0
  O  O138  1  0.03949000  0.15388000  0.38566000  1.0
  O  O139  1  0.03989000  0.91384000  0.43435000  1.0
  O  O140  1  0.96010000  0.93434000  0.41384000  1.0
  O  O141  1  0.00000000  0.50001000  0.99999000  1.0
  O  O142  1  0.96011000  0.37396000  0.97423000  1.0
  O  O143  1  0.03955000  0.61440000  0.84611000  1.0
  O  O144  1  0.84818000  0.47424000  0.06569000  1.0
  O  O145  1  0.03990000  0.47426000  0.87392000  1.0
  O  O146  1  0.84818000  0.37395000  0.08616000  1.0
  O  O147  1  0.96047000  0.61433000  0.92514000  1.0
  O  O148  1  0.96010000  0.58617000  0.06565000  1.0
  O  O149  1  0.03951000  0.42515000  0.11435000  1.0
  O  O150  1  0.03986000  0.56563000  0.08619000  1.0
  O  O151  1  0.96047000  0.34613000  0.11438000  1.0
  O  O152  1  0.15182000  0.58615000  0.87395000  1.0
  O  O153  1  0.15180000  0.56567000  0.97426000  1.0
