# generated using pymatgen
data_ZnH19C23N3O4
_symmetry_space_group_name_H-M   'P 1'
_cell_length_a   10.14190000
_cell_length_b   10.66920000
_cell_length_c   20.49030000
_cell_angle_alpha   90.09350000
_cell_angle_beta   90.00040000
_cell_angle_gamma   89.99960000
_symmetry_Int_Tables_number   1
_chemical_formula_structural   ZnH19C23N3O4
_chemical_formula_sum   'Zn4 H76 C92 N12 O16'
_cell_volume   2217.16961921
_cell_formula_units_Z   4
loop_
 _symmetry_equiv_pos_site_id
 _symmetry_equiv_pos_as_xyz
  1  'x, y, z'
loop_
 _atom_site_type_symbol
 _atom_site_label
 _atom_site_symmetry_multiplicity
 _atom_site_fract_x
 _atom_site_fract_y
 _atom_site_fract_z
 _atom_site_occupancy
  Zn  Zn0  1  0.79392000  0.88447000  0.50921000  1.0
  Zn  Zn1  1  0.29391000  0.61553000  0.99079000  1.0
  Zn  Zn2  1  0.20609000  0.11552000  0.49079000  1.0
  Zn  Zn3  1  0.70609000  0.38447000  0.00921000  1.0
  H  H4  1  0.71907000  0.95164000  0.74151000  1.0
  H  H5  1  0.21905000  0.54838000  0.75849000  1.0
  H  H6  1  0.28092000  0.04838000  0.25849000  1.0
  H  H7  1  0.78094000  0.45162000  0.24151000  1.0
  H  H8  1  0.61849000  0.07621000  0.71482000  1.0
  H  H9  1  0.11849000  0.42380000  0.78518000  1.0
  H  H10  1  0.38151000  0.92379000  0.28517000  1.0
  H  H11  1  0.88151000  0.57621000  0.21482000  1.0
  H  H12  1  0.66020000  0.72657000  0.70699000  1.0
  H  H13  1  0.16019000  0.77344000  0.79301000  1.0
  H  H14  1  0.33980000  0.27344000  0.29301000  1.0
  H  H15  1  0.83979000  0.22656000  0.20699000  1.0
  H  H16  1  0.47299000  0.57857000  0.69029000  1.0
  H  H17  1  0.97297000  0.92144000  0.80971000  1.0
  H  H18  1  0.52701000  0.42143000  0.30971000  1.0
  H  H19  1  0.02702000  0.07856000  0.19029000  1.0
  H  H20  1  0.24855000  0.66011000  0.66673000  1.0
  H  H21  1  0.74854000  0.83990000  0.83327000  1.0
  H  H22  1  0.75146000  0.33989000  0.33333333  1.0
  H  H23  1  0.25146000  0.16010000  0.16673000  1.0
  H  H24  1  0.39519000  0.03712000  0.68026000  1.0
  H  H25  1  0.89517000  0.46289000  0.81975000  1.0
  H  H26  1  0.60481000  0.96288000  0.31974000  1.0
  H  H27  1  0.10482000  0.53711000  0.18026000  1.0
  H  H28  1  0.10454000  0.82690000  0.64380000  1.0
  H  H29  1  0.60452000  0.67311000  0.85621000  1.0
  H  H30  1  0.89546000  0.17309000  0.35620000  1.0
  H  H31  1  0.39546000  0.32690000  0.14380000  1.0
  H  H32  1  0.12524000  0.94086000  0.70614000  1.0
  H  H33  1  0.62522000  0.55914000  0.79387000  1.0
  H  H34  1  0.87475000  0.05913000  0.29386000  1.0
  H  H35  1  0.37477000  0.44085000  0.20613000  1.0
  H  H36  1  0.03656000  0.82686000  0.41794000  1.0
  H  H37  1  0.53656000  0.67315000  0.08206000  1.0
  H  H38  1  0.96345000  0.17314000  0.58206000  1.0
  H  H39  1  0.46344000  0.32685000  0.91794000  1.0
  H  H40  1  0.84315000  0.68061000  0.63030000  1.0
  H  H41  1  0.34314000  0.81940000  0.86970000  1.0
  H  H42  1  0.15686000  0.31940000  0.36970000  1.0
  H  H43  1  0.65685000  0.18060000  0.13030000  1.0
  H  H44  1  0.95047000  0.50187000  0.68913000  1.0
  H  H45  1  0.45047000  0.99814000  0.81087000  1.0
  H  H46  1  0.04954000  0.49814000  0.31088000  1.0
  H  H47  1  0.54953000  0.00186000  0.18913000  1.0
  H  H48  1  0.14761000  0.39716000  0.64415000  1.0
  H  H49  1  0.64760000  0.10284000  0.85585000  1.0
  H  H50  1  0.85240000  0.60285000  0.35585000  1.0
  H  H51  1  0.35239000  0.89715000  0.14415000  1.0
  H  H52  1  0.25186000  0.47181000  0.54063000  1.0
  H  H53  1  0.75185000  0.02819000  0.95937000  1.0
  H  H54  1  0.74816000  0.52820000  0.45937000  1.0
  H  H55  1  0.24815000  0.97180000  0.04063000  1.0
  H  H56  1  0.21195000  0.69440000  0.37767000  1.0
  H  H57  1  0.71194000  0.80560000  0.12233000  1.0
  H  H58  1  0.78806000  0.30560000  0.62232000  1.0
  H  H59  1  0.28806000  0.19440000  0.87767000  1.0
  H  H60  1  0.24598000  0.55016000  0.41754000  1.0
  H  H61  1  0.74598000  0.94984000  0.08246000  1.0
  H  H62  1  0.75402000  0.44984000  0.58245000  1.0
  H  H63  1  0.25402000  0.05016000  0.91754000  1.0
  H  H64  1  0.30007000  0.80247000  0.53257000  1.0
  H  H65  1  0.80007000  0.69753000  0.96743000  1.0
  H  H66  1  0.69994000  0.19753000  0.46742000  1.0
  H  H67  1  0.19993000  0.30246000  0.03257000  1.0
  H  H68  1  0.52354000  0.87801000  0.56281000  1.0
  H  H69  1  0.02354000  0.62200000  0.93719000  1.0
  H  H70  1  0.47647000  0.12199000  0.43719000  1.0
  H  H71  1  0.97646000  0.37799000  0.06280000  1.0
  H  H72  1  0.68973000  0.72693000  0.39613000  1.0
  H  H73  1  0.18973000  0.77307000  0.10387000  1.0
  H  H74  1  0.31028000  0.27307000  0.60387000  1.0
  H  H75  1  0.81027000  0.22694000  0.89612000  1.0
  H  H76  1  0.47528000  0.62928000  0.36251000  1.0
  H  H77  1  0.97528000  0.87072000  0.13749000  1.0
  H  H78  1  0.52473000  0.37072000  0.63749000  1.0
  H  H79  1  0.02473000  0.12929000  0.86251000  1.0
  C  C80  1  0.74292000  0.99653000  0.64145000  1.0
  C  C81  1  0.24292000  0.50349000  0.85855000  1.0
  C  C82  1  0.25708000  0.00346000  0.35855000  1.0
  C  C83  1  0.75708000  0.49652000  0.14145000  1.0
  C  C84  1  0.65346000  0.98201000  0.70177000  1.0
  C  C85  1  0.15344000  0.51800000  0.79823000  1.0
  C  C86  1  0.34654000  0.01799000  0.29822000  1.0
  C  C87  1  0.84655000  0.48200000  0.20177000  1.0
  C  C88  1  0.54056000  0.89197000  0.69420000  1.0
  C  C89  1  0.04055000  0.60804000  0.80581000  1.0
  C  C90  1  0.45942000  0.10803000  0.30580000  1.0
  C  C91  1  0.95944000  0.39196000  0.19420000  1.0
  C  C92  1  0.56130000  0.76209000  0.69726000  1.0
  C  C93  1  0.06128000  0.73791000  0.80274000  1.0
  C  C94  1  0.43870000  0.23791000  0.30273000  1.0
  C  C95  1  0.93870000  0.26208000  0.19726000  1.0
  C  C96  1  0.45652000  0.67961000  0.68784000  1.0
  C  C97  1  0.95650000  0.82039000  0.81216000  1.0
  C  C98  1  0.54348000  0.32039000  0.31216000  1.0
  C  C99  1  0.04349000  0.17960000  0.18784000  1.0
  C  C100  1  0.32974000  0.72505000  0.67535000  1.0
  C  C101  1  0.82971000  0.77495000  0.82465000  1.0
  C  C102  1  0.67027000  0.27494000  0.32465000  1.0
  C  C103  1  0.17027000  0.22505000  0.17534000  1.0
  C  C104  1  0.30597000  0.85420000  0.67314000  1.0
  C  C105  1  0.80596000  0.64580000  0.82686000  1.0
  C  C106  1  0.69402000  0.14579000  0.32685000  1.0
  C  C107  1  0.19403000  0.35420000  0.17314000  1.0
  C  C108  1  0.41265000  0.93616000  0.68255000  1.0
  C  C109  1  0.91264000  0.56385000  0.81746000  1.0
  C  C110  1  0.58734000  0.06384000  0.31744000  1.0
  C  C111  1  0.08735000  0.43615000  0.18255000  1.0
  C  C112  1  0.16798000  0.90355000  0.66084000  1.0
  C  C113  1  0.66797000  0.59645000  0.83917000  1.0
  C  C114  1  0.83200000  0.09643000  0.33916000  1.0
  C  C115  1  0.33202000  0.40355000  0.16083000  1.0
  C  C116  1  0.16970000  0.00907000  0.61091000  1.0
  C  C117  1  0.66969000  0.49093000  0.88909000  1.0
  C  C118  1  0.83029000  0.99091000  0.38909000  1.0
  C  C119  1  0.33030000  0.50908000  0.11091000  1.0
  C  C120  1  0.03541000  0.76502000  0.45998000  1.0
  C  C121  1  0.53541000  0.73498000  0.04002000  1.0
  C  C122  1  0.96459000  0.23498000  0.54002000  1.0
  C  C123  1  0.46459000  0.26502000  0.95998000  1.0
  C  C124  1  0.98653000  0.67358000  0.55203000  1.0
  C  C125  1  0.48653000  0.82643000  0.94797000  1.0
  C  C126  1  0.01348000  0.32643000  0.44797000  1.0
  C  C127  1  0.51347000  0.17357000  0.05203000  1.0
  C  C128  1  0.93050000  0.63404000  0.61086000  1.0
  C  C129  1  0.43049000  0.86597000  0.88914000  1.0
  C  C130  1  0.06952000  0.36597000  0.38914000  1.0
  C  C131  1  0.56951000  0.13403000  0.11087000  1.0
  C  C132  1  0.99164000  0.53482000  0.64316000  1.0
  C  C133  1  0.49163000  0.96518000  0.85684000  1.0
  C  C134  1  0.00837000  0.46518000  0.35684000  1.0
  C  C135  1  0.50836000  0.03482000  0.14316000  1.0
  C  C136  1  0.10527000  0.47627000  0.61785000  1.0
  C  C137  1  0.60526000  0.02373000  0.88215000  1.0
  C  C138  1  0.89474000  0.52373000  0.38215000  1.0
  C  C139  1  0.39473000  0.97627000  0.11785000  1.0
  C  C140  1  0.16339000  0.51643000  0.55981000  1.0
  C  C141  1  0.66338000  0.98357000  0.94019000  1.0
  C  C142  1  0.83663000  0.48357000  0.44019000  1.0
  C  C143  1  0.33662000  0.01643000  0.05981000  1.0
  C  C144  1  0.10246000  0.61591000  0.52772000  1.0
  C  C145  1  0.60246000  0.88409000  0.97228000  1.0
  C  C146  1  0.89755000  0.38409000  0.47228000  1.0
  C  C147  1  0.39754000  0.11590000  0.02772000  1.0
  C  C148  1  0.23839000  0.65216000  0.42478000  1.0
  C  C149  1  0.73838000  0.84784000  0.07522000  1.0
  C  C150  1  0.76162000  0.34784000  0.57521000  1.0
  C  C151  1  0.26162000  0.15216000  0.92478000  1.0
  C  C152  1  0.36938000  0.70523000  0.44597000  1.0
  C  C153  1  0.86938000  0.79477000  0.05403000  1.0
  C  C154  1  0.63062000  0.29476000  0.55402000  1.0
  C  C155  1  0.13062000  0.20524000  0.94597000  1.0
  C  C156  1  0.38393000  0.77807000  0.50202000  1.0
  C  C157  1  0.88393000  0.72193000  0.99798000  1.0
  C  C158  1  0.61608000  0.22192000  0.49798000  1.0
  C  C159  1  0.11607000  0.27806000  0.00202000  1.0
  C  C160  1  0.50786000  0.82397000  0.51836000  1.0
  C  C161  1  0.00786000  0.67603000  0.98164000  1.0
  C  C162  1  0.49215000  0.17602000  0.48164000  1.0
  C  C163  1  0.99214000  0.32397000  0.01836000  1.0
  C  C164  1  0.60138000  0.73534000  0.42603000  1.0
  C  C165  1  0.10138000  0.76466000  0.07397000  1.0
  C  C166  1  0.39863000  0.26466000  0.57397000  1.0
  C  C167  1  0.89863000  0.23535000  0.92603000  1.0
  C  C168  1  0.48140000  0.68382000  0.40750000  1.0
  C  C169  1  0.98140000  0.81618000  0.09251000  1.0
  C  C170  1  0.51860000  0.31617000  0.59250000  1.0
  C  C171  1  0.01860000  0.18384000  0.90749000  1.0
  N  N172  1  0.94739000  0.76560000  0.50799000  1.0
  N  N173  1  0.44739000  0.73441000  0.99200000  1.0
  N  N174  1  0.05262000  0.23441000  0.49200000  1.0
  N  N175  1  0.55261000  0.26559000  0.00800000  1.0
  N  N176  1  0.13033000  0.67702000  0.46941000  1.0
  N  N177  1  0.63032000  0.82299000  0.03059000  1.0
  N  N178  1  0.86968000  0.32298000  0.53059000  1.0
  N  N179  1  0.36968000  0.17701000  0.96941000  1.0
  N  N180  1  0.61532000  0.80348000  0.48120000  1.0
  N  N181  1  0.11532000  0.69652000  0.01880000  1.0
  N  N182  1  0.38469000  0.19651000  0.51880000  1.0
  N  N183  1  0.88468000  0.30348000  0.98120000  1.0
  O  O184  1  0.73737000  0.90475000  0.60010000  1.0
  O  O185  1  0.23738000  0.59529000  0.89990000  1.0
  O  O186  1  0.26263000  0.09524000  0.39991000  1.0
  O  O187  1  0.76262000  0.40472000  0.10010000  1.0
  O  O188  1  0.81369000  0.09145000  0.63736000  1.0
  O  O189  1  0.31370000  0.40858000  0.86265000  1.0
  O  O190  1  0.18631000  0.90854000  0.36264000  1.0
  O  O191  1  0.68631000  0.59143000  0.13735000  1.0
  O  O192  1  0.17390000  0.97310000  0.55002000  1.0
  O  O193  1  0.67390000  0.52690000  0.94998000  1.0
  O  O194  1  0.82610000  0.02689000  0.44997000  1.0
  O  O195  1  0.32609000  0.47311000  0.05002000  1.0
  O  O196  1  0.17205000  0.12078000  0.62922000  1.0
  O  O197  1  0.67204000  0.37922000  0.87078000  1.0
  O  O198  1  0.82796000  0.87920000  0.37078000  1.0
  O  O199  1  0.32796000  0.62079000  0.12922000  1.0
