# generated using pymatgen
data_CuH6C8N3
_symmetry_space_group_name_H-M   'P 1'
_cell_length_a   32.75930000
_cell_length_b   33.45460000
_cell_length_c   34.84140000
_cell_angle_alpha   90.99650000
_cell_angle_beta   92.35640000
_cell_angle_gamma   91.07550000
_symmetry_Int_Tables_number   1
_chemical_formula_structural   CuH6C8N3
_chemical_formula_sum   'Cu12 H72 C96 N36'
_cell_volume   38139.09199581
_cell_formula_units_Z   12
loop_
 _symmetry_equiv_pos_site_id
 _symmetry_equiv_pos_as_xyz
  1  'x, y, z'
loop_
 _atom_site_type_symbol
 _atom_site_label
 _atom_site_symmetry_multiplicity
 _atom_site_fract_x
 _atom_site_fract_y
 _atom_site_fract_z
 _atom_site_occupancy
  Cu  Cu0  1  0.87750000  0.09549000  0.14861000  1.0
  Cu  Cu1  1  0.85597000  0.12025000  0.06420000  1.0
  Cu  Cu2  1  0.90881000  0.17904000  0.12037000  1.0
  Cu  Cu3  1  0.11634000  0.41280000  0.65533000  1.0
  Cu  Cu4  1  0.14814000  0.37628000  0.57791000  1.0
  Cu  Cu5  1  0.07027000  0.33747000  0.61692000  1.0
  Cu  Cu6  1  0.37926000  0.90584000  0.34918000  1.0
  Cu  Cu7  1  0.34873000  0.86993000  0.42658000  1.0
  Cu  Cu8  1  0.41974000  0.82744000  0.38228000  1.0
  Cu  Cu9  1  0.62270000  0.58683000  0.85412000  1.0
  Cu  Cu10  1  0.66561000  0.62947000  0.92740000  1.0
  Cu  Cu11  1  0.58243000  0.66320000  0.89008000  1.0
  H  H12  1  0.80958000  0.02714000  0.15917000  1.0
  H  H13  1  0.79525000  0.04833000  0.03699000  1.0
  H  H14  1  0.97821000  0.20020000  0.18519000  1.0
  H  H15  1  0.94206000  0.08027000  0.21671000  1.0
  H  H16  1  0.85560000  0.17043000  0.98787000  1.0
  H  H17  1  0.90808000  0.25769000  0.07003000  1.0
  H  H18  1  0.18132000  0.48314000  0.67148000  1.0
  H  H19  1  0.22098000  0.43758000  0.56219000  1.0
  H  H20  1  0.00350000  0.32010000  0.67890000  1.0
  H  H21  1  0.06237000  0.42762000  0.72755000  1.0
  H  H22  1  0.15576000  0.31686000  0.50685000  1.0
  H  H23  1  0.04388000  0.27157000  0.55381000  1.0
  H  H24  1  0.32016000  0.97947000  0.33973000  1.0
  H  H25  1  0.29185000  0.94077000  0.45384000  1.0
  H  H26  1  0.48968000  0.81446000  0.32240000  1.0
  H  H27  1  0.43483000  0.92245000  0.27895000  1.0
  H  H28  1  0.33238000  0.80612000  0.49066000  1.0
  H  H29  1  0.43414000  0.75204000  0.43500000  1.0
  H  H30  1  0.68627000  0.51986000  0.83678000  1.0
  H  H31  1  0.74580000  0.57679000  0.93741000  1.0
  H  H32  1  0.51162000  0.67830000  0.82616000  1.0
  H  H33  1  0.55984000  0.56647000  0.78484000  1.0
  H  H34  1  0.67905000  0.68904000  0.99877000  1.0
  H  H35  1  0.56359000  0.73082000  0.95108000  1.0
  H  H36  1  0.70163000  0.93224000  0.08863000  1.0
  H  H37  1  0.73711000  0.99487000  0.14923000  1.0
  H  H38  1  0.67569000  0.95660000  0.16981000  1.0
  H  H39  1  0.75266000  0.97943000  0.06366000  1.0
  H  H40  1  0.30264000  0.56746000  0.56472000  1.0
  H  H41  1  0.25820000  0.50672000  0.55902000  1.0
  H  H42  1  0.32384000  0.53812000  0.64627000  1.0
  H  H43  1  0.25234000  0.51987000  0.64613000  1.0
  H  H44  1  0.21996000  0.07417000  0.40634000  1.0
  H  H45  1  0.24886000  0.01353000  0.34442000  1.0
  H  H46  1  0.19118000  0.05603000  0.32226000  1.0
  H  H47  1  0.26308000  0.01914000  0.43232000  1.0
  H  H48  1  0.81767000  0.45280000  0.82145000  1.0
  H  H49  1  0.75560000  0.49235000  0.82540000  1.0
  H  H50  1  0.80907000  0.43901000  0.90789000  1.0
  H  H51  1  0.78467000  0.50739000  0.90953000  1.0
  H  H52  1  0.07952000  0.08005000  0.28303000  1.0
  H  H53  1  0.01510000  0.07738000  0.24407000  1.0
  H  H54  1  0.04932000  0.15999000  0.31526000  1.0
  H  H55  1  0.02202000  0.16906000  0.25006000  1.0
  H  H56  1  0.43020000  0.56105000  0.70333000  1.0
  H  H57  1  0.48980000  0.55909000  0.74929000  1.0
  H  H58  1  0.46290000  0.64513000  0.68486000  1.0
  H  H59  1  0.47732000  0.64984000  0.75431000  1.0
  H  H60  1  0.94288000  0.31653000  0.81054000  1.0
  H  H61  1  0.97692000  0.31264000  0.74813000  1.0
  H  H62  1  0.92183000  0.40204000  0.78635000  1.0
  H  H63  1  0.99247000  0.40222000  0.76494000  1.0
  H  H64  1  0.56486000  0.93304000  0.20845000  1.0
  H  H65  1  0.50367000  0.93265000  0.24810000  1.0
  H  H66  1  0.53613000  0.84785000  0.18410000  1.0
  H  H67  1  0.52211000  0.84315000  0.25348000  1.0
  H  H68  1  0.86217000  0.35429000  0.96852000  1.0
  H  H69  1  0.87905000  0.30863000  0.02139000  1.0
  H  H70  1  0.90680000  0.29508000  0.91705000  1.0
  H  H71  1  0.87505000  0.24486000  0.95672000  1.0
  H  H72  1  0.32298000  0.67082000  0.55238000  1.0
  H  H73  1  0.32109000  0.73382000  0.51590000  1.0
  H  H74  1  0.41246000  0.69575000  0.57189000  1.0
  H  H75  1  0.41115000  0.71502000  0.50363000  1.0
  H  H76  1  0.55900000  0.80325000  0.07846000  1.0
  H  H77  1  0.55675000  0.76274000  0.01830000  1.0
  H  H78  1  0.64610000  0.82702000  0.05647000  1.0
  H  H79  1  0.64915000  0.75703000  0.03592000  1.0
  H  H80  1  0.08689000  0.20271000  0.42315000  1.0
  H  H81  1  0.15561000  0.24445000  0.47504000  1.0
  H  H82  1  0.17962000  0.18883000  0.43252000  1.0
  H  H83  1  0.06176000  0.24173000  0.47837000  1.0
  C  C84  1  0.35467000  0.58927000  0.62290000  1.0
  C  C85  1  0.38360000  0.64549000  0.59887000  1.0
  C  C86  1  0.41161000  0.61753000  0.65286000  1.0
  C  C87  1  0.64496000  0.90832000  0.13758000  1.0
  C  C88  1  0.61733000  0.85390000  0.10512000  1.0
  C  C89  1  0.58743000  0.87776000  0.15861000  1.0
  C  C90  1  0.85289000  0.40757000  0.87451000  1.0
  C  C91  1  0.89912000  0.37606000  0.83798000  1.0
  C  C92  1  0.88372000  0.35132000  0.89630000  1.0
  C  C93  1  0.16477000  0.10354000  0.35537000  1.0
  C  C94  1  0.14204000  0.15713000  0.38895000  1.0
  C  C95  1  0.10501000  0.13268000  0.33663000  1.0
  C  C96  1  0.81055000  0.03783000  0.12998000  1.0
  C  C97  1  0.78878000  0.02399000  0.09647000  1.0
  C  C98  1  0.80396000  0.04812000  0.06738000  1.0
  C  C99  1  0.96392000  0.17096000  0.18829000  1.0
  C  C100  1  0.97480000  0.14011000  0.21348000  1.0
  C  C101  1  0.94593000  0.10942000  0.20401000  1.0
  C  C102  1  0.86875000  0.18682000  0.01270000  1.0
  C  C103  1  0.88121000  0.22726000  0.01602000  1.0
  C  C104  1  0.89488000  0.23167000  0.05478000  1.0
  C  C105  1  0.18586000  0.46703000  0.64473000  1.0
  C  C106  1  0.21496000  0.47408000  0.61688000  1.0
  C  C107  1  0.20587000  0.44416000  0.58865000  1.0
  C  C108  1  0.02269000  0.34618000  0.68609000  1.0
  C  C109  1  0.02091000  0.37358000  0.71713000  1.0
  C  C110  1  0.05245000  0.40146000  0.71054000  1.0
  C  C111  1  0.12953000  0.31000000  0.52379000  1.0
  C  C112  1  0.09798000  0.28129000  0.51681000  1.0
  C  C113  1  0.07186000  0.28751000  0.54732000  1.0
  C  C114  1  0.31691000  0.96412000  0.36665000  1.0
  C  C115  1  0.29419000  0.97477000  0.39859000  1.0
  C  C116  1  0.30323000  0.94482000  0.42532000  1.0
  C  C117  1  0.47139000  0.84056000  0.31655000  1.0
  C  C118  1  0.47549000  0.86928000  0.28784000  1.0
  C  C119  1  0.44381000  0.89606000  0.29464000  1.0
  C  C120  1  0.35697000  0.79777000  0.47237000  1.0
  C  C121  1  0.38284000  0.76463000  0.47450000  1.0
  C  C122  1  0.40940000  0.77056000  0.44427000  1.0
  C  C123  1  0.69576000  0.53852000  0.86145000  1.0
  C  C124  1  0.73099000  0.53646000  0.88589000  1.0
  C  C125  1  0.72582000  0.56729000  0.91319000  1.0
  C  C126  1  0.52837000  0.65112000  0.82115000  1.0
  C  C127  1  0.52212000  0.62179000  0.79192000  1.0
  C  C128  1  0.55253000  0.59365000  0.80032000  1.0
  C  C129  1  0.65108000  0.69453000  0.98205000  1.0
  C  C130  1  0.62064000  0.72267000  0.98870000  1.0
  C  C131  1  0.59181000  0.71557000  0.95808000  1.0
  C  C132  1  0.67612000  0.93970000  0.14273000  1.0
  C  C133  1  0.70340000  0.94911000  0.11587000  1.0
  C  C134  1  0.73387000  0.98019000  0.12090000  1.0
  C  C135  1  0.75772000  0.99292000  0.09234000  1.0
  C  C136  1  0.32387000  0.55721000  0.62116000  1.0
  C  C137  1  0.29838000  0.54938000  0.59017000  1.0
  C  C138  1  0.26685000  0.51855000  0.58775000  1.0
  C  C139  1  0.24613000  0.50517000  0.61813000  1.0
  C  C140  1  0.19363000  0.07155000  0.35013000  1.0
  C  C141  1  0.21997000  0.05897000  0.37826000  1.0
  C  C142  1  0.24663000  0.02592000  0.37355000  1.0
  C  C143  1  0.26741000  0.00821000  0.40301000  1.0
  C  C144  1  0.82159000  0.43740000  0.87935000  1.0
  C  C145  1  0.80576000  0.45887000  0.84981000  1.0
  C  C146  1  0.77346000  0.48745000  0.85209000  1.0
  C  C147  1  0.76462000  0.50940000  0.88375000  1.0
  C  C148  1  0.06915000  0.13463000  0.31066000  1.0
  C  C149  1  0.05973000  0.10603000  0.28350000  1.0
  C  C150  1  0.02590000  0.10647000  0.25571000  1.0
  C  C151  1  0.00861000  0.13994000  0.24133000  1.0
  C  C152  1  0.44302000  0.61855000  0.68371000  1.0
  C  C153  1  0.44900000  0.58815000  0.70845000  1.0
  C  C154  1  0.47862000  0.58825000  0.74029000  1.0
  C  C155  1  0.49160000  0.62130000  0.76084000  1.0
  C  C156  1  0.92343000  0.37531000  0.80386000  1.0
  C  C157  1  0.94569000  0.34345000  0.79338000  1.0
  C  C158  1  0.97238000  0.34201000  0.76142000  1.0
  C  C159  1  0.99402000  0.37391000  0.74891000  1.0
  C  C160  1  0.55501000  0.87511000  0.18594000  1.0
  C  C161  1  0.54704000  0.90526000  0.21089000  1.0
  C  C162  1  0.51679000  0.90407000  0.23983000  1.0
  C  C163  1  0.50582000  0.87079000  0.25898000  1.0
  C  C164  1  0.88955000  0.32116000  0.92558000  1.0
  C  C165  1  0.87621000  0.32575000  0.96170000  1.0
  C  C166  1  0.87914000  0.29685000  0.99189000  1.0
  C  C167  1  0.87896000  0.25659000  0.98618000  1.0
  C  C168  1  0.38426000  0.67780000  0.57131000  1.0
  C  C169  1  0.35146000  0.68769000  0.54871000  1.0
  C  C170  1  0.35060000  0.71970000  0.52135000  1.0
  C  C171  1  0.38288000  0.73186000  0.50096000  1.0
  C  C172  1  0.61853000  0.82551000  0.07300000  1.0
  C  C173  1  0.58692000  0.80036000  0.06251000  1.0
  C  C174  1  0.58663000  0.77092000  0.03168000  1.0
  C  C175  1  0.62009000  0.75153000  0.01991000  1.0
  C  C176  1  0.14845000  0.18632000  0.42020000  1.0
  C  C177  1  0.11800000  0.20786000  0.43513000  1.0
  C  C178  1  0.12402000  0.23624000  0.46626000  1.0
  C  C179  1  0.09301000  0.25216000  0.48585000  1.0
  N  N180  1  0.35348000  0.61752000  0.59568000  1.0
  N  N181  1  0.41374000  0.64668000  0.62664000  1.0
  N  N182  1  0.38270000  0.58818000  0.65232000  1.0
  N  N183  1  0.64713000  0.88222000  0.10764000  1.0
  N  N184  1  0.58690000  0.85011000  0.13005000  1.0
  N  N185  1  0.61589000  0.90739000  0.16380000  1.0
  N  N186  1  0.87333000  0.40667000  0.84152000  1.0
  N  N187  1  0.90410000  0.34659000  0.86381000  1.0
  N  N188  1  0.85848000  0.38189000  0.90347000  1.0
  N  N189  1  0.17127000  0.12971000  0.38513000  1.0
  N  N190  1  0.10784000  0.15946000  0.36601000  1.0
  N  N191  1  0.13302000  0.10454000  0.32966000  1.0
  N  N192  1  0.83207000  0.07443000  0.08245000  1.0
  N  N193  1  0.83644000  0.06772000  0.12129000  1.0
  N  N194  1  0.92027000  0.12113000  0.17545000  1.0
  N  N195  1  0.93157000  0.15931000  0.16540000  1.0
  N  N196  1  0.89067000  0.19669000  0.07285000  1.0
  N  N197  1  0.87417000  0.16882000  0.04673000  1.0
  N  N198  1  0.17396000  0.42145000  0.59904000  1.0
  N  N199  1  0.16133000  0.43582000  0.63379000  1.0
  N  N200  1  0.07161000  0.39125000  0.67848000  1.0
  N  N201  1  0.05291000  0.35704000  0.66315000  1.0
  N  N202  1  0.08695000  0.31715000  0.57073000  1.0
  N  N203  1  0.12256000  0.33143000  0.55584000  1.0
  N  N204  1  0.32878000  0.91825000  0.41024000  1.0
  N  N205  1  0.33766000  0.93056000  0.37395000  1.0
  N  N206  1  0.42285000  0.88416000  0.32495000  1.0
  N  N207  1  0.44013000  0.84979000  0.33879000  1.0
  N  N208  1  0.39981000  0.80419000  0.42552000  1.0
  N  N209  1  0.36740000  0.82125000  0.44321000  1.0
  N  N210  1  0.69064000  0.58631000  0.90533000  1.0
  N  N211  1  0.67191000  0.56821000  0.87327000  1.0
  N  N212  1  0.57480000  0.60539000  0.83195000  1.0
  N  N213  1  0.55963000  0.64098000  0.84513000  1.0
  N  N214  1  0.60424000  0.68564000  0.93532000  1.0
  N  N215  1  0.64101000  0.67236000  0.95033000  1.0
