# generated using pymatgen
data_CuH20C22SN4O7
_symmetry_space_group_name_H-M   'P 1'
_cell_length_a   10.50700000
_cell_length_b   11.32360000
_cell_length_c   21.90420000
_cell_angle_alpha   89.99970000
_cell_angle_beta   103.39800000
_cell_angle_gamma   89.99930000
_symmetry_Int_Tables_number   1
_chemical_formula_structural   CuH20C22SN4O7
_chemical_formula_sum   'Cu4 H80 C88 S4 N16 O28'
_cell_volume   2535.16979796
_cell_formula_units_Z   4
loop_
 _symmetry_equiv_pos_site_id
 _symmetry_equiv_pos_as_xyz
  1  'x, y, z'
loop_
 _atom_site_type_symbol
 _atom_site_label
 _atom_site_symmetry_multiplicity
 _atom_site_fract_x
 _atom_site_fract_y
 _atom_site_fract_z
 _atom_site_occupancy
  Cu  Cu0  1  0.50836000  0.48200000  0.23830000  1.0
  Cu  Cu1  1  0.99164000  0.98199000  0.76171000  1.0
  Cu  Cu2  1  0.49166000  0.51801000  0.76170000  1.0
  Cu  Cu3  1  0.00834000  0.01800000  0.23830000  1.0
  H  H4  1  0.35164000  0.33337000  0.16665000  1.0
  H  H5  1  0.14837000  0.83337000  0.83336000  1.0
  H  H6  1  0.64839000  0.66666667  0.83336000  1.0
  H  H7  1  0.85161000  0.16662000  0.16664000  1.0
  H  H8  1  0.47568000  0.25127000  0.16950000  1.0
  H  H9  1  0.02433000  0.75126000  0.83051000  1.0
  H  H10  1  0.52434000  0.74872000  0.83050000  1.0
  H  H11  1  0.97565000  0.24873000  0.16950000  1.0
  H  H12  1  0.35038000  0.11752000  0.98759000  1.0
  H  H13  1  0.14962000  0.61750000  0.01241000  1.0
  H  H14  1  0.64962000  0.88250000  0.01241000  1.0
  H  H15  1  0.85037000  0.38250000  0.98759000  1.0
  H  H16  1  0.27434000  0.99921000  0.93751000  1.0
  H  H17  1  0.22566000  0.49920000  0.06249000  1.0
  H  H18  1  0.72566000  0.00081000  0.06249000  1.0
  H  H19  1  0.77434000  0.50081000  0.93751000  1.0
  H  H20  1  0.97962000  0.70889000  0.33469000  1.0
  H  H21  1  0.52039000  0.20888000  0.66531000  1.0
  H  H22  1  0.02041000  0.29109000  0.66531000  1.0
  H  H23  1  0.47960000  0.79109000  0.33470000  1.0
  H  H24  1  0.51784000  0.30918000  0.45289000  1.0
  H  H25  1  0.98215000  0.80921000  0.54711000  1.0
  H  H26  1  0.48215000  0.69081000  0.54711000  1.0
  H  H27  1  0.01785000  0.19080000  0.45289000  1.0
  H  H28  1  0.54982000  0.51469000  0.11226000  1.0
  H  H29  1  0.95019000  0.01468000  0.88774000  1.0
  H  H30  1  0.45019000  0.48531000  0.88773000  1.0
  H  H31  1  0.04981000  0.98531000  0.11227000  1.0
  H  H32  1  0.48933000  0.66456000  0.02569000  1.0
  H  H33  1  0.01066000  0.16456000  0.97430000  1.0
  H  H34  1  0.51066000  0.33545000  0.97430000  1.0
  H  H35  1  0.98933000  0.83545000  0.02570000  1.0
  H  H36  1  0.54246000  0.89998000  0.10159000  1.0
  H  H37  1  0.95753000  0.39998000  0.89840000  1.0
  H  H38  1  0.45754000  0.10003000  0.89841000  1.0
  H  H39  1  0.04246000  0.60002000  0.10159000  1.0
  H  H40  1  0.51875000  0.05361000  0.08831000  1.0
  H  H41  1  0.98125000  0.55361000  0.91169000  1.0
  H  H42  1  0.48125000  0.94640000  0.91170000  1.0
  H  H43  1  0.01875000  0.44639000  0.08830000  1.0
  H  H44  1  0.73352000  0.95720000  0.53554000  1.0
  H  H45  1  0.76647000  0.45721000  0.46446000  1.0
  H  H46  1  0.26648000  0.04281000  0.46446000  1.0
  H  H47  1  0.23351000  0.54281000  0.53554000  1.0
  H  H48  1  0.61278000  0.85895000  0.49194000  1.0
  H  H49  1  0.88720000  0.35897000  0.50806000  1.0
  H  H50  1  0.38723000  0.14105000  0.50806000  1.0
  H  H51  1  0.11277000  0.64105000  0.49194000  1.0
  H  H52  1  0.26001000  0.84226000  0.13906000  1.0
  H  H53  1  0.23999000  0.34225000  0.86094000  1.0
  H  H54  1  0.73999000  0.15774000  0.86094000  1.0
  H  H55  1  0.76001000  0.65774000  0.13906000  1.0
  H  H56  1  0.68891000  0.28677000  0.26200000  1.0
  H  H57  1  0.81111000  0.78675000  0.73801000  1.0
  H  H58  1  0.31113000  0.71326000  0.73801000  1.0
  H  H59  1  0.18888000  0.21326000  0.26200000  1.0
  H  H60  1  0.33568000  0.68808000  0.22125000  1.0
  H  H61  1  0.16432000  0.18808000  0.77875000  1.0
  H  H62  1  0.66434000  0.31191000  0.77875000  1.0
  H  H63  1  0.83567000  0.81191000  0.22126000  1.0
  H  H64  1  0.46625000  0.45899000  0.36784000  1.0
  H  H65  1  0.03374000  0.95900000  0.63216000  1.0
  H  H66  1  0.53374000  0.54101000  0.63215000  1.0
  H  H67  1  0.96627000  0.04100000  0.36785000  1.0
  H  H68  1  0.42503000  0.95617000  0.41077000  1.0
  H  H69  1  0.07496000  0.45617000  0.58923000  1.0
  H  H70  1  0.57498000  0.04384000  0.58923000  1.0
  H  H71  1  0.92502000  0.54384000  0.41077000  1.0
  H  H72  1  0.42984000  0.11166000  0.40216000  1.0
  H  H73  1  0.07016000  0.61167000  0.59784000  1.0
  H  H74  1  0.57017000  0.88834000  0.59784000  1.0
  H  H75  1  0.92983000  0.38834000  0.40216000  1.0
  H  H76  1  0.21097000  0.65966000  0.31339000  1.0
  H  H77  1  0.28903000  0.15966000  0.68661000  1.0
  H  H78  1  0.78906000  0.34031000  0.68661000  1.0
  H  H79  1  0.71094000  0.84031000  0.31339000  1.0
  H  H80  1  0.75772000  0.13159000  0.34468000  1.0
  H  H81  1  0.74229000  0.63159000  0.65532000  1.0
  H  H82  1  0.24230000  0.86843000  0.65532000  1.0
  H  H83  1  0.25770000  0.36842000  0.34469000  1.0
  C  C84  1  0.36518000  0.02924000  0.96915000  1.0
  C  C85  1  0.13482000  0.52923000  0.03084000  1.0
  C  C86  1  0.63482000  0.97077000  0.03085000  1.0
  C  C87  1  0.86518000  0.47078000  0.96915000  1.0
  C  C88  1  0.99811000  0.63859000  0.30397000  1.0
  C  C89  1  0.50189000  0.13858000  0.69603000  1.0
  C  C90  1  0.00191000  0.36139000  0.69603000  1.0
  C  C91  1  0.49809000  0.86140000  0.30398000  1.0
  C  C92  1  0.55959000  0.29985000  0.41195000  1.0
  C  C93  1  0.94042000  0.79987000  0.58805000  1.0
  C  C94  1  0.44042000  0.70015000  0.58804000  1.0
  C  C95  1  0.05958000  0.20014000  0.41196000  1.0
  C  C96  1  0.64103000  0.20553000  0.40476000  1.0
  C  C97  1  0.85898000  0.70554000  0.59524000  1.0
  C  C98  1  0.35898000  0.79448000  0.59524000  1.0
  C  C99  1  0.14102000  0.29447000  0.40476000  1.0
  C  C100  1  0.48698000  0.58969000  0.11573000  1.0
  C  C101  1  0.01303000  0.08969000  0.88427000  1.0
  C  C102  1  0.51303000  0.41031000  0.88426000  1.0
  C  C103  1  0.98696000  0.91031000  0.11574000  1.0
  C  C104  1  0.90003000  0.56595000  0.27077000  1.0
  C  C105  1  0.59996000  0.06594000  0.72923000  1.0
  C  C106  1  0.09999000  0.43403000  0.72922000  1.0
  C  C107  1  0.40001000  0.93403000  0.27078000  1.0
  C  C108  1  0.11614000  0.51985000  0.25021000  1.0
  C  C109  1  0.38386000  0.01984000  0.74979000  1.0
  C  C110  1  0.88389000  0.48013000  0.74979000  1.0
  C  C111  1  0.61611000  0.98013000  0.25021000  1.0
  C  C112  1  0.45114000  0.67219000  0.06781000  1.0
  C  C113  1  0.04886000  0.17219000  0.93219000  1.0
  C  C114  1  0.54887000  0.32782000  0.93219000  1.0
  C  C115  1  0.95113000  0.82781000  0.06781000  1.0
  C  C116  1  0.75910000  0.56555000  0.27099000  1.0
  C  C117  1  0.74090000  0.06553000  0.72902000  1.0
  C  C118  1  0.24092000  0.43446000  0.72900000  1.0
  C  C119  1  0.25909000  0.93445000  0.27100000  1.0
  C  C120  1  0.52372000  0.96802000  0.06512000  1.0
  C  C121  1  0.97627000  0.46802000  0.93488000  1.0
  C  C122  1  0.47628000  0.03198000  0.93489000  1.0
  C  C123  1  0.02372000  0.53198000  0.06511000  1.0
  C  C124  1  0.62907000  0.94673000  0.51425000  1.0
  C  C125  1  0.87092000  0.44674000  0.48575000  1.0
  C  C126  1  0.37094000  0.05328000  0.48574000  1.0
  C  C127  1  0.12906000  0.55328000  0.51426000  1.0
  C  C128  1  0.22640000  0.46280000  0.23014000  1.0
  C  C129  1  0.27360000  0.96280000  0.76986000  1.0
  C  C130  1  0.77363000  0.53719000  0.76986000  1.0
  C  C131  1  0.72637000  0.03719000  0.23014000  1.0
  C  C132  1  0.36821000  0.76487000  0.07570000  1.0
  C  C133  1  0.13178000  0.26487000  0.92429000  1.0
  C  C134  1  0.63178000  0.23513000  0.92429000  1.0
  C  C135  1  0.86821000  0.73513000  0.07571000  1.0
  C  C136  1  0.68433000  0.11123000  0.45333000  1.0
  C  C137  1  0.81568000  0.61124000  0.54666000  1.0
  C  C138  1  0.31569000  0.88878000  0.54666000  1.0
  C  C139  1  0.18431000  0.38877000  0.45334000  1.0
  C  C140  1  0.32410000  0.77122000  0.13106000  1.0
  C  C141  1  0.17590000  0.27121000  0.86894000  1.0
  C  C142  1  0.67591000  0.22878000  0.86894000  1.0
  C  C143  1  0.82410000  0.72877000  0.13107000  1.0
  C  C144  1  0.31912000  0.85276000  0.02444000  1.0
  C  C145  1  0.18088000  0.35275000  0.97555000  1.0
  C  C146  1  0.68088000  0.14726000  0.97556000  1.0
  C  C147  1  0.81911000  0.64725000  0.02444000  1.0
  C  C148  1  0.65507000  0.28816000  0.30542000  1.0
  C  C149  1  0.84494000  0.78815000  0.69458000  1.0
  C  C150  1  0.34496000  0.71186000  0.69458000  1.0
  C  C151  1  0.15504000  0.21186000  0.30542000  1.0
  C  C152  1  0.36577000  0.68636000  0.17698000  1.0
  C  C153  1  0.13422000  0.18636000  0.82302000  1.0
  C  C154  1  0.63424000  0.31363000  0.82302000  1.0
  C  C155  1  0.86577000  0.81363000  0.17699000  1.0
  C  C156  1  0.52930000  0.38410000  0.36455000  1.0
  C  C157  1  0.97070000  0.88411000  0.63545000  1.0
  C  C158  1  0.47071000  0.61590000  0.63544000  1.0
  C  C159  1  0.02930000  0.11590000  0.36456000  1.0
  C  C160  1  0.45164000  0.03974000  0.43635000  1.0
  C  C161  1  0.04836000  0.53974000  0.56365000  1.0
  C  C162  1  0.54837000  0.96027000  0.56365000  1.0
  C  C163  1  0.95162000  0.46027000  0.43635000  1.0
  C  C164  1  0.12161000  0.61218000  0.29240000  1.0
  C  C165  1  0.37839000  0.11217000  0.70760000  1.0
  C  C166  1  0.87842000  0.38780000  0.70760000  1.0
  C  C167  1  0.62159000  0.88781000  0.29240000  1.0
  C  C168  1  0.69213000  0.20223000  0.35126000  1.0
  C  C169  1  0.80788000  0.70223000  0.64873000  1.0
  C  C170  1  0.30789000  0.79779000  0.64873000  1.0
  C  C171  1  0.19211000  0.29778000  0.35127000  1.0
  S  S172  1  0.95924000  0.46738000  0.22432000  1.0
  S  S173  1  0.54076000  0.96737000  0.77569000  1.0
  S  S174  1  0.04079000  0.53261000  0.77567000  1.0
  S  S175  1  0.45921000  0.03261000  0.22433000  1.0
  N  N176  1  0.59139000  0.03813000  0.46642000  1.0
  N  N177  1  0.90861000  0.53814000  0.53358000  1.0
  N  N178  1  0.40862000  0.96189000  0.53358000  1.0
  N  N179  1  0.09137000  0.46188000  0.46642000  1.0
  N  N180  1  0.39853000  0.94555000  0.02105000  1.0
  N  N181  1  0.10146000  0.44554000  0.97895000  1.0
  N  N182  1  0.60147000  0.05446000  0.97895000  1.0
  N  N183  1  0.89853000  0.55446000  0.02105000  1.0
  N  N184  1  0.44572000  0.59758000  0.16938000  1.0
  N  N185  1  0.05428000  0.09758000  0.83062000  1.0
  N  N186  1  0.55430000  0.40242000  0.83061000  1.0
  N  N187  1  0.94570000  0.90241000  0.16939000  1.0
  N  N188  1  0.57342000  0.37649000  0.31175000  1.0
  N  N189  1  0.92658000  0.87648000  0.68825000  1.0
  N  N190  1  0.42660000  0.62353000  0.68825000  1.0
  N  N191  1  0.07341000  0.12352000  0.31175000  1.0
  O  O192  1  0.68867000  0.49872000  0.22735000  1.0
  O  O193  1  0.81134000  0.99870000  0.77266000  1.0
  O  O194  1  0.31135000  0.50128000  0.77264000  1.0
  O  O195  1  0.18865000  0.00128000  0.22736000  1.0
  O  O196  1  0.33963000  0.49597000  0.26277000  1.0
  O  O197  1  0.16037000  0.99596000  0.73723000  1.0
  O  O198  1  0.66039000  0.50403000  0.73722000  1.0
  O  O199  1  0.83961000  0.00403000  0.26278000  1.0
  O  O200  1  0.80309000  0.10286000  0.47836000  1.0
  O  O201  1  0.69692000  0.60287000  0.52163000  1.0
  O  O202  1  0.19693000  0.89715000  0.52163000  1.0
  O  O203  1  0.30307000  0.39714000  0.47837000  1.0
  O  O204  1  0.44499000  0.33251000  0.16416000  1.0
  O  O205  1  0.05502000  0.83250000  0.83585000  1.0
  O  O206  1  0.55503000  0.66748000  0.83584000  1.0
  O  O207  1  0.94497000  0.16749000  0.16416000  1.0
  O  O208  1  0.71813000  0.62400000  0.31077000  1.0
  O  O209  1  0.78187000  0.12398000  0.68924000  1.0
  O  O210  1  0.28189000  0.37602000  0.68922000  1.0
  O  O211  1  0.21812000  0.87602000  0.31079000  1.0
  O  O212  1  0.20475000  0.38823000  0.18616000  1.0
  O  O213  1  0.29525000  0.88823000  0.81385000  1.0
  O  O214  1  0.79529000  0.61176000  0.81384000  1.0
  O  O215  1  0.70471000  0.11176000  0.18615000  1.0
  O  O216  1  0.20990000  0.83647000  0.98870000  1.0
  O  O217  1  0.29010000  0.33646000  0.01129000  1.0
  O  O218  1  0.79010000  0.16354000  0.01130000  1.0
  O  O219  1  0.70989000  0.66353000  0.98871000  1.0
