# generated using pymatgen
data_GaH5C8O5
_symmetry_space_group_name_H-M   'P 1'
_cell_length_a   6.84604000
_cell_length_b   11.01080000
_cell_length_c   11.23597789
_cell_angle_alpha   60.66136224
_cell_angle_beta   72.25440993
_cell_angle_gamma   90.00080000
_symmetry_Int_Tables_number   1
_chemical_formula_structural   GaH5C8O5
_chemical_formula_sum   'Ga2 H10 C16 O10'
_cell_volume   691.73694913
_cell_formula_units_Z   2
loop_
 _symmetry_equiv_pos_site_id
 _symmetry_equiv_pos_as_xyz
  1  'x, y, z'
loop_
 _atom_site_type_symbol
 _atom_site_label
 _atom_site_symmetry_multiplicity
 _atom_site_fract_x
 _atom_site_fract_y
 _atom_site_fract_z
 _atom_site_occupancy
  Ga  Ga0  1  0.00000000  0.50000000  0.00000000  1.0
  Ga  Ga1  1  0.50000000  0.50000000  1.00000000  1.0
  H  H2  1  0.74898000  0.51405000  0.37528000  1.0
  H  H3  1  0.75102000  0.88933000  0.62472000  1.0
  H  H4  1  0.62430000  0.48591000  0.62482000  1.0
  H  H5  1  0.87570000  0.11073000  0.37518000  1.0
  H  H6  1  0.25102000  0.48595000  0.62472000  1.0
  H  H7  1  0.24898000  0.11068000  0.37528000  1.0
  H  H8  1  0.37570000  0.51409000  0.37518000  1.0
  H  H9  1  0.12430000  0.88927000  0.62482000  1.0
  H  H10  1  0.25000000  0.33140000  0.00000000  1.0
  H  H11  1  0.75000000  0.66860000  0.00000000  1.0
  C  C12  1  0.85698000  0.50808000  0.43117000  1.0
  C  C13  1  0.64302000  0.93925000  0.56883000  1.0
  C  C14  1  0.78812000  0.49188000  0.56890000  1.0
  C  C15  1  0.71188000  0.06078000  0.43110000  1.0
  C  C16  1  0.14302000  0.49192000  0.56883000  1.0
  C  C17  1  0.35698000  0.06075000  0.43117000  1.0
  C  C18  1  0.21188000  0.50812000  0.43110000  1.0
  C  C19  1  0.28812000  0.93922000  0.56890000  1.0
  C  C20  1  0.06923000  0.51645000  0.36158000  1.0
  C  C21  1  0.14246000  0.52973000  0.21524000  1.0
  C  C22  1  0.43077000  0.87803000  0.63842000  1.0
  C  C23  1  0.35754000  0.74497000  0.78476000  1.0
  C  C24  1  0.93076000  0.48354000  0.63842000  1.0
  C  C25  1  0.85754000  0.47027000  0.78476000  1.0
  C  C26  1  0.56923000  0.12197000  0.36158000  1.0
  C  C27  1  0.64246000  0.25503000  0.21524000  1.0
  O  O28  1  0.00393000  0.53436000  0.15948000  1.0
  O  O29  1  0.49607000  0.69384000  0.84053000  1.0
  O  O30  1  0.66322000  0.46552000  0.84056000  1.0
  O  O31  1  0.83679000  0.30608000  0.15943000  1.0
  O  O32  1  0.99607000  0.46564000  0.84052000  1.0
  O  O33  1  0.50393000  0.30616000  0.15947000  1.0
  O  O34  1  0.33678000  0.53448000  0.15944000  1.0
  O  O35  1  0.16322000  0.69392000  0.84057000  1.0
  O  O36  1  0.25000000  0.41942000  0.00000000  1.0
  O  O37  1  0.75000000  0.58058000  0.00000000  1.0
