# generated using pymatgen
data_Cu3H10C12S2IO2
_symmetry_space_group_name_H-M   'P 1'
_cell_length_a   4.06305000
_cell_length_b   5.75303000
_cell_length_c   29.17010000
_cell_angle_alpha   90.00050000
_cell_angle_beta   89.99930000
_cell_angle_gamma   89.99890000
_symmetry_Int_Tables_number   1
_chemical_formula_structural   Cu3H10C12S2IO2
_chemical_formula_sum   'Cu6 H20 C24 S4 I2 O4'
_cell_volume   681.84666924
_cell_formula_units_Z   2
loop_
 _symmetry_equiv_pos_site_id
 _symmetry_equiv_pos_as_xyz
  1  'x, y, z'
loop_
 _atom_site_type_symbol
 _atom_site_label
 _atom_site_symmetry_multiplicity
 _atom_site_fract_x
 _atom_site_fract_y
 _atom_site_fract_z
 _atom_site_occupancy
  Cu  Cu0  1  0.78669000  0.48646000  0.00000000  1.0
  Cu  Cu1  1  0.28669000  0.51357000  0.50000000  1.0
  Cu  Cu2  1  0.22916000  0.77684000  0.95467000  1.0
  Cu  Cu3  1  0.72916000  0.22317000  0.54533000  1.0
  Cu  Cu4  1  0.72916000  0.22317000  0.45467000  1.0
  Cu  Cu5  1  0.22917000  0.77684000  0.04533000  1.0
  H  H6  1  0.39942000  0.74806000  0.84905000  1.0
  H  H7  1  0.89942000  0.25195000  0.65095000  1.0
  H  H8  1  0.89942000  0.25194000  0.34904000  1.0
  H  H9  1  0.39943000  0.74806000  0.15096000  1.0
  H  H10  1  0.99063000  0.20502000  0.90848000  1.0
  H  H11  1  0.49059000  0.79499000  0.59152000  1.0
  H  H12  1  0.49060000  0.79497000  0.40848000  1.0
  H  H13  1  0.99061000  0.20502000  0.09152000  1.0
  H  H14  1  0.36316000  0.52448000  0.77628000  1.0
  H  H15  1  0.86319000  0.47552000  0.72372000  1.0
  H  H16  1  0.86318000  0.47552000  0.27628000  1.0
  H  H17  1  0.36319000  0.52447000  0.22372000  1.0
  H  H18  1  0.95183000  0.98011000  0.83607000  1.0
  H  H19  1  0.45182000  0.01990000  0.66393000  1.0
  H  H20  1  0.45183000  0.01988000  0.33607000  1.0
  H  H21  1  0.95182000  0.98009000  0.16393000  1.0
  H  H22  1  0.83482000  0.01821000  0.75480000  1.0
  H  H23  1  0.33483000  0.98179000  0.74521000  1.0
  H  H24  1  0.33483000  0.98179000  0.25480000  1.0
  H  H25  1  0.83482000  0.01820000  0.24520000  1.0
  C  C26  1  0.70179000  0.49265000  0.88307000  1.0
  C  C27  1  0.20178000  0.50736000  0.61693000  1.0
  C  C28  1  0.20179000  0.50734000  0.38307000  1.0
  C  C29  1  0.70180000  0.49266000  0.11693000  1.0
  C  C30  1  0.52215000  0.58036000  0.84587000  1.0
  C  C31  1  0.02216000  0.41964000  0.65413000  1.0
  C  C32  1  0.02216000  0.41963000  0.34587000  1.0
  C  C33  1  0.52218000  0.58037000  0.15413000  1.0
  C  C34  1  0.85417000  0.27574000  0.87952000  1.0
  C  C35  1  0.35414000  0.72427000  0.62047000  1.0
  C  C36  1  0.35416000  0.72425000  0.37952000  1.0
  C  C37  1  0.85417000  0.27573000  0.12047000  1.0
  C  C38  1  0.50242000  0.45608000  0.80514000  1.0
  C  C39  1  0.00242000  0.54392000  0.69486000  1.0
  C  C40  1  0.00244000  0.54392000  0.30514000  1.0
  C  C41  1  0.50245000  0.45608000  0.19486000  1.0
  C  C42  1  0.83427000  0.14989000  0.83873000  1.0
  C  C43  1  0.33424000  0.85011000  0.66127000  1.0
  C  C44  1  0.33426000  0.85010000  0.33873000  1.0
  C  C45  1  0.83426000  0.14987000  0.16126000  1.0
  C  C46  1  0.66246000  0.24204000  0.80141000  1.0
  C  C47  1  0.16244000  0.75797000  0.69860000  1.0
  C  C48  1  0.16246000  0.75795000  0.30141000  1.0
  C  C49  1  0.66245000  0.24203000  0.19859000  1.0
  S  S50  1  0.73033000  0.67297000  0.93259000  1.0
  S  S51  1  0.23031000  0.32705000  0.56740000  1.0
  S  S52  1  0.23031000  0.32703000  0.43259000  1.0
  S  S53  1  0.73033000  0.67298000  0.06741000  1.0
  I  I54  1  0.28178000  0.16574000  0.00000000  1.0
  I  I55  1  0.78176000  0.83426000  0.50000000  1.0
  O  O56  1  0.64317000  0.12826000  0.75969000  1.0
  O  O57  1  0.14317000  0.87174000  0.74031000  1.0
  O  O58  1  0.14317000  0.87173000  0.25969000  1.0
  O  O59  1  0.64316000  0.12826000  0.24031000  1.0
