# generated using pymatgen
data_CuH14C24(NO2)2
_symmetry_space_group_name_H-M   'P 1'
_cell_length_a   13.89140000
_cell_length_b   18.05770000
_cell_length_c   23.85470000
_cell_angle_alpha   89.98780000
_cell_angle_beta   86.40280000
_cell_angle_gamma   89.97820000
_symmetry_Int_Tables_number   1
_chemical_formula_structural   CuH14C24(NO2)2
_chemical_formula_sum   'Cu4 H56 C96 N8 O16'
_cell_volume   5972.08358777
_cell_formula_units_Z   4
loop_
 _symmetry_equiv_pos_site_id
 _symmetry_equiv_pos_as_xyz
  1  'x, y, z'
loop_
 _atom_site_type_symbol
 _atom_site_label
 _atom_site_symmetry_multiplicity
 _atom_site_fract_x
 _atom_site_fract_y
 _atom_site_fract_z
 _atom_site_occupancy
  Cu  Cu0  1  0.54707000  0.55492000  0.51942000  1.0
  Cu  Cu1  1  0.95328000  0.05447000  0.98074000  1.0
  Cu  Cu2  1  0.45292000  0.44506000  0.48058000  1.0
  Cu  Cu3  1  0.04673000  0.94552000  0.01926000  1.0
  H  H4  1  0.84446000  0.49766000  0.46854000  1.0
  H  H5  1  0.65549000  0.99767000  0.03145000  1.0
  H  H6  1  0.15554000  0.50234000  0.53146000  1.0
  H  H7  1  0.34452000  0.00233000  0.96855000  1.0
  H  H8  1  0.99685000  0.44079000  0.42865000  1.0
  H  H9  1  0.50302000  0.94082000  0.07134000  1.0
  H  H10  1  0.00315000  0.55921000  0.57135000  1.0
  H  H11  1  0.49699000  0.05918000  0.92866000  1.0
  H  H12  1  0.83325000  0.27539000  0.34633000  1.0
  H  H13  1  0.66675000  0.77531000  0.15371000  1.0
  H  H14  1  0.16675000  0.72461000  0.65367000  1.0
  H  H15  1  0.33325000  0.22468000  0.84629000  1.0
  H  H16  1  0.68004000  0.33218000  0.38788000  1.0
  H  H17  1  0.81998000  0.83216000  0.11214000  1.0
  H  H18  1  0.31997000  0.66782000  0.61212000  1.0
  H  H19  1  0.18003000  0.16783000  0.88786000  1.0
  H  H20  1  0.14350000  0.03735000  0.17279000  1.0
  H  H21  1  0.35656000  0.53737000  0.32723000  1.0
  H  H22  1  0.85650000  0.96265000  0.82721000  1.0
  H  H23  1  0.64344000  0.46263000  0.67277000  1.0
  H  H24  1  0.16897000  0.10836000  0.26006000  1.0
  H  H25  1  0.33110000  0.60838000  0.23999000  1.0
  H  H26  1  0.83103000  0.89164000  0.73994000  1.0
  H  H27  1  0.66889000  0.39162000  0.76001000  1.0
  H  H28  1  0.96305000  0.27125000  0.21254000  1.0
  H  H29  1  0.53690000  0.77118000  0.28748000  1.0
  H  H30  1  0.03696000  0.72874000  0.78746000  1.0
  H  H31  1  0.46310000  0.22882000  0.71252000  1.0
  H  H32  1  0.94106000  0.20074000  0.12345000  1.0
  H  H33  1  0.55890000  0.70071000  0.37656000  1.0
  H  H34  1  0.05894000  0.79926000  0.87655000  1.0
  H  H35  1  0.44110000  0.29929000  0.62344000  1.0
  H  H36  1  0.23298000  0.20991000  0.29834000  1.0
  H  H37  1  0.26705000  0.70992000  0.20166000  1.0
  H  H38  1  0.76702000  0.79009000  0.70166000  1.0
  H  H39  1  0.73295000  0.29008000  0.79834000  1.0
  H  H40  1  0.10333000  0.34850000  0.42937000  1.0
  H  H41  1  0.39665000  0.84851000  0.07061000  1.0
  H  H42  1  0.89667000  0.65150000  0.57063000  1.0
  H  H43  1  0.60335000  0.15149000  0.92939000  1.0
  H  H44  1  0.26845000  0.39569000  0.41957000  1.0
  H  H45  1  0.23150000  0.89567000  0.08042000  1.0
  H  H46  1  0.73155000  0.60431000  0.58043000  1.0
  H  H47  1  0.76850000  0.10434000  0.91958000  1.0
  H  H48  1  0.30376000  0.16384000  0.37876000  1.0
  H  H49  1  0.19628000  0.66382000  0.12126000  1.0
  H  H50  1  0.69624000  0.83616000  0.62125000  1.0
  H  H51  1  0.80371000  0.33618000  0.87873000  1.0
  H  H52  1  0.45904000  0.16696000  0.42716000  1.0
  H  H53  1  0.04101000  0.66700000  0.07285000  1.0
  H  H54  1  0.54096000  0.83304000  0.57285000  1.0
  H  H55  1  0.95898000  0.33301000  0.92714000  1.0
  H  H56  1  0.50912000  0.28689000  0.47070000  1.0
  H  H57  1  0.99089000  0.78694000  0.02929000  1.0
  H  H58  1  0.49089000  0.71312000  0.52930000  1.0
  H  H59  1  0.00911000  0.21307000  0.97071000  1.0
  C  C60  1  0.66145000  0.45054000  0.45658000  1.0
  C  C61  1  0.83826000  0.95044000  0.04352000  1.0
  C  C62  1  0.33855000  0.54946000  0.54342000  1.0
  C  C63  1  0.16173000  0.04957000  0.95648000  1.0
  C  C64  1  0.75319000  0.41776000  0.43123000  1.0
  C  C65  1  0.74667000  0.91769000  0.06880000  1.0
  C  C66  1  0.24682000  0.58224000  0.56877000  1.0
  C  C67  1  0.25334000  0.08230000  0.93121000  1.0
  C  C68  1  0.84275000  0.44833000  0.44232000  1.0
  C  C69  1  0.65712000  0.94833000  0.05768000  1.0
  C  C70  1  0.15725000  0.55167000  0.55768000  1.0
  C  C71  1  0.34288000  0.05167000  0.94232000  1.0
  C  C72  1  0.92772000  0.41602000  0.42001000  1.0
  C  C73  1  0.57217000  0.91603000  0.08000000  1.0
  C  C74  1  0.07228000  0.58398000  0.57999000  1.0
  C  C75  1  0.42783000  0.08397000  0.92000000  1.0
  C  C76  1  0.92495000  0.35307000  0.38553000  1.0
  C  C77  1  0.57501000  0.85306000  0.11448000  1.0
  C  C78  1  0.07505000  0.64693000  0.61447000  1.0
  C  C79  1  0.42499000  0.14694000  0.88552000  1.0
  C  C80  1  0.83480000  0.32375000  0.37355000  1.0
  C  C81  1  0.66517000  0.82369000  0.12648000  1.0
  C  C82  1  0.16520000  0.67625000  0.62645000  1.0
  C  C83  1  0.33483000  0.17631000  0.87352000  1.0
  C  C84  1  0.75002000  0.35533000  0.39643000  1.0
  C  C85  1  0.74992000  0.85526000  0.10360000  1.0
  C  C86  1  0.24998000  0.64467000  0.60357000  1.0
  C  C87  1  0.25008000  0.14473000  0.89640000  1.0
  C  C88  1  0.02727000  0.07256000  0.09026000  1.0
  C  C89  1  0.47276000  0.57244000  0.40987000  1.0
  C  C90  1  0.97272000  0.92745000  0.90974000  1.0
  C  C91  1  0.52724000  0.42756000  0.59013000  1.0
  C  C92  1  0.04174000  0.11535000  0.14271000  1.0
  C  C93  1  0.45826000  0.61532000  0.35735000  1.0
  C  C94  1  0.95826000  0.88464000  0.85729000  1.0
  C  C95  1  0.54174000  0.38468000  0.64265000  1.0
  C  C96  1  0.10578000  0.08942000  0.18137000  1.0
  C  C97  1  0.39426000  0.58943000  0.31869000  1.0
  C  C98  1  0.89422000  0.91058000  0.81863000  1.0
  C  C99  1  0.60574000  0.41057000  0.68131000  1.0
  C  C100  1  0.11985000  0.12957000  0.22993000  1.0
  C  C101  1  0.38019000  0.62958000  0.27012000  1.0
  C  C102  1  0.88015000  0.87043000  0.77007000  1.0
  C  C103  1  0.61981000  0.37041000  0.72988000  1.0
  C  C104  1  0.06882000  0.19560000  0.24143000  1.0
  C  C105  1  0.43120000  0.69559000  0.25859000  1.0
  C  C106  1  0.93118000  0.80440000  0.75857000  1.0
  C  C107  1  0.56880000  0.30441000  0.74141000  1.0
  C  C108  1  0.00331000  0.22053000  0.20301000  1.0
  C  C109  1  0.49667000  0.72047000  0.29701000  1.0
  C  C110  1  0.99669000  0.77948000  0.79699000  1.0
  C  C111  1  0.50333000  0.27953000  0.70299000  1.0
  C  C112  1  0.99075000  0.18131000  0.15384000  1.0
  C  C113  1  0.50922000  0.68126000  0.34620000  1.0
  C  C114  1  0.00925000  0.81869000  0.84617000  1.0
  C  C115  1  0.49077000  0.31874000  0.65380000  1.0
  C  C116  1  0.08227000  0.23832000  0.29329000  1.0
  C  C117  1  0.41774000  0.73832000  0.20671000  1.0
  C  C118  1  0.91773000  0.76168000  0.70671000  1.0
  C  C119  1  0.58225000  0.26168000  0.79329000  1.0
  C  C120  1  0.17114000  0.23907000  0.31813000  1.0
  C  C121  1  0.32888000  0.73907000  0.18186000  1.0
  C  C122  1  0.82886000  0.76093000  0.68186000  1.0
  C  C123  1  0.67112000  0.26093000  0.81814000  1.0
  C  C124  1  0.18071000  0.27971000  0.36746000  1.0
  C  C125  1  0.31930000  0.77970000  0.13252000  1.0
  C  C126  1  0.81929000  0.72029000  0.63255000  1.0
  C  C127  1  0.68070000  0.22030000  0.86748000  1.0
  C  C128  1  0.10015000  0.31891000  0.38973000  1.0
  C  C129  1  0.39983000  0.81891000  0.11026000  1.0
  C  C130  1  0.89985000  0.68108000  0.61027000  1.0
  C  C131  1  0.60017000  0.18109000  0.88974000  1.0
  C  C132  1  0.01376000  0.31598000  0.36224000  1.0
  C  C133  1  0.48622000  0.81598000  0.13776000  1.0
  C  C134  1  0.98624000  0.68402000  0.63776000  1.0
  C  C135  1  0.51378000  0.18402000  0.86224000  1.0
  C  C136  1  0.30740000  0.34320000  0.42085000  1.0
  C  C137  1  0.19254000  0.84321000  0.07912000  1.0
  C  C138  1  0.69260000  0.65680000  0.57915000  1.0
  C  C139  1  0.80746000  0.15679000  0.92087000  1.0
  C  C140  1  0.27250000  0.27936000  0.39542000  1.0
  C  C141  1  0.22750000  0.77935000  0.10457000  1.0
  C  C142  1  0.72751000  0.72064000  0.60458000  1.0
  C  C143  1  0.77250000  0.22065000  0.89543000  1.0
  C  C144  1  0.32867000  0.21494000  0.39746000  1.0
  C  C145  1  0.17136000  0.71494000  0.10254000  1.0
  C  C146  1  0.67133000  0.78507000  0.60254000  1.0
  C  C147  1  0.82863000  0.28507000  0.89745000  1.0
  C  C148  1  0.41452000  0.21638000  0.42453000  1.0
  C  C149  1  0.08551000  0.71641000  0.07547000  1.0
  C  C150  1  0.58548000  0.78362000  0.57547000  1.0
  C  C151  1  0.91449000  0.28359000  0.92453000  1.0
  C  C152  1  0.44267000  0.28240000  0.44889000  1.0
  C  C153  1  0.05733000  0.78246000  0.05110000  1.0
  C  C154  1  0.55733000  0.71760000  0.55111000  1.0
  C  C155  1  0.94266000  0.21755000  0.94890000  1.0
  N  N156  1  0.39013000  0.34468000  0.44677000  1.0
  N  N157  1  0.10981000  0.84475000  0.05321000  1.0
  N  N158  1  0.60987000  0.65532000  0.55324000  1.0
  N  N159  1  0.89019000  0.15526000  0.94679000  1.0
  N  N160  1  0.00556000  0.27650000  0.31492000  1.0
  N  N161  1  0.49443000  0.77649000  0.18509000  1.0
  N  N162  1  0.99444000  0.72350000  0.68508000  1.0
  N  N163  1  0.50557000  0.22351000  0.81491000  1.0
  O  O164  1  0.58419000  0.41471000  0.44904000  1.0
  O  O165  1  0.91568000  0.91466000  0.05105000  1.0
  O  O166  1  0.41581000  0.58529000  0.55096000  1.0
  O  O167  1  0.08431000  0.08533000  0.94896000  1.0
  O  O168  1  0.66782000  0.51096000  0.48380000  1.0
  O  O169  1  0.83215000  0.01095000  0.01628000  1.0
  O  O170  1  0.33218000  0.48904000  0.51620000  1.0
  O  O171  1  0.16787000  0.98904000  0.98371000  1.0
  O  O172  1  0.97918000  0.10420000  0.05316000  1.0
  O  O173  1  0.52091000  0.60417000  0.44683000  1.0
  O  O174  1  0.02082000  0.89578000  0.94683000  1.0
  O  O175  1  0.47909000  0.39583000  0.55316000  1.0
  O  O176  1  0.06412000  0.00780000  0.08678000  1.0
  O  O177  1  0.43586000  0.50778000  0.41324000  1.0
  O  O178  1  0.93589000  0.99221000  0.91323000  1.0
  O  O179  1  0.56414000  0.49222000  0.58676000  1.0
