# generated using pymatgen
data_MnAg3H7C9N8O
_symmetry_space_group_name_H-M   'P 1'
_cell_length_a   7.28654000
_cell_length_b   7.79292000
_cell_length_c   15.92610000
_cell_angle_alpha   80.33620000
_cell_angle_beta   81.88340000
_cell_angle_gamma   89.95680000
_symmetry_Int_Tables_number   1
_chemical_formula_structural   MnAg3H7C9N8O
_chemical_formula_sum   'Mn2 Ag6 H14 C18 N16 O2'
_cell_volume   882.33127377
_cell_formula_units_Z   2
loop_
 _symmetry_equiv_pos_site_id
 _symmetry_equiv_pos_as_xyz
  1  'x, y, z'
loop_
 _atom_site_type_symbol
 _atom_site_label
 _atom_site_symmetry_multiplicity
 _atom_site_fract_x
 _atom_site_fract_y
 _atom_site_fract_z
 _atom_site_occupancy
  Mn  Mn0  1  0.99988000  0.99979000  0.00001000  1.0
  Mn  Mn1  1  0.50034000  0.00019000  0.49997000  1.0
  Ag  Ag2  1  0.64682000  0.49069000  0.21908000  1.0
  Ag  Ag3  1  0.43253000  0.38514000  0.08990000  1.0
  Ag  Ag4  1  0.93378000  0.62199000  0.30963000  1.0
  Ag  Ag5  1  0.35305000  0.50932000  0.78092000  1.0
  Ag  Ag6  1  0.56750000  0.61484000  0.91011000  1.0
  Ag  Ag7  1  0.06620000  0.37795000  0.69034000  1.0
  H  H8  1  0.65192000  0.04856000  0.90719000  1.0
  H  H9  1  0.07850000  0.89373000  0.66964000  1.0
  H  H10  1  0.17398000  0.88182000  0.81673000  1.0
  H  H11  1  0.48192000  0.07845000  0.69796000  1.0
  H  H12  1  0.43167000  0.10904000  0.80451000  1.0
  H  H13  1  0.21507000  0.98014000  0.39736000  1.0
  H  H14  1  0.16533000  0.83762000  0.48247000  1.0
  H  H15  1  0.34802000  0.95142000  0.09280000  1.0
  H  H16  1  0.92143000  0.10633000  0.33036000  1.0
  H  H17  1  0.82598000  0.11809000  0.18327000  1.0
  H  H18  1  0.51801000  0.92158000  0.30203000  1.0
  H  H19  1  0.56831000  0.89099000  0.19549000  1.0
  H  H20  1  0.78509000  0.01995000  0.60267000  1.0
  H  H21  1  0.83498000  0.16249000  0.51759000  1.0
  C  C22  1  0.74661000  0.01076000  0.85437000  1.0
  C  C23  1  0.69102000  0.01686000  0.77180000  1.0
  C  C24  1  0.98211000  0.92657000  0.72315000  1.0
  C  C25  1  0.03614000  0.92107000  0.80365000  1.0
  C  C26  1  0.65621000  0.26771000  0.03483000  1.0
  C  C27  1  0.22973000  0.47679000  0.17168000  1.0
  C  C28  1  0.58680000  0.30369000  0.32497000  1.0
  C  C29  1  0.73381000  0.68722000  0.12008000  1.0
  C  C30  1  0.74890000  0.73201000  0.38891000  1.0
  C  C31  1  0.25335000  0.98922000  0.14562000  1.0
  C  C32  1  0.30895000  0.98314000  0.22818000  1.0
  C  C33  1  0.01784000  0.07338000  0.27686000  1.0
  C  C34  1  0.96382000  0.07887000  0.19636000  1.0
  C  C35  1  0.34375000  0.73221000  0.96518000  1.0
  C  C36  1  0.77027000  0.52317000  0.82830000  1.0
  C  C37  1  0.41312000  0.69631000  0.67506000  1.0
  C  C38  1  0.26604000  0.31278000  0.87987000  1.0
  C  C39  1  0.25112000  0.26798000  0.61109000  1.0
  N  N40  1  0.79250000  0.80269000  0.06576000  1.0
  N  N41  1  0.78877000  0.19166000  0.01371000  1.0
  N  N42  1  0.91684000  0.96700000  0.86877000  1.0
  N  N43  1  0.81278000  0.97628000  0.70628000  1.0
  N  N44  1  0.51828000  0.06333000  0.75803000  1.0
  N  N45  1  0.56094000  0.19718000  0.38688000  1.0
  N  N46  1  0.63450000  0.80812000  0.42604000  1.0
  N  N47  1  0.12858000  0.52902000  0.22495000  1.0
  N  N48  1  0.20735000  0.19724000  0.93417000  1.0
  N  N49  1  0.21116000  0.80819000  0.98632000  1.0
  N  N50  1  0.08312000  0.03300000  0.13123000  1.0
  N  N51  1  0.18721000  0.02376000  0.29370000  1.0
  N  N52  1  0.48171000  0.93674000  0.24195000  1.0
  N  N53  1  0.43915000  0.80286000  0.61317000  1.0
  N  N54  1  0.36561000  0.19196000  0.57398000  1.0
  N  N55  1  0.87142000  0.47097000  0.77503000  1.0
  O  O56  1  0.22796000  0.94970000  0.46102000  1.0
  O  O57  1  0.77224000  0.05045000  0.53898000  1.0
