# generated using pymatgen
data_ZnPH13(C3O)7
_symmetry_space_group_name_H-M   'P 1'
_cell_length_a   14.64390000
_cell_length_b   16.25460000
_cell_length_c   23.73500000
_cell_angle_alpha   89.99990000
_cell_angle_beta   90.00000000
_cell_angle_gamma   90.00000000
_symmetry_Int_Tables_number   1
_chemical_formula_structural   ZnPH13(C3O)7
_chemical_formula_sum   'Zn8 P8 H104 C168 O56'
_cell_volume   5649.65954126
_cell_formula_units_Z   8
loop_
 _symmetry_equiv_pos_site_id
 _symmetry_equiv_pos_as_xyz
  1  'x, y, z'
loop_
 _atom_site_type_symbol
 _atom_site_label
 _atom_site_symmetry_multiplicity
 _atom_site_fract_x
 _atom_site_fract_y
 _atom_site_fract_z
 _atom_site_occupancy
  Zn  Zn0  1  0.31285000  0.93385000  0.64732000  1.0
  Zn  Zn1  1  0.81285000  0.56615000  0.85268000  1.0
  Zn  Zn2  1  0.18715000  0.06615000  0.64732000  1.0
  Zn  Zn3  1  0.68715000  0.43385000  0.85268000  1.0
  Zn  Zn4  1  0.68715000  0.06615000  0.35268000  1.0
  Zn  Zn5  1  0.18715000  0.43385000  0.14732000  1.0
  Zn  Zn6  1  0.81285000  0.93385000  0.35268000  1.0
  Zn  Zn7  1  0.31285000  0.56615000  0.14732000  1.0
  P  P8  1  0.42201000  0.76415000  0.61063000  1.0
  P  P9  1  0.92201000  0.73585000  0.88936000  1.0
  P  P10  1  0.07799000  0.23585000  0.61064000  1.0
  P  P11  1  0.57799000  0.26415000  0.88936000  1.0
  P  P12  1  0.57799000  0.23586000  0.38936000  1.0
  P  P13  1  0.07799000  0.26414000  0.11064000  1.0
  P  P14  1  0.92201000  0.76414000  0.38937000  1.0
  P  P15  1  0.42201000  0.73586000  0.11064000  1.0
  H  H16  1  0.04668000  0.50615000  0.46092000  1.0
  H  H17  1  0.54668000  0.99385000  0.03908000  1.0
  H  H18  1  0.45333000  0.49385000  0.46092000  1.0
  H  H19  1  0.95332000  0.00615000  0.03908000  1.0
  H  H20  1  0.95333000  0.49385000  0.53908000  1.0
  H  H21  1  0.45332000  0.00615000  0.96092000  1.0
  H  H22  1  0.54667000  0.50615000  0.53908000  1.0
  H  H23  1  0.04667000  0.99385000  0.96092000  1.0
  H  H24  1  0.39160000  0.67558000  0.50279000  1.0
  H  H25  1  0.89160000  0.82442000  0.99721000  1.0
  H  H26  1  0.10840000  0.32442000  0.50279000  1.0
  H  H27  1  0.60840000  0.17558000  0.99721000  1.0
  H  H28  1  0.60840000  0.32442000  0.49721000  1.0
  H  H29  1  0.10840000  0.17558000  0.00279000  1.0
  H  H30  1  0.89160000  0.67558000  0.49721000  1.0
  H  H31  1  0.39160000  0.82442000  0.00279000  1.0
  H  H32  1  0.25920000  0.59357000  0.46840000  1.0
  H  H33  1  0.75920000  0.90643000  0.03160000  1.0
  H  H34  1  0.24080000  0.40643000  0.46840000  1.0
  H  H35  1  0.74080000  0.09357000  0.03160000  1.0
  H  H36  1  0.74080000  0.40643000  0.53160000  1.0
  H  H37  1  0.24080000  0.09357000  0.96840000  1.0
  H  H38  1  0.75920000  0.59357000  0.53160000  1.0
  H  H39  1  0.25920000  0.90643000  0.96840000  1.0
  H  H40  1  0.11755000  0.63769000  0.62444000  1.0
  H  H41  1  0.61755000  0.86231000  0.87556000  1.0
  H  H42  1  0.38245000  0.36231000  0.62444000  1.0
  H  H43  1  0.88245000  0.13769000  0.87556000  1.0
  H  H44  1  0.88245000  0.36231000  0.37556000  1.0
  H  H45  1  0.38246000  0.13769000  0.12444000  1.0
  H  H46  1  0.61755000  0.63769000  0.37556000  1.0
  H  H47  1  0.11755000  0.86231000  0.12444000  1.0
  H  H48  1  0.24859000  0.72358000  0.65843000  1.0
  H  H49  1  0.74859000  0.77642000  0.84157000  1.0
  H  H50  1  0.25141000  0.27642000  0.65843000  1.0
  H  H51  1  0.75141000  0.22359000  0.84157000  1.0
  H  H52  1  0.75141000  0.27642000  0.34157000  1.0
  H  H53  1  0.25141000  0.22358000  0.15843000  1.0
  H  H54  1  0.74859000  0.72358000  0.34157000  1.0
  H  H55  1  0.24859000  0.77642000  0.15843000  1.0
  H  H56  1  0.37713000  0.87748000  0.52182000  1.0
  H  H57  1  0.87713000  0.62252000  0.97818000  1.0
  H  H58  1  0.12287000  0.12252000  0.52182000  1.0
  H  H59  1  0.62287000  0.37748000  0.97818000  1.0
  H  H60  1  0.62288000  0.12252000  0.47818000  1.0
  H  H61  1  0.12287000  0.37748000  0.02182000  1.0
  H  H62  1  0.87713000  0.87748000  0.47818000  1.0
  H  H63  1  0.37713000  0.62252000  0.02183000  1.0
  H  H64  1  0.47336000  0.94598000  0.44839000  1.0
  H  H65  1  0.97335000  0.55402000  0.05161000  1.0
  H  H66  1  0.02664000  0.05402000  0.44839000  1.0
  H  H67  1  0.52664000  0.44598000  0.05161000  1.0
  H  H68  1  0.52665000  0.05402000  0.55161000  1.0
  H  H69  1  0.02664000  0.44598000  0.94839000  1.0
  H  H70  1  0.97336000  0.94598000  0.55161000  1.0
  H  H71  1  0.47336000  0.55402000  0.94839000  1.0
  H  H72  1  0.70530000  0.80316000  0.49946000  1.0
  H  H73  1  0.20530000  0.69684000  0.00054000  1.0
  H  H74  1  0.79470000  0.19684000  0.49946000  1.0
  H  H75  1  0.29470000  0.30316000  0.00054000  1.0
  H  H76  1  0.29471000  0.19684000  0.50054000  1.0
  H  H77  1  0.79470000  0.30316000  0.99946000  1.0
  H  H78  1  0.20530000  0.80315000  0.50054000  1.0
  H  H79  1  0.70530000  0.69685000  0.99946000  1.0
  H  H80  1  0.61118000  0.73329000  0.57313000  1.0
  H  H81  1  0.11118000  0.76671000  0.92687000  1.0
  H  H82  1  0.88882000  0.26671000  0.57313000  1.0
  H  H83  1  0.38882000  0.23329000  0.92687000  1.0
  H  H84  1  0.38882000  0.26671000  0.42687000  1.0
  H  H85  1  0.88882000  0.23329000  0.07313000  1.0
  H  H86  1  0.11118000  0.73329000  0.42687000  1.0
  H  H87  1  0.61118000  0.76671000  0.07313000  1.0
  H  H88  1  0.44058000  0.58078000  0.62716000  1.0
  H  H89  1  0.94058000  0.91922000  0.87283000  1.0
  H  H90  1  0.05942000  0.41922000  0.62716000  1.0
  H  H91  1  0.55942000  0.08078000  0.87283000  1.0
  H  H92  1  0.55942000  0.41922000  0.37283000  1.0
  H  H93  1  0.05942000  0.08078000  0.12717000  1.0
  H  H94  1  0.94058000  0.58078000  0.37284000  1.0
  H  H95  1  0.44058000  0.91922000  0.12716000  1.0
  H  H96  1  0.53355000  0.50308000  0.69761000  1.0
  H  H97  1  0.03355000  0.99692000  0.80239000  1.0
  H  H98  1  0.96645000  0.49692000  0.69761000  1.0
  H  H99  1  0.46645000  0.00308000  0.80239000  1.0
  H  H100  1  0.46645000  0.49692000  0.30239000  1.0
  H  H101  1  0.96645000  0.00308000  0.19761000  1.0
  H  H102  1  0.03355000  0.50308000  0.30239000  1.0
  H  H103  1  0.53355000  0.99692000  0.19761000  1.0
  H  H104  1  0.65143000  0.72829000  0.75709000  1.0
  H  H105  1  0.15143000  0.77171000  0.74291000  1.0
  H  H106  1  0.84857000  0.27171000  0.75709000  1.0
  H  H107  1  0.34857000  0.22829000  0.74291000  1.0
  H  H108  1  0.34857000  0.27171000  0.24291000  1.0
  H  H109  1  0.84857000  0.22829000  0.25709000  1.0
  H  H110  1  0.15143000  0.72829000  0.24291000  1.0
  H  H111  1  0.65143000  0.77171000  0.25709000  1.0
  H  H112  1  0.55536000  0.80860000  0.68913000  1.0
  H  H113  1  0.05536000  0.69140000  0.81087000  1.0
  H  H114  1  0.94464000  0.19140000  0.68913000  1.0
  H  H115  1  0.44464000  0.30860000  0.81087000  1.0
  H  H116  1  0.44464000  0.19140000  0.31087000  1.0
  H  H117  1  0.94464000  0.30860000  0.18913000  1.0
  H  H118  1  0.05536000  0.80860000  0.31087000  1.0
  H  H119  1  0.55536000  0.69140000  0.18913000  1.0
  C  C120  1  0.32883000  0.70298000  0.58327000  1.0
  C  C121  1  0.82883000  0.79702000  0.91673000  1.0
  C  C122  1  0.17117000  0.29702000  0.58327000  1.0
  C  C123  1  0.67117000  0.20298000  0.91673000  1.0
  C  C124  1  0.67117000  0.29702000  0.41673000  1.0
  C  C125  1  0.17117000  0.20298000  0.08327000  1.0
  C  C126  1  0.82883000  0.70298000  0.41673000  1.0
  C  C127  1  0.32883000  0.79702000  0.08327000  1.0
  C  C128  1  0.33195000  0.66683000  0.52966000  1.0
  C  C129  1  0.83195000  0.83317000  0.97034000  1.0
  C  C130  1  0.16805000  0.33316000  0.52966000  1.0
  C  C131  1  0.66805000  0.16683000  0.97034000  1.0
  C  C132  1  0.66805000  0.33317000  0.47034000  1.0
  C  C133  1  0.16805000  0.16683000  0.02966000  1.0
  C  C134  1  0.83195000  0.66683000  0.47034000  1.0
  C  C135  1  0.33195000  0.83317000  0.02966000  1.0
  C  C136  1  0.25790000  0.62105000  0.51022000  1.0
  C  C137  1  0.75790000  0.87895000  0.98978000  1.0
  C  C138  1  0.24210000  0.37895000  0.51022000  1.0
  C  C139  1  0.74210000  0.12105000  0.98978000  1.0
  C  C140  1  0.74210000  0.37895000  0.48978000  1.0
  C  C141  1  0.24210000  0.12105000  0.01022000  1.0
  C  C142  1  0.75790000  0.62105000  0.48978000  1.0
  C  C143  1  0.25790000  0.87895000  0.01022000  1.0
  C  C144  1  0.18102000  0.61040000  0.54471000  1.0
  C  C145  1  0.68102000  0.88960000  0.95529000  1.0
  C  C146  1  0.31899000  0.38959000  0.54471000  1.0
  C  C147  1  0.81898000  0.11041000  0.95529000  1.0
  C  C148  1  0.81899000  0.38959000  0.45529000  1.0
  C  C149  1  0.31898000  0.11040000  0.04471000  1.0
  C  C150  1  0.68102000  0.61041000  0.45529000  1.0
  C  C151  1  0.18101000  0.88959000  0.04471000  1.0
  C  C152  1  0.10094000  0.56245000  0.52493000  1.0
  C  C153  1  0.60094000  0.93755000  0.97507000  1.0
  C  C154  1  0.39906000  0.43755000  0.52493000  1.0
  C  C155  1  0.89906000  0.06245000  0.97507000  1.0
  C  C156  1  0.89906000  0.43755000  0.47507000  1.0
  C  C157  1  0.39906000  0.06245000  0.02492000  1.0
  C  C158  1  0.60094000  0.56245000  0.47507000  1.0
  C  C159  1  0.10094000  0.93755000  0.02492000  1.0
  C  C160  1  0.17822000  0.64619000  0.59849000  1.0
  C  C161  1  0.67822000  0.85381000  0.90151000  1.0
  C  C162  1  0.32178000  0.35381000  0.59849000  1.0
  C  C163  1  0.82178000  0.14619000  0.90151000  1.0
  C  C164  1  0.82178000  0.35381000  0.40150000  1.0
  C  C165  1  0.32178000  0.14619000  0.09849000  1.0
  C  C166  1  0.67822000  0.64619000  0.40151000  1.0
  C  C167  1  0.17822000  0.85381000  0.09849000  1.0
  C  C168  1  0.25147000  0.69300000  0.61756000  1.0
  C  C169  1  0.75147000  0.80700000  0.88244000  1.0
  C  C170  1  0.24853000  0.30700000  0.61756000  1.0
  C  C171  1  0.74853000  0.19300000  0.88244000  1.0
  C  C172  1  0.74853000  0.30700000  0.38244000  1.0
  C  C173  1  0.24853000  0.19300000  0.11756000  1.0
  C  C174  1  0.75147000  0.69300000  0.38244000  1.0
  C  C175  1  0.25147000  0.80700000  0.11756000  1.0
  C  C176  1  0.48842000  0.80115000  0.55217000  1.0
  C  C177  1  0.98842000  0.69885000  0.94783000  1.0
  C  C178  1  0.01158000  0.19885000  0.55217000  1.0
  C  C179  1  0.51158000  0.30115000  0.94783000  1.0
  C  C180  1  0.51158000  0.19885000  0.44783000  1.0
  C  C181  1  0.01158000  0.30115000  0.05217000  1.0
  C  C182  1  0.98842000  0.80115000  0.44783000  1.0
  C  C183  1  0.48842000  0.69885000  0.05217000  1.0
  C  C184  1  0.44866000  0.86021000  0.51644000  1.0
  C  C185  1  0.94866000  0.63979000  0.98356000  1.0
  C  C186  1  0.05134000  0.13979000  0.51644000  1.0
  C  C187  1  0.55134000  0.36021000  0.98356000  1.0
  C  C188  1  0.55134000  0.13979000  0.48356000  1.0
  C  C189  1  0.05134000  0.36021000  0.01644000  1.0
  C  C190  1  0.94866000  0.86021000  0.48356000  1.0
  C  C191  1  0.44866000  0.63979000  0.01644000  1.0
  C  C192  1  0.50205000  0.89886000  0.47580000  1.0
  C  C193  1  0.00205000  0.60114000  0.02420000  1.0
  C  C194  1  0.99795000  0.10114000  0.47580000  1.0
  C  C195  1  0.49795000  0.39886000  0.02420000  1.0
  C  C196  1  0.49795000  0.10114000  0.52420000  1.0
  C  C197  1  0.99795000  0.39886000  0.97580000  1.0
  C  C198  1  0.00205000  0.89886000  0.52420000  1.0
  C  C199  1  0.50205000  0.60114000  0.97580000  1.0
  C  C200  1  0.59493000  0.87926000  0.47038000  1.0
  C  C201  1  0.09493000  0.62074000  0.02962000  1.0
  C  C202  1  0.90507000  0.12074000  0.47038000  1.0
  C  C203  1  0.40507000  0.37926000  0.02962000  1.0
  C  C204  1  0.40507000  0.12074000  0.52962000  1.0
  C  C205  1  0.90507000  0.37926000  0.97038000  1.0
  C  C206  1  0.09493000  0.87926000  0.52962000  1.0
  C  C207  1  0.59493000  0.62074000  0.97038000  1.0
  C  C208  1  0.65360000  0.92475000  0.42870000  1.0
  C  C209  1  0.15360000  0.57525000  0.07130000  1.0
  C  C210  1  0.84640000  0.07525000  0.42870000  1.0
  C  C211  1  0.34640000  0.42475000  0.07130000  1.0
  C  C212  1  0.34640000  0.07525000  0.57130000  1.0
  C  C213  1  0.84640000  0.42475000  0.92870000  1.0
  C  C214  1  0.15360000  0.92475000  0.57130000  1.0
  C  C215  1  0.65360000  0.57525000  0.92870000  1.0
  C  C216  1  0.63339000  0.81847000  0.50476000  1.0
  C  C217  1  0.13339000  0.68153000  0.99524000  1.0
  C  C218  1  0.86661000  0.18153000  0.50476000  1.0
  C  C219  1  0.36661000  0.31847000  0.99524000  1.0
  C  C220  1  0.36661000  0.18153000  0.49524000  1.0
  C  C221  1  0.86661000  0.31847000  0.00476000  1.0
  C  C222  1  0.13339000  0.81847000  0.49524000  1.0
  C  C223  1  0.63339000  0.68153000  0.00476000  1.0
  C  C224  1  0.58061000  0.77950000  0.54566000  1.0
  C  C225  1  0.08061000  0.72050000  0.95434000  1.0
  C  C226  1  0.91939000  0.22049000  0.54567000  1.0
  C  C227  1  0.41939000  0.27951000  0.95433000  1.0
  C  C228  1  0.41939000  0.22049000  0.45434000  1.0
  C  C229  1  0.91939000  0.27950000  0.04566000  1.0
  C  C230  1  0.08061000  0.77950000  0.45434000  1.0
  C  C231  1  0.58061000  0.72050000  0.04566000  1.0
  C  C232  1  0.49261000  0.69952000  0.65370000  1.0
  C  C233  1  0.99261000  0.80048000  0.84629000  1.0
  C  C234  1  0.00739000  0.30048000  0.65371000  1.0
  C  C235  1  0.50739000  0.19952000  0.84629000  1.0
  C  C236  1  0.50739000  0.30048000  0.34629000  1.0
  C  C237  1  0.00739000  0.19952000  0.15371000  1.0
  C  C238  1  0.99261000  0.69952000  0.34630000  1.0
  C  C239  1  0.49261000  0.80048000  0.15371000  1.0
  C  C240  1  0.48654000  0.61356000  0.65551000  1.0
  C  C241  1  0.98654000  0.88644000  0.84449000  1.0
  C  C242  1  0.01346000  0.38644000  0.65551000  1.0
  C  C243  1  0.51346000  0.11356000  0.84449000  1.0
  C  C244  1  0.51346000  0.38644000  0.34449000  1.0
  C  C245  1  0.01346000  0.11356000  0.15551000  1.0
  C  C246  1  0.98654000  0.61356000  0.34449000  1.0
  C  C247  1  0.48654000  0.88644000  0.15551000  1.0
  C  C248  1  0.53844000  0.56984000  0.69469000  1.0
  C  C249  1  0.03844000  0.93016000  0.80530000  1.0
  C  C250  1  0.96156000  0.43016000  0.69469000  1.0
  C  C251  1  0.46156000  0.06984000  0.80530000  1.0
  C  C252  1  0.46156000  0.43016000  0.30531000  1.0
  C  C253  1  0.96156000  0.06984000  0.19470000  1.0
  C  C254  1  0.03844000  0.56984000  0.30531000  1.0
  C  C255  1  0.53844000  0.93016000  0.19470000  1.0
  C  C256  1  0.59694000  0.61170000  0.73151000  1.0
  C  C257  1  0.09694000  0.88830000  0.76849000  1.0
  C  C258  1  0.90306000  0.38830000  0.73151000  1.0
  C  C259  1  0.40306000  0.11170000  0.76849000  1.0
  C  C260  1  0.40306000  0.38830000  0.26849000  1.0
  C  C261  1  0.90306000  0.11170000  0.23151000  1.0
  C  C262  1  0.09694000  0.61170000  0.26849000  1.0
  C  C263  1  0.59694000  0.88830000  0.23151000  1.0
  C  C264  1  0.65058000  0.56670000  0.77580000  1.0
  C  C265  1  0.15058000  0.93330000  0.72420000  1.0
  C  C266  1  0.84942000  0.43331000  0.77580000  1.0
  C  C267  1  0.34941000  0.06669000  0.72420000  1.0
  C  C268  1  0.34942000  0.43331000  0.22420000  1.0
  C  C269  1  0.84942000  0.06669000  0.27580000  1.0
  C  C270  1  0.15058000  0.56669000  0.22420000  1.0
  C  C271  1  0.65059000  0.93331000  0.27580000  1.0
  C  C272  1  0.60462000  0.69750000  0.72835000  1.0
  C  C273  1  0.10462000  0.80250000  0.77165000  1.0
  C  C274  1  0.89538000  0.30250000  0.72835000  1.0
  C  C275  1  0.39538000  0.19750000  0.77165000  1.0
  C  C276  1  0.39538000  0.30250000  0.27165000  1.0
  C  C277  1  0.89538000  0.19750000  0.22835000  1.0
  C  C278  1  0.10462000  0.69750000  0.27165000  1.0
  C  C279  1  0.60462000  0.80250000  0.22835000  1.0
  C  C280  1  0.55221000  0.74158000  0.69016000  1.0
  C  C281  1  0.05221000  0.75842000  0.80984000  1.0
  C  C282  1  0.94779000  0.25842000  0.69016000  1.0
  C  C283  1  0.44779000  0.24158000  0.80984000  1.0
  C  C284  1  0.44779000  0.25842000  0.30984000  1.0
  C  C285  1  0.94779000  0.24158000  0.19016000  1.0
  C  C286  1  0.05221000  0.74158000  0.30984000  1.0
  C  C287  1  0.55221000  0.75842000  0.19016000  1.0
  O  O288  1  0.38865000  0.83341000  0.64785000  1.0
  O  O289  1  0.88865000  0.66659000  0.85215000  1.0
  O  O290  1  0.11135000  0.16659000  0.64785000  1.0
  O  O291  1  0.61135000  0.33341000  0.85215000  1.0
  O  O292  1  0.61135000  0.16659000  0.35215000  1.0
  O  O293  1  0.11135000  0.33340000  0.14785000  1.0
  O  O294  1  0.88865000  0.83341000  0.35215000  1.0
  O  O295  1  0.38865000  0.66666667  0.14785000  1.0
  O  O296  1  0.10393000  0.54018000  0.47142000  1.0
  O  O297  1  0.60393000  0.95982000  0.02858000  1.0
  O  O298  1  0.39608000  0.45982000  0.47142000  1.0
  O  O299  1  0.89607000  0.04018000  0.02858000  1.0
  O  O300  1  0.89608000  0.45982000  0.52858000  1.0
  O  O301  1  0.39607000  0.04018000  0.97142000  1.0
  O  O302  1  0.60393000  0.54018000  0.52858000  1.0
  O  O303  1  0.10392000  0.95982000  0.97142000  1.0
  O  O304  1  0.03635000  0.54540000  0.55733000  1.0
  O  O305  1  0.53635000  0.95460000  0.94267000  1.0
  O  O306  1  0.46365000  0.45460000  0.55733000  1.0
  O  O307  1  0.96365000  0.04540000  0.94267000  1.0
  O  O308  1  0.96365000  0.45460000  0.44267000  1.0
  O  O309  1  0.46365000  0.04540000  0.05733000  1.0
  O  O310  1  0.53635000  0.54540000  0.44267000  1.0
  O  O311  1  0.03635000  0.95460000  0.05733000  1.0
  O  O312  1  0.61607000  0.98390000  0.40232000  1.0
  O  O313  1  0.11607000  0.51610000  0.09768000  1.0
  O  O314  1  0.88393000  0.01610000  0.40232000  1.0
  O  O315  1  0.38393000  0.48390000  0.09768000  1.0
  O  O316  1  0.38394000  0.01610000  0.59768000  1.0
  O  O317  1  0.88393000  0.48390000  0.90232000  1.0
  O  O318  1  0.11607000  0.98390000  0.59768000  1.0
  O  O319  1  0.61607000  0.51610000  0.90232000  1.0
  O  O320  1  0.73604000  0.90091000  0.42354000  1.0
  O  O321  1  0.23604000  0.59909000  0.07646000  1.0
  O  O322  1  0.76396000  0.09909000  0.42354000  1.0
  O  O323  1  0.26396000  0.40091000  0.07646000  1.0
  O  O324  1  0.26396000  0.09909000  0.57646000  1.0
  O  O325  1  0.76396000  0.40091000  0.92354000  1.0
  O  O326  1  0.23604000  0.90091000  0.57646000  1.0
  O  O327  1  0.73604000  0.59909000  0.92354000  1.0
  O  O328  1  0.63459000  0.49041000  0.78212000  1.0
  O  O329  1  0.13459000  0.00959000  0.71788000  1.0
  O  O330  1  0.86540000  0.50959000  0.78212000  1.0
  O  O331  1  0.36540000  0.99041000  0.71788000  1.0
  O  O332  1  0.36541000  0.50959000  0.21788000  1.0
  O  O333  1  0.86541000  0.99041000  0.28212000  1.0
  O  O334  1  0.13459000  0.49041000  0.21788000  1.0
  O  O335  1  0.63459000  0.00959000  0.28212000  1.0
  O  O336  1  0.70701000  0.60984000  0.80398000  1.0
  O  O337  1  0.20701000  0.89016000  0.69602000  1.0
  O  O338  1  0.79299000  0.39016000  0.80398000  1.0
  O  O339  1  0.29299000  0.10984000  0.69602000  1.0
  O  O340  1  0.29299000  0.39016000  0.19602000  1.0
  O  O341  1  0.79299000  0.10984000  0.30398000  1.0
  O  O342  1  0.20701000  0.60984000  0.19602000  1.0
  O  O343  1  0.70701000  0.89016000  0.30398000  1.0
