# generated using pymatgen
data_FeH8PdC14(IN3)2
_symmetry_space_group_name_H-M   'P 1'
_cell_length_a   6.78848000
_cell_length_b   7.33848000
_cell_length_c   9.56745000
_cell_angle_alpha   112.41100000
_cell_angle_beta   90.50480000
_cell_angle_gamma   90.00020000
_symmetry_Int_Tables_number   1
_chemical_formula_structural   FeH8PdC14(IN3)2
_chemical_formula_sum   'Fe1 H8 Pd1 C14 I2 N6'
_cell_volume   440.60487150
_cell_formula_units_Z   1
loop_
 _symmetry_equiv_pos_site_id
 _symmetry_equiv_pos_as_xyz
  1  'x, y, z'
loop_
 _atom_site_type_symbol
 _atom_site_label
 _atom_site_symmetry_multiplicity
 _atom_site_fract_x
 _atom_site_fract_y
 _atom_site_fract_z
 _atom_site_occupancy
  Fe  Fe0  1  0.49110000  0.49173000  0.98312000  1.0
  H  H1  1  0.33711000  0.66461000  0.32890000  1.0
  H  H2  1  0.66922000  0.33927000  0.67818000  1.0
  H  H3  1  0.81859000  0.82703000  0.65475000  1.0
  H  H4  1  0.18781000  0.17619000  0.35235000  1.0
  H  H5  1  0.04895000  0.71754000  0.43700000  1.0
  H  H6  1  0.95804000  0.28587000  0.57097000  1.0
  H  H7  1  0.90910000  0.58492000  0.17149000  1.0
  H  H8  1  0.09524000  0.41799000  0.83474000  1.0
  Pd  Pd9  1  0.99301000  0.99898000  0.99769000  1.0
  C  C10  1  0.49319000  0.67922000  0.35871000  1.0
  C  C11  1  0.51337000  0.32448000  0.64858000  1.0
  C  C12  1  0.55945000  0.75423000  0.50882000  1.0
  C  C13  1  0.44656000  0.24954000  0.49894000  1.0
  C  C14  1  0.76200000  0.76902000  0.53887000  1.0
  C  C15  1  0.24425000  0.23416000  0.46818000  1.0
  C  C16  1  0.89033000  0.70766000  0.41680000  1.0
  C  C17  1  0.11665000  0.29552000  0.59047000  1.0
  C  C18  1  0.81411000  0.63435000  0.27012000  1.0
  C  C19  1  0.19127000  0.36900000  0.73716000  1.0
  C  C20  1  0.79710000  0.17336000  0.95767000  1.0
  C  C21  1  0.19020000  0.21080000  0.03241000  1.0
  C  C22  1  0.19030000  0.82170000  0.03236000  1.0
  C  C23  1  0.79711000  0.78494000  0.95786000  1.0
  I  I24  1  0.35583000  0.84326000  0.68571000  1.0
  I  I25  1  0.64841000  0.15997000  0.32038000  1.0
  N  N26  1  0.61948000  0.62152000  0.24377000  1.0
  N  N27  1  0.38726000  0.38321000  0.76572000  1.0
  N  N28  1  0.68293000  0.28889000  0.94965000  1.0
  N  N29  1  0.30451000  0.32904000  0.02967000  1.0
  N  N30  1  0.30454000  0.70059000  0.02947000  1.0
  N  N31  1  0.68299000  0.66135000  0.94964000  1.0
