# generated using pymatgen
data_Zr3H20(C9O4)4
_symmetry_space_group_name_H-M   'P 1'
_cell_length_a   16.91687199
_cell_length_b   17.00117541
_cell_length_c   16.91860000
_cell_angle_alpha   119.29045655
_cell_angle_beta   90.95982358
_cell_angle_gamma   119.28815432
_symmetry_Int_Tables_number   1
_chemical_formula_structural   Zr3H20(C9O4)4
_chemical_formula_sum   'Zr6 H40 C72 O32'
_cell_volume   3485.25452414
_cell_formula_units_Z   2
loop_
 _symmetry_equiv_pos_site_id
 _symmetry_equiv_pos_as_xyz
  1  'x, y, z'
loop_
 _atom_site_type_symbol
 _atom_site_label
 _atom_site_symmetry_multiplicity
 _atom_site_fract_x
 _atom_site_fract_y
 _atom_site_fract_z
 _atom_site_occupancy
  Zr  Zr0  1  0.89578000  0.29156000  0.89579000  1.0
  Zr  Zr1  1  0.10425000  0.70841000  0.10417000  1.0
  Zr  Zr2  1  0.10333000  0.49998000  0.10330000  1.0
  Zr  Zr3  1  0.89666000  0.49994000  0.89662000  1.0
  Zr  Zr4  1  0.89600000  0.50003000  0.10403000  1.0
  Zr  Zr5  1  0.10406000  0.50000000  0.89593000  1.0
  H  H6  1  0.92014000  0.33776000  0.08322000  1.0
  H  H7  1  0.91680000  0.66218000  0.07985000  1.0
  H  H8  1  0.24554000  0.66229000  0.08231000  1.0
  H  H9  1  0.91764000  0.33772000  0.75450000  1.0
  H  H10  1  0.62170000  0.01662000  0.89022000  1.0
  H  H11  1  0.65232000  0.29557000  0.13829000  1.0
  H  H12  1  0.50939000  0.17307000  0.16038000  1.0
  H  H13  1  0.37379000  0.98368000  0.10525000  1.0
  H  H14  1  0.34301000  0.70465000  0.85701000  1.0
  H  H15  1  0.48756000  0.82709000  0.83650000  1.0
  H  H16  1  0.89477000  0.01628000  0.62633000  1.0
  H  H17  1  0.14304000  0.29537000  0.65725000  1.0
  H  H18  1  0.16348000  0.17295000  0.51258000  1.0
  H  H19  1  0.10992000  0.98362000  0.37846000  1.0
  H  H20  1  0.86173000  0.70452000  0.34756000  1.0
  H  H21  1  0.83950000  0.82683000  0.49046000  1.0
  H  H22  1  0.62437000  0.49608000  0.10660000  1.0
  H  H23  1  0.65322000  0.49595000  0.85498000  1.0
  H  H24  1  0.50743000  0.49739000  0.83423000  1.0
  H  H25  1  0.37152000  0.49582000  0.88930000  1.0
  H  H26  1  0.34259000  0.49574000  0.14081000  1.0
  H  H27  1  0.48998000  0.49750000  0.16315000  1.0
  H  H28  1  0.11066000  0.50412000  0.62839000  1.0
  H  H29  1  0.85913000  0.50420000  0.65734000  1.0
  H  H30  1  0.83686000  0.50263000  0.51005000  1.0
  H  H31  1  0.89343000  0.50411000  0.37567000  1.0
  H  H32  1  0.14521000  0.50451000  0.34701000  1.0
  H  H33  1  0.16581000  0.50280000  0.49262000  1.0
  H  H34  1  0.89297000  0.01660000  0.88845000  1.0
  H  H35  1  0.14326000  0.29532000  0.13826000  1.0
  H  H36  1  0.16495000  0.17246000  0.16186000  1.0
  H  H37  1  0.11156000  0.98342000  0.10703000  1.0
  H  H38  1  0.86150000  0.70477000  0.85697000  1.0
  H  H39  1  0.83798000  0.82759000  0.83517000  1.0
  H  H40  1  0.62346000  0.01643000  0.62817000  1.0
  H  H41  1  0.65203000  0.29508000  0.65683000  1.0
  H  H42  1  0.50745000  0.17227000  0.51045000  1.0
  H  H43  1  0.37175000  0.98321000  0.37632000  1.0
  H  H44  1  0.34300000  0.70454000  0.34786000  1.0
  H  H45  1  0.48934000  0.82741000  0.49252000  1.0
  C  C46  1  0.73224000  0.24089000  0.00282000  1.0
  C  C47  1  0.99729000  0.75920000  0.26778000  1.0
  C  C48  1  0.26203000  0.75920000  0.99134000  1.0
  C  C49  1  0.00860000  0.24074000  0.73809000  1.0
  C  C50  1  0.00720000  0.24005000  0.00165000  1.0
  C  C51  1  0.73279000  0.23999000  0.73834000  1.0
  C  C52  1  0.99827000  0.75993000  0.99282000  1.0
  C  C53  1  0.26163000  0.75972000  0.26707000  1.0
  C  C54  1  0.00835000  0.50455000  0.26672000  1.0
  C  C55  1  0.26218000  0.49543000  0.00380000  1.0
  C  C56  1  0.99623000  0.50453000  0.73775000  1.0
  C  C57  1  0.73331000  0.49556000  0.99170000  1.0
  C  C58  1  0.59653000  0.04999000  0.94899000  1.0
  C  C59  1  0.61279000  0.20671000  0.08926000  1.0
  C  C60  1  0.53363000  0.13856000  0.10107000  1.0
  C  C61  1  0.48174000  0.02247000  0.03689000  1.0
  C  C62  1  0.39913000  0.95025000  0.04665000  1.0
  C  C63  1  0.38279000  0.79351000  0.90626000  1.0
  C  C64  1  0.46276000  0.86165000  0.89524000  1.0
  C  C65  1  0.51455000  0.97774000  0.95936000  1.0
  C  C66  1  0.64526000  0.16282000  0.01233000  1.0
  C  C67  1  0.34967000  0.83740000  0.98257000  1.0
  C  C68  1  0.95330000  0.04970000  0.60092000  1.0
  C  C69  1  0.09370000  0.20648000  0.61733000  1.0
  C  C70  1  0.10471000  0.13839000  0.53733000  1.0
  C  C71  1  0.04061000  0.02231000  0.48549000  1.0
  C  C72  1  0.05110000  0.95016000  0.40356000  1.0
  C  C73  1  0.91078000  0.79338000  0.38718000  1.0
  C  C74  1  0.89886000  0.86144000  0.46630000  1.0
  C  C75  1  0.96307000  0.97752000  0.51828000  1.0
  C  C76  1  0.01740000  0.16255000  0.65044000  1.0
  C  C77  1  0.98779000  0.83731000  0.35477000  1.0
  C  C78  1  0.59783000  0.49620000  0.04745000  1.0
  C  C79  1  0.61310000  0.49612000  0.90459000  1.0
  C  C80  1  0.53298000  0.49685000  0.89350000  1.0
  C  C81  1  0.48158000  0.49664000  0.95892000  1.0
  C  C82  1  0.39818000  0.49592000  0.94854000  1.0
  C  C83  1  0.38287000  0.49587000  0.09135000  1.0
  C  C84  1  0.46384000  0.49685000  0.10328000  1.0
  C  C85  1  0.51507000  0.49677000  0.03770000  1.0
  C  C86  1  0.64581000  0.49554000  0.98214000  1.0
  C  C87  1  0.34955000  0.49523000  0.01320000  1.0
  C  C88  1  0.05139000  0.50399000  0.60171000  1.0
  C  C89  1  0.90858000  0.50407000  0.61705000  1.0
  C  C90  1  0.89675000  0.50330000  0.53619000  1.0
  C  C91  1  0.96232000  0.50340000  0.48496000  1.0
  C  C92  1  0.95256000  0.50400000  0.40223000  1.0
  C  C93  1  0.09556000  0.50430000  0.38710000  1.0
  C  C94  1  0.10657000  0.50342000  0.46713000  1.0
  C  C95  1  0.04105000  0.50343000  0.51840000  1.0
  C  C96  1  0.98672000  0.50464000  0.65033000  1.0
  C  C97  1  0.01793000  0.50473000  0.35430000  1.0
  C  C98  1  0.95214000  0.04963000  0.94779000  1.0
  C  C99  1  0.09402000  0.20644000  0.08936000  1.0
  C  C100  1  0.10567000  0.13840000  0.10197000  1.0
  C  C101  1  0.04109000  0.02251000  0.03743000  1.0
  C  C102  1  0.05220000  0.95045000  0.04790000  1.0
  C  C103  1  0.91048000  0.79364000  0.90616000  1.0
  C  C104  1  0.89788000  0.86168000  0.89447000  1.0
  C  C105  1  0.96255000  0.97755000  0.95893000  1.0
  C  C106  1  0.01665000  0.16212000  0.01144000  1.0
  C  C107  1  0.98847000  0.83793000  0.98346000  1.0
  C  C108  1  0.59731000  0.04943000  0.60183000  1.0
  C  C109  1  0.61234000  0.20622000  0.61694000  1.0
  C  C110  1  0.53266000  0.13818000  0.53624000  1.0
  C  C111  1  0.48130000  0.02233000  0.48502000  1.0
  C  C112  1  0.39809000  0.95021000  0.40250000  1.0
  C  C113  1  0.38288000  0.79339000  0.38756000  1.0
  C  C114  1  0.46353000  0.86148000  0.46731000  1.0
  C  C115  1  0.51481000  0.97736000  0.51861000  1.0
  C  C116  1  0.64534000  0.16193000  0.65064000  1.0
  C  C117  1  0.34928000  0.83772000  0.35452000  1.0
  O  O118  1  0.76357000  0.20388000  0.93506000  1.0
  O  O119  1  0.06503000  0.79610000  0.23638000  1.0
  O  O120  1  0.23119000  0.79609000  0.05964000  1.0
  O  O121  1  0.94028000  0.20384000  0.76891000  1.0
  O  O122  1  0.07137000  0.34131000  0.06614000  1.0
  O  O123  1  0.76991000  0.34125000  0.77502000  1.0
  O  O124  1  0.93380000  0.65866000  0.92860000  1.0
  O  O125  1  0.22497000  0.65848000  0.22996000  1.0
  O  O126  1  0.93892000  0.50378000  0.23480000  1.0
  O  O127  1  0.23102000  0.49622000  0.93516000  1.0
  O  O128  1  0.06488000  0.50371000  0.76887000  1.0
  O  O129  1  0.76522000  0.49636000  0.06116000  1.0
  O  O130  1  0.22511000  0.49653000  0.06925000  1.0
  O  O131  1  0.93083000  0.50351000  0.77489000  1.0
  O  O132  1  0.77148000  0.49654000  0.92734000  1.0
  O  O133  1  0.07272000  0.50347000  0.22858000  1.0
  O  O134  1  0.93759000  0.20315000  0.93313000  1.0
  O  O135  1  0.22994000  0.79656000  0.23434000  1.0
  O  O136  1  0.06683000  0.79678000  0.06236000  1.0
  O  O137  1  0.76554000  0.20316000  0.77003000  1.0
  O  O138  1  0.07277000  0.34278000  0.77558000  1.0
  O  O139  1  0.77017000  0.34293000  0.06734000  1.0
  O  O140  1  0.93271000  0.65716000  0.22988000  1.0
  O  O141  1  0.22454000  0.65717000  0.92718000  1.0
  O  O142  1  0.94140000  0.38247000  0.82426000  1.0
  O  O143  1  0.17576000  0.61754000  0.05857000  1.0
  O  O144  1  0.94184000  0.61744000  0.05882000  1.0
  O  O145  1  0.94111000  0.38249000  0.05819000  1.0
  O  O146  1  0.04308000  0.58710000  0.12920000  1.0
  O  O147  1  0.87076000  0.41288000  0.95694000  1.0
  O  O148  1  0.04409000  0.58707000  0.95783000  1.0
  O  O149  1  0.04212000  0.41295000  0.95594000  1.0
