# generated using pymatgen
data_Cu4H5C5SI4N
_symmetry_space_group_name_H-M   'P 1'
_cell_length_a   4.01684000
_cell_length_b   11.07940000
_cell_length_c   15.46090000
_cell_angle_alpha   93.91160000
_cell_angle_beta   91.64760000
_cell_angle_gamma   98.40020000
_symmetry_Int_Tables_number   1
_chemical_formula_structural   Cu4H5C5SI4N
_chemical_formula_sum   'Cu8 H10 C10 S2 I8 N2'
_cell_volume   678.58441907
_cell_formula_units_Z   2
loop_
 _symmetry_equiv_pos_site_id
 _symmetry_equiv_pos_as_xyz
  1  'x, y, z'
loop_
 _atom_site_type_symbol
 _atom_site_label
 _atom_site_symmetry_multiplicity
 _atom_site_fract_x
 _atom_site_fract_y
 _atom_site_fract_z
 _atom_site_occupancy
  Cu  Cu0  1  0.78004000  0.57694000  0.48392000  1.0
  Cu  Cu1  1  0.21998000  0.42306000  0.51608000  1.0
  Cu  Cu2  1  0.87022000  0.71165000  0.65161000  1.0
  Cu  Cu3  1  0.12979000  0.28834000  0.34839000  1.0
  Cu  Cu4  1  0.42470000  0.69344000  0.85754000  1.0
  Cu  Cu5  1  0.57532000  0.30656000  0.14245000  1.0
  Cu  Cu6  1  0.76577000  0.55927000  0.96326000  1.0
  Cu  Cu7  1  0.23425000  0.44072000  0.03674000  1.0
  H  H8  1  0.45793000  0.91890000  0.86787000  1.0
  H  H9  1  0.54207000  0.08110000  0.13213000  1.0
  H  H10  1  0.48445000  0.95480000  0.60097000  1.0
  H  H11  1  0.51556000  0.04520000  0.39903000  1.0
  H  H12  1  0.58932000  0.18050000  0.62969000  1.0
  H  H13  1  0.41070000  0.81950000  0.37031000  1.0
  H  H14  1  0.62088000  0.27355000  0.78365000  1.0
  H  H15  1  0.37905000  0.72645000  0.21634000  1.0
  H  H16  1  0.54479000  0.12974000  0.90453000  1.0
  H  H17  1  0.45514000  0.87026000  0.09547000  1.0
  C  C18  1  0.46525000  0.92019000  0.73615000  1.0
  C  C19  1  0.53478000  0.07981000  0.26385000  1.0
  C  C20  1  0.50071000  0.99630000  0.66707000  1.0
  C  C21  1  0.49933000  0.00369000  0.33293000  1.0
  C  C22  1  0.55865000  0.12244000  0.68391000  1.0
  C  C23  1  0.44131000  0.87756000  0.31609000  1.0
  C  C24  1  0.57725000  0.17488000  0.76949000  1.0
  C  C25  1  0.42273000  0.82512000  0.23051000  1.0
  C  C26  1  0.53715000  0.09859000  0.83614000  1.0
  C  C27  1  0.46284000  0.90142000  0.16386000  1.0
  S  S28  1  0.39904000  0.76043000  0.72396000  1.0
  S  S29  1  0.60098000  0.23957000  0.27604000  1.0
  I  I30  1  0.74947000  0.47218000  0.63137000  1.0
  I  I31  1  0.25056000  0.52782000  0.36864000  1.0
  I  I32  1  0.91167000  0.81314000  0.50576000  1.0
  I  I33  1  0.08836000  0.18685000  0.49424000  1.0
  I  I34  1  0.93963000  0.79960000  0.95751000  1.0
  I  I35  1  0.06037000  0.20040000  0.04249000  1.0
  I  I36  1  0.22038000  0.46224000  0.86749000  1.0
  I  I37  1  0.77963000  0.53776000  0.13252000  1.0
  N  N38  1  0.48472000  0.97595000  0.81793000  1.0
  N  N39  1  0.51525000  0.02405000  0.18207000  1.0
