# generated using pymatgen
data_CdH3C2N9O
_symmetry_space_group_name_H-M   'P 1'
_cell_length_a   6.60495000
_cell_length_b   9.87813000
_cell_length_c   10.63960000
_cell_angle_alpha   90.00000000
_cell_angle_beta   97.10010000
_cell_angle_gamma   90.00000000
_symmetry_Int_Tables_number   1
_chemical_formula_structural   CdH3C2N9O
_chemical_formula_sum   'Cd4 H12 C8 N36 O4'
_cell_volume   688.85283048
_cell_formula_units_Z   4
loop_
 _symmetry_equiv_pos_site_id
 _symmetry_equiv_pos_as_xyz
  1  'x, y, z'
loop_
 _atom_site_type_symbol
 _atom_site_label
 _atom_site_symmetry_multiplicity
 _atom_site_fract_x
 _atom_site_fract_y
 _atom_site_fract_z
 _atom_site_occupancy
  Cd  Cd0  1  0.53449000  0.16357000  0.87338000  1.0
  Cd  Cd1  1  0.96551000  0.66357000  0.62662000  1.0
  Cd  Cd2  1  0.46551000  0.83643000  0.12662000  1.0
  Cd  Cd3  1  0.03449000  0.33643000  0.37338000  1.0
  H  H4  1  0.24204000  0.48095000  0.13104000  1.0
  H  H5  1  0.25796000  0.98095000  0.36896000  1.0
  H  H6  1  0.75796000  0.51905000  0.86896000  1.0
  H  H7  1  0.74204000  0.01905000  0.63104000  1.0
  H  H8  1  0.83920000  0.27845000  0.04242000  1.0
  H  H9  1  0.66080000  0.77845000  0.45758000  1.0
  H  H10  1  0.16080000  0.72155000  0.95758000  1.0
  H  H11  1  0.33920000  0.22155000  0.54242000  1.0
  H  H12  1  0.83496000  0.12733000  0.08994000  1.0
  H  H13  1  0.66504000  0.62733000  0.41006000  1.0
  H  H14  1  0.16504000  0.87267000  0.91006000  1.0
  H  H15  1  0.33496000  0.37267000  0.58994000  1.0
  C  C16  1  0.29461000  0.27674000  0.11419000  1.0
  C  C17  1  0.20539000  0.77674000  0.38581000  1.0
  C  C18  1  0.70539000  0.72326000  0.88581000  1.0
  C  C19  1  0.79461000  0.22326000  0.61419000  1.0
  C  C20  1  0.27694000  0.44244000  0.94461000  1.0
  C  C21  1  0.22306000  0.94244000  0.55539000  1.0
  C  C22  1  0.72306000  0.55756000  0.05539000  1.0
  C  C23  1  0.77694000  0.05756000  0.44461000  1.0
  N  N24  1  0.36890000  0.16878000  0.05749000  1.0
  N  N25  1  0.13110000  0.66879000  0.44251000  1.0
  N  N26  1  0.63109000  0.83122000  0.94251000  1.0
  N  N27  1  0.86891000  0.33122000  0.55749000  1.0
  N  N28  1  0.31660000  0.44552000  0.74747000  1.0
  N  N29  1  0.18340000  0.94552000  0.75253000  1.0
  N  N30  1  0.68340000  0.55448000  0.25253000  1.0
  N  N31  1  0.81660000  0.05448000  0.24747000  1.0
  N  N32  1  0.23862000  0.24112000  0.22740000  1.0
  N  N33  1  0.26138000  0.74112000  0.27260000  1.0
  N  N34  1  0.76138000  0.75888000  0.77260000  1.0
  N  N35  1  0.73862000  0.25888000  0.72740000  1.0
  N  N36  1  0.35774000  0.06601000  0.13984000  1.0
  N  N37  1  0.14226000  0.56601000  0.36016000  1.0
  N  N38  1  0.64226000  0.93399000  0.86016000  1.0
  N  N39  1  0.85774000  0.43399000  0.63984000  1.0
  N  N40  1  0.28293000  0.10845000  0.24054000  1.0
  N  N41  1  0.21708000  0.60845000  0.25946000  1.0
  N  N42  1  0.71707000  0.89155000  0.75946000  1.0
  N  N43  1  0.78293000  0.39155000  0.74054000  1.0
  N  N44  1  0.22913000  0.55885000  0.77493000  1.0
  N  N45  1  0.27087000  0.05885000  0.72507000  1.0
  N  N46  1  0.77087000  0.44115000  0.22507000  1.0
  N  N47  1  0.72913000  0.94115000  0.27493000  1.0
  N  N48  1  0.35148000  0.36966000  0.85335000  1.0
  N  N49  1  0.14852000  0.86966000  0.64665000  1.0
  N  N50  1  0.64852000  0.63034000  0.14664000  1.0
  N  N51  1  0.85148000  0.13035000  0.35335000  1.0
  N  N52  1  0.20066000  0.56102000  0.89838000  1.0
  N  N53  1  0.29934000  0.06102000  0.60162000  1.0
  N  N54  1  0.79934000  0.43898000  0.10162000  1.0
  N  N55  1  0.70066000  0.93898000  0.39838000  1.0
  N  N56  1  0.27636000  0.40582000  0.06859000  1.0
  N  N57  1  0.22364000  0.90582000  0.43141000  1.0
  N  N58  1  0.72364000  0.59418000  0.93141000  1.0
  N  N59  1  0.77636000  0.09418000  0.56859000  1.0
  O  O60  1  0.83806000  0.18248000  0.01180000  1.0
  O  O61  1  0.66194000  0.68248000  0.48820000  1.0
  O  O62  1  0.16194000  0.81752000  0.98820000  1.0
  O  O63  1  0.33806000  0.31752000  0.51180000  1.0
