# generated using pymatgen
data_Zn4H10C28S2Br4O13
_symmetry_space_group_name_H-M   'P 1'
_cell_length_a   18.55020000
_cell_length_b   19.71850000
_cell_length_c   32.75000000
_cell_angle_alpha   85.97150000
_cell_angle_beta   73.62960000
_cell_angle_gamma   62.07780000
_symmetry_Int_Tables_number   1
_chemical_formula_structural   Zn4H10C28S2Br4O13
_chemical_formula_sum   'Zn16 H40 C112 S8 Br16 O52'
_cell_volume   10128.71100023
_cell_formula_units_Z   4
loop_
 _symmetry_equiv_pos_site_id
 _symmetry_equiv_pos_as_xyz
  1  'x, y, z'
loop_
 _atom_site_type_symbol
 _atom_site_label
 _atom_site_symmetry_multiplicity
 _atom_site_fract_x
 _atom_site_fract_y
 _atom_site_fract_z
 _atom_site_occupancy
  Zn  Zn0  1  0.87293000  0.55458000  0.51847000  1.0
  Zn  Zn1  1  0.03857000  0.48392000  0.43873000  1.0
  Zn  Zn2  1  0.04368000  0.39864000  0.52375000  1.0
  Zn  Zn3  1  0.04474000  0.56225000  0.51789000  1.0
  Zn  Zn4  1  0.62563000  0.19244000  0.73315000  1.0
  Zn  Zn5  1  0.46436000  0.34977000  0.72509000  1.0
  Zn  Zn6  1  0.45598000  0.26602000  0.81258000  1.0
  Zn  Zn7  1  0.45579000  0.19148000  0.72823000  1.0
  Zn  Zn8  1  0.46324000  0.76194000  0.31268000  1.0
  Zn  Zn9  1  0.45363000  0.69110000  0.23167000  1.0
  Zn  Zn10  1  0.62571000  0.69389000  0.22913000  1.0
  Zn  Zn11  1  0.45586000  0.85217000  0.22701000  1.0
  Zn  Zn12  1  0.03610000  0.90011000  0.02505000  1.0
  Zn  Zn13  1  0.05172000  0.05584000  0.01814000  1.0
  Zn  Zn14  1  0.87607000  0.05954000  0.02001000  1.0
  Zn  Zn15  1  0.03831000  0.98383000  0.93718000  1.0
  H  H16  1  0.81087000  0.24318000  0.65418000  1.0
  H  H17  1  0.54539000  0.48570000  0.62000000  1.0
  H  H18  1  0.55108000  0.52593000  0.66530000  1.0
  H  H19  1  0.65226000  0.56901000  0.61692000  1.0
  H  H20  1  0.64638000  0.52893000  0.57167000  1.0
  H  H21  1  0.29358000  0.60256000  0.29595000  1.0
  H  H22  1  0.34958000  0.67319000  0.43497000  1.0
  H  H23  1  0.25956000  0.76157000  0.43199000  1.0
  H  H24  1  0.16203000  0.71213000  0.47754000  1.0
  H  H25  1  0.25190000  0.62379000  0.48053000  1.0
  H  H26  1  0.80989000  0.60181000  0.29496000  1.0
  H  H27  1  0.54868000  0.76176000  0.43020000  1.0
  H  H28  1  0.54309000  0.67372000  0.43297000  1.0
  H  H29  1  0.64323000  0.62384000  0.47919000  1.0
  H  H30  1  0.64900000  0.71175000  0.47642000  1.0
  H  H31  1  0.30841000  0.45633000  0.64645000  1.0
  H  H32  1  0.32819000  0.17993000  0.62949000  1.0
  H  H33  1  0.23764000  0.22060000  0.67490000  1.0
  H  H34  1  0.14206000  0.27408000  0.62628000  1.0
  H  H35  1  0.23277000  0.23352000  0.58101000  1.0
  H  H36  1  0.69071000  0.14714000  0.95592000  1.0
  H  H37  1  0.95400000  0.07768000  0.81644000  1.0
  H  H38  1  0.94891000  0.98942000  0.81896000  1.0
  H  H39  1  0.84662000  0.04029000  0.77385000  1.0
  H  H40  1  0.85177000  0.12847000  0.77144000  1.0
  H  H41  1  0.19276000  0.05182000  0.84401000  1.0
  H  H42  1  0.17067000  0.21501000  0.97485000  1.0
  H  H43  1  0.26180000  0.12707000  0.97707000  1.0
  H  H44  1  0.35657000  0.17426000  0.92638000  1.0
  H  H45  1  0.26547000  0.26210000  0.92424000  1.0
  H  H46  1  0.19304000  0.79434000  0.10324000  1.0
  H  H47  1  0.26147000  0.03168000  0.07488000  1.0
  H  H48  1  0.17038000  0.07187000  0.12011000  1.0
  H  H49  1  0.26532000  0.01938000  0.16890000  1.0
  H  H50  1  0.35640000  0.97930000  0.12376000  1.0
  H  H51  1  0.68895000  0.00751000  0.09649000  1.0
  H  H52  1  0.94916000  0.72457000  0.08486000  1.0
  H  H53  1  0.95395000  0.76453000  0.13056000  1.0
  H  H54  1  0.85276000  0.72103000  0.17814000  1.0
  H  H55  1  0.84819000  0.68066000  0.13257000  1.0
  C  C56  1  0.86276000  0.56755000  0.43044000  1.0
  C  C57  1  0.12474000  0.31530000  0.43872000  1.0
  C  C58  1  0.86567000  0.42751000  0.56829000  1.0
  C  C59  1  0.13882000  0.43513000  0.56817000  1.0
  C  C60  1  0.87169000  0.68415000  0.56051000  1.0
  C  C61  1  0.13733000  0.56911000  0.43082000  1.0
  C  C62  1  0.63932000  0.31841000  0.68154000  1.0
  C  C63  1  0.37685000  0.43530000  0.80982000  1.0
  C  C64  1  0.63329000  0.18268000  0.82130000  1.0
  C  C65  1  0.36148000  0.18040000  0.81674000  1.0
  C  C66  1  0.62733000  0.06574000  0.68856000  1.0
  C  C67  1  0.36333000  0.31859000  0.68036000  1.0
  C  C68  1  0.36298000  0.68059000  0.32000000  1.0
  C  C69  1  0.62317000  0.56567000  0.18878000  1.0
  C  C70  1  0.63835000  0.68068000  0.31845000  1.0
  C  C71  1  0.63383000  0.82162000  0.18057000  1.0
  C  C72  1  0.37565000  0.93175000  0.31320000  1.0
  C  C73  1  0.36137000  0.81741000  0.18142000  1.0
  C  C74  1  0.13870000  0.93123000  0.06867000  1.0
  C  C75  1  0.88300000  0.18385000  0.06115000  1.0
  C  C76  1  0.86081000  0.93272000  0.06964000  1.0
  C  C77  1  0.86232000  0.06885000  0.93135000  1.0
  C  C78  1  0.12160000  0.81462000  0.94014000  1.0
  C  C79  1  0.13943000  0.06712000  0.93011000  1.0
  C  C80  1  0.73394000  0.80436000  0.60111000  1.0
  C  C81  1  0.76477000  0.94465000  0.64890000  1.0
  C  C82  1  0.82141000  0.75862000  0.58581000  1.0
  C  C83  1  0.67729000  0.99073000  0.66390000  1.0
  C  C84  1  0.78549000  0.87677000  0.62597000  1.0
  C  C85  1  0.71313000  0.87223000  0.62408000  1.0
  C  C86  1  0.20242000  0.22531000  0.36941000  1.0
  C  C87  1  0.29802000  0.02142000  0.38280000  1.0
  C  C88  1  0.17398000  0.24107000  0.41345000  1.0
  C  C89  1  0.32646000  0.00571000  0.33878000  1.0
  C  C90  1  0.25280000  0.10144000  0.39407000  1.0
  C  C91  1  0.24766000  0.14523000  0.35828000  1.0
  C  C92  1  0.69662000  0.34616000  0.65299000  1.0
  C  C93  1  0.81170000  0.39664000  0.59734000  1.0
  C  C94  1  0.66706000  0.41796000  0.63620000  1.0
  C  C95  1  0.84119000  0.32364000  0.61486000  1.0
  C  C96  1  0.72308000  0.44157000  0.60946000  1.0
  C  C97  1  0.78537000  0.29964000  0.64162000  1.0
  C  C98  1  0.58866000  0.49202000  0.63459000  1.0
  C  C99  1  0.65189000  0.51905000  0.60432000  1.0
  C  C100  1  0.30580000  0.65255000  0.34823000  1.0
  C  C101  1  0.19387000  0.59645000  0.40109000  1.0
  C  C102  1  0.27970000  0.66410000  0.39255000  1.0
  C  C103  1  0.22075000  0.58509000  0.35578000  1.0
  C  C104  1  0.22567000  0.63690000  0.41763000  1.0
  C  C105  1  0.27475000  0.61235000  0.33050000  1.0
  C  C106  1  0.28570000  0.69870000  0.43054000  1.0
  C  C107  1  0.22459000  0.66779000  0.45907000  1.0
  C  C108  1  0.69523000  0.65234000  0.34680000  1.0
  C  C109  1  0.80918000  0.59535000  0.40039000  1.0
  C  C110  1  0.66505000  0.66385000  0.39114000  1.0
  C  C111  1  0.83937000  0.58423000  0.35507000  1.0
  C  C112  1  0.72054000  0.63616000  0.41658000  1.0
  C  C113  1  0.78396000  0.61183000  0.32947000  1.0
  C  C114  1  0.58626000  0.69886000  0.42884000  1.0
  C  C115  1  0.64897000  0.66759000  0.45778000  1.0
  C  C116  1  0.30564000  0.34822000  0.65239000  1.0
  C  C117  1  0.19555000  0.40909000  0.59679000  1.0
  C  C118  1  0.27158000  0.30643000  0.63959000  1.0
  C  C119  1  0.23042000  0.45138000  0.61020000  1.0
  C  C120  1  0.21869000  0.33632000  0.61283000  1.0
  C  C121  1  0.28331000  0.42178000  0.63702000  1.0
  C  C122  1  0.26728000  0.23137000  0.64275000  1.0
  C  C123  1  0.20745000  0.26490000  0.61241000  1.0
  C  C124  1  0.29802000  0.58447000  0.82051000  1.0
  C  C125  1  0.20160000  0.66541000  0.92953000  1.0
  C  C126  1  0.32743000  0.51044000  0.83435000  1.0
  C  C127  1  0.17177000  0.73944000  0.91566000  1.0
  C  C128  1  0.24756000  0.60887000  0.89488000  1.0
  C  C129  1  0.25210000  0.64096000  0.85516000  1.0
  C  C130  1  0.80445000  0.09727000  0.90339000  1.0
  C  C131  1  0.68781000  0.15488000  0.85102000  1.0
  C  C132  1  0.83313000  0.08638000  0.85903000  1.0
  C  C133  1  0.65920000  0.16517000  0.89634000  1.0
  C  C134  1  0.77641000  0.11451000  0.83420000  1.0
  C  C135  1  0.71572000  0.13748000  0.92137000  1.0
  C  C136  1  0.91097000  0.05233000  0.82082000  1.0
  C  C137  1  0.84698000  0.08412000  0.79259000  1.0
  C  C138  1  0.19538000  0.09610000  0.90141000  1.0
  C  C139  1  0.30412000  0.15097000  0.84377000  1.0
  C  C140  1  0.22826000  0.13695000  0.91631000  1.0
  C  C141  1  0.26968000  0.10972000  0.82889000  1.0
  C  C142  1  0.28050000  0.16306000  0.88824000  1.0
  C  C143  1  0.21746000  0.08331000  0.85685000  1.0
  C  C144  1  0.23189000  0.16981000  0.95568000  1.0
  C  C145  1  0.29122000  0.19934000  0.92399000  1.0
  C  C146  1  0.64500000  0.44576000  0.14866000  1.0
  C  C147  1  0.86231000  0.30379000  0.10100000  1.0
  C  C148  1  0.67256000  0.49111000  0.16369000  1.0
  C  C149  1  0.83452000  0.25856000  0.08604000  1.0
  C  C150  1  0.79336000  0.37215000  0.12380000  1.0
  C  C151  1  0.71417000  0.37759000  0.12580000  1.0
  C  C152  1  0.19538000  0.90258000  0.09707000  1.0
  C  C153  1  0.30462000  0.84322000  0.15293000  1.0
  C  C154  1  0.22847000  0.94519000  0.10996000  1.0
  C  C155  1  0.27051000  0.80017000  0.13953000  1.0
  C  C156  1  0.28087000  0.91603000  0.13695000  1.0
  C  C157  1  0.21783000  0.82921000  0.11261000  1.0
  C  C158  1  0.23173000  0.02074000  0.10695000  1.0
  C  C159  1  0.29118000  0.98791000  0.13750000  1.0
  C  C160  1  0.80334000  0.90442000  0.09753000  1.0
  C  C161  1  0.68797000  0.85279000  0.15193000  1.0
  C  C162  1  0.83275000  0.83222000  0.11387000  1.0
  C  C163  1  0.65861000  0.92612000  0.13473000  1.0
  C  C164  1  0.77663000  0.80811000  0.14008000  1.0
  C  C165  1  0.71452000  0.95074000  0.10868000  1.0
  C  C166  1  0.91113000  0.75825000  0.11560000  1.0
  C  C167  1  0.84785000  0.73081000  0.14539000  1.0
  S  S168  1  0.87842000  0.79862000  0.59965000  1.0
  S  S169  1  0.62022000  0.95077000  0.65005000  1.0
  S  S170  1  0.20267000  0.15790000  0.44122000  1.0
  S  S171  1  0.29782000  0.08895000  0.31110000  1.0
  S  S172  1  0.29898000  0.51002000  0.88989000  1.0
  S  S173  1  0.20020000  0.73980000  0.86012000  1.0
  S  S174  1  0.78327000  0.45030000  0.14971000  1.0
  S  S175  1  0.72385000  0.29971000  0.09993000  1.0
  Br  Br176  1  0.64880000  0.78405000  0.59379000  1.0
  Br  Br177  1  0.84992000  0.96503000  0.65605000  1.0
  Br  Br178  1  0.18699000  0.29635000  0.32730000  1.0
  Br  Br179  1  0.31385000  0.94991000  0.42477000  1.0
  Br  Br180  1  0.31301000  0.61241000  0.76391000  1.0
  Br  Br181  1  0.18662000  0.63756000  0.98615000  1.0
  Br  Br182  1  0.53236000  0.46679000  0.15564000  1.0
  Br  Br183  1  0.97538000  0.28209000  0.09367000  1.0
  Br  Br184  1  0.95851000  0.25031000  0.60438000  1.0
  Br  Br185  1  0.18597000  0.53383000  0.32423000  1.0
  Br  Br186  1  0.95673000  0.53145000  0.32388000  1.0
  Br  Br187  1  0.21034000  0.55195000  0.59329000  1.0
  Br  Br188  1  0.54208000  0.21708000  0.92816000  1.0
  Br  Br189  1  0.28872000  0.08676000  0.76995000  1.0
  Br  Br190  1  0.29057000  0.69983000  0.15668000  1.0
  Br  Br191  1  0.54126000  0.99885000  0.14454000  1.0
  O  O192  1  0.99806000  0.50076000  0.50110000  1.0
  O  O193  1  0.82276000  0.58219000  0.47026000  1.0
  O  O194  1  0.10111000  0.37549000  0.41821000  1.0
  O  O195  1  0.94587000  0.38603000  0.55797000  1.0
  O  O196  1  0.94293000  0.53179000  0.41463000  1.0
  O  O197  1  0.82506000  0.49464000  0.55607000  1.0
  O  O198  1  0.10993000  0.31246000  0.47930000  1.0
  O  O199  1  0.11806000  0.38577000  0.55908000  1.0
  O  O200  1  0.95246000  0.65801000  0.55065000  1.0
  O  O201  1  0.11563000  0.50241000  0.55520000  1.0
  O  O202  1  0.83166000  0.65292000  0.55083000  1.0
  O  O203  1  0.11763000  0.52500000  0.41531000  1.0
  O  O204  1  0.11363000  0.59218000  0.47024000  1.0
  O  O205  1  0.50074000  0.24973000  0.74995000  1.0
  O  O206  1  0.67408000  0.25236000  0.69579000  1.0
  O  O207  1  0.40015000  0.43535000  0.76934000  1.0
  O  O208  1  0.55306000  0.21996000  0.83678000  1.0
  O  O209  1  0.55967000  0.36393000  0.68918000  1.0
  O  O210  1  0.67377000  0.16598000  0.78159000  1.0
  O  O211  1  0.39183000  0.37638000  0.83188000  1.0
  O  O212  1  0.37928000  0.22155000  0.83671000  1.0
  O  O213  1  0.54655000  0.09493000  0.69590000  1.0
  O  O214  1  0.38859000  0.16250000  0.77684000  1.0
  O  O215  1  0.66745000  0.09482000  0.70026000  1.0
  O  O216  1  0.38861000  0.36350000  0.69034000  1.0
  O  O217  1  0.38271000  0.25033000  0.69181000  1.0
  O  O218  1  0.50084000  0.75028000  0.25014000  1.0
  O  O219  1  0.38843000  0.71651000  0.33859000  1.0
  O  O220  1  0.54260000  0.59365000  0.20016000  1.0
  O  O221  1  0.67323000  0.66789000  0.27827000  1.0
  O  O222  1  0.38161000  0.66654000  0.27988000  1.0
  O  O223  1  0.55875000  0.71565000  0.33742000  1.0
  O  O224  1  0.66637000  0.59549000  0.19695000  1.0
  O  O225  1  0.67412000  0.75309000  0.19127000  1.0
  O  O226  1  0.39122000  0.93586000  0.27268000  1.0
  O  O227  1  0.55377000  0.86416000  0.19218000  1.0
  O  O228  1  0.39823000  0.87094000  0.33328000  1.0
  O  O229  1  0.38741000  0.74890000  0.19267000  1.0
  O  O230  1  0.37971000  0.86744000  0.19209000  1.0
  O  O231  1  0.00068000  0.99999000  0.99979000  1.0
  O  O232  1  0.11070000  0.88740000  0.06023000  1.0
  O  O233  1  0.96378000  0.15329000  0.05071000  1.0
  O  O234  1  0.82636000  0.00055000  0.05733000  1.0
  O  O235  1  0.12301000  0.99775000  0.05527000  1.0
  O  O236  1  0.94036000  0.88591000  0.06047000  1.0
  O  O237  1  0.83829000  0.15637000  0.05227000  1.0
  O  O238  1  0.82781000  0.08534000  0.97141000  1.0
  O  O239  1  0.10329000  0.87353000  0.91793000  1.0
  O  O240  1  0.94179000  0.03034000  0.91256000  1.0
  O  O241  1  0.10095000  0.81472000  0.98065000  1.0
  O  O242  1  0.12246000  0.08218000  0.97003000  1.0
  O  O243  1  0.11339000  0.03023000  0.91273000  1.0
