# generated using pymatgen
data_Cd3H16C28(N5O4)2
_symmetry_space_group_name_H-M   'P 1'
_cell_length_a   9.66668000
_cell_length_b   10.30190000
_cell_length_c   15.24860000
_cell_angle_alpha   90.00000000
_cell_angle_beta   92.75110000
_cell_angle_gamma   89.99990000
_symmetry_Int_Tables_number   1
_chemical_formula_structural   Cd3H16C28(N5O4)2
_chemical_formula_sum   'Cd6 H32 C56 N20 O16'
_cell_volume   1516.78427001
_cell_formula_units_Z   2
loop_
 _symmetry_equiv_pos_site_id
 _symmetry_equiv_pos_as_xyz
  1  'x, y, z'
loop_
 _atom_site_type_symbol
 _atom_site_label
 _atom_site_symmetry_multiplicity
 _atom_site_fract_x
 _atom_site_fract_y
 _atom_site_fract_z
 _atom_site_occupancy
  Cd  Cd0  1  0.13853000  0.62336000  0.04383000  1.0
  Cd  Cd1  1  0.86147000  0.12336000  0.45617000  1.0
  Cd  Cd2  1  0.86147000  0.37664000  0.95617000  1.0
  Cd  Cd3  1  0.13853000  0.87664000  0.54383000  1.0
  Cd  Cd4  1  0.50000000  0.50000000  0.00000000  1.0
  Cd  Cd5  1  0.50000000  0.00000000  0.50000000  1.0
  H  H6  1  0.79493000  0.15150000  0.65732000  1.0
  H  H7  1  0.20507000  0.65150000  0.84268000  1.0
  H  H8  1  0.20507000  0.84850000  0.34268000  1.0
  H  H9  1  0.79493000  0.34850000  0.15732000  1.0
  H  H10  1  0.89633000  0.22436000  0.80033000  1.0
  H  H11  1  0.10367000  0.72436000  0.69967000  1.0
  H  H12  1  0.10367000  0.77564000  0.19967000  1.0
  H  H13  1  0.89633000  0.27564000  0.30033000  1.0
  H  H14  1  0.24688000  0.37079000  0.66332000  1.0
  H  H15  1  0.75312000  0.87079000  0.83668000  1.0
  H  H16  1  0.75312000  0.62921000  0.33668000  1.0
  H  H17  1  0.24688000  0.12921000  0.16332000  1.0
  H  H18  1  0.13323000  0.28241000  0.52541000  1.0
  H  H19  1  0.86677000  0.78241000  0.97459000  1.0
  H  H20  1  0.86677000  0.71759000  0.47459000  1.0
  H  H21  1  0.13323000  0.21759000  0.02541000  1.0
  H  H22  1  0.43927000  0.64119000  0.73433000  1.0
  H  H23  1  0.56073000  0.14119000  0.76567000  1.0
  H  H24  1  0.56073000  0.35881000  0.26567000  1.0
  H  H25  1  0.43927000  0.85881000  0.23433000  1.0
  H  H26  1  0.83530000  0.47941000  0.68109000  1.0
  H  H27  1  0.16470000  0.97941000  0.81891000  1.0
  H  H28  1  0.16470000  0.52059000  0.31891000  1.0
  H  H29  1  0.83530000  0.02059000  0.18109000  1.0
  H  H30  1  0.79297000  0.52562000  0.52124000  1.0
  H  H31  1  0.20703000  0.02562000  0.97876000  1.0
  H  H32  1  0.20703000  0.47438000  0.47876000  1.0
  H  H33  1  0.79297000  0.97439000  0.02124000  1.0
  H  H34  1  0.57898000  0.64738000  0.47028000  1.0
  H  H35  1  0.42102000  0.14738000  0.02972000  1.0
  H  H36  1  0.42102000  0.35262000  0.52972000  1.0
  H  H37  1  0.57897000  0.85262000  0.97028000  1.0
  C  C38  1  0.89625000  0.19824000  0.66143000  1.0
  C  C39  1  0.10375000  0.69824000  0.83857000  1.0
  C  C40  1  0.10375000  0.80176000  0.33857000  1.0
  C  C41  1  0.89625000  0.30176000  0.16143000  1.0
  C  C42  1  0.95341000  0.24105000  0.74158000  1.0
  C  C43  1  0.04659000  0.74105000  0.75842000  1.0
  C  C44  1  0.04659000  0.75895000  0.25842000  1.0
  C  C45  1  0.95341000  0.25895000  0.24158000  1.0
  C  C46  1  0.08182000  0.30452000  0.74364000  1.0
  C  C47  1  0.91818000  0.80452000  0.75636000  1.0
  C  C48  1  0.91818000  0.69548000  0.25636000  1.0
  C  C49  1  0.08182000  0.19548000  0.24364000  1.0
  C  C50  1  0.14763000  0.32094000  0.66445000  1.0
  C  C51  1  0.85237000  0.82094000  0.83555000  1.0
  C  C52  1  0.85237000  0.67906000  0.33555000  1.0
  C  C53  1  0.14763000  0.17906000  0.16445000  1.0
  C  C54  1  0.08392000  0.27300000  0.58769000  1.0
  C  C55  1  0.91608000  0.77300000  0.91231000  1.0
  C  C56  1  0.91608000  0.72700000  0.41231000  1.0
  C  C57  1  0.08392000  0.22700000  0.08769000  1.0
  C  C58  1  0.14714000  0.35629000  0.82455000  1.0
  C  C59  1  0.85286000  0.85629000  0.67545000  1.0
  C  C60  1  0.85286000  0.64371000  0.17545000  1.0
  C  C61  1  0.14714000  0.14371000  0.32455000  1.0
  C  C62  1  0.49623000  0.65024000  0.59897000  1.0
  C  C63  1  0.50377000  0.15024000  0.90103000  1.0
  C  C64  1  0.50377000  0.34976000  0.40103000  1.0
  C  C65  1  0.49623000  0.84976000  0.09897000  1.0
  C  C66  1  0.51760000  0.61817000  0.68772000  1.0
  C  C67  1  0.48240000  0.11816000  0.81228000  1.0
  C  C68  1  0.48240000  0.38184000  0.31228000  1.0
  C  C69  1  0.51759000  0.88183000  0.18772000  1.0
  C  C70  1  0.74054000  0.52732000  0.65706000  1.0
  C  C71  1  0.25947000  0.02732000  0.84294000  1.0
  C  C72  1  0.25946000  0.47268000  0.34294000  1.0
  C  C73  1  0.74053000  0.97268000  0.15706000  1.0
  C  C74  1  0.71760000  0.55591000  0.56814000  1.0
  C  C75  1  0.28240000  0.05591000  0.93186000  1.0
  C  C76  1  0.28240000  0.44409000  0.43186000  1.0
  C  C77  1  0.71760000  0.94409000  0.06814000  1.0
  C  C78  1  0.59737000  0.62101000  0.53913000  1.0
  C  C79  1  0.40263000  0.12101000  0.96087000  1.0
  C  C80  1  0.40263000  0.37899000  0.46087000  1.0
  C  C81  1  0.59737000  0.87899000  0.03913000  1.0
  C  C82  1  0.36617000  0.71734000  0.56918000  1.0
  C  C83  1  0.63383000  0.21733000  0.93082000  1.0
  C  C84  1  0.63383000  0.28267000  0.43082000  1.0
  C  C85  1  0.36617000  0.78266000  0.06918000  1.0
  C  C86  1  0.66845000  0.53008000  0.81371000  1.0
  C  C87  1  0.33155000  0.03008000  0.68629000  1.0
  C  C88  1  0.33155000  0.46992000  0.18629000  1.0
  C  C89  1  0.66845000  0.96991000  0.31371000  1.0
  C  C90  1  0.64144000  0.55980000  0.71764000  1.0
  C  C91  1  0.35856000  0.05980000  0.78236000  1.0
  C  C92  1  0.35856000  0.44020000  0.28236000  1.0
  C  C93  1  0.64144000  0.94020000  0.21764000  1.0
  N  N94  1  0.08130000  0.38702000  0.89796000  1.0
  N  N95  1  0.91870000  0.88702000  0.60204000  1.0
  N  N96  1  0.91870000  0.61298000  0.10204000  1.0
  N  N97  1  0.08130000  0.11298000  0.39796000  1.0
  N  N98  1  0.17863000  0.43643000  0.95346000  1.0
  N  N99  1  0.82137000  0.93643000  0.54655000  1.0
  N  N100  1  0.82137000  0.56357000  0.04654000  1.0
  N  N101  1  0.17863000  0.06357000  0.45345000  1.0
  N  N102  1  0.29886000  0.43449000  0.91497000  1.0
  N  N103  1  0.70114000  0.93449000  0.58503000  1.0
  N  N104  1  0.70114000  0.56551000  0.08503000  1.0
  N  N105  1  0.29886000  0.06551000  0.41497000  1.0
  N  N106  1  0.28308000  0.38573000  0.83454000  1.0
  N  N107  1  0.71692000  0.88573000  0.66546000  1.0
  N  N108  1  0.71692000  0.61427000  0.16546000  1.0
  N  N109  1  0.28308000  0.11427000  0.33454000  1.0
  N  N110  1  0.96032000  0.21272000  0.58556000  1.0
  N  N111  1  0.03968000  0.71272000  0.91444000  1.0
  N  N112  1  0.03968000  0.78728000  0.41444000  1.0
  N  N113  1  0.96032000  0.28728000  0.08556000  1.0
  O  O114  1  0.37130000  0.80742000  0.51044000  1.0
  O  O115  1  0.62870000  0.30742000  0.98956000  1.0
  O  O116  1  0.62870000  0.19258000  0.48956000  1.0
  O  O117  1  0.37130000  0.69258000  0.01044000  1.0
  O  O118  1  0.25300000  0.68633000  0.60253000  1.0
  O  O119  1  0.74700000  0.18633000  0.89747000  1.0
  O  O120  1  0.74700000  0.31367000  0.39747000  1.0
  O  O121  1  0.25300000  0.81367000  0.10253000  1.0
  O  O122  1  0.57830000  0.56508000  0.86677000  1.0
  O  O123  1  0.42170000  0.06509000  0.63323000  1.0
  O  O124  1  0.42170000  0.43492000  0.13323000  1.0
  O  O125  1  0.57830000  0.93491000  0.36678000  1.0
  O  O126  1  0.78285000  0.47225000  0.83278000  1.0
  O  O127  1  0.21715000  0.97226000  0.66722000  1.0
  O  O128  1  0.21715000  0.52774000  0.16722000  1.0
  O  O129  1  0.78285000  0.02774000  0.33278000  1.0
