# generated using pymatgen
data_ZnH10C22S2N5O18
_symmetry_space_group_name_H-M   'P 1'
_cell_length_a   10.94530000
_cell_length_b   14.12270000
_cell_length_c   15.23290000
_cell_angle_alpha   90.01300000
_cell_angle_beta   90.26470000
_cell_angle_gamma   89.67610000
_symmetry_Int_Tables_number   1
_chemical_formula_structural   ZnH10C22S2N5O18
_chemical_formula_sum   'Zn2 H20 C44 S4 N10 O36'
_cell_volume   2354.59605190
_cell_formula_units_Z   2
loop_
 _symmetry_equiv_pos_site_id
 _symmetry_equiv_pos_as_xyz
  1  'x, y, z'
loop_
 _atom_site_type_symbol
 _atom_site_label
 _atom_site_symmetry_multiplicity
 _atom_site_fract_x
 _atom_site_fract_y
 _atom_site_fract_z
 _atom_site_occupancy
  Zn  Zn0  1  0.49057000  0.59795000  0.50118000  1.0
  Zn  Zn1  1  0.49951000  0.39609000  0.49571000  1.0
  H  H2  1  0.79532000  0.27947000  0.87714000  1.0
  H  H3  1  0.25517000  0.83373000  0.24536000  1.0
  H  H4  1  0.91067000  0.43226000  0.88037000  1.0
  H  H5  1  0.18297000  0.68560000  0.17132000  1.0
  H  H6  1  0.81166000  0.28081000  0.59450000  1.0
  H  H7  1  0.14386000  0.71749000  0.49410000  1.0
  H  H8  1  0.74436000  0.20556000  0.73372000  1.0
  H  H9  1  0.23159000  0.84956000  0.40832000  1.0
  H  H10  1  0.67322000  0.60324000  0.22616000  1.0
  H  H11  1  0.48725000  0.34065000  0.77587000  1.0
  H  H12  1  0.38533000  0.40837000  0.05494000  1.0
  H  H13  1  0.59133000  0.63438000  0.93428000  1.0
  H  H14  1  0.32681000  0.24744000  0.52066000  1.0
  H  H15  1  0.59090000  0.74312000  0.40288000  1.0
  H  H16  1  0.31456000  0.07227000  0.53257000  1.0
  H  H17  1  0.60255000  0.91779000  0.38812000  1.0
  H  H18  1  0.79205000  0.61183000  0.92298000  1.0
  H  H19  1  0.61705000  0.32292000  0.06902000  1.0
  H  H20  1  0.39629000  0.23961000  0.21615000  1.0
  H  H21  1  0.81678000  0.61004000  0.68665000  1.0
  C  C22  1  0.51426000  0.51876000  0.33050000  1.0
  C  C23  1  0.50528000  0.48529000  0.66693000  1.0
  C  C24  1  0.73199000  0.49668000  0.51236000  1.0
  C  C25  1  0.26253000  0.48330000  0.48651000  1.0
  C  C26  1  0.88644000  0.39824000  0.81853000  1.0
  C  C27  1  0.17646000  0.69460000  0.24207000  1.0
  C  C28  1  0.91841000  0.44159000  0.73951000  1.0
  C  C29  1  0.12463000  0.62167000  0.29118000  1.0
  C  C30  1  0.89111000  0.40174000  0.65651000  1.0
  C  C31  1  0.11343000  0.62764000  0.38273000  1.0
  C  C32  1  0.82925000  0.31527000  0.65703000  1.0
  C  C33  1  0.15301000  0.71142000  0.42320000  1.0
  C  C34  1  0.79383000  0.27235000  0.73540000  1.0
  C  C35  1  0.20335000  0.78488000  0.37481000  1.0
  C  C36  1  0.82244000  0.31353000  0.81623000  1.0
  C  C37  1  0.21607000  0.77643000  0.28386000  1.0
  C  C38  1  0.06498000  0.43808000  0.55707000  1.0
  C  C39  1  0.93057000  0.55512000  0.45353000  1.0
  C  C40  1  0.12581000  0.49100000  0.49308000  1.0
  C  C41  1  0.86953000  0.49900000  0.51442000  1.0
  C  C42  1  0.05734000  0.55530000  0.44164000  1.0
  C  C43  1  0.93975000  0.44424000  0.57374000  1.0
  C  C44  1  0.62837000  0.55098000  0.09733000  1.0
  C  C45  1  0.52448000  0.40264000  0.90280000  1.0
  C  C46  1  0.61094000  0.55965000  0.18786000  1.0
  C  C47  1  0.51057000  0.40469000  0.81189000  1.0
  C  C48  1  0.52011000  0.50992000  0.23218000  1.0
  C  C49  1  0.53223000  0.48678000  0.76332000  1.0
  C  C50  1  0.44302000  0.45121000  0.18261000  1.0
  C  C51  1  0.57518000  0.56648000  0.80894000  1.0
  C  C52  1  0.45309000  0.44834000  0.09170000  1.0
  C  C53  1  0.57044000  0.56850000  0.90017000  1.0
  C  C54  1  0.54643000  0.49580000  0.04658000  1.0
  C  C55  1  0.54633000  0.48746000  0.94987000  1.0
  C  C56  1  0.61097000  0.09812000  0.47364000  1.0
  C  C57  1  0.44214000  0.89908000  0.57761000  1.0
  C  C58  1  0.60518000  0.19540000  0.45996000  1.0
  C  C59  1  0.43141000  0.80093000  0.57615000  1.0
  C  C60  1  0.40567000  0.20262000  0.50616000  1.0
  C  C61  1  0.54809000  0.78963000  0.45101000  1.0
  C  C62  1  0.40092000  0.10474000  0.51471000  1.0
  C  C63  1  0.55620000  0.88749000  0.44455000  1.0
  C  C64  1  0.50595000  0.04962000  0.50085000  1.0
  C  C65  1  0.50325000  0.94516000  0.50885000  1.0
  S  S66  1  0.75563000  0.62291000  0.06107000  1.0
  S  S67  1  0.52634000  0.28487000  0.94858000  1.0
  S  S68  1  0.32510000  0.37832000  0.22787000  1.0
  S  S69  1  0.66461000  0.66215000  0.76478000  1.0
  N  N70  1  0.50684000  0.24746000  0.47861000  1.0
  N  N71  1  0.48382000  0.74711000  0.51485000  1.0
  N  N72  1  0.72774000  0.04682000  0.45961000  1.0
  N  N73  1  0.38781000  0.95645000  0.64927000  1.0
  N  N74  1  0.71199000  0.24376000  0.41920000  1.0
  N  N75  1  0.35014000  0.75378000  0.64186000  1.0
  N  N76  1  0.98403000  0.53145000  0.74789000  1.0
  N  N77  1  0.08074000  0.53836000  0.24159000  1.0
  N  N78  1  0.13784000  0.37423000  0.61504000  1.0
  N  N79  1  0.85663000  0.61886000  0.39679000  1.0
  O  O80  1  0.51039000  0.60118000  0.36325000  1.0
  O  O81  1  0.49731000  0.40488000  0.63011000  1.0
  O  O82  1  0.51659000  0.44067000  0.37147000  1.0
  O  O83  1  0.48879000  0.56569000  0.63120000  1.0
  O  O84  1  0.67623000  0.57503000  0.50481000  1.0
  O  O85  1  0.31126000  0.40217000  0.49634000  1.0
  O  O86  1  0.68565000  0.41465000  0.51462000  1.0
  O  O87  1  0.31791000  0.56035000  0.47459000  1.0
  O  O88  1  0.77610000  0.01236000  0.52538000  1.0
  O  O89  1  0.76392000  0.04189000  0.38299000  1.0
  O  O90  1  0.46032000  0.99419000  0.69992000  1.0
  O  O91  1  0.27533000  0.96492000  0.64791000  1.0
  O  O92  1  0.69039000  0.28760000  0.35143000  1.0
  O  O93  1  0.81168000  0.23173000  0.45604000  1.0
  O  O94  1  0.28885000  0.68756000  0.61370000  1.0
  O  O95  1  0.34860000  0.78795000  0.71604000  1.0
  O  O96  1  0.95718000  0.59705000  0.69441000  1.0
  O  O97  1  0.06035000  0.53994000  0.80636000  1.0
  O  O98  1  0.01497000  0.48125000  0.28064000  1.0
  O  O99  1  0.11249000  0.53123000  0.16403000  1.0
  O  O100  1  0.19810000  0.41148000  0.67428000  1.0
  O  O101  1  0.12940000  0.28834000  0.60074000  1.0
  O  O102  1  0.79584000  0.58127000  0.33824000  1.0
  O  O103  1  0.86284000  0.70472000  0.41192000  1.0
  O  O104  1  0.70519000  0.71360000  0.03561000  1.0
  O  O105  1  0.84694000  0.61648000  0.12853000  1.0
  O  O106  1  0.80820000  0.57133000  0.97645000  1.0
  O  O107  1  0.41735000  0.26567000  0.99782000  1.0
  O  O108  1  0.56533000  0.22176000  0.88041000  1.0
  O  O109  1  0.64151000  0.28992000  0.01504000  1.0
  O  O110  1  0.27548000  0.42336000  0.30398000  1.0
  O  O111  1  0.24965000  0.34508000  0.15710000  1.0
  O  O112  1  0.40235000  0.28697000  0.26306000  1.0
  O  O113  1  0.59181000  0.74257000  0.74033000  1.0
  O  O114  1  0.76122000  0.67511000  0.83016000  1.0
  O  O115  1  0.72372000  0.61819000  0.68090000  1.0
