# generated using pymatgen
data_AgH2C3N4
_symmetry_space_group_name_H-M   'P 1'
_cell_length_a   3.62432000
_cell_length_b   12.70240000
_cell_length_c   19.82670000
_cell_angle_alpha   89.99950000
_cell_angle_beta   89.99970000
_cell_angle_gamma   89.99990000
_symmetry_Int_Tables_number   1
_chemical_formula_structural   AgH2C3N4
_chemical_formula_sum   'Ag8 H16 C24 N32'
_cell_volume   912.77293775
_cell_formula_units_Z   8
loop_
 _symmetry_equiv_pos_site_id
 _symmetry_equiv_pos_as_xyz
  1  'x, y, z'
loop_
 _atom_site_type_symbol
 _atom_site_label
 _atom_site_symmetry_multiplicity
 _atom_site_fract_x
 _atom_site_fract_y
 _atom_site_fract_z
 _atom_site_occupancy
  Ag  Ag0  1  0.80568000  0.84847000  0.74463000  1.0
  Ag  Ag1  1  0.19429000  0.15153000  0.24463000  1.0
  Ag  Ag2  1  0.69431000  0.34847000  0.74463000  1.0
  Ag  Ag3  1  0.30571000  0.65153000  0.24463000  1.0
  Ag  Ag4  1  0.67228000  0.64127000  0.63362000  1.0
  Ag  Ag5  1  0.32773000  0.35872000  0.13363000  1.0
  Ag  Ag6  1  0.82770000  0.14128000  0.63363000  1.0
  Ag  Ag7  1  0.17229000  0.85872000  0.13362000  1.0
  H  H8  1  0.22289000  0.55629000  0.95241000  1.0
  H  H9  1  0.77711000  0.44371000  0.45241000  1.0
  H  H10  1  0.27712000  0.05629000  0.95241000  1.0
  H  H11  1  0.72288000  0.94371000  0.45241000  1.0
  H  H12  1  0.35282000  0.64757000  0.06130000  1.0
  H  H13  1  0.64717000  0.35243000  0.56130000  1.0
  H  H14  1  0.14719000  0.14758000  0.06130000  1.0
  H  H15  1  0.85282000  0.85242000  0.56130000  1.0
  H  H16  1  0.89018000  0.92540000  0.99312000  1.0
  H  H17  1  0.10981000  0.07460000  0.49312000  1.0
  H  H18  1  0.60982000  0.42540000  0.99312000  1.0
  H  H19  1  0.39019000  0.57459000  0.49312000  1.0
  H  H20  1  0.76481000  0.85023000  0.87989000  1.0
  H  H21  1  0.23518000  0.14977000  0.37989000  1.0
  H  H22  1  0.73519000  0.35023000  0.87989000  1.0
  H  H23  1  0.26482000  0.64977000  0.37989000  1.0
  C  C24  1  0.98156000  0.69521000  0.90683000  1.0
  C  C25  1  0.01844000  0.30479000  0.40683000  1.0
  C  C26  1  0.51844000  0.19521000  0.90683000  1.0
  C  C27  1  0.48155000  0.80479000  0.40683000  1.0
  C  C28  1  0.14950000  0.63866000  0.95925000  1.0
  C  C29  1  0.85050000  0.36134000  0.45925000  1.0
  C  C30  1  0.35052000  0.13866000  0.95925000  1.0
  C  C31  1  0.64949000  0.86134000  0.45925000  1.0
  C  C32  1  0.21976000  0.68886000  0.02003000  1.0
  C  C33  1  0.78024000  0.31114000  0.52003000  1.0
  C  C34  1  0.28026000  0.18886000  0.02003000  1.0
  C  C35  1  0.71975000  0.81114000  0.52003000  1.0
  C  C36  1  0.96989000  0.84485000  0.98105000  1.0
  C  C37  1  0.03011000  0.15515000  0.48105000  1.0
  C  C38  1  0.53012000  0.34485000  0.98105000  1.0
  C  C39  1  0.46989000  0.65515000  0.48104000  1.0
  C  C40  1  0.89753000  0.80150000  0.91811000  1.0
  C  C41  1  0.10246000  0.19851000  0.41811000  1.0
  C  C42  1  0.60248000  0.30150000  0.91811000  1.0
  C  C43  1  0.39753000  0.69850000  0.41811000  1.0
  C  C44  1  0.88770000  0.64121000  0.84418000  1.0
  C  C45  1  0.11230000  0.35879000  0.34418000  1.0
  C  C46  1  0.61229000  0.14121000  0.84418000  1.0
  C  C47  1  0.38770000  0.85879000  0.34418000  1.0
  N  N48  1  0.80584000  0.68705000  0.78462000  1.0
  N  N49  1  0.19415000  0.31295000  0.28462000  1.0
  N  N50  1  0.69415000  0.18705000  0.78462000  1.0
  N  N51  1  0.30585000  0.81295000  0.28462000  1.0
  N  N52  1  0.73000000  0.60803000  0.74206000  1.0
  N  N53  1  0.27001000  0.39197000  0.24206000  1.0
  N  N54  1  0.76999000  0.10803000  0.74206000  1.0
  N  N55  1  0.23000000  0.89197000  0.24206000  1.0
  N  N56  1  0.76254000  0.51714000  0.77550000  1.0
  N  N57  1  0.23748000  0.48286000  0.27550000  1.0
  N  N58  1  0.73746000  0.01714000  0.77550000  1.0
  N  N59  1  0.26253000  0.98286000  0.27550000  1.0
  N  N60  1  0.86147000  0.53568000  0.83906000  1.0
  N  N61  1  0.13855000  0.46432000  0.33906000  1.0
  N  N62  1  0.63853000  0.03568000  0.83906000  1.0
  N  N63  1  0.36145000  0.96432000  0.33906000  1.0
  N  N64  1  0.12664000  0.78991000  0.03166000  1.0
  N  N65  1  0.87336000  0.21009000  0.53166000  1.0
  N  N66  1  0.37339000  0.28991000  0.03166000  1.0
  N  N67  1  0.62663000  0.71009000  0.53166000  1.0
  N  N68  1  0.28983000  0.85213000  0.66351000  1.0
  N  N69  1  0.71014000  0.14787000  0.16351000  1.0
  N  N70  1  0.21017000  0.35213000  0.66351000  1.0
  N  N71  1  0.78986000  0.64786000  0.16351000  1.0
  N  N72  1  0.30595000  0.93087000  0.63059000  1.0
  N  N73  1  0.69403000  0.06913000  0.13059000  1.0
  N  N74  1  0.19404000  0.43087000  0.63059000  1.0
  N  N75  1  0.80597000  0.56913000  0.13059000  1.0
  N  N76  1  0.32279000  0.00771000  0.59695000  1.0
  N  N77  1  0.67721000  0.99230000  0.09695000  1.0
  N  N78  1  0.17721000  0.50771000  0.59695000  1.0
  N  N79  1  0.82280000  0.49229000  0.09695000  1.0
