# generated using pymatgen
data_Li2B2H24C7(NO)2
_symmetry_space_group_name_H-M   'P 1'
_cell_length_a   8.76727000
_cell_length_b   9.15514000
_cell_length_c   9.60434000
_cell_angle_alpha   79.33080000
_cell_angle_beta   65.56620000
_cell_angle_gamma   63.68530000
_symmetry_Int_Tables_number   1
_chemical_formula_structural   Li2B2H24C7(NO)2
_chemical_formula_sum   'Li4 B4 H48 C14 N4 O4'
_cell_volume   629.12326361
_cell_formula_units_Z   2
loop_
 _symmetry_equiv_pos_site_id
 _symmetry_equiv_pos_as_xyz
  1  'x, y, z'
loop_
 _atom_site_type_symbol
 _atom_site_label
 _atom_site_symmetry_multiplicity
 _atom_site_fract_x
 _atom_site_fract_y
 _atom_site_fract_z
 _atom_site_occupancy
  Li  Li0  1  0.25340000  0.92794000  0.37678000  1.0
  Li  Li1  1  0.74660000  0.07206000  0.62322000  1.0
  Li  Li2  1  0.64989000  0.33124000  0.34641000  1.0
  Li  Li3  1  0.35010000  0.66876000  0.65359000  1.0
  B  B4  1  0.91908000  0.08169000  0.32787000  1.0
  B  B5  1  0.08093000  0.91831000  0.67213000  1.0
  B  B6  1  0.51789000  0.67406000  0.35371000  1.0
  B  B7  1  0.48211000  0.32595000  0.64629000  1.0
  H  H8  1  0.18071000  0.18682000  0.15126000  1.0
  H  H9  1  0.81929000  0.81318000  0.84875000  1.0
  H  H10  1  0.34641000  0.00666000  0.04400000  1.0
  H  H11  1  0.65359000  0.99334000  0.95599000  1.0
  H  H12  1  0.12907000  0.11467000  0.02344000  1.0
  H  H13  1  0.87093000  0.88533000  0.97655000  1.0
  H  H14  1  0.09293000  0.75863000  0.26089000  1.0
  H  H15  1  0.90707000  0.24137000  0.73910000  1.0
  H  H16  1  0.06326000  0.86935000  0.09369000  1.0
  H  H17  1  0.93675000  0.13065000  0.90630000  1.0
  H  H18  1  0.28749000  0.76400000  0.09873000  1.0
  H  H19  1  0.71251000  0.23600000  0.90127000  1.0
  H  H20  1  0.90168000  0.19467000  0.39461000  1.0
  H  H21  1  0.09832000  0.80532000  0.60539000  1.0
  H  H22  1  0.85420000  0.99234000  0.42003000  1.0
  H  H23  1  0.14580000  0.00766000  0.57997000  1.0
  H  H24  1  0.83049000  0.13895000  0.24302000  1.0
  H  H25  1  0.16951000  0.86105000  0.75698000  1.0
  H  H26  1  0.36789000  0.66969000  0.38786000  1.0
  H  H27  1  0.63211000  0.33031000  0.61214000  1.0
  H  H28  1  0.51225000  0.80836000  0.29456000  1.0
  H  H29  1  0.48775000  0.19164000  0.70544000  1.0
  H  H30  1  0.55031000  0.66217000  0.46884000  1.0
  H  H31  1  0.44968000  0.33784000  0.53116000  1.0
  H  H32  1  0.65436000  0.66544000  0.03724000  1.0
  H  H33  1  0.34566000  0.33455000  0.96276000  1.0
  H  H34  1  0.76663000  0.44750000  0.02067000  1.0
  H  H35  1  0.23338000  0.55249000  0.97933000  1.0
  H  H36  1  0.52397000  0.54553000  0.11538000  1.0
  H  H37  1  0.47604000  0.45446000  0.88462000  1.0
  H  H38  1  0.96536000  0.43419000  0.13535000  1.0
  H  H39  1  0.03464000  0.56580000  0.86467000  1.0
  H  H40  1  0.87456000  0.51363000  0.32226000  1.0
  H  H41  1  0.12543000  0.48637000  0.67775000  1.0
  H  H42  1  0.06754000  0.30199000  0.43201000  1.0
  H  H43  1  0.93246000  0.69801000  0.56799000  1.0
  H  H44  1  0.26738000  0.49202000  0.37779000  1.0
  H  H45  1  0.73261000  0.50799000  0.62220000  1.0
  H  H46  1  0.86322000  0.64963000  0.16396000  1.0
  H  H47  1  0.13679000  0.35036000  0.83605000  1.0
  H  H48  1  0.20578000  0.26774000  0.54131000  1.0
  H  H49  1  0.79421000  0.73227000  0.45869000  1.0
  H  H50  1  0.25128000  0.42501000  0.22142000  1.0
  H  H51  1  0.74871000  0.57499000  0.77858000  1.0
  H  H52  1  0.59012000  0.04601000  0.18852000  1.0
  H  H53  1  0.40987000  0.95400000  0.81148000  1.0
  H  H54  1  0.57035000  0.06091000  0.38134000  1.0
  H  H55  1  0.42965000  0.93909000  0.61866000  1.0
  C  C56  1  0.19815000  0.07628000  0.10654000  1.0
  C  C57  1  0.80186000  0.92373000  0.89345000  1.0
  C  C58  1  0.14270000  0.83606000  0.16810000  1.0
  C  C59  1  0.85730000  0.16394000  0.83190000  1.0
  C  C60  1  0.65433000  0.54923000  0.09685000  1.0
  C  C61  1  0.34568000  0.45076000  0.90315000  1.0
  C  C62  1  0.85317000  0.53317000  0.21421000  1.0
  C  C63  1  0.14683000  0.46682000  0.78580000  1.0
  C  C64  1  0.20525000  0.27464000  0.42580000  1.0
  C  C65  1  0.79474000  0.72536000  0.57421000  1.0
  C  C66  1  0.29210000  0.38567000  0.32086000  1.0
  C  C67  1  0.70790000  0.61433000  0.67914000  1.0
  C  C68  1  0.50681000  0.11504000  0.29569000  1.0
  C  C69  1  0.49319000  0.88496000  0.70431000  1.0
  N  N70  1  0.12221000  0.98000000  0.23187000  1.0
  N  N71  1  0.87780000  0.02000000  0.76813000  1.0
  N  N72  1  0.67491000  0.53547000  0.24283000  1.0
  N  N73  1  0.32509000  0.46452000  0.75717000  1.0
  O  O74  1  0.48685000  0.28180000  0.26985000  1.0
  O  O75  1  0.51314000  0.71820000  0.73015000  1.0
  O  O76  1  0.32736000  0.12001000  0.34918000  1.0
  O  O77  1  0.67263000  0.87999000  0.65082000  1.0
