# generated using pymatgen
data_CuH11C14N5Cl
_symmetry_space_group_name_H-M   'P 1'
_cell_length_a   8.21439000
_cell_length_b   9.50625000
_cell_length_c   9.58421000
_cell_angle_alpha   72.22640000
_cell_angle_beta   72.83150000
_cell_angle_gamma   67.00460000
_symmetry_Int_Tables_number   1
_chemical_formula_structural   CuH11C14N5Cl
_chemical_formula_sum   'Cu2 H22 C28 N10 Cl2'
_cell_volume   642.70876075
_cell_formula_units_Z   2
loop_
 _symmetry_equiv_pos_site_id
 _symmetry_equiv_pos_as_xyz
  1  'x, y, z'
loop_
 _atom_site_type_symbol
 _atom_site_label
 _atom_site_symmetry_multiplicity
 _atom_site_fract_x
 _atom_site_fract_y
 _atom_site_fract_z
 _atom_site_occupancy
  Cu  Cu0  1  0.23716000  0.13387000  0.15356000  1.0
  Cu  Cu1  1  0.76284000  0.86613000  0.84644000  1.0
  H  H2  1  0.13478000  0.38405000  0.48905000  1.0
  H  H3  1  0.86522000  0.61595000  0.51095000  1.0
  H  H4  1  0.25547000  0.26289000  0.36007000  1.0
  H  H5  1  0.74453000  0.73711000  0.63994000  1.0
  H  H6  1  0.64397000  0.57272000  0.10041000  1.0
  H  H7  1  0.35603000  0.42729000  0.89959000  1.0
  H  H8  1  0.69560000  0.46709000  0.92394000  1.0
  H  H9  1  0.30441000  0.53291000  0.07605000  1.0
  H  H10  1  0.77669000  0.33197000  0.71482000  1.0
  H  H11  1  0.22331000  0.66803000  0.28518000  1.0
  H  H12  1  0.05901000  0.09825000  0.69735000  1.0
  H  H13  1  0.94100000  0.90175000  0.30265000  1.0
  H  H14  1  0.25412000  0.01430000  0.88364000  1.0
  H  H15  1  0.74588000  0.98570000  0.11637000  1.0
  H  H16  1  0.51197000  0.82189000  0.13149000  1.0
  H  H17  1  0.48803000  0.17811000  0.86850000  1.0
  H  H18  1  0.56852000  0.59504000  0.58860000  1.0
  H  H19  1  0.43148000  0.40496000  0.41139000  1.0
  H  H20  1  0.29733000  0.81386000  0.67016000  1.0
  H  H21  1  0.70267000  0.18613000  0.32984000  1.0
  H  H22  1  0.14255000  0.02640000  0.47417000  1.0
  H  H23  1  0.85745000  0.97359000  0.52584000  1.0
  C  C24  1  0.99704000  0.38101000  0.34327000  1.0
  C  C25  1  0.00295000  0.61900000  0.65673000  1.0
  C  C26  1  0.72267000  0.56340000  0.30153000  1.0
  C  C27  1  0.27733000  0.43660000  0.69847000  1.0
  C  C28  1  0.74286000  0.51391000  0.17215000  1.0
  C  C29  1  0.25714000  0.48610000  0.82785000  1.0
  C  C30  1  0.89444000  0.38453000  0.14088000  1.0
  C  C31  1  0.10556000  0.61548000  0.85912000  1.0
  C  C32  1  0.93216000  0.31160000  0.01430000  1.0
  C  C33  1  0.06784000  0.68839000  0.98570000  1.0
  C  C34  1  0.81706000  0.36540000  0.91319000  1.0
  C  C35  1  0.18293000  0.63459000  0.08681000  1.0
  C  C36  1  0.86245000  0.29023000  0.79655000  1.0
  C  C37  1  0.13755000  0.70978000  0.20345000  1.0
  C  C38  1  0.01948000  0.16107000  0.78613000  1.0
  C  C39  1  0.98053000  0.83893000  0.21387000  1.0
  C  C40  1  0.12904000  0.11393000  0.88959000  1.0
  C  C41  1  0.87096000  0.88607000  0.11041000  1.0
  C  C42  1  0.46791000  0.81457000  0.25206000  1.0
  C  C43  1  0.53209000  0.18543000  0.74794000  1.0
  C  C44  1  0.56115000  0.68984000  0.35364000  1.0
  C  C45  1  0.43885000  0.31016000  0.64635000  1.0
  C  C46  1  0.49907000  0.68986000  0.50663000  1.0
  C  C47  1  0.50094000  0.31014000  0.49336000  1.0
  C  C48  1  0.34679000  0.81073000  0.55211000  1.0
  C  C49  1  0.65321000  0.18927000  0.44789000  1.0
  C  C50  1  0.26125000  0.92871000  0.44405000  1.0
  C  C51  1  0.73875000  0.07129000  0.55596000  1.0
  N  N52  1  0.01801000  0.31552000  0.22881000  1.0
  N  N53  1  0.98199000  0.68448000  0.77119000  1.0
  N  N54  1  0.84899000  0.49802000  0.38690000  1.0
  N  N55  1  0.15101000  0.50199000  0.61310000  1.0
  N  N56  1  0.13351000  0.32176000  0.41804000  1.0
  N  N57  1  0.86649000  0.67824000  0.58196000  1.0
  N  N58  1  0.08899000  0.18838000  0.00081000  1.0
  N  N59  1  0.91101000  0.81161000  0.99919000  1.0
  N  N60  1  0.32186000  0.93313000  0.29573000  1.0
  N  N61  1  0.67814000  0.06687000  0.70427000  1.0
  Cl  Cl62  1  0.47396000  0.22212000  0.12860000  1.0
  Cl  Cl63  1  0.52604000  0.77788000  0.87140000  1.0
