# generated using pymatgen
data_VH16C26S2N2O3
_symmetry_space_group_name_H-M   'P 1'
_cell_length_a   4.07810000
_cell_length_b   14.79024680
_cell_length_c   17.06370000
_cell_angle_alpha   94.56378671
_cell_angle_beta   96.85490000
_cell_angle_gamma   97.91077146
_symmetry_Int_Tables_number   1
_chemical_formula_structural   VH16C26S2N2O3
_chemical_formula_sum   'V2 H32 C52 S4 N4 O6'
_cell_volume   1007.30047601
_cell_formula_units_Z   2
loop_
 _symmetry_equiv_pos_site_id
 _symmetry_equiv_pos_as_xyz
  1  'x, y, z'
loop_
 _atom_site_type_symbol
 _atom_site_label
 _atom_site_symmetry_multiplicity
 _atom_site_fract_x
 _atom_site_fract_y
 _atom_site_fract_z
 _atom_site_occupancy
  V  V0  1  0.53550000  0.74999000  0.75004000  1.0
  V  V1  1  0.46452000  0.25002000  0.24996000  1.0
  H  H2  1  0.98319000  0.54083000  0.56258000  1.0
  H  H3  1  0.37877000  0.95886000  0.93750000  1.0
  H  H4  1  0.01682000  0.45916000  0.43742000  1.0
  H  H5  1  0.62123000  0.04114000  0.06250000  1.0
  H  H6  1  0.61732000  0.55730000  0.43861000  1.0
  H  H7  1  0.12071000  0.94239000  0.06154000  1.0
  H  H8  1  0.38270000  0.44269000  0.56139000  1.0
  H  H9  1  0.87934000  0.05762000  0.93846000  1.0
  H  H10  1  0.56017000  0.71344000  0.39742000  1.0
  H  H11  1  0.94989000  0.78619000  0.10282000  1.0
  H  H12  1  0.43984000  0.28655000  0.60257000  1.0
  H  H13  1  0.05016000  0.21381000  0.89718000  1.0
  H  H14  1  0.86289000  0.85022000  0.48112000  1.0
  H  H15  1  0.03143000  0.64948000  0.01894000  1.0
  H  H16  1  0.13712000  0.14977000  0.51888000  1.0
  H  H17  1  0.96861000  0.35053000  0.98106000  1.0
  H  H18  1  0.98342000  0.92674000  0.80890000  1.0
  H  H19  1  0.74810000  0.57332000  0.69101000  1.0
  H  H20  1  0.01659000  0.07326000  0.19110000  1.0
  H  H21  1  0.25188000  0.42668000  0.30899000  1.0
  H  H22  1  0.26594000  0.08859000  0.82961000  1.0
  H  H23  1  0.84803000  0.41147000  0.67004000  1.0
  H  H24  1  0.73409000  0.91142000  0.17038000  1.0
  H  H25  1  0.15195000  0.58853000  0.32995000  1.0
  H  H26  1  0.11033000  0.20188000  0.73708000  1.0
  H  H27  1  0.67213000  0.29805000  0.76251000  1.0
  H  H28  1  0.88964000  0.79812000  0.26291000  1.0
  H  H29  1  0.32786000  0.70195000  0.23749000  1.0
  H  H30  1  0.67928000  0.15413000  0.61967000  1.0
  H  H31  1  0.40593000  0.34556000  0.87993000  1.0
  H  H32  1  0.32070000  0.84588000  0.38033000  1.0
  H  H33  1  0.59408000  0.65444000  0.12007000  1.0
  C  C34  1  0.13605000  0.68525000  0.59284000  1.0
  C  C35  1  0.35799000  0.81450000  0.90731000  1.0
  C  C36  1  0.86394000  0.31474000  0.40717000  1.0
  C  C37  1  0.64202000  0.18550000  0.09269000  1.0
  C  C38  1  0.95546000  0.60835000  0.54381000  1.0
  C  C39  1  0.30249000  0.89134000  0.95630000  1.0
  C  C40  1  0.04454000  0.39164000  0.45619000  1.0
  C  C41  1  0.69752000  0.10866000  0.04369000  1.0
  C  C42  1  0.75316000  0.61805000  0.47485000  1.0
  C  C43  1  0.15954000  0.88162000  0.02529000  1.0
  C  C44  1  0.24685000  0.38194000  0.52515000  1.0
  C  C45  1  0.84049000  0.11838000  0.97471000  1.0
  C  C46  1  0.72041000  0.70574000  0.45148000  1.0
  C  C47  1  0.06296000  0.79391000  0.04865000  1.0
  C  C48  1  0.27959000  0.29425000  0.54852000  1.0
  C  C49  1  0.93706000  0.20609000  0.95135000  1.0
  C  C50  1  0.89052000  0.78199000  0.49884000  1.0
  C  C51  1  0.10937000  0.71770000  0.00121000  1.0
  C  C52  1  0.10947000  0.21800000  0.50116000  1.0
  C  C53  1  0.89065000  0.28230000  0.99880000  1.0
  C  C54  1  0.10010000  0.77452000  0.56951000  1.0
  C  C55  1  0.25583000  0.72519000  0.93054000  1.0
  C  C56  1  0.89990000  0.22547000  0.43049000  1.0
  C  C57  1  0.74419000  0.27482000  0.06946000  1.0
  C  C58  1  0.29301000  0.85590000  0.61301000  1.0
  C  C59  1  0.32419000  0.64384000  0.88699000  1.0
  C  C60  1  0.70697000  0.14410000  0.38699000  1.0
  C  C61  1  0.67581000  0.35616000  0.11301000  1.0
  C  C62  1  0.58772000  0.01394000  0.65011000  1.0
  C  C63  1  0.42407000  0.48587000  0.84975000  1.0
  C  C64  1  0.41224000  0.98606000  0.34989000  1.0
  C  C65  1  0.57594000  0.51413000  0.15025000  1.0
  C  C66  1  0.66811000  0.94920000  0.70332000  1.0
  C  C67  1  0.51620000  0.55071000  0.79663000  1.0
  C  C68  1  0.33186000  0.05080000  0.29669000  1.0
  C  C69  1  0.48379000  0.44929000  0.20337000  1.0
  C  C70  1  0.91372000  0.97649000  0.76885000  1.0
  C  C71  1  0.66899000  0.52352000  0.73104000  1.0
  C  C72  1  0.08628000  0.02351000  0.23115000  1.0
  C  C73  1  0.33098000  0.47648000  0.26896000  1.0
  C  C74  1  0.06822000  0.06732000  0.78005000  1.0
  C  C75  1  0.72145000  0.43267000  0.71971000  1.0
  C  C76  1  0.93176000  0.93268000  0.21995000  1.0
  C  C77  1  0.27852000  0.56733000  0.28029000  1.0
  C  C78  1  0.98227000  0.13137000  0.72751000  1.0
  C  C79  1  0.62415000  0.36856000  0.77221000  1.0
  C  C80  1  0.01771000  0.86864000  0.27249000  1.0
  C  C81  1  0.37582000  0.63143000  0.22780000  1.0
  C  C82  1  0.74128000  0.10528000  0.66162000  1.0
  C  C83  1  0.47506000  0.39455000  0.83812000  1.0
  C  C84  1  0.25871000  0.89473000  0.33837000  1.0
  C  C85  1  0.52493000  0.60545000  0.16188000  1.0
  S  S86  1  0.29696000  0.96077000  0.57252000  1.0
  S  S87  1  0.26348000  0.53889000  0.92734000  1.0
  S  S88  1  0.70300000  0.03923000  0.42749000  1.0
  S  S89  1  0.73652000  0.46111000  0.07266000  1.0
  N  N90  1  0.49363000  0.86130000  0.68129000  1.0
  N  N91  1  0.45158000  0.63859000  0.81876000  1.0
  N  N92  1  0.50636000  0.13871000  0.31871000  1.0
  N  N93  1  0.54842000  0.36141000  0.18124000  1.0
  O  O94  1  0.93471000  0.75021000  0.75002000  1.0
  O  O95  1  0.06529000  0.24979000  0.24997000  1.0
  O  O96  1  0.32974000  0.67036000  0.65620000  1.0
  O  O97  1  0.50377000  0.82947000  0.84403000  1.0
  O  O98  1  0.67027000  0.32964000  0.34381000  1.0
  O  O99  1  0.49624000  0.17053000  0.15597000  1.0
