# generated using pymatgen
data_MnH18C14(NO2)2
_symmetry_space_group_name_H-M   'P 1'
_cell_length_a   6.16529000
_cell_length_b   6.28341000
_cell_length_c   10.37620000
_cell_angle_alpha   90.44990000
_cell_angle_beta   104.92200000
_cell_angle_gamma   110.09700000
_symmetry_Int_Tables_number   1
_chemical_formula_structural   MnH18C14(NO2)2
_chemical_formula_sum   'Mn1 H18 C14 N2 O4'
_cell_volume   362.69822367
_cell_formula_units_Z   1
loop_
 _symmetry_equiv_pos_site_id
 _symmetry_equiv_pos_as_xyz
  1  'x, y, z'
loop_
 _atom_site_type_symbol
 _atom_site_label
 _atom_site_symmetry_multiplicity
 _atom_site_fract_x
 _atom_site_fract_y
 _atom_site_fract_z
 _atom_site_occupancy
  Mn  Mn0  1  0.97618000  0.97644000  0.00005000  1.0
  H  H1  1  0.61653000  0.83105000  0.27081000  1.0
  H  H2  1  0.38494000  0.17986000  0.72666000  1.0
  H  H3  1  0.36728000  0.57607000  0.24505000  1.0
  H  H4  1  0.64515000  0.42622000  0.75923000  1.0
  H  H5  1  0.47893000  0.74605000  0.40339000  1.0
  H  H6  1  0.53343000  0.26479000  0.59822000  1.0
  H  H7  1  0.28743000  0.00914000  0.43457000  1.0
  H  H8  1  0.72786000  0.00574000  0.56597000  1.0
  H  H9  1  0.09759000  0.25371000  0.48671000  1.0
  H  H10  1  0.91926000  0.76340000  0.51287000  1.0
  H  H11  1  0.81203000  0.20788000  0.37017000  1.0
  H  H12  1  0.19530000  0.79901000  0.63580000  1.0
  H  H13  1  0.06280000  0.44492000  0.36317000  1.0
  H  H14  1  0.93913000  0.55788000  0.62907000  1.0
  H  H15  1  0.56362000  0.16588000  0.08929000  1.0
  H  H16  1  0.43720000  0.83949000  0.91411000  1.0
  H  H17  1  0.09460000  0.49024000  0.90720000  1.0
  H  H18  1  0.90836000  0.50832000  0.08797000  1.0
  C  C19  1  0.44440000  0.75115000  0.29465000  1.0
  C  C20  1  0.56089000  0.25350000  0.70619000  1.0
  C  C21  1  0.27714000  0.87706000  0.24120000  1.0
  C  C22  1  0.71466000  0.11463000  0.75906000  1.0
  C  C23  1  0.21322000  0.00484000  0.32712000  1.0
  C  C24  1  0.78689000  0.99517000  0.67308000  1.0
  C  C25  1  0.05945000  0.12707000  0.28327000  1.0
  C  C26  1  0.93320000  0.86565000  0.71655000  1.0
  C  C27  1  0.00684000  0.26519000  0.38273000  1.0
  C  C28  1  0.99886000  0.74071000  0.61670000  1.0
  C  C29  1  0.53266000  0.31546000  0.04939000  1.0
  C  C30  1  0.46858000  0.68907000  0.95166000  1.0
  C  C31  1  0.27623000  0.49258000  0.94882000  1.0
  C  C32  1  0.72733000  0.50835000  0.04980000  1.0
  N  N33  1  0.30314000  0.30224000  0.99828000  1.0
  N  N34  1  0.70204000  0.70327000  0.00151000  1.0
  O  O35  1  0.19894000  0.85793000  0.11203000  1.0
  O  O36  1  0.77365000  0.11535000  0.88791000  1.0
  O  O37  1  0.95317000  0.13256000  0.15893000  1.0
  O  O38  1  0.02108000  0.84214000  0.84079000  1.0
