# generated using pymatgen
data_AgH3(CN2)2
_symmetry_space_group_name_H-M   'P 1'
_cell_length_a   7.56010000
_cell_length_b   7.56004000
_cell_length_c   7.80701000
_cell_angle_alpha   97.33430000
_cell_angle_beta   97.33470000
_cell_angle_gamma   99.70470000
_symmetry_Int_Tables_number   1
_chemical_formula_structural   AgH3(CN2)2
_chemical_formula_sum   'Ag4 H12 C8 N16'
_cell_volume   431.11410516
_cell_formula_units_Z   4
loop_
 _symmetry_equiv_pos_site_id
 _symmetry_equiv_pos_as_xyz
  1  'x, y, z'
loop_
 _atom_site_type_symbol
 _atom_site_label
 _atom_site_symmetry_multiplicity
 _atom_site_fract_x
 _atom_site_fract_y
 _atom_site_fract_z
 _atom_site_occupancy
  Ag  Ag0  1  0.78343000  0.00724000  0.86793000  1.0
  Ag  Ag1  1  0.99277000  0.21657000  0.63208000  1.0
  Ag  Ag2  1  0.21657000  0.99276000  0.13208000  1.0
  Ag  Ag3  1  0.00723000  0.78343000  0.36792000  1.0
  H  H4  1  0.22644000  0.41716000  0.40592000  1.0
  H  H5  1  0.58284000  0.77356000  0.09408000  1.0
  H  H6  1  0.77355000  0.58284000  0.59409000  1.0
  H  H7  1  0.41716000  0.22644000  0.90591000  1.0
  H  H8  1  0.68970000  0.38811000  0.91753000  1.0
  H  H9  1  0.61188000  0.31030000  0.58247000  1.0
  H  H10  1  0.31030000  0.61189000  0.08247000  1.0
  H  H11  1  0.38812000  0.68970000  0.41753000  1.0
  H  H12  1  0.76034000  0.59310000  0.03760000  1.0
  H  H13  1  0.40690000  0.23966000  0.46241000  1.0
  H  H14  1  0.23966000  0.40690000  0.96241000  1.0
  H  H15  1  0.59310000  0.76034000  0.53759000  1.0
  C  C16  1  0.88152000  0.39750000  0.12075000  1.0
  C  C17  1  0.60250000  0.11849000  0.37925000  1.0
  C  C18  1  0.11848000  0.60250000  0.87925000  1.0
  C  C19  1  0.39750000  0.88151000  0.62075000  1.0
  C  C20  1  0.11471000  0.38259000  0.29806000  1.0
  C  C21  1  0.61741000  0.88530000  0.20194000  1.0
  C  C22  1  0.88529000  0.61741000  0.70194000  1.0
  C  C23  1  0.38259000  0.11471000  0.79805000  1.0
  N  N24  1  0.92758000  0.23749000  0.06985000  1.0
  N  N25  1  0.76251000  0.07242000  0.43016000  1.0
  N  N26  1  0.07242000  0.76251000  0.93015000  1.0
  N  N27  1  0.23749000  0.92758000  0.56984000  1.0
  N  N28  1  0.08002000  0.22866000  0.18551000  1.0
  N  N29  1  0.77134000  0.91999000  0.31450000  1.0
  N  N30  1  0.91998000  0.77134000  0.81449000  1.0
  N  N31  1  0.22866000  0.08001000  0.68550000  1.0
  N  N32  1  0.99501000  0.49361000  0.26324000  1.0
  N  N33  1  0.50639000  0.00500000  0.23676000  1.0
  N  N34  1  0.00499000  0.50639000  0.73676000  1.0
  N  N35  1  0.49361000  0.99500000  0.76324000  1.0
  N  N36  1  0.73408000  0.45694000  0.04031000  1.0
  N  N37  1  0.54306000  0.26592000  0.45969000  1.0
  N  N38  1  0.26592000  0.54305000  0.95969000  1.0
  N  N39  1  0.45694000  0.73408000  0.54031000  1.0
