# generated using pymatgen
data_AgH9C12N2O5
_symmetry_space_group_name_H-M   'P 1'
_cell_length_a   8.42126000
_cell_length_b   11.86180000
_cell_length_c   12.69290000
_cell_angle_alpha   90.00000000
_cell_angle_beta   107.48800000
_cell_angle_gamma   89.99990000
_symmetry_Int_Tables_number   1
_chemical_formula_structural   AgH9C12N2O5
_chemical_formula_sum   'Ag4 H36 C48 N8 O20'
_cell_volume   1209.30737642
_cell_formula_units_Z   4
loop_
 _symmetry_equiv_pos_site_id
 _symmetry_equiv_pos_as_xyz
  1  'x, y, z'
loop_
 _atom_site_type_symbol
 _atom_site_label
 _atom_site_symmetry_multiplicity
 _atom_site_fract_x
 _atom_site_fract_y
 _atom_site_fract_z
 _atom_site_occupancy
  Ag  Ag0  1  0.90708000  0.84886000  0.72013000  1.0
  Ag  Ag1  1  0.59292000  0.34886000  0.27987000  1.0
  Ag  Ag2  1  0.09292000  0.15114000  0.27987000  1.0
  Ag  Ag3  1  0.40708000  0.65114000  0.72013000  1.0
  H  H4  1  0.75657000  0.02015000  0.79651000  1.0
  H  H5  1  0.74343000  0.52015000  0.20349000  1.0
  H  H6  1  0.24343000  0.97985000  0.20349000  1.0
  H  H7  1  0.25657000  0.47985000  0.79651000  1.0
  H  H8  1  0.94689000  0.06035000  0.84251000  1.0
  H  H9  1  0.55311000  0.56035000  0.15748000  1.0
  H  H10  1  0.05311000  0.93965000  0.15749000  1.0
  H  H11  1  0.44689000  0.43965000  0.84251000  1.0
  H  H12  1  0.92240000  0.81544000  0.96506000  1.0
  H  H13  1  0.57760000  0.31544000  0.03494000  1.0
  H  H14  1  0.07760000  0.18456000  0.03494000  1.0
  H  H15  1  0.42240000  0.68456000  0.96506000  1.0
  H  H16  1  0.87066000  0.66812000  0.09195000  1.0
  H  H17  1  0.62934000  0.16812000  0.90805000  1.0
  H  H18  1  0.12934000  0.33188000  0.90805000  1.0
  H  H19  1  0.37066000  0.83188000  0.09195000  1.0
  H  H20  1  0.77909000  0.47483000  0.01448000  1.0
  H  H21  1  0.72091000  0.97483000  0.98552000  1.0
  H  H22  1  0.22091000  0.52517000  0.98552000  1.0
  H  H23  1  0.27909000  0.02517000  0.01448000  1.0
  H  H24  1  0.85412000  0.61711000  0.42718000  1.0
  H  H25  1  0.64588000  0.11711000  0.57282000  1.0
  H  H26  1  0.14588000  0.38289000  0.57282000  1.0
  H  H27  1  0.35412000  0.88289000  0.42718000  1.0
  H  H28  1  0.54988000  0.66317000  0.34755000  1.0
  H  H29  1  0.95012000  0.16317000  0.65245000  1.0
  H  H30  1  0.45012000  0.33683000  0.65245000  1.0
  H  H31  1  0.04988000  0.83683000  0.34755000  1.0
  H  H32  1  0.37035000  0.65724000  0.47295000  1.0
  H  H33  1  0.12966000  0.15724000  0.52705000  1.0
  H  H34  1  0.62966000  0.34276000  0.52705000  1.0
  H  H35  1  0.87034000  0.84276000  0.47295000  1.0
  H  H36  1  0.90755000  0.42098000  0.72945000  1.0
  H  H37  1  0.59246000  0.92098000  0.27055000  1.0
  H  H38  1  0.09245000  0.57902000  0.27055000  1.0
  H  H39  1  0.40755000  0.07902000  0.72945000  1.0
  C  C40  1  0.87778000  0.73166000  0.93504000  1.0
  C  C41  1  0.62221000  0.23165000  0.06496000  1.0
  C  C42  1  0.12221000  0.26835000  0.06496000  1.0
  C  C43  1  0.37779000  0.76835000  0.93504000  1.0
  C  C44  1  0.85087000  0.64851000  0.00520000  1.0
  C  C45  1  0.64913000  0.14851000  0.99480000  1.0
  C  C46  1  0.14913000  0.35149000  0.99480000  1.0
  C  C47  1  0.35087000  0.85149000  0.00520000  1.0
  C  C48  1  0.80008000  0.54214000  0.96188000  1.0
  C  C49  1  0.69992000  0.04214000  0.03812000  1.0
  C  C50  1  0.19992000  0.45786000  0.03812000  1.0
  C  C51  1  0.30009000  0.95786000  0.96188000  1.0
  C  C52  1  0.77450000  0.52268000  0.84932000  1.0
  C  C53  1  0.72550000  0.02268000  0.15068000  1.0
  C  C54  1  0.22550000  0.47732000  0.15069000  1.0
  C  C55  1  0.27450000  0.97732000  0.84932000  1.0
  C  C56  1  0.79184000  0.61302000  0.78233000  1.0
  C  C57  1  0.70816000  0.11303000  0.21767000  1.0
  C  C58  1  0.20816000  0.38698000  0.21767000  1.0
  C  C59  1  0.29184000  0.88697000  0.78233000  1.0
  C  C60  1  0.72876000  0.40707000  0.80329000  1.0
  C  C61  1  0.77124000  0.90707000  0.19671000  1.0
  C  C62  1  0.27124000  0.59293000  0.19671000  1.0
  C  C63  1  0.22876000  0.09293000  0.80329000  1.0
  C  C64  1  0.73186000  0.60912000  0.65847000  1.0
  C  C65  1  0.76814000  0.10913000  0.34154000  1.0
  C  C66  1  0.26814000  0.39087000  0.34154000  1.0
  C  C67  1  0.23186000  0.89088000  0.65847000  1.0
  C  C68  1  0.83772000  0.59816000  0.59246000  1.0
  C  C69  1  0.66228000  0.09816000  0.40754000  1.0
  C  C70  1  0.16228000  0.40184000  0.40754000  1.0
  C  C71  1  0.33772000  0.90184000  0.59246000  1.0
  C  C72  1  0.77253000  0.62016000  0.47928000  1.0
  C  C73  1  0.72747000  0.12016000  0.52072000  1.0
  C  C74  1  0.22747000  0.37984000  0.52072000  1.0
  C  C75  1  0.27253000  0.87984000  0.47928000  1.0
  C  C76  1  0.60408000  0.64451000  0.43498000  1.0
  C  C77  1  0.89592000  0.14451000  0.56502000  1.0
  C  C78  1  0.39592000  0.35549000  0.56502000  1.0
  C  C79  1  0.10408000  0.85549000  0.43498000  1.0
  C  C80  1  0.50429000  0.64390000  0.50456000  1.0
  C  C81  1  0.99570000  0.14390000  0.49544000  1.0
  C  C82  1  0.49571000  0.35610000  0.49544000  1.0
  C  C83  1  0.00430000  0.85610000  0.50456000  1.0
  C  C84  1  0.01606000  0.56226000  0.64013000  1.0
  C  C85  1  0.48394000  0.06226000  0.35988000  1.0
  C  C86  1  0.98394000  0.43774000  0.35988000  1.0
  C  C87  1  0.51606000  0.93774000  0.64013000  1.0
  N  N88  1  0.84673000  0.71479000  0.82570000  1.0
  N  N89  1  0.65327000  0.21479000  0.17430000  1.0
  N  N90  1  0.15327000  0.28521000  0.17430000  1.0
  N  N91  1  0.34673000  0.78521000  0.82570000  1.0
  N  N92  1  0.56724000  0.62897000  0.61446000  1.0
  N  N93  1  0.93276000  0.12897000  0.38554000  1.0
  N  N94  1  0.43276000  0.37103000  0.38554000  1.0
  N  N95  1  0.06724000  0.87103000  0.61446000  1.0
  O  O96  1  0.86895000  0.99913000  0.84522000  1.0
  O  O97  1  0.63105000  0.49913000  0.15478000  1.0
  O  O98  1  0.13105000  0.00087000  0.15479000  1.0
  O  O99  1  0.36895000  0.50087000  0.84522000  1.0
  O  O100  1  0.61972000  0.35168000  0.82744000  1.0
  O  O101  1  0.88029000  0.85168000  0.17256000  1.0
  O  O102  1  0.38029000  0.64832000  0.17256000  1.0
  O  O103  1  0.11972000  0.14832000  0.82744000  1.0
  O  O104  1  0.80984000  0.36690000  0.73737000  1.0
  O  O105  1  0.69016000  0.86690000  0.26263000  1.0
  O  O106  1  0.19016000  0.63310000  0.26263000  1.0
  O  O107  1  0.30984000  0.13310000  0.73737000  1.0
  O  O108  1  0.12261000  0.60467000  0.60153000  1.0
  O  O109  1  0.37739000  0.10467000  0.39847000  1.0
  O  O110  1  0.87739000  0.39533000  0.39847000  1.0
  O  O111  1  0.62261000  0.89533000  0.60153000  1.0
  O  O112  1  0.04562000  0.48630000  0.71732000  1.0
  O  O113  1  0.45438000  0.98630000  0.28268000  1.0
  O  O114  1  0.95438000  0.51370000  0.28268000  1.0
  O  O115  1  0.54562000  0.01370000  0.71732000  1.0
