# generated using pymatgen
data_Na2H6C12O13
_symmetry_space_group_name_H-M   'P 1'
_cell_length_a   6.65677000
_cell_length_b   10.32361123
_cell_length_c   11.27830000
_cell_angle_alpha   97.32395786
_cell_angle_beta   90.00060000
_cell_angle_gamma   108.79762883
_symmetry_Int_Tables_number   1
_chemical_formula_structural   Na2H6C12O13
_chemical_formula_sum   'Na4 H12 C24 O26'
_cell_volume   727.04282428
_cell_formula_units_Z   2
loop_
 _symmetry_equiv_pos_site_id
 _symmetry_equiv_pos_as_xyz
  1  'x, y, z'
loop_
 _atom_site_type_symbol
 _atom_site_label
 _atom_site_symmetry_multiplicity
 _atom_site_fract_x
 _atom_site_fract_y
 _atom_site_fract_z
 _atom_site_occupancy
  Na  Na0  1  0.34171000  0.89117000  0.37453000  1.0
  Na  Na1  1  0.45067000  0.10883000  0.12533000  1.0
  Na  Na2  1  0.65829000  0.10883000  0.62547000  1.0
  Na  Na3  1  0.54933000  0.89117000  0.87467000  1.0
  H  H4  1  0.03827000  0.40318000  0.29254000  1.0
  H  H5  1  0.63501000  0.59639000  0.20743000  1.0
  H  H6  1  0.96172000  0.59682000  0.70746000  1.0
  H  H7  1  0.36499000  0.40361000  0.79257000  1.0
  H  H8  1  0.01865000  0.22726000  0.77950000  1.0
  H  H9  1  0.79159000  0.77315000  0.72045000  1.0
  H  H10  1  0.98135000  0.77274000  0.22049000  1.0
  H  H11  1  0.20842000  0.22686000  0.27955000  1.0
  H  H12  1  0.76872000  0.07334000  0.28627000  1.0
  H  H13  1  0.69525000  0.92640000  0.21366000  1.0
  H  H14  1  0.23128000  0.92666000  0.71373000  1.0
  H  H15  1  0.30475000  0.07360000  0.78634000  1.0
  C  C16  1  0.37271000  0.20323000  0.41934000  1.0
  C  C17  1  0.16964000  0.79667000  0.08089000  1.0
  C  C18  1  0.62729000  0.79677000  0.58066000  1.0
  C  C19  1  0.83036000  0.20333000  0.91911000  1.0
  C  C20  1  0.43670000  0.35740000  0.45913000  1.0
  C  C21  1  0.07947000  0.64257000  0.04095000  1.0
  C  C22  1  0.56330000  0.64260000  0.54087000  1.0
  C  C23  1  0.92054000  0.35743000  0.95905000  1.0
  C  C24  1  0.61962000  0.44850000  0.41653000  1.0
  C  C25  1  0.17096000  0.55130000  0.08356000  1.0
  C  C26  1  0.38037000  0.55150000  0.58347000  1.0
  C  C27  1  0.82904000  0.44870000  0.91644000  1.0
  C  C28  1  0.75234000  0.39003000  0.33251000  1.0
  C  C29  1  0.36217000  0.60963000  0.16760000  1.0
  C  C30  1  0.24765000  0.60997000  0.66749000  1.0
  C  C31  1  0.63784000  0.39037000  0.83240000  1.0
  C  C32  1  0.31860000  0.40874000  0.54447000  1.0
  C  C33  1  0.91016000  0.59143000  0.95550000  1.0
  C  C34  1  0.68139000  0.59126000  0.45553000  1.0
  C  C35  1  0.08985000  0.40857000  0.04450000  1.0
  C  C36  1  0.13942000  0.30925000  0.60262000  1.0
  C  C37  1  0.83066000  0.69113000  0.89749000  1.0
  C  C38  1  0.86058000  0.69075000  0.39738000  1.0
  C  C39  1  0.16935000  0.30887000  0.10251000  1.0
  O  O40  1  0.43798000  0.12841000  0.47564000  1.0
  O  O41  1  0.30987000  0.87155000  0.02473000  1.0
  O  O42  1  0.56202000  0.87159000  0.52437000  1.0
  O  O43  1  0.69013000  0.12845000  0.97527000  1.0
  O  O44  1  0.24409000  0.15047000  0.32455000  1.0
  O  O45  1  0.09352000  0.84928000  0.17564000  1.0
  O  O46  1  0.75591000  0.84953000  0.67545000  1.0
  O  O47  1  0.90648000  0.15072000  0.82436000  1.0
  O  O48  1  0.67259000  0.28998000  0.25519000  1.0
  O  O49  1  0.38260000  0.70968000  0.24493000  1.0
  O  O50  1  0.32741000  0.71002000  0.74481000  1.0
  O  O51  1  0.61741000  0.29032000  0.75507000  1.0
  O  O52  1  0.95831000  0.45241000  0.35179000  1.0
  O  O53  1  0.50573000  0.54719000  0.14823000  1.0
  O  O54  1  0.04168000  0.54759000  0.64821000  1.0
  O  O55  1  0.49428000  0.45281000  0.85177000  1.0
  O  O56  1  0.98898000  0.22203000  0.54213000  1.0
  O  O57  1  0.76752000  0.77834000  0.95809000  1.0
  O  O58  1  0.01103000  0.77798000  0.45787000  1.0
  O  O59  1  0.23247000  0.22166000  0.04192000  1.0
  O  O60  1  0.16516000  0.32204000  0.71854000  1.0
  O  O61  1  0.84364000  0.67848000  0.78157000  1.0
  O  O62  1  0.83484000  0.67796000  0.28146000  1.0
  O  O63  1  0.15637000  0.32152000  0.21843000  1.0
  O  O64  1  0.64368000  0.99990000  0.24995000  1.0
  O  O65  1  0.35631000  0.00010000  0.75004000  1.0
