# generated using pymatgen
data_Cu2H11C22N5O8
_symmetry_space_group_name_H-M   'P 1'
_cell_length_a   8.49724000
_cell_length_b   9.44788000
_cell_length_c   14.16170000
_cell_angle_alpha   81.04790000
_cell_angle_beta   89.20370000
_cell_angle_gamma   73.97860000
_symmetry_Int_Tables_number   1
_chemical_formula_structural   Cu2H11C22N5O8
_chemical_formula_sum   'Cu4 H22 C44 N10 O16'
_cell_volume   1078.93836466
_cell_formula_units_Z   2
loop_
 _symmetry_equiv_pos_site_id
 _symmetry_equiv_pos_as_xyz
  1  'x, y, z'
loop_
 _atom_site_type_symbol
 _atom_site_label
 _atom_site_symmetry_multiplicity
 _atom_site_fract_x
 _atom_site_fract_y
 _atom_site_fract_z
 _atom_site_occupancy
  Cu  Cu0  1  0.44324000  0.35532000  0.85458000  1.0
  Cu  Cu1  1  0.55676000  0.64468000  0.14542000  1.0
  Cu  Cu2  1  0.48255000  0.19892000  0.09850000  1.0
  Cu  Cu3  1  0.51745000  0.80108000  0.90150000  1.0
  H  H4  1  0.93529000  0.11740000  0.82167000  1.0
  H  H5  1  0.06471000  0.88260000  0.17833000  1.0
  H  H6  1  0.04063000  0.60296000  0.99465000  1.0
  H  H7  1  0.95937000  0.39704000  0.00535000  1.0
  H  H8  1  0.40989000  0.63943000  0.71727000  1.0
  H  H9  1  0.59011000  0.36057000  0.28273000  1.0
  H  H10  1  0.54113000  0.71375000  0.56701000  1.0
  H  H11  1  0.45886000  0.28625000  0.43299000  1.0
  H  H12  1  0.79228000  0.24864000  0.56953000  1.0
  H  H13  1  0.20772000  0.75136000  0.43046000  1.0
  H  H14  1  0.64936000  0.19170000  0.72067000  1.0
  H  H15  1  0.35064000  0.80830000  0.27933000  1.0
  H  H16  1  0.08858000  0.21329000  0.37156000  1.0
  H  H17  1  0.91142000  0.78671000  0.62844000  1.0
  H  H18  1  0.31507000  0.09654000  0.26840000  1.0
  H  H19  1  0.68492000  0.90346000  0.73160000  1.0
  H  H20  1  0.28229000  0.50310000  0.09895000  1.0
  H  H21  1  0.71771000  0.49690000  0.90105000  1.0
  H  H22  1  0.05770000  0.63679000  0.19466000  1.0
  H  H23  1  0.94230000  0.36321000  0.80534000  1.0
  H  H24  1  0.85480000  0.74610000  0.31148000  1.0
  H  H25  1  0.14520000  0.25390000  0.68852000  1.0
  C  C26  1  0.69902000  0.08903000  0.94718000  1.0
  C  C27  1  0.30097000  0.91097000  0.05282000  1.0
  C  C28  1  0.84776000  0.97073000  0.92787000  1.0
  C  C29  1  0.15226000  0.02926000  0.07213000  1.0
  C  C30  1  0.95946000  0.00488000  0.86106000  1.0
  C  C31  1  0.04055000  0.99512000  0.13894000  1.0
  C  C32  1  0.10557000  0.90012000  0.84497000  1.0
  C  C33  1  0.89443000  0.09988000  0.15504000  1.0
  C  C34  1  0.13262000  0.75351000  0.89370000  1.0
  C  C35  1  0.86738000  0.24650000  0.10631000  1.0
  C  C36  1  0.01866000  0.71765000  0.95865000  1.0
  C  C37  1  0.98134000  0.28236000  0.04135000  1.0
  C  C38  1  0.87907000  0.82518000  0.97882000  1.0
  C  C39  1  0.12092000  0.17482000  0.02118000  1.0
  C  C40  1  0.77153000  0.77597000  0.05441000  1.0
  C  C41  1  0.22847000  0.22403000  0.94559000  1.0
  C  C42  1  0.22019000  0.95346000  0.77422000  1.0
  C  C43  1  0.77981000  0.04655000  0.22578000  1.0
  C  C44  1  0.27715000  0.62500000  0.88212000  1.0
  C  C45  1  0.72286000  0.37499000  0.11788000  1.0
  C  C46  1  0.49417000  0.55566000  0.68243000  1.0
  C  C47  1  0.50583000  0.44435000  0.31757000  1.0
  C  C48  1  0.56804000  0.59673000  0.59868000  1.0
  C  C49  1  0.43195000  0.40327000  0.40131000  1.0
  C  C50  1  0.67910000  0.48651000  0.55653000  1.0
  C  C51  1  0.32090000  0.51348000  0.44347000  1.0
  C  C52  1  0.70733000  0.33754000  0.60021000  1.0
  C  C53  1  0.29267000  0.66246000  0.39979000  1.0
  C  C54  1  0.62824000  0.30540000  0.68363000  1.0
  C  C55  1  0.37176000  0.69461000  0.31637000  1.0
  C  C56  1  0.76558000  0.52371000  0.47092000  1.0
  C  C57  1  0.23441000  0.47629000  0.52907000  1.0
  C  C58  1  0.92897000  0.50127000  0.35602000  1.0
  C  C59  1  0.07103000  0.49873000  0.64398000  1.0
  C  C60  1  0.05529000  0.43537000  0.29236000  1.0
  C  C61  1  0.94470000  0.56463000  0.70764000  1.0
  C  C62  1  0.12834000  0.28054000  0.31141000  1.0
  C  C63  1  0.87166000  0.71946000  0.68859000  1.0
  C  C64  1  0.25224000  0.21530000  0.25404000  1.0
  C  C65  1  0.74776000  0.78470000  0.74596000  1.0
  C  C66  1  0.23423000  0.44332000  0.15948000  1.0
  C  C67  1  0.76577000  0.55668000  0.84052000  1.0
  C  C68  1  0.11108000  0.51719000  0.21430000  1.0
  C  C69  1  0.88891000  0.48281000  0.78570000  1.0
  N  N70  1  0.52514000  0.41235000  0.72539000  1.0
  N  N71  1  0.47486000  0.58766000  0.27461000  1.0
  N  N72  1  0.87744000  0.42024000  0.42970000  1.0
  N  N73  1  0.12256000  0.57975000  0.57030000  1.0
  N  N74  1  0.74463000  0.66486000  0.42681000  1.0
  N  N75  1  0.25537000  0.33515000  0.57319000  1.0
  N  N76  1  0.84820000  0.64867000  0.35465000  1.0
  N  N77  1  0.15180000  0.35132000  0.64534000  1.0
  N  N78  1  0.30429000  0.29494000  0.17883000  1.0
  N  N79  1  0.69570000  0.70506000  0.82117000  1.0
  O  O80  1  0.65449000  0.20478000  0.88326000  1.0
  O  O81  1  0.34551000  0.79521000  0.11674000  1.0
  O  O82  1  0.63265000  0.06245000  0.02640000  1.0
  O  O83  1  0.36735000  0.93755000  0.97361000  1.0
  O  O84  1  0.65548000  0.72295000  0.02506000  1.0
  O  O85  1  0.34453000  0.27705000  0.97494000  1.0
  O  O86  1  0.80029000  0.77034000  0.14038000  1.0
  O  O87  1  0.19971000  0.22965000  0.85962000  1.0
  O  O88  1  0.37731000  0.89275000  0.78360000  1.0
  O  O89  1  0.62270000  0.10726000  0.21640000  1.0
  O  O90  1  0.15676000  0.05513000  0.70702000  1.0
  O  O91  1  0.84326000  0.94487000  0.29298000  1.0
  O  O92  1  0.24688000  0.52892000  0.83525000  1.0
  O  O93  1  0.75312000  0.47108000  0.16475000  1.0
  O  O94  1  0.41367000  0.60843000  0.92206000  1.0
  O  O95  1  0.58633000  0.39157000  0.07794000  1.0
