# generated using pymatgen
data_Cu2H7(C4N)4
_symmetry_space_group_name_H-M   'P 1'
_cell_length_a   27.41730000
_cell_length_b   27.44990000
_cell_length_c   29.33560000
_cell_angle_alpha   89.90280000
_cell_angle_beta   89.98560000
_cell_angle_gamma   89.90360000
_symmetry_Int_Tables_number   1
_chemical_formula_structural   Cu2H7(C4N)4
_chemical_formula_sum   'Cu12 H42 C96 N24'
_cell_volume   22077.97173337
_cell_formula_units_Z   6
loop_
 _symmetry_equiv_pos_site_id
 _symmetry_equiv_pos_as_xyz
  1  'x, y, z'
loop_
 _atom_site_type_symbol
 _atom_site_label
 _atom_site_symmetry_multiplicity
 _atom_site_fract_x
 _atom_site_fract_y
 _atom_site_fract_z
 _atom_site_occupancy
  Cu  Cu0  1  0.78190000  0.78203000  0.85422000  1.0
  Cu  Cu1  1  0.86545000  0.78319000  0.77945000  1.0
  Cu  Cu2  1  0.78318000  0.86561000  0.77952000  1.0
  Cu  Cu3  1  0.78161000  0.21806000  0.14567000  1.0
  Cu  Cu4  1  0.86517000  0.21692000  0.22052000  1.0
  Cu  Cu5  1  0.78284000  0.13493000  0.22071000  1.0
  Cu  Cu6  1  0.21773000  0.78222000  0.14548000  1.0
  Cu  Cu7  1  0.13413000  0.78334000  0.22027000  1.0
  Cu  Cu8  1  0.21688000  0.86503000  0.22053000  1.0
  Cu  Cu9  1  0.21798000  0.21807000  0.85395000  1.0
  Cu  Cu10  1  0.13431000  0.21683000  0.77922000  1.0
  Cu  Cu11  1  0.21703000  0.13491000  0.77925000  1.0
  H  H12  1  0.82002000  0.69859000  0.91961000  1.0
  H  H13  1  0.93783000  0.70384000  0.82121000  1.0
  H  H14  1  0.70403000  0.93804000  0.82130000  1.0
  H  H15  1  0.69841000  0.82009000  0.91955000  1.0
  H  H16  1  0.93098000  0.81924000  0.69691000  1.0
  H  H17  1  0.81944000  0.93129000  0.69719000  1.0
  H  H18  1  0.81981000  0.30112000  0.08005000  1.0
  H  H19  1  0.93742000  0.29603000  0.17862000  1.0
  H  H20  1  0.70359000  0.06263000  0.17945000  1.0
  H  H21  1  0.69802000  0.17997000  0.08054000  1.0
  H  H22  1  0.93070000  0.18074000  0.30317000  1.0
  H  H23  1  0.81888000  0.06934000  0.30318000  1.0
  H  H24  1  0.17964000  0.69903000  0.08016000  1.0
  H  H25  1  0.06190000  0.70412000  0.17864000  1.0
  H  H26  1  0.29645000  0.93718000  0.17924000  1.0
  H  H27  1  0.30143000  0.82023000  0.08028000  1.0
  H  H28  1  0.06878000  0.81942000  0.30295000  1.0
  H  H29  1  0.18108000  0.93033000  0.30307000  1.0
  H  H30  1  0.17963000  0.30123000  0.91923000  1.0
  H  H31  1  0.06178000  0.29593000  0.82093000  1.0
  H  H32  1  0.29654000  0.06263000  0.82078000  1.0
  H  H33  1  0.30169000  0.18003000  0.91925000  1.0
  H  H34  1  0.06899000  0.18067000  0.69662000  1.0
  H  H35  1  0.18129000  0.06938000  0.69691000  1.0
  H  H36  1  0.05624000  0.05524000  0.53068000  1.0
  H  H37  1  0.94454000  0.94482000  0.53102000  1.0
  H  H38  1  0.05625000  0.94473000  0.46923000  1.0
  H  H39  1  0.94435000  0.05532000  0.46931000  1.0
  H  H40  1  0.00050000  0.00010000  0.65817000  1.0
  H  H41  1  0.99982000  0.99984000  0.34196000  1.0
  H  H42  1  0.04998000  0.53275000  0.05708000  1.0
  H  H43  1  0.95052000  0.53295000  0.94331000  1.0
  H  H44  1  0.95043000  0.46686000  0.05701000  1.0
  H  H45  1  0.04994000  0.46695000  0.94322000  1.0
  H  H46  1  0.00006000  0.66899000  0.00012000  1.0
  H  H47  1  0.99940000  0.33078000  0.99946000  1.0
  H  H48  1  0.53291000  0.04939000  0.05736000  1.0
  H  H49  1  0.53331000  0.95071000  0.94322000  1.0
  H  H50  1  0.46714000  0.04948000  0.94305000  1.0
  H  H51  1  0.46704000  0.95061000  0.05734000  1.0
  H  H52  1  0.66941000  0.00009000  0.00048000  1.0
  H  H53  1  0.33078000  0.99995000  0.99987000  1.0
  C  C54  1  0.84406000  0.70555000  0.89097000  1.0
  C  C55  1  0.89089000  0.68660000  0.88224000  1.0
  C  C56  1  0.90441000  0.70825000  0.84057000  1.0
  C  C57  1  0.70833000  0.90458000  0.84062000  1.0
  C  C58  1  0.68667000  0.89105000  0.88228000  1.0
  C  C59  1  0.70546000  0.84416000  0.89093000  1.0
  C  C60  1  0.89941000  0.84220000  0.70294000  1.0
  C  C61  1  0.88634000  0.88639000  0.68170000  1.0
  C  C62  1  0.84228000  0.89959000  0.70309000  1.0
  C  C63  1  0.84381000  0.29422000  0.10875000  1.0
  C  C64  1  0.89055000  0.31317000  0.11750000  1.0
  C  C65  1  0.90404000  0.29161000  0.15924000  1.0
  C  C66  1  0.70793000  0.09594000  0.15992000  1.0
  C  C67  1  0.68625000  0.10930000  0.11821000  1.0
  C  C68  1  0.70506000  0.15605000  0.10927000  1.0
  C  C69  1  0.89906000  0.15795000  0.29721000  1.0
  C  C70  1  0.88589000  0.11389000  0.31855000  1.0
  C  C71  1  0.84180000  0.10089000  0.29722000  1.0
  C  C72  1  0.15559000  0.70595000  0.10881000  1.0
  C  C73  1  0.10890000  0.68688000  0.11765000  1.0
  C  C74  1  0.09528000  0.70858000  0.15923000  1.0
  C  C75  1  0.29197000  0.90397000  0.15971000  1.0
  C  C76  1  0.31355000  0.89069000  0.11797000  1.0
  C  C77  1  0.29451000  0.84407000  0.10903000  1.0
  C  C78  1  0.10050000  0.84212000  0.29699000  1.0
  C  C79  1  0.11387000  0.88600000  0.31840000  1.0
  C  C80  1  0.15803000  0.89892000  0.29707000  1.0
  C  C81  1  0.15560000  0.29427000  0.89061000  1.0
  C  C82  1  0.10874000  0.31318000  0.88188000  1.0
  C  C83  1  0.09522000  0.29154000  0.84028000  1.0
  C  C84  1  0.29209000  0.09595000  0.84018000  1.0
  C  C85  1  0.31370000  0.10933000  0.88185000  1.0
  C  C86  1  0.29473000  0.15609000  0.89061000  1.0
  C  C87  1  0.10072000  0.15790000  0.70266000  1.0
  C  C88  1  0.11412000  0.11391000  0.68139000  1.0
  C  C89  1  0.15823000  0.10090000  0.70280000  1.0
  C  C90  1  0.03179000  0.03105000  0.54929000  1.0
  C  C91  1  0.00040000  0.00001000  0.52548000  1.0
  C  C92  1  0.96905000  0.96901000  0.54948000  1.0
  C  C93  1  0.96883000  0.96871000  0.59751000  1.0
  C  C94  1  0.00048000  0.00006000  0.62104000  1.0
  C  C95  1  0.03207000  0.03142000  0.59731000  1.0
  C  C96  1  0.00030000  0.00001000  0.47464000  1.0
  C  C97  1  0.03166000  0.96893000  0.45072000  1.0
  C  C98  1  0.03175000  0.96853000  0.40269000  1.0
  C  C99  1  0.99997000  0.99989000  0.37908000  1.0
  C  C100  1  0.96839000  0.03134000  0.40274000  1.0
  C  C101  1  0.96880000  0.03106000  0.45076000  1.0
  C  C102  1  0.02801000  0.55255000  0.03221000  1.0
  C  C103  1  0.00026000  0.52701000  0.00019000  1.0
  C  C104  1  0.97245000  0.55266000  0.96815000  1.0
  C  C105  1  0.97186000  0.60399000  0.96800000  1.0
  C  C106  1  0.00011000  0.62930000  0.00013000  1.0
  C  C107  1  0.02844000  0.60389000  0.03229000  1.0
  C  C108  1  0.00021000  0.47274000  0.00014000  1.0
  C  C109  1  0.97230000  0.44712000  0.03207000  1.0
  C  C110  1  0.97151000  0.39580000  0.03195000  1.0
  C  C111  1  0.99964000  0.37046000  0.99966000  1.0
  C  C112  1  0.02810000  0.39584000  0.96764000  1.0
  C  C113  1  0.02788000  0.44717000  0.96800000  1.0
  C  C114  1  0.55279000  0.02761000  0.03245000  1.0
  C  C115  1  0.52726000  0.00004000  0.00030000  1.0
  C  C116  1  0.55300000  0.97249000  0.96820000  1.0
  C  C117  1  0.60440000  0.97196000  0.96817000  1.0
  C  C118  1  0.62968000  0.00007000  0.00043000  1.0
  C  C119  1  0.60418000  0.02820000  0.03260000  1.0
  C  C120  1  0.47294000  0.00004000  0.00021000  1.0
  C  C121  1  0.44733000  0.02765000  0.96798000  1.0
  C  C122  1  0.39594000  0.02817000  0.96777000  1.0
  C  C123  1  0.37052000  0.99998000  0.99997000  1.0
  C  C124  1  0.39588000  0.97182000  0.03229000  1.0
  C  C125  1  0.44728000  0.97241000  0.03232000  1.0
  C  C126  1  0.91869000  0.65561000  0.91043000  1.0
  C  C127  1  0.94296000  0.63056000  0.93630000  1.0
  C  C128  1  0.91831000  0.34413000  0.08933000  1.0
  C  C129  1  0.94254000  0.36923000  0.06353000  1.0
  C  C130  1  0.08130000  0.65570000  0.08966000  1.0
  C  C131  1  0.05723000  0.63044000  0.06394000  1.0
  C  C132  1  0.08099000  0.34419000  0.91001000  1.0
  C  C133  1  0.05684000  0.36929000  0.93586000  1.0
  C  C134  1  0.65586000  0.91889000  0.91053000  1.0
  C  C135  1  0.63101000  0.94320000  0.93646000  1.0
  C  C136  1  0.34460000  0.08143000  0.91004000  1.0
  C  C137  1  0.36947000  0.05705000  0.93597000  1.0
  C  C138  1  0.65540000  0.08142000  0.09014000  1.0
  C  C139  1  0.63058000  0.05705000  0.06430000  1.0
  C  C140  1  0.34447000  0.91857000  0.08986000  1.0
  C  C141  1  0.36936000  0.94294000  0.06399000  1.0
  C  C142  1  0.91316000  0.91318000  0.64929000  1.0
  C  C143  1  0.93766000  0.93769000  0.62320000  1.0
  C  C144  1  0.08723000  0.91282000  0.35090000  1.0
  C  C145  1  0.06285000  0.93739000  0.37703000  1.0
  C  C146  1  0.08752000  0.08710000  0.64894000  1.0
  C  C147  1  0.06317000  0.06253000  0.62286000  1.0
  C  C148  1  0.91265000  0.08703000  0.35100000  1.0
  C  C149  1  0.93714000  0.06245000  0.37712000  1.0
  N  N150  1  0.86848000  0.73796000  0.82602000  1.0
  N  N151  1  0.83111000  0.73628000  0.85725000  1.0
  N  N152  1  0.73610000  0.83120000  0.85720000  1.0
  N  N153  1  0.73790000  0.86862000  0.82602000  1.0
  N  N154  1  0.83049000  0.86604000  0.73474000  1.0
  N  N155  1  0.86589000  0.83048000  0.73465000  1.0
  N  N156  1  0.86817000  0.26197000  0.17381000  1.0
  N  N157  1  0.83086000  0.26360000  0.14252000  1.0
  N  N158  1  0.73576000  0.16909000  0.14290000  1.0
  N  N159  1  0.73754000  0.13186000  0.17429000  1.0
  N  N160  1  0.83011000  0.13442000  0.26548000  1.0
  N  N161  1  0.86559000  0.16977000  0.26547000  1.0
  N  N162  1  0.13104000  0.73839000  0.17363000  1.0
  N  N163  1  0.16840000  0.73675000  0.14238000  1.0
  N  N164  1  0.26379000  0.83102000  0.14269000  1.0
  N  N165  1  0.26221000  0.86812000  0.17409000  1.0
  N  N166  1  0.16957000  0.86550000  0.26528000  1.0
  N  N167  1  0.13393000  0.83031000  0.26523000  1.0
  N  N168  1  0.13118000  0.26190000  0.82576000  1.0
  N  N169  1  0.16857000  0.26360000  0.85695000  1.0
  N  N170  1  0.26403000  0.16912000  0.85691000  1.0
  N  N171  1  0.26238000  0.13188000  0.82566000  1.0
  N  N172  1  0.16974000  0.13438000  0.73449000  1.0
  N  N173  1  0.13411000  0.16970000  0.73441000  1.0
