# generated using pymatgen
data_SmH15C22S2(NO4)2
_symmetry_space_group_name_H-M   'P 1'
_cell_length_a   8.85316000
_cell_length_b   11.85120000
_cell_length_c   12.67740000
_cell_angle_alpha   105.77100000
_cell_angle_beta   108.85300000
_cell_angle_gamma   100.00200000
_symmetry_Int_Tables_number   1
_chemical_formula_structural   SmH15C22S2(NO4)2
_chemical_formula_sum   'Sm2 H30 C44 S4 N4 O16'
_cell_volume   1160.36056381
_cell_formula_units_Z   2
loop_
 _symmetry_equiv_pos_site_id
 _symmetry_equiv_pos_as_xyz
  1  'x, y, z'
loop_
 _atom_site_type_symbol
 _atom_site_label
 _atom_site_symmetry_multiplicity
 _atom_site_fract_x
 _atom_site_fract_y
 _atom_site_fract_z
 _atom_site_occupancy
  Sm  Sm0  1  0.54260000  0.42708000  0.35815000  1.0
  Sm  Sm1  1  0.45740000  0.57292000  0.64185000  1.0
  H  H2  1  0.88239000  0.29884000  0.77435000  1.0
  H  H3  1  0.11761000  0.70116000  0.22565000  1.0
  H  H4  1  0.81138000  0.11757000  0.84165000  1.0
  H  H5  1  0.18861000  0.88244000  0.15835000  1.0
  H  H6  1  0.32646000  0.85658000  0.64906000  1.0
  H  H7  1  0.67354000  0.14341000  0.35094000  1.0
  H  H8  1  0.24366000  0.97774000  0.51744000  1.0
  H  H9  1  0.75634000  0.02226000  0.48255000  1.0
  H  H10  1  0.29786000  0.16322000  0.47199000  1.0
  H  H11  1  0.70213000  0.83678000  0.52801000  1.0
  H  H12  1  0.92609000  0.62852000  0.50842000  1.0
  H  H13  1  0.07392000  0.37148000  0.49158000  1.0
  H  H14  1  0.10069000  0.82680000  0.52807000  1.0
  H  H15  1  0.89931000  0.17320000  0.47193000  1.0
  H  H16  1  0.00370000  0.91715000  0.36764000  1.0
  H  H17  1  0.99630000  0.08285000  0.63236000  1.0
  H  H18  1  0.78163000  0.90223000  0.17738000  1.0
  H  H19  1  0.21837000  0.09777000  0.82262000  1.0
  H  H20  1  0.50277000  0.79688000  0.01979000  1.0
  H  H21  1  0.49723000  0.20312000  0.98021000  1.0
  H  H22  1  0.24136000  0.61845000  0.92569000  1.0
  H  H23  1  0.75863000  0.38155000  0.07431000  1.0
  H  H24  1  0.08936000  0.42028000  0.92340000  1.0
  H  H25  1  0.91064000  0.57973000  0.07660000  1.0
  H  H26  1  0.22281000  0.33912000  0.08342000  1.0
  H  H27  1  0.77719000  0.66088000  0.91658000  1.0
  H  H28  1  0.82604000  0.38958000  0.26945000  1.0
  H  H29  1  0.17396000  0.61042000  0.73056000  1.0
  H  H30  1  0.67263000  0.26094000  0.20895000  1.0
  H  H31  1  0.32737000  0.73906000  0.79106000  1.0
  C  C32  1  0.69742000  0.33974000  0.64469000  1.0
  C  C33  1  0.30258000  0.66026000  0.35531000  1.0
  C  C34  1  0.75340000  0.26943000  0.71100000  1.0
  C  C35  1  0.24660000  0.73057000  0.28900000  1.0
  C  C36  1  0.64310000  0.15888000  0.69693000  1.0
  C  C37  1  0.35690000  0.84112000  0.30307000  1.0
  C  C38  1  0.68800000  0.08794000  0.77011000  1.0
  C  C39  1  0.31200000  0.91206000  0.22989000  1.0
  C  C40  1  0.57291000  0.98292000  0.75286000  1.0
  C  C41  1  0.42710000  0.01708000  0.24714000  1.0
  C  C42  1  0.41217000  0.94117000  0.66045000  1.0
  C  C43  1  0.58783000  0.05883000  0.33955000  1.0
  C  C44  1  0.36672000  0.00769000  0.58867000  1.0
  C  C45  1  0.63328000  0.99231000  0.41133000  1.0
  C  C46  1  0.47775000  0.11910000  0.60603000  1.0
  C  C47  1  0.52226000  0.88090000  0.39397000  1.0
  C  C48  1  0.42454000  0.19239000  0.53903000  1.0
  C  C49  1  0.57546000  0.80761000  0.46097000  1.0
  C  C50  1  0.52783000  0.30576000  0.56168000  1.0
  C  C51  1  0.47217000  0.69424000  0.43832000  1.0
  C  C52  1  0.88566000  0.66987000  0.44118000  1.0
  C  C53  1  0.11434000  0.33013000  0.55882000  1.0
  C  C54  1  0.98415000  0.78156000  0.45103000  1.0
  C  C55  1  0.01585000  0.21844000  0.54897000  1.0
  C  C56  1  0.93063000  0.83038000  0.36315000  1.0
  C  C57  1  0.06937000  0.16962000  0.63685000  1.0
  C  C58  1  0.77681000  0.76806000  0.26583000  1.0
  C  C59  1  0.22318000  0.23194000  0.73417000  1.0
  C  C60  1  0.70920000  0.81627000  0.17480000  1.0
  C  C61  1  0.29079000  0.18373000  0.82520000  1.0
  C  C62  1  0.55427000  0.75761000  0.08708000  1.0
  C  C63  1  0.44573000  0.24239000  0.91292000  1.0
  C  C64  1  0.45821000  0.64438000  0.08198000  1.0
  C  C65  1  0.54179000  0.35562000  0.91802000  1.0
  C  C66  1  0.29755000  0.58078000  0.99309000  1.0
  C  C67  1  0.70245000  0.41922000  0.00691000  1.0
  C  C68  1  0.21276000  0.47072000  0.99199000  1.0
  C  C69  1  0.78724000  0.52928000  0.00801000  1.0
  C  C70  1  0.28723000  0.42502000  0.08092000  1.0
  C  C71  1  0.71277000  0.57498000  0.91908000  1.0
  C  C72  1  0.52329000  0.59181000  0.16892000  1.0
  C  C73  1  0.47671000  0.40819000  0.83108000  1.0
  C  C74  1  0.68432000  0.65603000  0.26398000  1.0
  C  C75  1  0.31568000  0.34397000  0.73602000  1.0
  S  S76  1  0.82407000  0.47764000  0.65265000  1.0
  S  S77  1  0.17593000  0.52236000  0.34735000  1.0
  S  S78  1  0.61404000  0.89342000  0.84516000  1.0
  S  S79  1  0.38596000  0.10659000  0.15484000  1.0
  N  N80  1  0.73994000  0.60872000  0.35085000  1.0
  N  N81  1  0.26006000  0.39128000  0.64915000  1.0
  N  N82  1  0.43712000  0.48442000  0.16814000  1.0
  N  N83  1  0.56288000  0.51558000  0.83186000  1.0
  O  O84  1  0.99631000  0.49678000  0.73000000  1.0
  O  O85  1  0.00369000  0.50322000  0.27000000  1.0
  O  O86  1  0.75457000  0.57611000  0.69740000  1.0
  O  O87  1  0.24543000  0.42389000  0.30260000  1.0
  O  O88  1  0.80222000  0.45706000  0.52663000  1.0
  O  O89  1  0.19778000  0.54294000  0.47337000  1.0
  O  O90  1  0.46876000  0.87404000  0.87838000  1.0
  O  O91  1  0.53125000  0.12597000  0.12163000  1.0
  O  O92  1  0.60970000  0.77431000  0.76103000  1.0
  O  O93  1  0.39030000  0.22569000  0.23897000  1.0
  O  O94  1  0.77396000  0.95433000  0.94247000  1.0
  O  O95  1  0.22605000  0.04568000  0.05753000  1.0
  O  O96  1  0.47294000  0.38452000  0.51148000  1.0
  O  O97  1  0.52706000  0.61548000  0.48852000  1.0
  O  O98  1  0.72554000  0.34347000  0.27359000  1.0
  O  O99  1  0.27447000  0.65653000  0.72641000  1.0
