# generated using pymatgen
data_Zn2H23C29N5O11
_symmetry_space_group_name_H-M   'P 1'
_cell_length_a   10.57760000
_cell_length_b   10.71360000
_cell_length_c   13.44080000
_cell_angle_alpha   90.00050000
_cell_angle_beta   94.41790000
_cell_angle_gamma   89.99940000
_symmetry_Int_Tables_number   1
_chemical_formula_structural   Zn2H23C29N5O11
_chemical_formula_sum   'Zn4 H46 C58 N10 O22'
_cell_volume   1518.64184226
_cell_formula_units_Z   2
loop_
 _symmetry_equiv_pos_site_id
 _symmetry_equiv_pos_as_xyz
  1  'x, y, z'
loop_
 _atom_site_type_symbol
 _atom_site_label
 _atom_site_symmetry_multiplicity
 _atom_site_fract_x
 _atom_site_fract_y
 _atom_site_fract_z
 _atom_site_occupancy
  Zn  Zn0  1  0.23843000  0.60591000  0.89273000  1.0
  Zn  Zn1  1  0.76157000  0.10591000  0.10726000  1.0
  Zn  Zn2  1  0.71000000  0.30555000  0.53731000  1.0
  Zn  Zn3  1  0.29000000  0.80555000  0.46269000  1.0
  H  H4  1  0.48004000  0.40597000  0.53359000  1.0
  H  H5  1  0.51996000  0.90597000  0.46641000  1.0
  H  H6  1  0.47920000  0.34447000  0.42582000  1.0
  H  H7  1  0.52080000  0.84448000  0.57418000  1.0
  H  H8  1  0.63504000  0.07290000  0.47041000  1.0
  H  H9  1  0.36496000  0.57291000  0.52959000  1.0
  H  H10  1  0.57822000  0.12496000  0.57324000  1.0
  H  H11  1  0.42179000  0.62495000  0.42676000  1.0
  H  H12  1  0.73413000  0.22047000  0.34123000  1.0
  H  H13  1  0.26587000  0.72047000  0.65877000  1.0
  H  H14  1  0.69034000  0.36094000  0.33791000  1.0
  H  H15  1  0.30967000  0.86094000  0.66209000  1.0
  H  H16  1  0.56701000  0.16661000  0.87728000  1.0
  H  H17  1  0.43302000  0.66660000  0.12272000  1.0
  H  H18  1  0.14785000  0.31113000  0.90331000  1.0
  H  H19  1  0.85215000  0.81113000  0.09670000  1.0
  H  H20  1  0.94071000  0.19535000  0.91193000  1.0
  H  H21  1  0.05929000  0.69535000  0.08807000  1.0
  H  H22  1  0.73974000  0.31689000  0.89601000  1.0
  H  H23  1  0.26026000  0.81690000  0.10398000  1.0
  H  H24  1  0.74718000  0.54759000  0.87457000  1.0
  H  H25  1  0.25281000  0.04760000  0.12542000  1.0
  H  H26  1  0.76908000  0.73453000  0.83862000  1.0
  H  H27  1  0.23091000  0.23452000  0.16139000  1.0
  H  H28  1  0.81100000  0.95870000  0.81446000  1.0
  H  H29  1  0.18899000  0.45870000  0.18556000  1.0
  H  H30  1  0.03745000  0.03612000  0.82996000  1.0
  H  H31  1  0.96254000  0.53612000  0.17005000  1.0
  H  H32  1  0.21301000  0.87824000  0.86472000  1.0
  H  H33  1  0.78698000  0.37825000  0.13528000  1.0
  H  H34  1  0.64264000  0.59324000  0.50260000  1.0
  H  H35  1  0.35735000  0.09324000  0.49739000  1.0
  H  H36  1  0.74845000  0.79759000  0.54660000  1.0
  H  H37  1  0.25153000  0.29758000  0.45339000  1.0
  H  H38  1  0.97309000  0.79384000  0.62586000  1.0
  H  H39  1  0.02688000  0.29383000  0.37414000  1.0
  H  H40  1  0.07926000  0.59050000  0.65724000  1.0
  H  H41  1  0.92072000  0.09048000  0.34277000  1.0
  H  H42  1  0.15540000  0.41958000  0.67799000  1.0
  H  H43  1  0.84459000  0.91957000  0.32202000  1.0
  H  H44  1  0.24234000  0.20318000  0.69715000  1.0
  H  H45  1  0.75766000  0.70317000  0.30286000  1.0
  H  H46  1  0.09698000  0.02202000  0.65174000  1.0
  H  H47  1  0.90304000  0.52201000  0.34827000  1.0
  H  H48  1  0.87119000  0.06921000  0.58692000  1.0
  H  H49  1  0.12882000  0.56920000  0.41308000  1.0
  C  C50  1  0.35802000  0.50126000  0.70539000  1.0
  C  C51  1  0.64199000  0.00126000  0.29461000  1.0
  C  C52  1  0.39922000  0.41998000  0.79312000  1.0
  C  C53  1  0.60080000  0.91999000  0.20688000  1.0
  C  C54  1  0.47650000  0.31394000  0.78955000  1.0
  C  C55  1  0.52351000  0.81395000  0.21044000  1.0
  C  C56  1  0.50779000  0.24981000  0.87880000  1.0
  C  C57  1  0.49223000  0.74981000  0.12120000  1.0
  C  C58  1  0.46939000  0.29424000  0.96980000  1.0
  C  C59  1  0.53061000  0.79424000  0.03019000  1.0
  C  C60  1  0.39308000  0.40166000  0.96679000  1.0
  C  C61  1  0.60692000  0.90166000  0.03321000  1.0
  C  C62  1  0.35050000  0.46709000  0.05890000  1.0
  C  C63  1  0.64950000  0.96708000  0.94109000  1.0
  C  C64  1  0.53032000  0.26823000  0.69561000  1.0
  C  C65  1  0.46970000  0.76823000  0.30439000  1.0
  C  C66  1  0.51115000  0.22645000  0.06558000  1.0
  C  C67  1  0.48885000  0.72644000  0.93442000  1.0
  C  C68  1  0.05689000  0.35982000  0.89558000  1.0
  C  C69  1  0.94310000  0.85982000  0.10443000  1.0
  C  C70  1  0.94273000  0.29592000  0.90014000  1.0
  C  C71  1  0.05726000  0.79592000  0.09986000  1.0
  C  C72  1  0.83014000  0.36413000  0.89139000  1.0
  C  C73  1  0.16986000  0.86413000  0.10860000  1.0
  C  C74  1  0.83466000  0.49317000  0.87872000  1.0
  C  C75  1  0.16533000  0.99317000  0.12128000  1.0
  C  C76  1  0.95350000  0.55005000  0.87391000  1.0
  C  C77  1  0.04649000  0.05005000  0.12609000  1.0
  C  C78  1  0.96929000  0.68657000  0.86057000  1.0
  C  C79  1  0.03071000  0.18658000  0.13943000  1.0
  C  C80  1  0.86672000  0.76819000  0.84221000  1.0
  C  C81  1  0.13327000  0.26819000  0.15780000  1.0
  C  C82  1  0.89051000  0.89492000  0.82908000  1.0
  C  C83  1  0.10949000  0.39492000  0.17093000  1.0
  C  C84  1  0.01542000  0.93758000  0.83756000  1.0
  C  C85  1  0.98457000  0.43758000  0.16245000  1.0
  C  C86  1  0.11308000  0.85184000  0.85607000  1.0
  C  C87  1  0.88691000  0.35185000  0.14393000  1.0
  C  C88  1  0.73790000  0.59656000  0.53965000  1.0
  C  C89  1  0.26210000  0.09656000  0.46034000  1.0
  C  C90  1  0.79764000  0.70989000  0.56390000  1.0
  C  C91  1  0.20235000  0.20988000  0.43610000  1.0
  C  C92  1  0.92171000  0.70785000  0.60688000  1.0
  C  C93  1  0.07827000  0.20783000  0.39312000  1.0
  C  C94  1  0.98195000  0.59342000  0.62436000  1.0
  C  C95  1  0.01804000  0.09340000  0.37564000  1.0
  C  C96  1  0.91557000  0.48334000  0.59955000  1.0
  C  C97  1  0.08443000  0.98333000  0.40045000  1.0
  C  C98  1  0.97205000  0.35753000  0.61724000  1.0
  C  C99  1  0.02796000  0.85752000  0.38276000  1.0
  C  C100  1  0.09661000  0.33939000  0.65719000  1.0
  C  C101  1  0.90340000  0.83937000  0.34281000  1.0
  C  C102  1  0.14372000  0.21847000  0.66973000  1.0
  C  C103  1  0.85628000  0.71845000  0.33028000  1.0
  C  C104  1  0.06379000  0.11806000  0.64422000  1.0
  C  C105  1  0.93622000  0.61804000  0.35578000  1.0
  C  C106  1  0.93978000  0.14285000  0.60684000  1.0
  C  C107  1  0.06023000  0.64284000  0.39316000  1.0
  N  N108  1  0.35786000  0.45696000  0.88002000  1.0
  N  N109  1  0.64214000  0.95696000  0.11997000  1.0
  N  N110  1  0.06217000  0.48342000  0.88192000  1.0
  N  N111  1  0.93782000  0.98342000  0.11809000  1.0
  N  N112  1  0.09015000  0.72942000  0.86597000  1.0
  N  N113  1  0.90985000  0.22943000  0.13402000  1.0
  N  N114  1  0.79532000  0.48638000  0.55745000  1.0
  N  N115  1  0.20468000  0.98638000  0.44254000  1.0
  N  N116  1  0.89615000  0.25937000  0.59264000  1.0
  N  N117  1  0.10385000  0.75935000  0.40736000  1.0
  O  O118  1  0.27930000  0.58865000  0.72024000  1.0
  O  O119  1  0.72070000  0.08865000  0.27975000  1.0
  O  O120  1  0.40014000  0.47828000  0.62144000  1.0
  O  O121  1  0.59987000  0.97829000  0.37856000  1.0
  O  O122  1  0.47158000  0.18240000  0.64677000  1.0
  O  O123  1  0.52843000  0.68239000  0.35322000  1.0
  O  O124  1  0.63479000  0.31930000  0.67664000  1.0
  O  O125  1  0.36523000  0.81931000  0.32336000  1.0
  O  O126  1  0.62795000  0.24728000  0.09575000  1.0
  O  O127  1  0.37205000  0.74728000  0.90425000  1.0
  O  O128  1  0.43513000  0.15311000  0.10129000  1.0
  O  O129  1  0.56487000  0.65311000  0.89871000  1.0
  O  O130  1  0.39696000  0.43299000  0.14252000  1.0
  O  O131  1  0.60304000  0.93298000  0.85748000  1.0
  O  O132  1  0.26981000  0.55713000  0.04246000  1.0
  O  O133  1  0.73019000  0.05713000  0.95753000  1.0
  O  O134  1  0.53214000  0.38872000  0.47652000  1.0
  O  O135  1  0.46786000  0.88873000  0.52348000  1.0
  O  O136  1  0.65592000  0.11968000  0.53437000  1.0
  O  O137  1  0.34409000  0.61968000  0.46563000  1.0
  O  O138  1  0.74769000  0.30392000  0.37551000  1.0
  O  O139  1  0.25232000  0.80392000  0.62450000  1.0
