# generated using pymatgen
data_CdH22C21(N3O2)2
_symmetry_space_group_name_H-M   'P 1'
_cell_length_a   11.16900000
_cell_length_b   12.08230000
_cell_length_c   12.22261786
_cell_angle_alpha   60.52519153
_cell_angle_beta   83.91317969
_cell_angle_gamma   70.37600000
_symmetry_Int_Tables_number   1
_chemical_formula_structural   CdH22C21(N3O2)2
_chemical_formula_sum   'Cd2 H44 C42 N12 O8'
_cell_volume   1348.99442821
_cell_formula_units_Z   2
loop_
 _symmetry_equiv_pos_site_id
 _symmetry_equiv_pos_as_xyz
  1  'x, y, z'
loop_
 _atom_site_type_symbol
 _atom_site_label
 _atom_site_symmetry_multiplicity
 _atom_site_fract_x
 _atom_site_fract_y
 _atom_site_fract_z
 _atom_site_occupancy
  Cd  Cd0  1  0.76236000  0.46756000  0.24067000  1.0
  Cd  Cd1  1  0.23764000  0.53244000  0.75933000  1.0
  H  H2  1  0.19682000  0.81801000  0.99232000  1.0
  H  H3  1  0.80318000  0.18199000  0.00768000  1.0
  H  H4  1  0.21927000  0.01849000  0.19521000  1.0
  H  H5  1  0.78073000  0.98151000  0.80479000  1.0
  H  H6  1  0.96666000  0.78571000  0.30782000  1.0
  H  H7  1  0.03334000  0.21430000  0.69217000  1.0
  H  H8  1  0.94059000  0.61500000  0.30468000  1.0
  H  H9  1  0.05941000  0.38500000  0.69532000  1.0
  H  H10  1  0.91467000  0.61145000  0.96566000  1.0
  H  H11  1  0.08532000  0.38855000  0.03434000  1.0
  H  H12  1  0.05434000  0.77708000  0.92897000  1.0
  H  H13  1  0.94566000  0.22292000  0.07103000  1.0
  H  H14  1  0.32878000  0.95687000  0.92313000  1.0
  H  H15  1  0.67122000  0.04313000  0.07687000  1.0
  H  H16  1  0.31755000  0.06795000  0.98264000  1.0
  H  H17  1  0.68245000  0.93205000  0.01736000  1.0
  H  H18  1  0.50549000  0.72774000  0.01844000  1.0
  H  H19  1  0.49451000  0.27227000  0.98156000  1.0
  H  H20  1  0.65216000  0.71883000  0.32721000  1.0
  H  H21  1  0.34783000  0.28117000  0.67279000  1.0
  H  H22  1  0.44535000  0.95604000  0.20632000  1.0
  H  H23  1  0.55465000  0.04397000  0.79367000  1.0
  H  H24  1  0.98276000  0.88730000  0.42486000  1.0
  H  H25  1  0.01724000  0.11270000  0.57514000  1.0
  H  H26  1  0.14750000  0.85088000  0.45049000  1.0
  H  H27  1  0.85250000  0.14912000  0.54951000  1.0
  H  H28  1  0.84231000  0.14893000  0.28382000  1.0
  H  H29  1  0.15769000  0.85107000  0.71618000  1.0
  H  H30  1  0.09806000  0.31699000  0.32413000  1.0
  H  H31  1  0.90194000  0.68301000  0.67587000  1.0
  H  H32  1  0.22647000  0.04381000  0.40421000  1.0
  H  H33  1  0.77353000  0.95619000  0.59579000  1.0
  H  H34  1  0.56743000  0.50010000  0.58096000  1.0
  H  H35  1  0.43258000  0.49991000  0.41903000  1.0
  H  H36  1  0.72096000  0.43141000  0.66000000  1.0
  H  H37  1  0.27904000  0.56859000  0.34000000  1.0
  H  H38  1  0.64058000  0.32344000  0.66313000  1.0
  H  H39  1  0.35942000  0.67656000  0.33687000  1.0
  H  H40  1  0.63754000  0.40294000  0.86910000  1.0
  H  H41  1  0.36246000  0.59706000  0.13090000  1.0
  H  H42  1  0.70981000  0.52810000  0.83155000  1.0
  H  H43  1  0.29019000  0.47190000  0.16845000  1.0
  H  H44  1  0.54837000  0.55759000  0.86700000  1.0
  H  H45  1  0.45163000  0.44241000  0.13300000  1.0
  C  C46  1  0.07058000  0.79927000  0.14398000  1.0
  C  C47  1  0.92942000  0.20073000  0.85602000  1.0
  C  C48  1  0.16206000  0.84708000  0.06471000  1.0
  C  C49  1  0.83794000  0.15292000  0.93529000  1.0
  C  C50  1  0.21520000  0.92603000  0.08377000  1.0
  C  C51  1  0.78480000  0.07397000  0.91623000  1.0
  C  C52  1  0.17827000  0.95552000  0.18173000  1.0
  C  C53  1  0.82173000  0.04448000  0.81827000  1.0
  C  C54  1  0.09189000  0.90173000  0.26473000  1.0
  C  C55  1  0.90811000  0.09828000  0.73526000  1.0
  C  C56  1  0.03592000  0.82554000  0.24434000  1.0
  C  C57  1  0.96408000  0.17446000  0.75566000  1.0
  C  C58  1  0.95109000  0.63781000  0.20725000  1.0
  C  C59  1  0.04891000  0.36219000  0.79275000  1.0
  C  C60  1  0.94129000  0.63749000  0.03050000  1.0
  C  C61  1  0.05871000  0.36251000  0.96950000  1.0
  C  C62  1  0.00861000  0.72125000  0.01023000  1.0
  C  C63  1  0.99139000  0.27875000  0.98977000  1.0
  C  C64  1  0.32473000  0.96478000  0.00912000  1.0
  C  C65  1  0.67527000  0.03522000  0.99088000  1.0
  C  C66  1  0.51916000  0.75665000  0.08630000  1.0
  C  C67  1  0.48084000  0.24336000  0.91370000  1.0
  C  C68  1  0.59084000  0.75729000  0.24455000  1.0
  C  C69  1  0.40916000  0.24271000  0.75545000  1.0
  C  C70  1  0.48906000  0.87375000  0.18642000  1.0
  C  C71  1  0.51094000  0.12625000  0.81358000  1.0
  C  C72  1  0.06534000  0.91760000  0.38069000  1.0
  C  C73  1  0.93466000  0.08240000  0.61931000  1.0
  C  C74  1  0.92861000  0.15699000  0.30850000  1.0
  C  C75  1  0.07139000  0.84301000  0.69150000  1.0
  C  C76  1  0.06418000  0.24091000  0.32803000  1.0
  C  C77  1  0.93582000  0.75909000  0.67197000  1.0
  C  C78  1  0.12908000  0.10677000  0.36749000  1.0
  C  C79  1  0.87092000  0.89322000  0.63252000  1.0
  C  C80  1  0.65978000  0.41868000  0.60570000  1.0
  C  C81  1  0.34022000  0.58132000  0.39430000  1.0
  C  C82  1  0.71826000  0.42717000  0.48540000  1.0
  C  C83  1  0.28174000  0.57282000  0.51461000  1.0
  C  C84  1  0.64221000  0.47907000  0.89095000  1.0
  C  C85  1  0.35779000  0.52093000  0.10905000  1.0
  C  C86  1  0.68256000  0.41957000  0.02918000  1.0
  C  C87  1  0.31745000  0.58043000  0.97082000  1.0
  N  N88  1  0.01385000  0.72199000  0.12290000  1.0
  N  N89  1  0.98615000  0.27801000  0.87710000  1.0
  N  N90  1  0.90689000  0.58600000  0.15337000  1.0
  N  N91  1  0.09311000  0.41400000  0.84663000  1.0
  N  N92  1  0.44496000  0.87276000  0.08544000  1.0
  N  N93  1  0.55504000  0.12725000  0.91456000  1.0
  N  N94  1  0.60841000  0.68557000  0.18122000  1.0
  N  N95  1  0.39159000  0.31443000  0.81878000  1.0
  N  N96  1  0.04143000  0.05492000  0.35498000  1.0
  N  N97  1  0.95857000  0.94508000  0.64502000  1.0
  N  N98  1  0.93972000  0.27029000  0.29184000  1.0
  N  N99  1  0.06028000  0.72971000  0.70816000  1.0
  O  O100  1  0.79837000  0.48903000  0.43795000  1.0
  O  O101  1  0.20163000  0.51098000  0.56205000  1.0
  O  O102  1  0.67920000  0.37392000  0.43298000  1.0
  O  O103  1  0.32080000  0.62608000  0.56702000  1.0
  O  O104  1  0.69153000  0.50659000  0.05691000  1.0
  O  O105  1  0.30847000  0.49341000  0.94309000  1.0
  O  O106  1  0.70357000  0.29604000  0.10501000  1.0
  O  O107  1  0.29643000  0.70395000  0.89499000  1.0
