# generated using pymatgen
data_Al2H29C30N11O10
_symmetry_space_group_name_H-M   'P 1'
_cell_length_a   6.68363000
_cell_length_b   22.74210000
_cell_length_c   26.35520000
_cell_angle_alpha   78.77670000
_cell_angle_beta   89.24030000
_cell_angle_gamma   89.23860000
_symmetry_Int_Tables_number   1
_chemical_formula_structural   Al2H29C30N11O10
_chemical_formula_sum   'Al4 H58 C60 N22 O20'
_cell_volume   3928.79497552
_cell_formula_units_Z   2
loop_
 _symmetry_equiv_pos_site_id
 _symmetry_equiv_pos_as_xyz
  1  'x, y, z'
loop_
 _atom_site_type_symbol
 _atom_site_label
 _atom_site_symmetry_multiplicity
 _atom_site_fract_x
 _atom_site_fract_y
 _atom_site_fract_z
 _atom_site_occupancy
  Al  Al0  1  0.11984000  0.50139000  0.50147000  1.0
  Al  Al1  1  0.61979000  0.50002000  0.49839000  1.0
  Al  Al2  1  0.65888000  0.00012000  0.99782000  1.0
  Al  Al3  1  0.15926000  0.00039000  0.00188000  1.0
  H  H4  1  0.97250000  0.72146000  0.16820000  1.0
  H  H5  1  0.46514000  0.27882000  0.83156000  1.0
  H  H6  1  0.60693000  0.75827000  0.18491000  1.0
  H  H7  1  0.10378000  0.24193000  0.81580000  1.0
  H  H8  1  0.57901000  0.80304000  0.23259000  1.0
  H  H9  1  0.08242000  0.19726000  0.76817000  1.0
  H  H10  1  0.17717000  0.75976000  0.18765000  1.0
  H  H11  1  0.67432000  0.24081000  0.81119000  1.0
  H  H12  1  0.86499000  0.85462000  0.26139000  1.0
  H  H13  1  0.37491000  0.14596000  0.73830000  1.0
  H  H14  1  0.62557000  0.92602000  0.87366000  1.0
  H  H15  1  0.12429000  0.07324000  0.13205000  1.0
  H  H16  1  0.17452000  0.68948000  0.65679000  1.0
  H  H17  1  0.67580000  0.35905000  0.30426000  1.0
  H  H18  1  0.19414000  0.69779000  0.26843000  1.0
  H  H19  1  0.69034000  0.30310000  0.73073000  1.0
  H  H20  1  0.55278000  0.84003000  0.77467000  1.0
  H  H21  1  0.46814000  0.89907000  0.80453000  1.0
  H  H22  1  0.05393000  0.16183000  0.22889000  1.0
  H  H23  1  0.96616000  0.10490000  0.20040000  1.0
  H  H24  1  0.37140000  0.80415000  0.85082000  1.0
  H  H25  1  0.21913000  0.75501000  0.82747000  1.0
  H  H26  1  0.72366000  0.24365000  0.16857000  1.0
  H  H27  1  0.81645000  0.22184000  0.11167000  1.0
  H  H28  1  0.35397000  0.82732000  0.92120000  1.0
  H  H29  1  0.28266000  0.89506000  0.93639000  1.0
  H  H30  1  0.88755000  0.14205000  0.09782000  1.0
  H  H31  1  0.76526000  0.10557000  0.05770000  1.0
  H  H32  1  0.54728000  0.65814000  0.68893000  1.0
  H  H33  1  0.06672000  0.30716000  0.34252000  1.0
  H  H34  1  0.48349000  0.56468000  0.59361000  1.0
  H  H35  1  0.37461000  0.59373000  0.64493000  1.0
  H  H36  1  0.00053000  0.39945000  0.43917000  1.0
  H  H37  1  0.89181000  0.35020000  0.40440000  1.0
  H  H38  1  0.15614000  0.62884000  0.58698000  1.0
  H  H39  1  0.66519000  0.42141000  0.37293000  1.0
  H  H40  1  0.03628000  0.64809000  0.24417000  1.0
  H  H41  1  0.52567000  0.35250000  0.75551000  1.0
  H  H42  1  0.50034000  0.67431000  0.32490000  1.0
  H  H43  1  0.52993000  0.74735000  0.31747000  1.0
  H  H44  1  0.99871000  0.32588000  0.67600000  1.0
  H  H45  1  0.03427000  0.25288000  0.68340000  1.0
  H  H46  1  0.73895000  0.65157000  0.21391000  1.0
  H  H47  1  0.50107000  0.65431000  0.23044000  1.0
  H  H48  1  0.22711000  0.34852000  0.78666000  1.0
  H  H49  1  0.99065000  0.34557000  0.77080000  1.0
  H  H50  1  0.09054000  0.75774000  0.32297000  1.0
  H  H51  1  0.59609000  0.24311000  0.67634000  1.0
  H  H52  1  0.79782000  0.75358000  0.37646000  1.0
  H  H53  1  0.83173000  0.82441000  0.35023000  1.0
  H  H54  1  0.30661000  0.24704000  0.62356000  1.0
  H  H55  1  0.34531000  0.17625000  0.64964000  1.0
  H  H56  1  0.11365000  0.83113000  0.25052000  1.0
  H  H57  1  0.62084000  0.16945000  0.74865000  1.0
  H  H58  1  0.36876000  0.57684000  0.47270000  1.0
  H  H59  1  0.86843000  0.42787000  0.53343000  1.0
  H  H60  1  0.41400000  0.92714000  0.03260000  1.0
  H  H61  1  0.91281000  0.07417000  0.96870000  1.0
  C  C62  1  0.37618000  0.43480000  0.43792000  1.0
  C  C63  1  0.85580000  0.56823000  0.56117000  1.0
  C  C64  1  0.36610000  0.42463000  0.57826000  1.0
  C  C65  1  0.87744000  0.57640000  0.42186000  1.0
  C  C66  1  0.04773000  0.69408000  0.25077000  1.0
  C  C67  1  0.54229000  0.30659000  0.74871000  1.0
  C  C68  1  0.67148000  0.71021000  0.26298000  1.0
  C  C69  1  0.16858000  0.29009000  0.73757000  1.0
  C  C70  1  0.67276000  0.76815000  0.22029000  1.0
  C  C71  1  0.17248000  0.23215000  0.78020000  1.0
  C  C72  1  0.89668000  0.87882000  0.12440000  1.0
  C  C73  1  0.40101000  0.12175000  0.87551000  1.0
  C  C74  1  0.88312000  0.70569000  0.28977000  1.0
  C  C75  1  0.38138000  0.29488000  0.71010000  1.0
  C  C76  1  0.02995000  0.74090000  0.20015000  1.0
  C  C77  1  0.52594000  0.25958000  0.79931000  1.0
  C  C78  1  0.88705000  0.79249000  0.20870000  1.0
  C  C79  1  0.38810000  0.20790000  0.79110000  1.0
  C  C80  1  0.95844000  0.81585000  0.25670000  1.0
  C  C81  1  0.46473000  0.18473000  0.74284000  1.0
  C  C82  1  0.94074000  0.76616000  0.30569000  1.0
  C  C83  1  0.44589000  0.23451000  0.69398000  1.0
  C  C84  1  0.89033000  0.84005000  0.16327000  1.0
  C  C85  1  0.39328000  0.16037000  0.83658000  1.0
  C  C86  1  0.88289000  0.65887000  0.33555000  1.0
  C  C87  1  0.37883000  0.34187000  0.66438000  1.0
  C  C88  1  0.87938000  0.62158000  0.37546000  1.0
  C  C89  1  0.37223000  0.37937000  0.62461000  1.0
  C  C90  1  0.75224000  0.89784000  0.86687000  1.0
  C  C91  1  0.24790000  0.10270000  0.13618000  1.0
  C  C92  1  0.73456000  0.86055000  0.83129000  1.0
  C  C93  1  0.24175000  0.13554000  0.17559000  1.0
  C  C94  1  0.89521000  0.81910000  0.82534000  1.0
  C  C95  1  0.40351000  0.17634000  0.17922000  1.0
  C  C96  1  0.07427000  0.82147000  0.85441000  1.0
  C  C97  1  0.57265000  0.17633000  0.14493000  1.0
  C  C98  1  0.09398000  0.86369000  0.88783000  1.0
  C  C99  1  0.58430000  0.13676000  0.10888000  1.0
  C  C100  1  0.92658000  0.89934000  0.89562000  1.0
  C  C101  1  0.41460000  0.10271000  0.10301000  1.0
  C  C102  1  0.86482000  0.71165000  0.71846000  1.0
  C  C103  1  0.37471000  0.29071000  0.28096000  1.0
  C  C104  1  0.88037000  0.77835000  0.78929000  1.0
  C  C105  1  0.39171000  0.21798000  0.21454000  1.0
  C  C106  1  0.68157000  0.65089000  0.66685000  1.0
  C  C107  1  0.19822000  0.33214000  0.34964000  1.0
  C  C108  1  0.67056000  0.61439000  0.62919000  1.0
  C  C109  1  0.18872000  0.36748000  0.38827000  1.0
  C  C110  1  0.84854000  0.60631000  0.60045000  1.0
  C  C111  1  0.36510000  0.39883000  0.39722000  1.0
  C  C112  1  0.02552000  0.63457000  0.61072000  1.0
  C  C113  1  0.53635000  0.39520000  0.36620000  1.0
  C  C114  1  0.03606000  0.66826000  0.64899000  1.0
  C  C115  1  0.54292000  0.36102000  0.32819000  1.0
  C  C116  1  0.86028000  0.67641000  0.67727000  1.0
  C  C117  1  0.37100000  0.32848000  0.32029000  1.0
  C  C118  1  0.40922000  0.07682000  0.92211000  1.0
  C  C119  1  0.90207000  0.92380000  0.07781000  1.0
  C  C120  1  0.40410000  0.06574000  0.06261000  1.0
  C  C121  1  0.92142000  0.93592000  0.93630000  1.0
  N  N122  1  0.03283000  0.73857000  0.78519000  1.0
  N  N123  1  0.54951000  0.25485000  0.21814000  1.0
  N  N124  1  0.02830000  0.70663000  0.74865000  1.0
  N  N125  1  0.54096000  0.29116000  0.25115000  1.0
  N  N126  1  0.69976000  0.74387000  0.72645000  1.0
  N  N127  1  0.20976000  0.25877000  0.27504000  1.0
  N  N128  1  0.70916000  0.77808000  0.76114000  1.0
  N  N129  1  0.21803000  0.22264000  0.24198000  1.0
  N  N130  1  0.55788000  0.86288000  0.80438000  1.0
  N  N131  1  0.08520000  0.12690000  0.21076000  1.0
  N  N132  1  0.23506000  0.78362000  0.85285000  1.0
  N  N133  1  0.73261000  0.21320000  0.14459000  1.0
  N  N134  1  0.27697000  0.86655000  0.91103000  1.0
  N  N135  1  0.75786000  0.13881000  0.07870000  1.0
  N  N136  1  0.49444000  0.58821000  0.62247000  1.0
  N  N137  1  0.01582000  0.36884000  0.41589000  1.0
  N  N138  1  0.50237000  0.71344000  0.29797000  1.0
  N  N139  1  0.00208000  0.28676000  0.70296000  1.0
  N  N140  1  0.64370000  0.65452000  0.24388000  1.0
  N  N141  1  0.13412000  0.34565000  0.75690000  1.0
  N  N142  1  0.79389000  0.78386000  0.34222000  1.0
  N  N143  1  0.30310000  0.21674000  0.65779000  1.0
  O  O144  1  0.53230000  0.43814000  0.55480000  1.0
  O  O145  1  0.04633000  0.55477000  0.43855000  1.0
  O  O146  1  0.21292000  0.44439000  0.46142000  1.0
  O  O147  1  0.68983000  0.54756000  0.54838000  1.0
  O  O148  1  0.19521000  0.44728000  0.56422000  1.0
  O  O149  1  0.70719000  0.56202000  0.44275000  1.0
  O  O150  1  0.02615000  0.55796000  0.54165000  1.0
  O  O151  1  0.54741000  0.45366000  0.44841000  1.0
  O  O152  1  0.36932000  0.53796000  0.49570000  1.0
  O  O153  1  0.87208000  0.46252000  0.50530000  1.0
  O  O154  1  0.23292000  0.04725000  0.05198000  1.0
  O  O155  1  0.74949000  0.94837000  0.95346000  1.0
  O  O156  1  0.58142000  0.05603000  0.93672000  1.0
  O  O157  1  0.07385000  0.93957000  0.05878000  1.0
  O  O158  1  0.56786000  0.05507000  0.03996000  1.0
  O  O159  1  0.08826000  0.95156000  0.95291000  1.0
  O  O160  1  0.73398000  0.94378000  0.05917000  1.0
  O  O161  1  0.24328000  0.06194000  0.94514000  1.0
  O  O162  1  0.41004000  0.96225000  0.00491000  1.0
  O  O163  1  0.90757000  0.03806000  0.99533000  1.0
