# generated using pymatgen
data_AlH9C24(BrO2)3
_symmetry_space_group_name_H-M   'P 1'
_cell_length_a   4.01598000
_cell_length_b   29.01581566
_cell_length_c   29.01420000
_cell_angle_alpha   120.00047396
_cell_angle_beta   90.00260000
_cell_angle_gamma   89.99630018
_symmetry_Int_Tables_number   1
_chemical_formula_structural   AlH9C24(BrO2)3
_chemical_formula_sum   'Al2 H18 C48 Br6 O12'
_cell_volume   2927.96230781
_cell_formula_units_Z   2
loop_
 _symmetry_equiv_pos_site_id
 _symmetry_equiv_pos_as_xyz
  1  'x, y, z'
loop_
 _atom_site_type_symbol
 _atom_site_label
 _atom_site_symmetry_multiplicity
 _atom_site_fract_x
 _atom_site_fract_y
 _atom_site_fract_z
 _atom_site_occupancy
  Al  Al0  1  0.00599000  0.50000000  0.00002000  1.0
  Al  Al1  1  0.00606000  0.83335000  0.66670000  1.0
  H  H2  1  0.20675000  0.69844000  0.51985000  1.0
  H  H3  1  0.21370000  0.64838000  0.42034000  1.0
  H  H4  1  0.78182000  0.82376000  0.52031000  1.0
  H  H5  1  0.78083000  0.50950000  0.14639000  1.0
  H  H6  1  0.20754000  0.63499000  0.14685000  1.0
  H  H7  1  0.21453000  0.68505000  0.24636000  1.0
  H  H8  1  0.20680000  0.82141000  0.80160000  1.0
  H  H9  1  0.21373000  0.77195000  0.85165000  1.0
  H  H10  1  0.78173000  0.69652000  0.67624000  1.0
  H  H11  1  0.78084000  0.63685000  0.99049000  1.0
  H  H12  1  0.20753000  0.51184000  0.86501000  1.0
  H  H13  1  0.21453000  0.56128000  0.81494000  1.0
  H  H14  1  0.20677000  0.98016000  0.67858000  1.0
  H  H15  1  0.21361000  0.07966000  0.72799000  1.0
  H  H16  1  0.78169000  0.97977000  0.80351000  1.0
  H  H17  1  0.78018000  0.35363000  0.86306000  1.0
  H  H18  1  0.20772000  0.35317000  0.98816000  1.0
  H  H19  1  0.21447000  0.25366000  0.93868000  1.0
  C  C20  1  0.50455000  0.41834000  0.95915000  1.0
  C  C21  1  0.50459000  0.54082000  0.08167000  1.0
  C  C22  1  0.50457000  0.54082000  0.95917000  1.0
  C  C23  1  0.50466000  0.79253000  0.58504000  1.0
  C  C24  1  0.50467000  0.79250000  0.70751000  1.0
  C  C25  1  0.50466000  0.91501000  0.70753000  1.0
  C  C26  1  0.49722000  0.76365000  0.52586000  1.0
  C  C27  1  0.33350000  0.71453000  0.49780000  1.0
  C  C28  1  0.33593000  0.68693000  0.44261000  1.0
  C  C29  1  0.48923000  0.70858000  0.41377000  1.0
  C  C30  1  0.64182000  0.75914000  0.44304000  1.0
  C  C31  1  0.65358000  0.78577000  0.49825000  1.0
  C  C32  1  0.48742000  0.67990000  0.35759000  1.0
  C  C33  1  0.48736000  0.65344000  0.30911000  1.0
  C  C34  1  0.48911000  0.62476000  0.25292000  1.0
  C  C35  1  0.64124000  0.57416000  0.22365000  1.0
  C  C36  1  0.65297000  0.54753000  0.16845000  1.0
  C  C37  1  0.49708000  0.56969000  0.14084000  1.0
  C  C38  1  0.33384000  0.61886000  0.16890000  1.0
  C  C39  1  0.33629000  0.64646000  0.22409000  1.0
  C  C40  1  0.49720000  0.76219000  0.73637000  1.0
  C  C41  1  0.33350000  0.78326000  0.78550000  1.0
  C  C42  1  0.33591000  0.75567000  0.81310000  1.0
  C  C43  1  0.48917000  0.70518000  0.79144000  1.0
  C  C44  1  0.64176000  0.68388000  0.74087000  1.0
  C  C45  1  0.65351000  0.71246000  0.71424000  1.0
  C  C46  1  0.48735000  0.67766000  0.82010000  1.0
  C  C47  1  0.48732000  0.65564000  0.84656000  1.0
  C  C48  1  0.48910000  0.62813000  0.87523000  1.0
  C  C49  1  0.64122000  0.64946000  0.92583000  1.0
  C  C50  1  0.65298000  0.62089000  0.95247000  1.0
  C  C51  1  0.49708000  0.57112000  0.93031000  1.0
  C  C52  1  0.33383000  0.55002000  0.88114000  1.0
  C  C53  1  0.33630000  0.57760000  0.85354000  1.0
  C  C54  1  0.49716000  0.97418000  0.73782000  1.0
  C  C55  1  0.33346000  0.00222000  0.71672000  1.0
  C  C56  1  0.33582000  0.05741000  0.74430000  1.0
  C  C57  1  0.48904000  0.08626000  0.79479000  1.0
  C  C58  1  0.64163000  0.05702000  0.81612000  1.0
  C  C59  1  0.65345000  0.00181000  0.78756000  1.0
  C  C60  1  0.48711000  0.14245000  0.82229000  1.0
  C  C61  1  0.48698000  0.19091000  0.84429000  1.0
  C  C62  1  0.48869000  0.24710000  0.87180000  1.0
  C  C63  1  0.64064000  0.27636000  0.85045000  1.0
  C  C64  1  0.65245000  0.33157000  0.87903000  1.0
  C  C65  1  0.49683000  0.35918000  0.92883000  1.0
  C  C66  1  0.33375000  0.33111000  0.94994000  1.0
  C  C67  1  0.33609000  0.27593000  0.92235000  1.0
  Br  Br68  1  0.83712000  0.79136000  0.40657000  1.0
  Br  Br69  1  0.83605000  0.54191000  0.26013000  1.0
  Br  Br70  1  0.83703000  0.61519000  0.70864000  1.0
  Br  Br71  1  0.83607000  0.71818000  0.95810000  1.0
  Br  Br72  1  0.83683000  0.09351000  0.88481000  1.0
  Br  Br73  1  0.83517000  0.23989000  0.78170000  1.0
  O  O74  1  0.74205000  0.55066000  0.99210000  1.0
  O  O75  1  0.74209000  0.44141000  0.94933000  1.0
  O  O76  1  0.74207000  0.50791000  0.05859000  1.0
  O  O77  1  0.27269000  0.50692000  0.94899000  1.0
  O  O78  1  0.27268000  0.55101000  0.05795000  1.0
  O  O79  1  0.27274000  0.44206000  0.99308000  1.0
  O  O80  1  0.74212000  0.89193000  0.71737000  1.0
  O  O81  1  0.74211000  0.82545000  0.60813000  1.0
  O  O82  1  0.74214000  0.78267000  0.67459000  1.0
  O  O83  1  0.27274000  0.89129000  0.67363000  1.0
  O  O84  1  0.27276000  0.82641000  0.71771000  1.0
  O  O85  1  0.27276000  0.78234000  0.60875000  1.0
