# generated using pymatgen
data_ZnH6C13NO6
_symmetry_space_group_name_H-M   'P 1'
_cell_length_a   10.85690000
_cell_length_b   13.18850000
_cell_length_c   14.44100000
_cell_angle_alpha   90.35240000
_cell_angle_beta   89.97210000
_cell_angle_gamma   89.94910000
_symmetry_Int_Tables_number   1
_chemical_formula_structural   ZnH6C13NO6
_chemical_formula_sum   'Zn2 H12 C26 N2 O12'
_cell_volume   2067.71210747
_cell_formula_units_Z   2
loop_
 _symmetry_equiv_pos_site_id
 _symmetry_equiv_pos_as_xyz
  1  'x, y, z'
loop_
 _atom_site_type_symbol
 _atom_site_label
 _atom_site_symmetry_multiplicity
 _atom_site_fract_x
 _atom_site_fract_y
 _atom_site_fract_z
 _atom_site_occupancy
  Zn  Zn0  1  0.50300000  0.39422000  0.49100000  1.0
  Zn  Zn1  1  0.49787000  0.60689000  0.49718000  1.0
  H  H2  1  0.11254000  0.33748000  0.46703000  1.0
  H  H3  1  0.23719000  0.61404000  0.34196000  1.0
  H  H4  1  0.79439000  0.41051000  0.32388000  1.0
  H  H5  1  0.92257000  0.54143000  0.27666000  1.0
  H  H6  1  0.09752000  0.66005000  0.48213000  1.0
  H  H7  1  0.90944000  0.34565000  0.49860000  1.0
  H  H8  1  0.88851000  0.66517000  0.45737000  1.0
  H  H9  1  0.09437000  0.42694000  0.61292000  1.0
  H  H10  1  0.11665000  0.55951000  0.62136000  1.0
  H  H11  1  0.88339000  0.46098000  0.62555000  1.0
  H  H12  1  0.90475000  0.59223000  0.60682000  1.0
  H  H13  1  0.07962000  0.45519000  0.28405000  1.0
  C  C14  1  0.49780000  0.50312000  0.31429000  1.0
  C  C15  1  0.73894000  0.50350000  0.48792000  1.0
  C  C16  1  0.50126000  0.49579000  0.67393000  1.0
  C  C17  1  0.07221000  0.40310000  0.43204000  1.0
  C  C18  1  0.07130000  0.59818000  0.43395000  1.0
  C  C19  1  0.92814000  0.40154000  0.44414000  1.0
  C  C20  1  0.92850000  0.59715000  0.42503000  1.0
  C  C21  1  0.07012000  0.49983000  0.58124000  1.0
  C  C22  1  0.92938000  0.51644000  0.58081000  1.0
  C  C23  1  0.12072000  0.50049000  0.48066000  1.0
  C  C24  1  0.87971000  0.50454000  0.48062000  1.0
  C  C25  1  0.50063000  0.49857000  0.95150000  1.0
  C  C26  1  0.49764000  0.50542000  0.21464000  1.0
  C  C27  1  0.49852000  0.50395000  0.12972000  1.0
  C  C28  1  0.49964000  0.50158000  0.03694000  1.0
  C  C29  1  0.11405000  0.39479000  0.33204000  1.0
  C  C30  1  0.13668000  0.63017000  0.34599000  1.0
  C  C31  1  0.85834000  0.35842000  0.36110000  1.0
  C  C32  1  0.88003000  0.59724000  0.32567000  1.0
  C  C33  1  0.50127000  0.49598000  0.85870000  1.0
  C  C34  1  0.50154000  0.49413000  0.77372000  1.0
  C  C35  1  0.50403000  0.85177000  0.48769000  1.0
  C  C36  1  0.50645000  0.14928000  0.48214000  1.0
  C  C37  1  0.50674000  0.95410000  0.48300000  1.0
  C  C38  1  0.50736000  0.04674000  0.48117000  1.0
  C  C39  1  0.26159000  0.50185000  0.48910000  1.0
  N  N40  1  0.50033000  0.76364000  0.49356000  1.0
  N  N41  1  0.50476000  0.23768000  0.48502000  1.0
  O  O42  1  0.51819000  0.41709000  0.35082000  1.0
  O  O43  1  0.08487000  0.67672000  0.28422000  1.0
  O  O44  1  0.86963000  0.27045000  0.33608000  1.0
  O  O45  1  0.79265000  0.64854000  0.30113000  1.0
  O  O46  1  0.47710000  0.58676000  0.35646000  1.0
  O  O47  1  0.31731000  0.41762000  0.48169000  1.0
  O  O48  1  0.31036000  0.58772000  0.50624000  1.0
  O  O49  1  0.68933000  0.41644000  0.49611000  1.0
  O  O50  1  0.68385000  0.58826000  0.48890000  1.0
  O  O51  1  0.49340000  0.41035000  0.63246000  1.0
  O  O52  1  0.50883000  0.58320000  0.63714000  1.0
  O  O53  1  0.18134000  0.32837000  0.30237000  1.0
