# generated using pymatgen
data_CdH3C2N4Cl
_symmetry_space_group_name_H-M   'P 1'
_cell_length_a   18.32909937
_cell_length_b   18.32910000
_cell_length_c   18.32920000
_cell_angle_alpha   105.10000000
_cell_angle_beta   105.10009850
_cell_angle_gamma   118.61922777
_symmetry_Int_Tables_number   1
_chemical_formula_structural   CdH3C2N4Cl
_chemical_formula_sum   'Cd24 H72 C48 N96 Cl24'
_cell_volume   4648.36601773
_cell_formula_units_Z   24
loop_
 _symmetry_equiv_pos_site_id
 _symmetry_equiv_pos_as_xyz
  1  'x, y, z'
loop_
 _atom_site_type_symbol
 _atom_site_label
 _atom_site_symmetry_multiplicity
 _atom_site_fract_x
 _atom_site_fract_y
 _atom_site_fract_z
 _atom_site_occupancy
  Cd  Cd0  1  0.09208000  0.57766000  0.87643000  1.0
  Cd  Cd1  1  0.70122000  0.21564000  0.12356000  1.0
  Cd  Cd2  1  0.78435000  0.90792000  0.48558000  1.0
  Cd  Cd3  1  0.42234000  0.29877000  0.51442000  1.0
  Cd  Cd4  1  0.93701000  0.31502000  0.78508000  1.0
  Cd  Cd5  1  0.52994000  0.15193000  0.21492000  1.0
  Cd  Cd6  1  0.84807000  0.06299000  0.37801000  1.0
  Cd  Cd7  1  0.68498000  0.47006000  0.62199000  1.0
  Cd  Cd8  1  0.86500000  0.07153000  0.74199000  1.0
  Cd  Cd9  1  0.32955000  0.12302000  0.25802000  1.0
  Cd  Cd10  1  0.87699000  0.13501000  0.20654000  1.0
  Cd  Cd11  1  0.92847000  0.67045000  0.79347000  1.0
  Cd  Cd12  1  0.67016000  0.92863000  0.79315000  1.0
  Cd  Cd13  1  0.13548000  0.87701000  0.20686000  1.0
  Cd  Cd14  1  0.12299000  0.32984000  0.25847000  1.0
  Cd  Cd15  1  0.07138000  0.86453000  0.74153000  1.0
  Cd  Cd16  1  0.47038000  0.68510000  0.62161000  1.0
  Cd  Cd17  1  0.06348000  0.84876000  0.37838000  1.0
  Cd  Cd18  1  0.15123000  0.52961000  0.21471000  1.0
  Cd  Cd19  1  0.31490000  0.93652000  0.78528000  1.0
  Cd  Cd20  1  0.29890000  0.42294000  0.51450000  1.0
  Cd  Cd21  1  0.90844000  0.78440000  0.48549000  1.0
  Cd  Cd22  1  0.21560000  0.70109000  0.12404000  1.0
  Cd  Cd23  1  0.57705000  0.09156000  0.87596000  1.0
  H  H24  1  0.34678000  0.77677000  0.82566000  1.0
  H  H25  1  0.95111000  0.52112000  0.17434000  1.0
  H  H26  1  0.47888000  0.65323000  0.42999000  1.0
  H  H27  1  0.22323000  0.04888000  0.57000000  1.0
  H  H28  1  0.26741000  0.65262000  0.77813000  1.0
  H  H29  1  0.87450000  0.48929000  0.22187000  1.0
  H  H30  1  0.51071000  0.73258000  0.38521000  1.0
  H  H31  1  0.34738000  0.12550000  0.61479000  1.0
  H  H32  1  0.30739000  0.71962000  0.88696000  1.0
  H  H33  1  0.83265000  0.42042000  0.11304000  1.0
  H  H34  1  0.57957000  0.69261000  0.41223000  1.0
  H  H35  1  0.28039000  0.16734000  0.58777000  1.0
  H  H36  1  0.71823000  0.21555000  0.63379000  1.0
  H  H37  1  0.58176000  0.08444000  0.36621000  1.0
  H  H38  1  0.91556000  0.28178000  0.49733000  1.0
  H  H39  1  0.78445000  0.41823000  0.50267000  1.0
  H  H40  1  0.69347000  0.24707000  0.55109000  1.0
  H  H41  1  0.69597000  0.14237000  0.44890000  1.0
  H  H42  1  0.85762000  0.30653000  0.55360000  1.0
  H  H43  1  0.75293000  0.30402000  0.44640000  1.0
  H  H44  1  0.64448000  0.25448000  0.62143000  1.0
  H  H45  1  0.63305000  0.02305000  0.37857000  1.0
  H  H46  1  0.97695000  0.35553000  0.61001000  1.0
  H  H47  1  0.74552000  0.36695000  0.39000000  1.0
  H  H48  1  0.96140000  0.30801000  0.06259000  1.0
  H  H49  1  0.24542000  0.89881000  0.93741000  1.0
  H  H50  1  0.10119000  0.03860000  0.34661000  1.0
  H  H51  1  0.69199000  0.75457000  0.65339000  1.0
  H  H52  1  0.93663000  0.25095000  0.95576000  1.0
  H  H53  1  0.29520000  0.98088000  0.04425000  1.0
  H  H54  1  0.01912000  0.06336000  0.31432000  1.0
  H  H55  1  0.74904000  0.70480000  0.68568000  1.0
  H  H56  1  0.85905000  0.27494000  0.97835000  1.0
  H  H57  1  0.29659000  0.88071000  0.02165000  1.0
  H  H58  1  0.11930000  0.14095000  0.41589000  1.0
  H  H59  1  0.72506000  0.70341000  0.58412000  1.0
  H  H60  1  0.77350000  0.91705000  0.04986000  1.0
  H  H61  1  0.86719000  0.72364000  0.95014000  1.0
  H  H62  1  0.27636000  0.22650000  0.14354000  1.0
  H  H63  1  0.08296000  0.13282000  0.85645000  1.0
  H  H64  1  0.85265000  0.97944000  0.01378000  1.0
  H  H65  1  0.96566000  0.83887000  0.98623000  1.0
  H  H66  1  0.16113000  0.14735000  0.12678000  1.0
  H  H67  1  0.02057000  0.03435000  0.87321000  1.0
  H  H68  1  0.73834000  0.87769000  0.93840000  1.0
  H  H69  1  0.93929000  0.79994000  0.06160000  1.0
  H  H70  1  0.20006000  0.26166000  0.13935000  1.0
  H  H71  1  0.12232000  0.06072000  0.86066000  1.0
  H  H72  1  0.40733000  0.78487000  0.50997000  1.0
  H  H73  1  0.27489000  0.89735000  0.49003000  1.0
  H  H74  1  0.10265000  0.59268000  0.37754000  1.0
  H  H75  1  0.21514000  0.72511000  0.62247000  1.0
  H  H76  1  0.29979000  0.74815000  0.42951000  1.0
  H  H77  1  0.31864000  0.87028000  0.57049000  1.0
  H  H78  1  0.12973000  0.70021000  0.44837000  1.0
  H  H79  1  0.25185000  0.68137000  0.55164000  1.0
  H  H80  1  0.38608000  0.75215000  0.40153000  1.0
  H  H81  1  0.35062000  0.98455000  0.59847000  1.0
  H  H82  1  0.01546000  0.61392000  0.36607000  1.0
  H  H83  1  0.24785000  0.64939000  0.63394000  1.0
  H  H84  1  0.11487000  0.34342000  0.61282000  1.0
  H  H85  1  0.73060000  0.50204000  0.38717000  1.0
  H  H86  1  0.49795000  0.88512000  0.22855000  1.0
  H  H87  1  0.65657000  0.26940000  0.77144000  1.0
  H  H88  1  0.17078000  0.28976000  0.59234000  1.0
  H  H89  1  0.69742000  0.57844000  0.40766000  1.0
  H  H90  1  0.42156000  0.82921000  0.11897000  1.0
  H  H91  1  0.71024000  0.30259000  0.88102000  1.0
  H  H92  1  0.05054000  0.21957000  0.56855000  1.0
  H  H93  1  0.65102000  0.48199000  0.43145000  1.0
  H  H94  1  0.51801000  0.94945000  0.16902000  1.0
  H  H95  1  0.78043000  0.34899000  0.83097000  1.0
  C  C96  1  0.20782000  0.72621000  0.80391000  1.0
  C  C97  1  0.92230000  0.40391000  0.19609000  1.0
  C  C98  1  0.59609000  0.79219000  0.51839000  1.0
  C  C99  1  0.27379000  0.07769000  0.48161000  1.0
  C  C100  1  0.28698000  0.71870000  0.82466000  1.0
  C  C101  1  0.89404000  0.46232000  0.17534000  1.0
  C  C102  1  0.53768000  0.71303000  0.43172000  1.0
  C  C103  1  0.28131000  0.10596000  0.56828000  1.0
  C  C104  1  0.78959000  0.36163000  0.67513000  1.0
  C  C105  1  0.68650000  0.11446000  0.32488000  1.0
  C  C106  1  0.88554000  0.21042000  0.57205000  1.0
  C  C107  1  0.63838000  0.31350000  0.42797000  1.0
  C  C108  1  0.70693000  0.26384000  0.61735000  1.0
  C  C109  1  0.64648000  0.08957000  0.38265000  1.0
  C  C110  1  0.91042000  0.29308000  0.55691000  1.0
  C  C111  1  0.73616000  0.35350000  0.44309000  1.0
  C  C112  1  0.98701000  0.39329000  0.99960000  1.0
  C  C113  1  0.39369000  0.98741000  0.00040000  1.0
  C  C114  1  0.01259000  0.01299000  0.40628000  1.0
  C  C115  1  0.60671000  0.60631000  0.59373000  1.0
  C  C116  1  0.93270000  0.30155000  0.99906000  1.0
  C  C117  1  0.30250000  0.93365000  0.00094000  1.0
  C  C118  1  0.06635000  0.06729000  0.36885000  1.0
  C  C119  1  0.69844000  0.69750000  0.63115000  1.0
  C  C120  1  0.74511000  0.99821000  0.99987000  1.0
  C  C121  1  0.99834000  0.74524000  0.00013000  1.0
  C  C122  1  0.25476000  0.25489000  0.25309000  1.0
  C  C123  1  0.00180000  0.00167000  0.74691000  1.0
  C  C124  1  0.77887000  0.93921000  0.00021000  1.0
  C  C125  1  0.93900000  0.77866000  0.99979000  1.0
  C  C126  1  0.22134000  0.22113000  0.16034000  1.0
  C  C127  1  0.06079000  0.06100000  0.83965000  1.0
  C  C128  1  0.31386000  0.63882000  0.42813000  1.0
  C  C129  1  0.21068000  0.88572000  0.57186000  1.0
  C  C130  1  0.11428000  0.68614000  0.32496000  1.0
  C  C131  1  0.36118000  0.78932000  0.67504000  1.0
  C  C132  1  0.35439000  0.73684000  0.44381000  1.0
  C  C133  1  0.29303000  0.91058000  0.55619000  1.0
  C  C134  1  0.08942000  0.64560000  0.38245000  1.0
  C  C135  1  0.26316000  0.70697000  0.61755000  1.0
  C  C136  1  0.07727000  0.27347000  0.48161000  1.0
  C  C137  1  0.79187000  0.59567000  0.51839000  1.0
  C  C138  1  0.40434000  0.92273000  0.19621000  1.0
  C  C139  1  0.72652000  0.20813000  0.80380000  1.0
  C  C140  1  0.10459000  0.28176000  0.56859000  1.0
  C  C141  1  0.71317000  0.53600000  0.43141000  1.0
  C  C142  1  0.46400000  0.89540000  0.17716000  1.0
  C  C143  1  0.71824000  0.28684000  0.82283000  1.0
  N  N144  1  0.12943000  0.67455000  0.81044000  1.0
  N  N145  1  0.86411000  0.31899000  0.18956000  1.0
  N  N146  1  0.68101000  0.87057000  0.54513000  1.0
  N  N147  1  0.32545000  0.13588000  0.45488000  1.0
  N  N148  1  0.07626000  0.70304000  0.78659000  1.0
  N  N149  1  0.91646000  0.28968000  0.21342000  1.0
  N  N150  1  0.71033000  0.92374000  0.62679000  1.0
  N  N151  1  0.29695000  0.08354000  0.37321000  1.0
  N  N152  1  0.11990000  0.76892000  0.76596000  1.0
  N  N153  1  0.00297000  0.35395000  0.23405000  1.0
  N  N154  1  0.64606000  0.88011000  0.64903000  1.0
  N  N155  1  0.23108000  0.99703000  0.35098000  1.0
  N  N156  1  0.20252000  0.78556000  0.77612000  1.0
  N  N157  1  0.00944000  0.42640000  0.22389000  1.0
  N  N158  1  0.57360000  0.79748000  0.58304000  1.0
  N  N159  1  0.21445000  0.99056000  0.41696000  1.0
  N  N160  1  0.87040000  0.38817000  0.73476000  1.0
  N  N161  1  0.65342000  0.13565000  0.26524000  1.0
  N  N162  1  0.86436000  0.12960000  0.51778000  1.0
  N  N163  1  0.61182000  0.34658000  0.48222000  1.0
  N  N164  1  0.92527000  0.48186000  0.77265000  1.0
  N  N165  1  0.70920000  0.15262000  0.22735000  1.0
  N  N166  1  0.84738000  0.07473000  0.55658000  1.0
  N  N167  1  0.51815000  0.29080000  0.44342000  1.0
  N  N168  1  0.88024000  0.51121000  0.73769000  1.0
  N  N169  1  0.77352000  0.14255000  0.26231000  1.0
  N  N170  1  0.85745000  0.11977000  0.63097000  1.0
  N  N171  1  0.48879000  0.22647000  0.36903000  1.0
  N  N172  1  0.79506000  0.43789000  0.67634000  1.0
  N  N173  1  0.76155000  0.11872000  0.32365000  1.0
  N  N174  1  0.88128000  0.20493000  0.64283000  1.0
  N  N175  1  0.56210000  0.23845000  0.35717000  1.0
  N  N176  1  0.98097000  0.40707000  0.93001000  1.0
  N  N177  1  0.47707000  0.05097000  0.07000000  1.0
  N  N178  1  0.94903000  0.01902000  0.42609000  1.0
  N  N179  1  0.59293000  0.52294000  0.57391000  1.0
  N  N180  1  0.04099000  0.49905000  0.95848000  1.0
  N  N181  1  0.54058000  0.08252000  0.04153000  1.0
  N  N182  1  0.91749000  0.95901000  0.45807000  1.0
  N  N183  1  0.50094000  0.45942000  0.54194000  1.0
  N  N184  1  0.08204000  0.54036000  0.04142000  1.0
  N  N185  1  0.49895000  0.04063000  0.95859000  1.0
  N  N186  1  0.95937000  0.91795000  0.45832000  1.0
  N  N187  1  0.45964000  0.50106000  0.54169000  1.0
  N  N188  1  0.04993000  0.47644000  0.06943000  1.0
  N  N189  1  0.40701000  0.98050000  0.93057000  1.0
  N  N190  1  0.01950000  0.95007000  0.42651000  1.0
  N  N191  1  0.52355000  0.59298000  0.57349000  1.0
  N  N192  1  0.69285000  0.99512000  0.93056000  1.0
  N  N193  1  0.06456000  0.76229000  0.06944000  1.0
  N  N194  1  0.23772000  0.30716000  0.30227000  1.0
  N  N195  1  0.00489000  0.93545000  0.69773000  1.0
  N  N196  1  0.67922000  0.06063000  0.95827000  1.0
  N  N197  1  0.10236000  0.72095000  0.04173000  1.0
  N  N198  1  0.27905000  0.32078000  0.38141000  1.0
  N  N199  1  0.93937000  0.89764000  0.61859000  1.0
  N  N200  1  0.72106000  0.10246000  0.04135000  1.0
  N  N201  1  0.06110000  0.67971000  0.95864000  1.0
  N  N202  1  0.32029000  0.27894000  0.38139000  1.0
  N  N203  1  0.89755000  0.93890000  0.61861000  1.0
  N  N204  1  0.76267000  0.06496000  0.06916000  1.0
  N  N205  1  0.99580000  0.69351000  0.93084000  1.0
  N  N206  1  0.30649000  0.23733000  0.30228000  1.0
  N  N207  1  0.93505000  0.00421000  0.69772000  1.0
  N  N208  1  0.34719000  0.61205000  0.48202000  1.0
  N  N209  1  0.13002000  0.86516000  0.51797000  1.0
  N  N210  1  0.13484000  0.65281000  0.26486000  1.0
  N  N211  1  0.38795000  0.86998000  0.73514000  1.0
  N  N212  1  0.29143000  0.51841000  0.44307000  1.0
  N  N213  1  0.07534000  0.84836000  0.55693000  1.0
  N  N214  1  0.15164000  0.70857000  0.22698000  1.0
  N  N215  1  0.48159000  0.92466000  0.77302000  1.0
  N  N216  1  0.22685000  0.48922000  0.36894000  1.0
  N  N217  1  0.12028000  0.85791000  0.63106000  1.0
  N  N218  1  0.14209000  0.77315000  0.26237000  1.0
  N  N219  1  0.51078000  0.87972000  0.73763000  1.0
  N  N220  1  0.23859000  0.56263000  0.35739000  1.0
  N  N221  1  0.20524000  0.88120000  0.64261000  1.0
  N  N222  1  0.11881000  0.76141000  0.32405000  1.0
  N  N223  1  0.43737000  0.79477000  0.67596000  1.0
  N  N224  1  0.13569000  0.32528000  0.45511000  1.0
  N  N225  1  0.87017000  0.68058000  0.54489000  1.0
  N  N226  1  0.31942000  0.86430000  0.18959000  1.0
  N  N227  1  0.67471000  0.12983000  0.81041000  1.0
  N  N228  1  0.08374000  0.29606000  0.37311000  1.0
  N  N229  1  0.92295000  0.71064000  0.62690000  1.0
  N  N230  1  0.28937000  0.91626000  0.21232000  1.0
  N  N231  1  0.70395000  0.07705000  0.78769000  1.0
  N  N232  1  0.99733000  0.22959000  0.35044000  1.0
  N  N233  1  0.87915000  0.64689000  0.64956000  1.0
  N  N234  1  0.35311000  0.00266000  0.23226000  1.0
  N  N235  1  0.77041000  0.12086000  0.76774000  1.0
  N  N236  1  0.99047000  0.21327000  0.41642000  1.0
  N  N237  1  0.79685000  0.57405000  0.58358000  1.0
  N  N238  1  0.42595000  0.00953000  0.22280000  1.0
  N  N239  1  0.78673000  0.20315000  0.77720000  1.0
  Cl  Cl240  1  0.08698000  0.44218000  0.78318000  1.0
  Cl  Cl241  1  0.65900000  0.30381000  0.21683000  1.0
  Cl  Cl242  1  0.69620000  0.91302000  0.35519000  1.0
  Cl  Cl243  1  0.55783000  0.34100000  0.64481000  1.0
  Cl  Cl244  1  0.01106000  0.23900000  0.84119000  1.0
  Cl  Cl245  1  0.39781000  0.16987000  0.15881000  1.0
  Cl  Cl246  1  0.83013000  0.98894000  0.22794000  1.0
  Cl  Cl247  1  0.76100000  0.60219000  0.77206000  1.0
  Cl  Cl248  1  0.84480000  0.00092000  0.84551000  1.0
  Cl  Cl249  1  0.15542000  0.99929000  0.15450000  1.0
  Cl  Cl250  1  0.00071000  0.15521000  0.15613000  1.0
  Cl  Cl251  1  0.99907000  0.84457000  0.84387000  1.0
  Cl  Cl252  1  0.60350000  0.76113000  0.77060000  1.0
  Cl  Cl253  1  0.99052000  0.83289000  0.22940000  1.0
  Cl  Cl254  1  0.16710000  0.39650000  0.15762000  1.0
  Cl  Cl255  1  0.23888000  0.00948000  0.84237000  1.0
  Cl  Cl256  1  0.34127000  0.55862000  0.64452000  1.0
  Cl  Cl257  1  0.91410000  0.69675000  0.35548000  1.0
  Cl  Cl258  1  0.30325000  0.65873000  0.21735000  1.0
  Cl  Cl259  1  0.44138000  0.08590000  0.78265000  1.0
  Cl  Cl260  1  0.31700000  0.31748000  0.57682000  1.0
  Cl  Cl261  1  0.74066000  0.74018000  0.42318000  1.0
  Cl  Cl262  1  0.25982000  0.68299000  0.00048000  1.0
  Cl  Cl263  1  0.68252000  0.25935000  0.99953000  1.0
