# generated using pymatgen
data_ZnH7C16NO8
_symmetry_space_group_name_H-M   'P 1'
_cell_length_a   12.75250000
_cell_length_b   13.85810000
_cell_length_c   17.03140000
_cell_angle_alpha   89.35890000
_cell_angle_beta   84.94460000
_cell_angle_gamma   86.05600000
_symmetry_Int_Tables_number   1
_chemical_formula_structural   ZnH7C16NO8
_chemical_formula_sum   'Zn2 H14 C32 N2 O16'
_cell_volume   2991.03252483
_cell_formula_units_Z   2
loop_
 _symmetry_equiv_pos_site_id
 _symmetry_equiv_pos_as_xyz
  1  'x, y, z'
loop_
 _atom_site_type_symbol
 _atom_site_label
 _atom_site_symmetry_multiplicity
 _atom_site_fract_x
 _atom_site_fract_y
 _atom_site_fract_z
 _atom_site_occupancy
  Zn  Zn0  1  0.39403000  0.49041000  0.50228000  1.0
  Zn  Zn1  1  0.60958000  0.50992000  0.49658000  1.0
  H  H2  1  0.59125000  0.64488000  0.72122000  1.0
  H  H3  1  0.01551000  0.42186000  0.43119000  1.0
  H  H4  1  0.31913000  0.83106000  0.08936000  1.0
  H  H5  1  0.57771000  0.84822000  0.91021000  1.0
  H  H6  1  0.26845000  0.14198000  0.55502000  1.0
  H  H7  1  0.72981000  0.85892000  0.44571000  1.0
  H  H8  1  0.36784000  0.63006000  0.27858000  1.0
  H  H9  1  0.67954000  0.49243000  0.23445000  1.0
  H  H10  1  0.32733000  0.46904000  0.76379000  1.0
  H  H11  1  0.60214000  0.62344000  0.98689000  1.0
  H  H12  1  0.36222000  0.60766000  0.01231000  1.0
  H  H13  1  0.31114000  0.51578000  0.90561000  1.0
  H  H14  1  0.67997000  0.54016000  0.09282000  1.0
  H  H15  1  0.98945000  0.57352000  0.56666000  1.0
  C  C16  1  0.46201000  0.68743000  0.49990000  1.0
  C  C17  1  0.96644000  0.52611000  0.52128000  1.0
  C  C18  1  0.85769000  0.52652000  0.51084000  1.0
  C  C19  1  0.14702000  0.46971000  0.48695000  1.0
  C  C20  1  0.47851000  0.51860000  0.65055000  1.0
  C  C21  1  0.51717000  0.52085000  0.34845000  1.0
  C  C22  1  0.46339000  0.55037000  0.73458000  1.0
  C  C23  1  0.52160000  0.55410000  0.26450000  1.0
  C  C24  1  0.53013000  0.61614000  0.76190000  1.0
  C  C25  1  0.43616000  0.60987000  0.23763000  1.0
  C  C26  1  0.51717000  0.64815000  0.83980000  1.0
  C  C27  1  0.54165000  0.31450000  0.50058000  1.0
  C  C28  1  0.43874000  0.64316000  0.15983000  1.0
  C  C29  1  0.44118000  0.60798000  0.89419000  1.0
  C  C30  1  0.52498000  0.61371000  0.10504000  1.0
  C  C31  1  0.37147000  0.54549000  0.86459000  1.0
  C  C32  1  0.61228000  0.56150000  0.13421000  1.0
  C  C33  1  0.38115000  0.51787000  0.78598000  1.0
  C  C34  1  0.61172000  0.53315000  0.21273000  1.0
  C  C35  1  0.43835000  0.61790000  0.97951000  1.0
  C  C36  1  0.52447000  0.62363000  0.01975000  1.0
  C  C37  1  0.34957000  0.71247000  0.14095000  1.0
  C  C38  1  0.55517000  0.21013000  0.50176000  1.0
  C  C39  1  0.58399000  0.72726000  0.85939000  1.0
  C  C40  1  0.35065000  0.04171000  0.50019000  1.0
  C  C41  1  0.64913000  0.95894000  0.50250000  1.0
  C  C42  1  0.44745000  0.79172000  0.50087000  1.0
  C  C43  1  0.54780000  0.02175000  0.50152000  1.0
  C  C44  1  0.45267000  0.98030000  0.50151000  1.0
  C  C45  1  0.44636000  0.87972000  0.50005000  1.0
  C  C46  1  0.55493000  0.12216000  0.50337000  1.0
  C  C47  1  0.03830000  0.46937000  0.47657000  1.0
  N  N48  1  0.23630000  0.46993000  0.49553000  1.0
  N  N49  1  0.76829000  0.52763000  0.50232000  1.0
  O  O50  1  0.38122000  0.63973000  0.51692000  1.0
  O  O51  1  0.38276000  0.78977000  0.09768000  1.0
  O  O52  1  0.67760000  0.73079000  0.83744000  1.0
  O  O53  1  0.52757000  0.79985000  0.90112000  1.0
  O  O54  1  0.29095000  0.03632000  0.44865000  1.0
  O  O55  1  0.33345000  0.10220000  0.56251000  1.0
  O  O56  1  0.70753000  0.96094000  0.55518000  1.0
  O  O57  1  0.66654000  0.90128000  0.43847000  1.0
  O  O58  1  0.62135000  0.36201000  0.51063000  1.0
  O  O59  1  0.55666000  0.65408000  0.48197000  1.0
  O  O60  1  0.44868000  0.34848000  0.48916000  1.0
  O  O61  1  0.40162000  0.48147000  0.62163000  1.0
  O  O62  1  0.60444000  0.49797000  0.37761000  1.0
  O  O63  1  0.56769000  0.53254000  0.61359000  1.0
  O  O64  1  0.42562000  0.51919000  0.38499000  1.0
  O  O65  1  0.25710000  0.70511000  0.16475000  1.0
