# generated using pymatgen
data_CdH15C23(NO3)2
_symmetry_space_group_name_H-M   'P 1'
_cell_length_a   6.80296000
_cell_length_b   12.47080000
_cell_length_c   14.50840000
_cell_angle_alpha   103.39100000
_cell_angle_beta   100.50100000
_cell_angle_gamma   97.73310000
_symmetry_Int_Tables_number   1
_chemical_formula_structural   CdH15C23(NO3)2
_chemical_formula_sum   'Cd2 H30 C46 N4 O12'
_cell_volume   1157.07066226
_cell_formula_units_Z   2
loop_
 _symmetry_equiv_pos_site_id
 _symmetry_equiv_pos_as_xyz
  1  'x, y, z'
loop_
 _atom_site_type_symbol
 _atom_site_label
 _atom_site_symmetry_multiplicity
 _atom_site_fract_x
 _atom_site_fract_y
 _atom_site_fract_z
 _atom_site_occupancy
  Cd  Cd0  1  0.19380000  0.16468000  0.49052000  1.0
  Cd  Cd1  1  0.80619000  0.83533000  0.50948000  1.0
  H  H2  1  0.79099000  0.09972000  0.51864000  1.0
  H  H3  1  0.20901000  0.90029000  0.48136000  1.0
  H  H4  1  0.78403000  0.04427000  0.41117000  1.0
  H  H5  1  0.21597000  0.95574000  0.58883000  1.0
  H  H6  1  0.08583000  0.22697000  0.71286000  1.0
  H  H7  1  0.91417000  0.77302000  0.28713000  1.0
  H  H8  1  0.08247000  0.39479000  0.84578000  1.0
  H  H9  1  0.91753000  0.60520000  0.15422000  1.0
  H  H10  1  0.15911000  0.58670000  0.81922000  1.0
  H  H11  1  0.84088000  0.41329000  0.18078000  1.0
  H  H12  1  0.22882000  0.70369000  0.70475000  1.0
  H  H13  1  0.77117000  0.29631000  0.29525000  1.0
  H  H14  1  0.28094000  0.71443000  0.54287000  1.0
  H  H15  1  0.71905000  0.28557000  0.45713000  1.0
  H  H16  1  0.32181000  0.61904000  0.37891000  1.0
  H  H17  1  0.67819000  0.38096000  0.62109000  1.0
  H  H18  1  0.31829000  0.43821000  0.25595000  1.0
  H  H19  1  0.68170000  0.56179000  0.74405000  1.0
  H  H20  1  0.26089000  0.25627000  0.30410000  1.0
  H  H21  1  0.73910000  0.74373000  0.69589000  1.0
  H  H22  1  0.45905000  0.68300000  0.18504000  1.0
  H  H23  1  0.54095000  0.31700000  0.81497000  1.0
  H  H24  1  0.98156000  0.78262000  0.00257000  1.0
  H  H25  1  0.01844000  0.21738000  0.99743000  1.0
  H  H26  1  0.98227000  0.94528000  0.14267000  1.0
  H  H27  1  0.01773000  0.05472000  0.85732000  1.0
  H  H28  1  0.16928000  0.43389000  0.03787000  1.0
  H  H29  1  0.83073000  0.56610000  0.96214000  1.0
  H  H30  1  0.57069000  0.69218000  0.97678000  1.0
  H  H31  1  0.42931000  0.30781000  0.02322000  1.0
  C  C32  1  0.11651000  0.31131000  0.70331000  1.0
  C  C33  1  0.88349000  0.68868000  0.29669000  1.0
  C  C34  1  0.11667000  0.40619000  0.77800000  1.0
  C  C35  1  0.88333000  0.59380000  0.22200000  1.0
  C  C36  1  0.15925000  0.51145000  0.76304000  1.0
  C  C37  1  0.84075000  0.48854000  0.23696000  1.0
  C  C38  1  0.19843000  0.52208000  0.67293000  1.0
  C  C39  1  0.80157000  0.47792000  0.32707000  1.0
  C  C40  1  0.23177000  0.62766000  0.65008000  1.0
  C  C41  1  0.76823000  0.37233000  0.34992000  1.0
  C  C42  1  0.26141000  0.63379000  0.56064000  1.0
  C  C43  1  0.73859000  0.36621000  0.43936000  1.0
  C  C44  1  0.26341000  0.53441000  0.48810000  1.0
  C  C45  1  0.73659000  0.46559000  0.51190000  1.0
  C  C46  1  0.29556000  0.53766000  0.39516000  1.0
  C  C47  1  0.70444000  0.46234000  0.60484000  1.0
  C  C48  1  0.29428000  0.43861000  0.32823000  1.0
  C  C49  1  0.70572000  0.56139000  0.67177000  1.0
  C  C50  1  0.26387000  0.33691000  0.35430000  1.0
  C  C51  1  0.73613000  0.66309000  0.64569000  1.0
  C  C52  1  0.23282000  0.42795000  0.50825000  1.0
  C  C53  1  0.76719000  0.57206000  0.49175000  1.0
  C  C54  1  0.19562000  0.42139000  0.60189000  1.0
  C  C55  1  0.80438000  0.57861000  0.39811000  1.0
  C  C56  1  0.20550000  0.00188000  0.32186000  1.0
  C  C57  1  0.79450000  0.99813000  0.67814000  1.0
  C  C58  1  0.21768000  0.90487000  0.24134000  1.0
  C  C59  1  0.78233000  0.09514000  0.75866000  1.0
  C  C60  1  0.35348000  0.83100000  0.25355000  1.0
  C  C61  1  0.64652000  0.16901000  0.74645000  1.0
  C  C62  1  0.35404000  0.74038000  0.17559000  1.0
  C  C63  1  0.64597000  0.25962000  0.82441000  1.0
  C  C64  1  0.21943000  0.72367000  0.08651000  1.0
  C  C65  1  0.78058000  0.27634000  0.91349000  1.0
  C  C66  1  0.08396000  0.79671000  0.07313000  1.0
  C  C67  1  0.91604000  0.20329000  0.92687000  1.0
  C  C68  1  0.08539000  0.88663000  0.15048000  1.0
  C  C69  1  0.91462000  0.11337000  0.84952000  1.0
  C  C70  1  0.50608000  0.84310000  0.34692000  1.0
  C  C71  1  0.49393000  0.15691000  0.65308000  1.0
  C  C72  1  0.35785000  0.56895000  0.00840000  1.0
  C  C73  1  0.64214000  0.43105000  0.99160000  1.0
  C  C74  1  0.31545000  0.46194000  0.02223000  1.0
  C  C75  1  0.68455000  0.53806000  0.97777000  1.0
  C  C76  1  0.54142000  0.60795000  0.98669000  1.0
  C  C77  1  0.45858000  0.39204000  0.01331000  1.0
  N  N78  1  0.23519000  0.33202000  0.44166000  1.0
  N  N79  1  0.76481000  0.66798000  0.55833000  1.0
  N  N80  1  0.15575000  0.31901000  0.61844000  1.0
  N  N81  1  0.84425000  0.68099000  0.38155000  1.0
  O  O82  1  0.84044000  0.11564000  0.46209000  1.0
  O  O83  1  0.15956000  0.88437000  0.53791000  1.0
  O  O84  1  0.27122000  0.99768000  0.40994000  1.0
  O  O85  1  0.72878000  0.00233000  0.59006000  1.0
  O  O86  1  0.13025000  0.08299000  0.30169000  1.0
  O  O87  1  0.86974000  0.91701000  0.69831000  1.0
  O  O88  1  0.68194000  0.90149000  0.35843000  1.0
  O  O89  1  0.31807000  0.09851000  0.64156000  1.0
  O  O90  1  0.45787000  0.78605000  0.40388000  1.0
  O  O91  1  0.54214000  0.21396000  0.59612000  1.0
  O  O92  1  0.20514000  0.63317000  0.00756000  1.0
  O  O93  1  0.79487000  0.36682000  0.99245000  1.0
