# generated using pymatgen
data_Cd2H7C6SN5O6
_symmetry_space_group_name_H-M   'P 1'
_cell_length_a   7.02273000
_cell_length_b   7.62313000
_cell_length_c   11.47550000
_cell_angle_alpha   77.64100000
_cell_angle_beta   89.99980000
_cell_angle_gamma   89.99960000
_symmetry_Int_Tables_number   1
_chemical_formula_structural   Cd2H7C6SN5O6
_chemical_formula_sum   'Cd4 H14 C12 S2 N10 O12'
_cell_volume   600.10602567
_cell_formula_units_Z   2
loop_
 _symmetry_equiv_pos_site_id
 _symmetry_equiv_pos_as_xyz
  1  'x, y, z'
loop_
 _atom_site_type_symbol
 _atom_site_label
 _atom_site_symmetry_multiplicity
 _atom_site_fract_x
 _atom_site_fract_y
 _atom_site_fract_z
 _atom_site_occupancy
  Cd  Cd0  1  0.25000000  0.94397000  0.83617000  1.0
  Cd  Cd1  1  0.75000000  0.05603000  0.16384000  1.0
  Cd  Cd2  1  0.50000000  0.50000000  0.00000000  1.0
  Cd  Cd3  1  0.00000000  0.50000000  0.00000000  1.0
  H  H4  1  0.25000000  0.60392000  0.81906000  1.0
  H  H5  1  0.75000000  0.39608000  0.18094000  1.0
  H  H6  1  0.13260000  0.29807000  0.73389000  1.0
  H  H7  1  0.63261000  0.70193000  0.26611000  1.0
  H  H8  1  0.86740000  0.70193000  0.26611000  1.0
  H  H9  1  0.36739000  0.29807000  0.73389000  1.0
  H  H10  1  0.95614000  0.83504000  0.64050000  1.0
  H  H11  1  0.45613000  0.16496000  0.35950000  1.0
  H  H12  1  0.04386000  0.16494000  0.35951000  1.0
  H  H13  1  0.54387000  0.83506000  0.64049000  1.0
  H  H14  1  0.94189000  0.72704000  0.44909000  1.0
  H  H15  1  0.44188000  0.27295000  0.55091000  1.0
  H  H16  1  0.05810000  0.27294000  0.55092000  1.0
  H  H17  1  0.55811000  0.72706000  0.44909000  1.0
  C  C18  1  0.08541000  0.80848000  0.59443000  1.0
  C  C19  1  0.58540000  0.19152000  0.40557000  1.0
  C  C20  1  0.91459000  0.19152000  0.40558000  1.0
  C  C21  1  0.41460000  0.80849000  0.59443000  1.0
  C  C22  1  0.07876000  0.74674000  0.48900000  1.0
  C  C23  1  0.57873000  0.25326000  0.51099000  1.0
  C  C24  1  0.92125000  0.25325000  0.51100000  1.0
  C  C25  1  0.42128000  0.74675000  0.48900000  1.0
  C  C26  1  0.25000000  0.71457000  0.43407000  1.0
  C  C27  1  0.74999000  0.28544000  0.56594000  1.0
  C  C28  1  0.25001000  0.64906000  0.32342000  1.0
  C  C29  1  0.75000000  0.35094000  0.67658000  1.0
  S  S30  1  0.25000000  0.08814000  0.10327000  1.0
  S  S31  1  0.75000000  0.91186000  0.89673000  1.0
  N  N32  1  0.25001000  0.83947000  0.64690000  1.0
  N  N33  1  0.74999000  0.16053000  0.35310000  1.0
  N  N34  1  0.34416000  0.55657000  0.17060000  1.0
  N  N35  1  0.84416000  0.44343000  0.82940000  1.0
  N  N36  1  0.65584000  0.44344000  0.82940000  1.0
  N  N37  1  0.15585000  0.55656000  0.17060000  1.0
  N  N38  1  0.40754000  0.61326000  0.26503000  1.0
  N  N39  1  0.90753000  0.38674000  0.73497000  1.0
  N  N40  1  0.59246000  0.38675000  0.73497000  1.0
  N  N41  1  0.09247000  0.61325000  0.26503000  1.0
  O  O42  1  0.57937000  0.92672000  0.81871000  1.0
  O  O43  1  0.07937000  0.07328000  0.18129000  1.0
  O  O44  1  0.42063000  0.07328000  0.18129000  1.0
  O  O45  1  0.92062000  0.92673000  0.81871000  1.0
  O  O46  1  0.25000000  0.63615000  0.89672000  1.0
  O  O47  1  0.75000000  0.36385000  0.10328000  1.0
  O  O48  1  0.25000000  0.22748000  0.72444000  1.0
  O  O49  1  0.75000000  0.77252000  0.27556000  1.0
  O  O50  1  0.25000000  0.94373000  0.03448000  1.0
  O  O51  1  0.74998000  0.05627000  0.96552000  1.0
  O  O52  1  0.75000000  0.73113000  0.98301000  1.0
  O  O53  1  0.25000000  0.26888000  0.01699000  1.0
