# generated using pymatgen
data_AlH7C16I2N4O9
_symmetry_space_group_name_H-M   'P 1'
_cell_length_a   6.61345000
_cell_length_b   25.64830000
_cell_length_c   28.11050000
_cell_angle_alpha   89.99990000
_cell_angle_beta   90.00020000
_cell_angle_gamma   89.99940000
_symmetry_Int_Tables_number   1
_chemical_formula_structural   AlH7C16I2N4O9
_chemical_formula_sum   'Al4 H28 C64 I8 N16 O36'
_cell_volume   4768.20841382
_cell_formula_units_Z   4
loop_
 _symmetry_equiv_pos_site_id
 _symmetry_equiv_pos_as_xyz
  1  'x, y, z'
loop_
 _atom_site_type_symbol
 _atom_site_label
 _atom_site_symmetry_multiplicity
 _atom_site_fract_x
 _atom_site_fract_y
 _atom_site_fract_z
 _atom_site_occupancy
  Al  Al0  1  0.81045000  0.74886000  0.75000000  1.0
  Al  Al1  1  0.18955000  0.25114000  0.25000000  1.0
  Al  Al2  1  0.31045000  0.75114000  0.75000000  1.0
  Al  Al3  1  0.68955000  0.24886000  0.25000000  1.0
  H  H4  1  0.77217000  0.67137000  0.62347000  1.0
  H  H5  1  0.22784000  0.32864000  0.37653000  1.0
  H  H6  1  0.22784000  0.32863000  0.12347000  1.0
  H  H7  1  0.77217000  0.67137000  0.87653000  1.0
  H  H8  1  0.27215000  0.82864000  0.87653000  1.0
  H  H9  1  0.72784000  0.17137000  0.12347000  1.0
  H  H10  1  0.72785000  0.17136000  0.37653000  1.0
  H  H11  1  0.27215000  0.82864000  0.62347000  1.0
  H  H12  1  0.70130000  0.57515000  0.53624000  1.0
  H  H13  1  0.29869000  0.42485000  0.46376000  1.0
  H  H14  1  0.29868000  0.42485000  0.03624000  1.0
  H  H15  1  0.70130000  0.57515000  0.96376000  1.0
  H  H16  1  0.20130000  0.92485000  0.96376000  1.0
  H  H17  1  0.79870000  0.07515000  0.03624000  1.0
  H  H18  1  0.79870000  0.07515000  0.46376000  1.0
  H  H19  1  0.20130000  0.92485000  0.53624000  1.0
  H  H20  1  0.46253000  0.57891000  0.66827000  1.0
  H  H21  1  0.53748000  0.42109000  0.33173000  1.0
  H  H22  1  0.53749000  0.42109000  0.16826000  1.0
  H  H23  1  0.46252000  0.57890000  0.83174000  1.0
  H  H24  1  0.96251000  0.92109000  0.83173000  1.0
  H  H25  1  0.03750000  0.07891000  0.16827000  1.0
  H  H26  1  0.03749000  0.07891000  0.33173000  1.0
  H  H27  1  0.96251000  0.92109000  0.66827000  1.0
  H  H28  1  0.55231000  0.68088000  0.75000000  1.0
  H  H29  1  0.44769000  0.31912000  0.25000000  1.0
  H  H30  1  0.05229000  0.81912000  0.75000000  1.0
  H  H31  1  0.94771000  0.18088000  0.25000000  1.0
  C  C32  1  0.56360000  0.81419000  0.68658000  1.0
  C  C33  1  0.43642000  0.18581000  0.31342000  1.0
  C  C34  1  0.43642000  0.18581000  0.18658000  1.0
  C  C35  1  0.56361000  0.81419000  0.81342000  1.0
  C  C36  1  0.06357000  0.68581000  0.81342000  1.0
  C  C37  1  0.93640000  0.31419000  0.18658000  1.0
  C  C38  1  0.93640000  0.31419000  0.31342000  1.0
  C  C39  1  0.06356000  0.68581000  0.68658000  1.0
  C  C40  1  0.89461000  0.64353000  0.61825000  1.0
  C  C41  1  0.10539000  0.35648000  0.38174000  1.0
  C  C42  1  0.10539000  0.35647000  0.11825000  1.0
  C  C43  1  0.89461000  0.64353000  0.88175000  1.0
  C  C44  1  0.39461000  0.85647000  0.88175000  1.0
  C  C45  1  0.60540000  0.14353000  0.11825000  1.0
  C  C46  1  0.60540000  0.14352000  0.38175000  1.0
  C  C47  1  0.39460000  0.85647000  0.61825000  1.0
  C  C48  1  0.87667000  0.60612000  0.58236000  1.0
  C  C49  1  0.12333000  0.39388000  0.41764000  1.0
  C  C50  1  0.12334000  0.39388000  0.08236000  1.0
  C  C51  1  0.87667000  0.60612000  0.91764000  1.0
  C  C52  1  0.37666000  0.89388000  0.91764000  1.0
  C  C53  1  0.62334000  0.10612000  0.08236000  1.0
  C  C54  1  0.62334000  0.10612000  0.41764000  1.0
  C  C55  1  0.37666000  0.89388000  0.58236000  1.0
  C  C56  1  0.03350000  0.56823000  0.57605000  1.0
  C  C57  1  0.96649000  0.43177000  0.42395000  1.0
  C  C58  1  0.96649000  0.43177000  0.07604000  1.0
  C  C59  1  0.03351000  0.56823000  0.92395000  1.0
  C  C60  1  0.53350000  0.93177000  0.92395000  1.0
  C  C61  1  0.46650000  0.06823000  0.07605000  1.0
  C  C62  1  0.46649000  0.06823000  0.42395000  1.0
  C  C63  1  0.53350000  0.93177000  0.57605000  1.0
  C  C64  1  0.19846000  0.56905000  0.60853000  1.0
  C  C65  1  0.80153000  0.43095000  0.39147000  1.0
  C  C66  1  0.80153000  0.43095000  0.10853000  1.0
  C  C67  1  0.19846000  0.56905000  0.89147000  1.0
  C  C68  1  0.69846000  0.93095000  0.89147000  1.0
  C  C69  1  0.30154000  0.06905000  0.10853000  1.0
  C  C70  1  0.30154000  0.06905000  0.39147000  1.0
  C  C71  1  0.69846000  0.93095000  0.60853000  1.0
  C  C72  1  0.21870000  0.60776000  0.64353000  1.0
  C  C73  1  0.78130000  0.39224000  0.35648000  1.0
  C  C74  1  0.78129000  0.39224000  0.14352000  1.0
  C  C75  1  0.21870000  0.60776000  0.85647000  1.0
  C  C76  1  0.71869000  0.89224000  0.85647000  1.0
  C  C77  1  0.28131000  0.10776000  0.14352000  1.0
  C  C78  1  0.28131000  0.10776000  0.35647000  1.0
  C  C79  1  0.71868000  0.89224000  0.64352000  1.0
  C  C80  1  0.06212000  0.64538000  0.64802000  1.0
  C  C81  1  0.93789000  0.35463000  0.35198000  1.0
  C  C82  1  0.93789000  0.35462000  0.14802000  1.0
  C  C83  1  0.06212000  0.64538000  0.85198000  1.0
  C  C84  1  0.56211000  0.85462000  0.85198000  1.0
  C  C85  1  0.43790000  0.14538000  0.14802000  1.0
  C  C86  1  0.43790000  0.14537000  0.35198000  1.0
  C  C87  1  0.56210000  0.85462000  0.64802000  1.0
  C  C88  1  0.98081000  0.46800000  0.46375000  1.0
  C  C89  1  0.01918000  0.53200000  0.53625000  1.0
  C  C90  1  0.01919000  0.53200000  0.96375000  1.0
  C  C91  1  0.98081000  0.46799000  0.03625000  1.0
  C  C92  1  0.48082000  0.03201000  0.03625000  1.0
  C  C93  1  0.51917000  0.96800000  0.96375000  1.0
  C  C94  1  0.51918000  0.96799000  0.53625000  1.0
  C  C95  1  0.48082000  0.03200000  0.46375000  1.0
  I  I96  1  0.41049000  0.50734000  0.61415000  1.0
  I  I97  1  0.58950000  0.49266000  0.38585000  1.0
  I  I98  1  0.58951000  0.49265000  0.11415000  1.0
  I  I99  1  0.41049000  0.50734000  0.88585000  1.0
  I  I100  1  0.91046000  0.99266000  0.88584000  1.0
  I  I101  1  0.08954000  0.00735000  0.11415000  1.0
  I  I102  1  0.08952000  0.00735000  0.38584000  1.0
  I  I103  1  0.91047000  0.99265000  0.61415000  1.0
  N  N104  1  0.18789000  0.50874000  0.51892000  1.0
  N  N105  1  0.81211000  0.49126000  0.48108000  1.0
  N  N106  1  0.81211000  0.49126000  0.01892000  1.0
  N  N107  1  0.18790000  0.50873000  0.98108000  1.0
  N  N108  1  0.68789000  0.99126000  0.98108000  1.0
  N  N109  1  0.31212000  0.00874000  0.01892000  1.0
  N  N110  1  0.31211000  0.00874000  0.48108000  1.0
  N  N111  1  0.68789000  0.99126000  0.51892000  1.0
  N  N112  1  0.16728000  0.47665000  0.48305000  1.0
  N  N113  1  0.83272000  0.52335000  0.51695000  1.0
  N  N114  1  0.83272000  0.52335000  0.98305000  1.0
  N  N115  1  0.16729000  0.47664000  0.01695000  1.0
  N  N116  1  0.66729000  0.02335000  0.01695000  1.0
  N  N117  1  0.33271000  0.97665000  0.98305000  1.0
  N  N118  1  0.33271000  0.97665000  0.51694000  1.0
  N  N119  1  0.66729000  0.02335000  0.48305000  1.0
  O  O120  1  0.39058000  0.80031000  0.79814000  1.0
  O  O121  1  0.60943000  0.19969000  0.20185000  1.0
  O  O122  1  0.60943000  0.19969000  0.29815000  1.0
  O  O123  1  0.39056000  0.80031000  0.70185000  1.0
  O  O124  1  0.89056000  0.69969000  0.70186000  1.0
  O  O125  1  0.10944000  0.30031000  0.29815000  1.0
  O  O126  1  0.10944000  0.30031000  0.20185000  1.0
  O  O127  1  0.89057000  0.69969000  0.79814000  1.0
  O  O128  1  0.73269000  0.79719000  0.70087000  1.0
  O  O129  1  0.26732000  0.20281000  0.29913000  1.0
  O  O130  1  0.26732000  0.20281000  0.20086000  1.0
  O  O131  1  0.73269000  0.79718000  0.79913000  1.0
  O  O132  1  0.23269000  0.70282000  0.79914000  1.0
  O  O133  1  0.76731000  0.29719000  0.20086000  1.0
  O  O134  1  0.76731000  0.29719000  0.29913000  1.0
  O  O135  1  0.23268000  0.70281000  0.70087000  1.0
  O  O136  1  0.55871000  0.71862000  0.75000000  1.0
  O  O137  1  0.44128000  0.28138000  0.25000000  1.0
  O  O138  1  0.05874000  0.78138000  0.75000000  1.0
  O  O139  1  0.94128000  0.21862000  0.25000000  1.0
  O  O140  1  0.70920000  0.60860000  0.55488000  1.0
  O  O141  1  0.29080000  0.39141000  0.44512000  1.0
  O  O142  1  0.29079000  0.39140000  0.05488000  1.0
  O  O143  1  0.70920000  0.60859000  0.94512000  1.0
  O  O144  1  0.20919000  0.89141000  0.94512000  1.0
  O  O145  1  0.79081000  0.10860000  0.05488000  1.0
  O  O146  1  0.79081000  0.10859000  0.44512000  1.0
  O  O147  1  0.20919000  0.89140000  0.55488000  1.0
  O  O148  1  0.37389000  0.60898000  0.67501000  1.0
  O  O149  1  0.62612000  0.39103000  0.32499000  1.0
  O  O150  1  0.62611000  0.39102000  0.17501000  1.0
  O  O151  1  0.37389000  0.60898000  0.82498000  1.0
  O  O152  1  0.87388000  0.89102000  0.82498000  1.0
  O  O153  1  0.12612000  0.10898000  0.17502000  1.0
  O  O154  1  0.12612000  0.10898000  0.32498000  1.0
  O  O155  1  0.87388000  0.89102000  0.67501000  1.0
