# generated using pymatgen
data_SrP4H14(C2O7)2
_symmetry_space_group_name_H-M   'P 1'
_cell_length_a   7.96998000
_cell_length_b   10.96140000
_cell_length_c   10.96150000
_cell_angle_alpha   68.39770000
_cell_angle_beta   82.32200000
_cell_angle_gamma   82.32160000
_symmetry_Int_Tables_number   1
_chemical_formula_structural   SrP4H14(C2O7)2
_chemical_formula_sum   'Sr2 P8 H28 C8 O28'
_cell_volume   878.66453919
_cell_formula_units_Z   2
loop_
 _symmetry_equiv_pos_site_id
 _symmetry_equiv_pos_as_xyz
  1  'x, y, z'
loop_
 _atom_site_type_symbol
 _atom_site_label
 _atom_site_symmetry_multiplicity
 _atom_site_fract_x
 _atom_site_fract_y
 _atom_site_fract_z
 _atom_site_occupancy
  Sr  Sr0  1  0.25000000  0.03524000  0.96476000  1.0
  Sr  Sr1  1  0.75000000  0.96476000  0.03524000  1.0
  P  P2  1  0.97050000  0.11907000  0.70900000  1.0
  P  P3  1  0.52949000  0.29101000  0.88093000  1.0
  P  P4  1  0.02950000  0.88093000  0.29100000  1.0
  P  P5  1  0.47050000  0.70899000  0.11907000  1.0
  P  P6  1  0.22629000  0.87919000  0.72438000  1.0
  P  P7  1  0.27372000  0.27563000  0.12082000  1.0
  P  P8  1  0.77371000  0.12081000  0.27563000  1.0
  P  P9  1  0.72628000  0.72437000  0.87918000  1.0
  H  H10  1  0.33424000  0.07362000  0.46934000  1.0
  H  H11  1  0.16574000  0.53066000  0.92639000  1.0
  H  H12  1  0.66577000  0.92637000  0.53067000  1.0
  H  H13  1  0.83426000  0.46934000  0.07362000  1.0
  H  H14  1  0.20518000  0.22081000  0.46470000  1.0
  H  H15  1  0.29478000  0.53530000  0.77919000  1.0
  H  H16  1  0.79483000  0.77918000  0.53530000  1.0
  H  H17  1  0.70521000  0.46470000  0.22081000  1.0
  H  H18  1  0.11123000  0.08404000  0.46014000  1.0
  H  H19  1  0.38875000  0.53987000  0.91595000  1.0
  H  H20  1  0.88878000  0.91595000  0.53986000  1.0
  H  H21  1  0.61125000  0.46013000  0.08405000  1.0
  H  H22  1  0.41479000  0.10305000  0.66436000  1.0
  H  H23  1  0.08520000  0.33565000  0.89695000  1.0
  H  H24  1  0.58521000  0.89695000  0.33564000  1.0
  H  H25  1  0.91480000  0.66435000  0.10305000  1.0
  H  H26  1  0.89265000  0.28899000  0.54345000  1.0
  H  H27  1  0.60733000  0.45657000  0.71101000  1.0
  H  H28  1  0.10736000  0.71101000  0.45655000  1.0
  H  H29  1  0.39267000  0.54344000  0.28899000  1.0
  H  H30  1  0.78246000  0.96685000  0.74829000  1.0
  H  H31  1  0.71753000  0.25171000  0.03315000  1.0
  H  H32  1  0.21754000  0.03315000  0.25171000  1.0
  H  H33  1  0.28247000  0.74829000  0.96684000  1.0
  H  H34  1  0.49619000  0.78289000  0.72878000  1.0
  H  H35  1  0.00381000  0.27122000  0.21712000  1.0
  H  H36  1  0.50381000  0.21711000  0.27122000  1.0
  H  H37  1  0.99619000  0.72878000  0.78289000  1.0
  C  C38  1  0.18413000  0.06138000  0.65138000  1.0
  C  C39  1  0.31586000  0.34862000  0.93863000  1.0
  C  C40  1  0.81587000  0.93862000  0.34862000  1.0
  C  C41  1  0.68414000  0.65138000  0.06137000  1.0
  C  C42  1  0.20983000  0.11287000  0.50210000  1.0
  C  C43  1  0.29015000  0.49791000  0.88713000  1.0
  C  C44  1  0.79017000  0.88713000  0.49790000  1.0
  C  C45  1  0.70985000  0.50209000  0.11287000  1.0
  O  O46  1  0.30076000  0.11460000  0.70664000  1.0
  O  O47  1  0.19923000  0.29336000  0.88541000  1.0
  O  O48  1  0.69924000  0.88540000  0.29336000  1.0
  O  O49  1  0.80077000  0.70664000  0.11459000  1.0
  O  O50  1  0.96624000  0.09836000  0.85356000  1.0
  O  O51  1  0.53376000  0.14644000  0.90164000  1.0
  O  O52  1  0.03376000  0.90164000  0.14644000  1.0
  O  O53  1  0.46624000  0.85356000  0.09835000  1.0
  O  O54  1  0.94402000  0.27304000  0.62477000  1.0
  O  O55  1  0.55597000  0.37524000  0.72697000  1.0
  O  O56  1  0.05598000  0.72696000  0.37523000  1.0
  O  O57  1  0.44403000  0.62477000  0.27303000  1.0
  O  O58  1  0.83588000  0.05459000  0.67030000  1.0
  O  O59  1  0.66412000  0.32970000  0.94541000  1.0
  O  O60  1  0.16413000  0.94541000  0.32970000  1.0
  O  O61  1  0.33588000  0.67030000  0.05459000  1.0
  O  O62  1  0.10439000  0.80811000  0.68498000  1.0
  O  O63  1  0.39561000  0.31502000  0.19189000  1.0
  O  O64  1  0.89561000  0.19188000  0.31502000  1.0
  O  O65  1  0.60439000  0.68498000  0.80811000  1.0
  O  O66  1  0.21635000  0.85110000  0.87447000  1.0
  O  O67  1  0.28366000  0.12552000  0.14890000  1.0
  O  O68  1  0.78365000  0.14890000  0.12553000  1.0
  O  O69  1  0.71633000  0.87448000  0.85109000  1.0
  O  O70  1  0.41320000  0.85887000  0.66576000  1.0
  O  O71  1  0.08680000  0.33423000  0.14114000  1.0
  O  O72  1  0.58680000  0.14113000  0.33424000  1.0
  O  O73  1  0.91320000  0.66577000  0.85886000  1.0
