# generated using pymatgen
data_KH10C10(NO3)3
_symmetry_space_group_name_H-M   'P 1'
_cell_length_a   7.15274000
_cell_length_b   10.63940000
_cell_length_c   18.04660000
_cell_angle_alpha   89.99990000
_cell_angle_beta   93.78710000
_cell_angle_gamma   89.99990000
_symmetry_Int_Tables_number   1
_chemical_formula_structural   KH10C10(NO3)3
_chemical_formula_sum   'K4 H40 C40 N12 O36'
_cell_volume   1370.36289362
_cell_formula_units_Z   4
loop_
 _symmetry_equiv_pos_site_id
 _symmetry_equiv_pos_as_xyz
  1  'x, y, z'
loop_
 _atom_site_type_symbol
 _atom_site_label
 _atom_site_symmetry_multiplicity
 _atom_site_fract_x
 _atom_site_fract_y
 _atom_site_fract_z
 _atom_site_occupancy
  K  K0  1  0.30101000  0.71776000  0.17055000  1.0
  K  K1  1  0.69899000  0.21777000  0.32946000  1.0
  K  K2  1  0.69899000  0.28223000  0.82946000  1.0
  K  K3  1  0.30101000  0.78223000  0.67054000  1.0
  H  H4  1  0.32343000  0.50976000  0.42735000  1.0
  H  H5  1  0.67657000  0.00977000  0.07265000  1.0
  H  H6  1  0.67657000  0.49024000  0.57265000  1.0
  H  H7  1  0.32343000  0.99023000  0.92735000  1.0
  H  H8  1  0.79359000  0.69970000  0.44119000  1.0
  H  H9  1  0.20642000  0.19970000  0.05881000  1.0
  H  H10  1  0.20641000  0.30030000  0.55881000  1.0
  H  H11  1  0.79358000  0.80030000  0.94119000  1.0
  H  H12  1  0.77940000  0.60235000  0.13673000  1.0
  H  H13  1  0.22060000  0.10235000  0.36327000  1.0
  H  H14  1  0.22061000  0.39766000  0.86327000  1.0
  H  H15  1  0.77940000  0.89765000  0.63673000  1.0
  H  H16  1  0.99917000  0.53152000  0.11762000  1.0
  H  H17  1  0.00083000  0.03152000  0.38238000  1.0
  H  H18  1  0.00084000  0.46848000  0.88238000  1.0
  H  H19  1  0.99917000  0.96847000  0.61762000  1.0
  H  H20  1  0.90275000  0.33611000  0.16386000  1.0
  H  H21  1  0.09725000  0.83611000  0.33614000  1.0
  H  H22  1  0.09725000  0.66389000  0.83613000  1.0
  H  H23  1  0.90274000  0.16388000  0.66386000  1.0
  H  H24  1  0.67323000  0.40286000  0.17223000  1.0
  H  H25  1  0.32677000  0.90286000  0.32777000  1.0
  H  H26  1  0.32677000  0.59715000  0.82777000  1.0
  H  H27  1  0.67323000  0.09714000  0.67223000  1.0
  H  H28  1  0.59035000  0.71631000  0.01894000  1.0
  H  H29  1  0.40965000  0.21631000  0.48106000  1.0
  H  H30  1  0.40965000  0.28369000  0.98106000  1.0
  H  H31  1  0.59036000  0.78369000  0.51894000  1.0
  H  H32  1  0.39758000  0.65996000  0.96015000  1.0
  H  H33  1  0.60242000  0.15996000  0.53985000  1.0
  H  H34  1  0.60242000  0.34004000  0.03985000  1.0
  H  H35  1  0.39758000  0.84004000  0.46015000  1.0
  H  H36  1  0.22714000  0.47631000  0.00531000  1.0
  H  H37  1  0.77287000  0.97631000  0.49469000  1.0
  H  H38  1  0.77287000  0.52369000  0.99469000  1.0
  H  H39  1  0.22713000  0.02369000  0.50531000  1.0
  H  H40  1  0.31375000  0.41121000  0.09305000  1.0
  H  H41  1  0.68625000  0.91121000  0.40695000  1.0
  H  H42  1  0.68625000  0.58879000  0.90695000  1.0
  H  H43  1  0.31375000  0.08879000  0.59305000  1.0
  C  C44  1  0.95021000  0.53009000  0.28941000  1.0
  C  C45  1  0.04979000  0.03009000  0.21059000  1.0
  C  C46  1  0.04978000  0.46991000  0.71059000  1.0
  C  C47  1  0.95021000  0.96991000  0.78941000  1.0
  C  C48  1  0.13364000  0.49690000  0.33167000  1.0
  C  C49  1  0.86635000  0.99690000  0.16833000  1.0
  C  C50  1  0.86635000  0.50310000  0.66833000  1.0
  C  C51  1  0.13364000  0.00310000  0.83167000  1.0
  C  C52  1  0.18750000  0.53728000  0.40191000  1.0
  C  C53  1  0.81250000  0.03729000  0.09809000  1.0
  C  C54  1  0.81250000  0.46271000  0.59810000  1.0
  C  C55  1  0.18750000  0.96271000  0.90191000  1.0
  C  C56  1  0.06838000  0.61536000  0.44034000  1.0
  C  C57  1  0.93162000  0.11536000  0.05966000  1.0
  C  C58  1  0.93162000  0.38464000  0.55966000  1.0
  C  C59  1  0.06838000  0.88464000  0.94034000  1.0
  C  C60  1  0.88876000  0.64553000  0.40938000  1.0
  C  C61  1  0.11125000  0.14553000  0.09062000  1.0
  C  C62  1  0.11124000  0.35446000  0.59062000  1.0
  C  C63  1  0.88876000  0.85447000  0.90938000  1.0
  C  C64  1  0.82963000  0.60435000  0.33994000  1.0
  C  C65  1  0.17037000  0.10435000  0.16006000  1.0
  C  C66  1  0.17038000  0.39565000  0.66006000  1.0
  C  C67  1  0.82962000  0.89566000  0.83994000  1.0
  C  C68  1  0.89428000  0.54233000  0.15904000  1.0
  C  C69  1  0.10572000  0.04233000  0.34096000  1.0
  C  C70  1  0.10572000  0.45767000  0.84096000  1.0
  C  C71  1  0.89428000  0.95767000  0.65904000  1.0
  C  C72  1  0.82408000  0.41529000  0.18555000  1.0
  C  C73  1  0.17592000  0.91529000  0.31445000  1.0
  C  C74  1  0.17592000  0.58471000  0.81445000  1.0
  C  C75  1  0.82408000  0.08471000  0.68554000  1.0
  C  C76  1  0.51673000  0.63136000  0.99847000  1.0
  C  C77  1  0.48328000  0.13136000  0.50153000  1.0
  C  C78  1  0.48328000  0.36864000  0.00153000  1.0
  C  C79  1  0.51672000  0.86864000  0.49847000  1.0
  C  C80  1  0.35426000  0.45498000  0.04140000  1.0
  C  C81  1  0.64573000  0.95498000  0.45860000  1.0
  C  C82  1  0.64574000  0.54502000  0.95860000  1.0
  C  C83  1  0.35426000  0.04502000  0.54140000  1.0
  N  N84  1  0.26061000  0.41699000  0.29548000  1.0
  N  N85  1  0.73939000  0.91699000  0.20452000  1.0
  N  N86  1  0.73939000  0.58301000  0.70452000  1.0
  N  N87  1  0.26061000  0.08301000  0.79548000  1.0
  N  N88  1  0.12774000  0.66170000  0.51161000  1.0
  N  N89  1  0.87226000  0.16171000  0.98840000  1.0
  N  N90  1  0.87226000  0.33829000  0.48840000  1.0
  N  N91  1  0.12775000  0.83829000  0.01160000  1.0
  N  N92  1  0.64231000  0.63436000  0.31357000  1.0
  N  N93  1  0.35768000  0.13436000  0.18643000  1.0
  N  N94  1  0.35768000  0.36564000  0.68643000  1.0
  N  N95  1  0.64231000  0.86564000  0.81357000  1.0
  O  O96  1  0.98336000  0.60156000  0.22382000  1.0
  O  O97  1  0.01663000  0.10156000  0.27618000  1.0
  O  O98  1  0.01664000  0.39844000  0.77618000  1.0
  O  O99  1  0.98336000  0.89844000  0.72382000  1.0
  O  O100  1  0.85714000  0.41676000  0.26496000  1.0
  O  O101  1  0.14287000  0.91676000  0.23504000  1.0
  O  O102  1  0.14286000  0.58324000  0.73504000  1.0
  O  O103  1  0.85714000  0.08324000  0.76496000  1.0
  O  O104  1  0.39576000  0.37033000  0.33378000  1.0
  O  O105  1  0.60423000  0.87033000  0.16622000  1.0
  O  O106  1  0.60423000  0.62967000  0.66623000  1.0
  O  O107  1  0.39577000  0.12967000  0.83378000  1.0
  O  O108  1  0.23321000  0.39709000  0.22733000  1.0
  O  O109  1  0.76679000  0.89709000  0.27267000  1.0
  O  O110  1  0.76679000  0.60291000  0.77267000  1.0
  O  O111  1  0.23321000  0.10291000  0.72733000  1.0
  O  O112  1  0.28147000  0.62483000  0.54182000  1.0
  O  O113  1  0.71853000  0.12483000  0.95818000  1.0
  O  O114  1  0.71853000  0.37518000  0.45818000  1.0
  O  O115  1  0.28146000  0.87516000  0.04182000  1.0
  O  O116  1  0.02482000  0.73911000  0.54297000  1.0
  O  O117  1  0.97517000  0.23912000  0.95703000  1.0
  O  O118  1  0.97517000  0.26088000  0.45703000  1.0
  O  O119  1  0.02482000  0.76087000  0.04297000  1.0
  O  O120  1  0.53686000  0.69066000  0.35507000  1.0
  O  O121  1  0.46315000  0.19065000  0.14493000  1.0
  O  O122  1  0.46314000  0.30934000  0.64493000  1.0
  O  O123  1  0.53685000  0.80935000  0.85507000  1.0
  O  O124  1  0.58920000  0.60229000  0.24869000  1.0
  O  O125  1  0.41080000  0.10228000  0.25131000  1.0
  O  O126  1  0.41081000  0.39772000  0.75130000  1.0
  O  O127  1  0.58920000  0.89771000  0.74869000  1.0
  O  O128  1  0.44841000  0.57029000  0.06248000  1.0
  O  O129  1  0.55159000  0.07029000  0.43752000  1.0
  O  O130  1  0.55159000  0.42971000  0.93753000  1.0
  O  O131  1  0.44841000  0.92971000  0.56247000  1.0
