# generated using pymatgen
data_KPH9C6NO8
_symmetry_space_group_name_H-M   'P 1'
_cell_length_a   6.65378000
_cell_length_b   12.56960000
_cell_length_c   13.36470000
_cell_angle_alpha   93.59780000
_cell_angle_beta   89.99990000
_cell_angle_gamma   89.99990000
_symmetry_Int_Tables_number   1
_chemical_formula_structural   KPH9C6NO8
_chemical_formula_sum   'K4 P4 H36 C24 N4 O32'
_cell_volume   1115.55845069
_cell_formula_units_Z   4
loop_
 _symmetry_equiv_pos_site_id
 _symmetry_equiv_pos_as_xyz
  1  'x, y, z'
loop_
 _atom_site_type_symbol
 _atom_site_label
 _atom_site_symmetry_multiplicity
 _atom_site_fract_x
 _atom_site_fract_y
 _atom_site_fract_z
 _atom_site_occupancy
  K  K0  1  0.16178000  0.09999000  0.43564000  1.0
  K  K1  1  0.66178000  0.90001000  0.06436000  1.0
  K  K2  1  0.83821000  0.90001000  0.56435000  1.0
  K  K3  1  0.33821000  0.09999000  0.93564000  1.0
  P  P4  1  0.97182000  0.17990000  0.73009000  1.0
  P  P5  1  0.47182000  0.82010000  0.76991000  1.0
  P  P6  1  0.02818000  0.82010000  0.26991000  1.0
  P  P7  1  0.52818000  0.17990000  0.23009000  1.0
  H  H8  1  0.26762000  0.11636000  0.67953000  1.0
  H  H9  1  0.76762000  0.88364000  0.82047000  1.0
  H  H10  1  0.73238000  0.88364000  0.32047000  1.0
  H  H11  1  0.23238000  0.11636000  0.17953000  1.0
  H  H12  1  0.27409000  0.46982000  0.78610000  1.0
  H  H13  1  0.77409000  0.53017000  0.71390000  1.0
  H  H14  1  0.72591000  0.53017000  0.21390000  1.0
  H  H15  1  0.22591000  0.46983000  0.28610000  1.0
  H  H16  1  0.14371000  0.63926000  0.87211000  1.0
  H  H17  1  0.64371000  0.36073000  0.62789000  1.0
  H  H18  1  0.85629000  0.36074000  0.12789000  1.0
  H  H19  1  0.35629000  0.63926000  0.37211000  1.0
  H  H20  1  0.60136000  0.47291000  0.94768000  1.0
  H  H21  1  0.10136000  0.52709000  0.55232000  1.0
  H  H22  1  0.39864000  0.52709000  0.05232000  1.0
  H  H23  1  0.89864000  0.47291000  0.44768000  1.0
  H  H24  1  0.72654000  0.30812000  0.85885000  1.0
  H  H25  1  0.22654000  0.69188000  0.64115000  1.0
  H  H26  1  0.27347000  0.69188000  0.14115000  1.0
  H  H27  1  0.77346000  0.30812000  0.35885000  1.0
  H  H28  1  0.02743000  0.01300000  0.20707000  1.0
  H  H29  1  0.52743000  0.98700000  0.29293000  1.0
  H  H30  1  0.97257000  0.98700000  0.79293000  1.0
  H  H31  1  0.47257000  0.01300000  0.70707000  1.0
  H  H32  1  0.92964000  0.13247000  0.21009000  1.0
  H  H33  1  0.42965000  0.86753000  0.28991000  1.0
  H  H34  1  0.07035000  0.86753000  0.78991000  1.0
  H  H35  1  0.57035000  0.13247000  0.71009000  1.0
  H  H36  1  0.25653000  0.85242000  0.45353000  1.0
  H  H37  1  0.75653000  0.14758000  0.04647000  1.0
  H  H38  1  0.74346000  0.14758000  0.54647000  1.0
  H  H39  1  0.24346000  0.85242000  0.95353000  1.0
  H  H40  1  0.32760000  0.88660000  0.56502000  1.0
  H  H41  1  0.82760000  0.11340000  0.93498000  1.0
  H  H42  1  0.67240000  0.11340000  0.43498000  1.0
  H  H43  1  0.17240000  0.88660000  0.06502000  1.0
  C  C44  1  0.00618000  0.38067000  0.81429000  1.0
  C  C45  1  0.50618000  0.61933000  0.68571000  1.0
  C  C46  1  0.99382000  0.61933000  0.18571000  1.0
  C  C47  1  0.49382000  0.38067000  0.31429000  1.0
  C  C48  1  0.12614000  0.47300000  0.82077000  1.0
  C  C49  1  0.62614000  0.52700000  0.67923000  1.0
  C  C50  1  0.87386000  0.52700000  0.17923000  1.0
  C  C51  1  0.37386000  0.47300000  0.32077000  1.0
  C  C52  1  0.05548000  0.56608000  0.86944000  1.0
  C  C53  1  0.55548000  0.43392000  0.63056000  1.0
  C  C54  1  0.94452000  0.43392000  0.13056000  1.0
  C  C55  1  0.44452000  0.56608000  0.36944000  1.0
  C  C56  1  0.86499000  0.56518000  0.91397000  1.0
  C  C57  1  0.36499000  0.43482000  0.58603000  1.0
  C  C58  1  0.13501000  0.43482000  0.08603000  1.0
  C  C59  1  0.63501000  0.56518000  0.41398000  1.0
  C  C60  1  0.74727000  0.47287000  0.91134000  1.0
  C  C61  1  0.24727000  0.52713000  0.58866000  1.0
  C  C62  1  0.25273000  0.52713000  0.08866000  1.0
  C  C63  1  0.75273000  0.47287000  0.41134000  1.0
  C  C64  1  0.81768000  0.38007000  0.86172000  1.0
  C  C65  1  0.31768000  0.61993000  0.63828000  1.0
  C  C66  1  0.18232000  0.61993000  0.13828000  1.0
  C  C67  1  0.68232000  0.38007000  0.36172000  1.0
  N  N68  1  0.79202000  0.66153000  0.96592000  1.0
  N  N69  1  0.29202000  0.33847000  0.53408000  1.0
  N  N70  1  0.20798000  0.33847000  0.03408000  1.0
  N  N71  1  0.70798000  0.66153000  0.46592000  1.0
  O  O72  1  0.08466000  0.29570000  0.75982000  1.0
  O  O73  1  0.58466000  0.70430000  0.74017000  1.0
  O  O74  1  0.91534000  0.70430000  0.24017000  1.0
  O  O75  1  0.41534000  0.29570000  0.25983000  1.0
  O  O76  1  0.12253000  0.13291000  0.64886000  1.0
  O  O77  1  0.62253000  0.86708000  0.85114000  1.0
  O  O78  1  0.87746000  0.86708000  0.35114000  1.0
  O  O79  1  0.37747000  0.13292000  0.14886000  1.0
  O  O80  1  0.97649000  0.11693000  0.82350000  1.0
  O  O81  1  0.47649000  0.88307000  0.67650000  1.0
  O  O82  1  0.02351000  0.88307000  0.17650000  1.0
  O  O83  1  0.52351000  0.11693000  0.32350000  1.0
  O  O84  1  0.77035000  0.20034000  0.68317000  1.0
  O  O85  1  0.27035000  0.79966000  0.81683000  1.0
  O  O86  1  0.22965000  0.79966000  0.31683000  1.0
  O  O87  1  0.72965000  0.20034000  0.18317000  1.0
  O  O88  1  0.90597000  0.74043000  0.97321000  1.0
  O  O89  1  0.40596000  0.25957000  0.52679000  1.0
  O  O90  1  0.09403000  0.25957000  0.02679000  1.0
  O  O91  1  0.59403000  0.74043000  0.47321000  1.0
  O  O92  1  0.61911000  0.66261000  0.00282000  1.0
  O  O93  1  0.11911000  0.33739000  0.49718000  1.0
  O  O94  1  0.38089000  0.33739000  0.99718000  1.0
  O  O95  1  0.88089000  0.66261000  0.50282000  1.0
  O  O96  1  0.05191000  0.09015000  0.22769000  1.0
  O  O97  1  0.55191000  0.90985000  0.27231000  1.0
  O  O98  1  0.94809000  0.90985000  0.77231000  1.0
  O  O99  1  0.44809000  0.09015000  0.72769000  1.0
  O  O100  1  0.23559000  0.90459000  0.51060000  1.0
  O  O101  1  0.73559000  0.09541000  0.98940000  1.0
  O  O102  1  0.76441000  0.09541000  0.48940000  1.0
  O  O103  1  0.26441000  0.90459000  0.01060000  1.0
