# generated using pymatgen
data_CdNiH16(C4N3)4
_symmetry_space_group_name_H-M   'P 1'
_cell_length_a   7.37054000
_cell_length_b   9.77738000
_cell_length_c   15.53130000
_cell_angle_alpha   90.00010000
_cell_angle_beta   90.00030000
_cell_angle_gamma   105.29300000
_symmetry_Int_Tables_number   1
_chemical_formula_structural   CdNiH16(C4N3)4
_chemical_formula_sum   'Cd2 Ni2 H32 C32 N24'
_cell_volume   1079.62319831
_cell_formula_units_Z   2
loop_
 _symmetry_equiv_pos_site_id
 _symmetry_equiv_pos_as_xyz
  1  'x, y, z'
loop_
 _atom_site_type_symbol
 _atom_site_label
 _atom_site_symmetry_multiplicity
 _atom_site_fract_x
 _atom_site_fract_y
 _atom_site_fract_z
 _atom_site_occupancy
  Cd  Cd0  1  0.50000000  0.50000000  0.50000000  1.0
  Cd  Cd1  1  0.00000000  0.50000000  0.00000000  1.0
  Ni  Ni2  1  0.99999000  0.00000000  0.50000000  1.0
  Ni  Ni3  1  0.50000000  0.00000000  0.00000000  1.0
  H  H4  1  0.69121000  0.22157000  0.44252000  1.0
  H  H5  1  0.80880000  0.77843000  0.94252000  1.0
  H  H6  1  0.30880000  0.77843000  0.55748000  1.0
  H  H7  1  0.19120000  0.22157000  0.05748000  1.0
  H  H8  1  0.74223000  0.35402000  0.18207000  1.0
  H  H9  1  0.75777000  0.64598000  0.68207000  1.0
  H  H10  1  0.25777000  0.64598000  0.81793000  1.0
  H  H11  1  0.24223000  0.35402000  0.31793000  1.0
  H  H12  1  0.62595000  0.55222000  0.28118000  1.0
  H  H13  1  0.87406000  0.44779000  0.78118000  1.0
  H  H14  1  0.37406000  0.44778000  0.71882000  1.0
  H  H15  1  0.12595000  0.55221000  0.21882000  1.0
  H  H16  1  0.58801000  0.80686000  0.36041000  1.0
  H  H17  1  0.91199000  0.19314000  0.86041000  1.0
  H  H18  1  0.41199000  0.19314000  0.63958000  1.0
  H  H19  1  0.08802000  0.80686000  0.13959000  1.0
  H  H20  1  0.00051000  0.73917000  0.33011000  1.0
  H  H21  1  0.49949000  0.26083000  0.83012000  1.0
  H  H22  1  0.99949000  0.26083000  0.66989000  1.0
  H  H23  1  0.50051000  0.73917000  0.16989000  1.0
  H  H24  1  0.07097000  0.52394000  0.43069000  1.0
  H  H25  1  0.42903000  0.47606000  0.93069000  1.0
  H  H26  1  0.92903000  0.47606000  0.56931000  1.0
  H  H27  1  0.57097000  0.52393000  0.06931000  1.0
  H  H28  1  0.77877000  0.16506000  0.29149000  1.0
  H  H29  1  0.72123000  0.83495000  0.79149000  1.0
  H  H30  1  0.22122000  0.83494000  0.70851000  1.0
  H  H31  1  0.27878000  0.16505000  0.20851000  1.0
  H  H32  1  0.32765000  0.89265000  0.28705000  1.0
  H  H33  1  0.17235000  0.10735000  0.78705000  1.0
  H  H34  1  0.67235000  0.10735000  0.71295000  1.0
  H  H35  1  0.82765000  0.89265000  0.21295000  1.0
  C  C36  1  0.68860000  0.28666000  0.38632000  1.0
  C  C37  1  0.81141000  0.71335000  0.88632000  1.0
  C  C38  1  0.31141000  0.71334000  0.61368000  1.0
  C  C39  1  0.18860000  0.28666000  0.11368000  1.0
  C  C40  1  0.71514000  0.35802000  0.25044000  1.0
  C  C41  1  0.78486000  0.64199000  0.75045000  1.0
  C  C42  1  0.28485000  0.64199000  0.74955000  1.0
  C  C43  1  0.21515000  0.35802000  0.24955000  1.0
  C  C44  1  0.65928000  0.45538000  0.30074000  1.0
  C  C45  1  0.84073000  0.54463000  0.80074000  1.0
  C  C46  1  0.34073000  0.54463000  0.69926000  1.0
  C  C47  1  0.15927000  0.45537000  0.19926000  1.0
  C  C48  1  0.43882000  0.75617000  0.36603000  1.0
  C  C49  1  0.06118000  0.24383000  0.86603000  1.0
  C  C50  1  0.56118000  0.24383000  0.63397000  1.0
  C  C51  1  0.93882000  0.75617000  0.13397000  1.0
  C  C52  1  0.13124000  0.71969000  0.35110000  1.0
  C  C53  1  0.36876000  0.28032000  0.85110000  1.0
  C  C54  1  0.86876000  0.28031000  0.64890000  1.0
  C  C55  1  0.63124000  0.71968000  0.14890000  1.0
  C  C56  1  0.16841000  0.61444000  0.40123000  1.0
  C  C57  1  0.33159000  0.38556000  0.90123000  1.0
  C  C58  1  0.83158000  0.38556000  0.59877000  1.0
  C  C59  1  0.66842000  0.61444000  0.09877000  1.0
  C  C60  1  0.85827000  0.81567000  0.51140000  1.0
  C  C61  1  0.64173000  0.18434000  0.01141000  1.0
  C  C62  1  0.14173000  0.18434000  0.48859000  1.0
  C  C63  1  0.35827000  0.81566000  0.98860000  1.0
  C  C64  1  0.07143000  0.00041000  0.61348000  1.0
  C  C65  1  0.42857000  0.99959000  0.11349000  1.0
  C  C66  1  0.92855000  0.99959000  0.38650000  1.0
  C  C67  1  0.57144000  0.00041000  0.88652000  1.0
  N  N68  1  0.64272000  0.40972000  0.38530000  1.0
  N  N69  1  0.85729000  0.59028000  0.88530000  1.0
  N  N70  1  0.35729000  0.59028000  0.61471000  1.0
  N  N71  1  0.14272000  0.40972000  0.11471000  1.0
  N  N72  1  0.73244000  0.25245000  0.30590000  1.0
  N  N73  1  0.76756000  0.74756000  0.80591000  1.0
  N  N74  1  0.26756000  0.74755000  0.69409000  1.0
  N  N75  1  0.23244000  0.25244000  0.19409000  1.0
  N  N76  1  0.36076000  0.63822000  0.40999000  1.0
  N  N77  1  0.13924000  0.36178000  0.90999000  1.0
  N  N78  1  0.63925000  0.36178000  0.59001000  1.0
  N  N79  1  0.86076000  0.63822000  0.09001000  1.0
  N  N80  1  0.30381000  0.80845000  0.32965000  1.0
  N  N81  1  0.19619000  0.19155000  0.82965000  1.0
  N  N82  1  0.69618000  0.19155000  0.67035000  1.0
  N  N83  1  0.80381000  0.80845000  0.17035000  1.0
  N  N84  1  0.76702000  0.69823000  0.51843000  1.0
  N  N85  1  0.73297000  0.30176000  0.01844000  1.0
  N  N86  1  0.23297000  0.30176000  0.48156000  1.0
  N  N87  1  0.26703000  0.69824000  0.98156000  1.0
  N  N88  1  0.11976000  0.00057000  0.68572000  1.0
  N  N89  1  0.38024000  0.99943000  0.18573000  1.0
  N  N90  1  0.88024000  0.99944000  0.31428000  1.0
  N  N91  1  0.61976000  0.00057000  0.81428000  1.0
