# generated using pymatgen
data_Zn5H18(C16O9)2
_symmetry_space_group_name_H-M   'P 1'
_cell_length_a   5.69187000
_cell_length_b   16.67670000
_cell_length_c   17.03370000
_cell_angle_alpha   89.51080000
_cell_angle_beta   89.99980000
_cell_angle_gamma   89.99930000
_symmetry_Int_Tables_number   1
_chemical_formula_structural   Zn5H18(C16O9)2
_chemical_formula_sum   'Zn10 H36 C64 O36'
_cell_volume   1616.80726694
_cell_formula_units_Z   2
loop_
 _symmetry_equiv_pos_site_id
 _symmetry_equiv_pos_as_xyz
  1  'x, y, z'
loop_
 _atom_site_type_symbol
 _atom_site_label
 _atom_site_symmetry_multiplicity
 _atom_site_fract_x
 _atom_site_fract_y
 _atom_site_fract_z
 _atom_site_occupancy
  Zn  Zn0  1  0.97817000  0.41673000  0.04257000  1.0
  Zn  Zn1  1  0.47817000  0.08327000  0.95743000  1.0
  Zn  Zn2  1  0.02183000  0.58327000  0.95743000  1.0
  Zn  Zn3  1  0.52183000  0.91673000  0.04257000  1.0
  Zn  Zn4  1  0.47385000  0.29507000  0.00734000  1.0
  Zn  Zn5  1  0.97385000  0.20493000  0.99266000  1.0
  Zn  Zn6  1  0.52615000  0.70493000  0.99266000  1.0
  Zn  Zn7  1  0.02615000  0.79507000  0.00734000  1.0
  Zn  Zn8  1  0.49999000  0.50000000  1.00000000  1.0
  Zn  Zn9  1  0.99999000  0.00000000  0.00000000  1.0
  H  H10  1  0.97226000  0.87804000  0.27257000  1.0
  H  H11  1  0.47226000  0.62196000  0.72742000  1.0
  H  H12  1  0.02772000  0.12196000  0.72742000  1.0
  H  H13  1  0.52775000  0.37804000  0.27257000  1.0
  H  H14  1  0.98684000  0.31285000  0.24519000  1.0
  H  H15  1  0.48682000  0.18715000  0.75481000  1.0
  H  H16  1  0.01319000  0.68715000  0.75481000  1.0
  H  H17  1  0.51317000  0.81285000  0.24519000  1.0
  H  H18  1  0.18905000  0.99939000  0.48366000  1.0
  H  H19  1  0.68904000  0.50061000  0.51634000  1.0
  H  H20  1  0.81092000  0.00061000  0.51633000  1.0
  H  H21  1  0.31093000  0.49939000  0.48366000  1.0
  H  H22  1  0.78016000  0.21381000  0.46952000  1.0
  H  H23  1  0.28014000  0.28619000  0.53048000  1.0
  H  H24  1  0.21987000  0.78618000  0.53048000  1.0
  H  H25  1  0.71985000  0.71381000  0.46952000  1.0
  H  H26  1  0.03110000  0.30663000  0.39056000  1.0
  H  H27  1  0.53108000  0.19336000  0.60945000  1.0
  H  H28  1  0.96894000  0.69336000  0.60945000  1.0
  H  H29  1  0.46893000  0.80663000  0.39055000  1.0
  H  H30  1  0.94596000  0.89357000  0.41793000  1.0
  H  H31  1  0.44597000  0.60642000  0.58207000  1.0
  H  H32  1  0.05401000  0.10643000  0.58206000  1.0
  H  H33  1  0.55404000  0.39357000  0.41793000  1.0
  H  H34  1  0.14567000  0.28623000  0.09763000  1.0
  H  H35  1  0.64567000  0.21377000  0.90237000  1.0
  H  H36  1  0.85434000  0.71377000  0.90237000  1.0
  H  H37  1  0.35434000  0.78623000  0.09763000  1.0
  H  H38  1  0.71852000  0.38710000  0.92839000  1.0
  H  H39  1  0.21852000  0.11291000  0.07161000  1.0
  H  H40  1  0.28147000  0.61291000  0.07161000  1.0
  H  H41  1  0.78148000  0.88709000  0.92839000  1.0
  H  H42  1  0.19862000  0.43374000  0.91227000  1.0
  H  H43  1  0.69861000  0.06627000  0.08772000  1.0
  H  H44  1  0.80139000  0.56627000  0.08772000  1.0
  H  H45  1  0.30138000  0.93374000  0.91228000  1.0
  C  C46  1  0.23633000  0.96045000  0.17072000  1.0
  C  C47  1  0.73633000  0.53955000  0.82928000  1.0
  C  C48  1  0.76366000  0.03955000  0.82928000  1.0
  C  C49  1  0.26366000  0.46045000  0.17071000  1.0
  C  C50  1  0.20440000  0.97856000  0.25657000  1.0
  C  C51  1  0.70442000  0.52145000  0.74343000  1.0
  C  C52  1  0.79559000  0.02144000  0.74343000  1.0
  C  C53  1  0.29559000  0.47855000  0.25657000  1.0
  C  C54  1  0.06731000  0.92606000  0.30185000  1.0
  C  C55  1  0.56735000  0.57395000  0.69815000  1.0
  C  C56  1  0.93268000  0.07394000  0.69815000  1.0
  C  C57  1  0.43268000  0.42606000  0.30185000  1.0
  C  C58  1  0.44048000  0.10499000  0.24522000  1.0
  C  C59  1  0.94048000  0.39501000  0.75478000  1.0
  C  C60  1  0.55952000  0.89501000  0.75478000  1.0
  C  C61  1  0.05952000  0.60499000  0.24521000  1.0
  C  C62  1  0.72541000  0.21901000  0.24128000  1.0
  C  C63  1  0.22539000  0.28099000  0.75872000  1.0
  C  C64  1  0.27461000  0.78099000  0.75872000  1.0
  C  C65  1  0.77461000  0.71901000  0.24129000  1.0
  C  C66  1  0.70862000  0.22585000  0.15299000  1.0
  C  C67  1  0.20860000  0.27416000  0.84701000  1.0
  C  C68  1  0.29140000  0.77416000  0.84701000  1.0
  C  C69  1  0.79140000  0.72584000  0.15299000  1.0
  C  C70  1  0.59287000  0.16354000  0.28559000  1.0
  C  C71  1  0.09286000  0.33645000  0.71441000  1.0
  C  C72  1  0.40714000  0.83646000  0.71441000  1.0
  C  C73  1  0.90715000  0.66355000  0.28559000  1.0
  C  C74  1  0.88436000  0.26970000  0.27957000  1.0
  C  C75  1  0.38435000  0.23030000  0.72044000  1.0
  C  C76  1  0.11565000  0.73030000  0.72044000  1.0
  C  C77  1  0.61565000  0.76970000  0.27957000  1.0
  C  C78  1  0.61073000  0.16337000  0.36844000  1.0
  C  C79  1  0.11071000  0.33662000  0.63156000  1.0
  C  C80  1  0.38929000  0.83662000  0.63156000  1.0
  C  C81  1  0.88931000  0.66338000  0.36845000  1.0
  C  C82  1  0.32159000  0.04273000  0.29298000  1.0
  C  C83  1  0.82160000  0.45727000  0.70702000  1.0
  C  C84  1  0.67840000  0.95727000  0.70702000  1.0
  C  C85  1  0.17841000  0.54273000  0.29298000  1.0
  C  C86  1  0.18499000  0.99416000  0.42012000  1.0
  C  C87  1  0.68499000  0.50584000  0.57988000  1.0
  C  C88  1  0.81499000  0.00584000  0.57988000  1.0
  C  C89  1  0.31502000  0.49415000  0.42012000  1.0
  C  C90  1  0.76889000  0.21478000  0.40566000  1.0
  C  C91  1  0.26888000  0.28521000  0.59434000  1.0
  C  C92  1  0.23113000  0.78521000  0.59434000  1.0
  C  C93  1  0.73113000  0.71478000  0.40566000  1.0
  C  C94  1  0.31636000  0.04879000  0.37562000  1.0
  C  C95  1  0.81637000  0.45120000  0.62438000  1.0
  C  C96  1  0.68362000  0.95121000  0.62438000  1.0
  C  C97  1  0.18364000  0.54879000  0.37562000  1.0
  C  C98  1  0.90847000  0.26671000  0.36114000  1.0
  C  C99  1  0.40845000  0.23329000  0.63886000  1.0
  C  C100  1  0.09156000  0.73329000  0.63886000  1.0
  C  C101  1  0.59154000  0.76671000  0.36114000  1.0
  C  C102  1  0.45521000  0.11107000  0.41673000  1.0
  C  C103  1  0.95520000  0.38893000  0.58327000  1.0
  C  C104  1  0.54478000  0.88893000  0.58328000  1.0
  C  C105  1  0.04480000  0.61107000  0.41673000  1.0
  C  C106  1  0.05543000  0.93433000  0.38333000  1.0
  C  C107  1  0.55546000  0.56568000  0.61667000  1.0
  C  C108  1  0.94453000  0.06568000  0.61667000  1.0
  C  C109  1  0.44456000  0.43432000  0.38333000  1.0
  O  O110  1  0.06983000  0.97397000  0.12427000  1.0
  O  O111  1  0.56982000  0.52603000  0.87573000  1.0
  O  O112  1  0.93016000  0.02603000  0.87574000  1.0
  O  O113  1  0.43016000  0.47397000  0.12426000  1.0
  O  O114  1  0.85615000  0.18492000  0.11479000  1.0
  O  O115  1  0.35613000  0.31508000  0.88522000  1.0
  O  O116  1  0.14385000  0.81508000  0.88521000  1.0
  O  O117  1  0.64385000  0.68492000  0.11479000  1.0
  O  O118  1  0.43471000  0.92725000  0.15523000  1.0
  O  O119  1  0.93471000  0.57275000  0.84478000  1.0
  O  O120  1  0.56529000  0.07275000  0.84477000  1.0
  O  O121  1  0.06529000  0.42725000  0.15522000  1.0
  O  O122  1  0.68296000  0.38752000  0.98476000  1.0
  O  O123  1  0.18296000  0.11248000  0.01524000  1.0
  O  O124  1  0.31703000  0.61248000  0.01524000  1.0
  O  O125  1  0.81704000  0.88753000  0.98476000  1.0
  O  O126  1  0.13816000  0.30052000  0.04193000  1.0
  O  O127  1  0.63815000  0.19948000  0.95807000  1.0
  O  O128  1  0.86185000  0.69948000  0.95807000  1.0
  O  O129  1  0.36184000  0.80052000  0.04193000  1.0
  O  O130  1  0.56245000  0.27668000  0.12573000  1.0
  O  O131  1  0.06245000  0.22333000  0.87427000  1.0
  O  O132  1  0.43754000  0.72332000  0.87428000  1.0
  O  O133  1  0.93754000  0.77668000  0.12572000  1.0
  O  O134  1  0.18425000  0.46505000  0.96022000  1.0
  O  O135  1  0.68425000  0.03495000  0.03978000  1.0
  O  O136  1  0.81575000  0.53495000  0.03978000  1.0
  O  O137  1  0.31575000  0.96505000  0.96022000  1.0
  O  O138  1  0.41416000  0.10819000  0.17280000  1.0
  O  O139  1  0.91415000  0.39181000  0.82719000  1.0
  O  O140  1  0.58584000  0.89180000  0.82720000  1.0
  O  O141  1  0.08584000  0.60820000  0.17281000  1.0
  O  O142  1  0.44327000  0.11888000  0.48893000  1.0
  O  O143  1  0.94330000  0.38112000  0.51107000  1.0
  O  O144  1  0.55671000  0.88112000  0.51107000  1.0
  O  O145  1  0.05673000  0.61887000  0.48894000  1.0
