# generated using pymatgen
data_CeH16C9O8
_symmetry_space_group_name_H-M   'P 1'
_cell_length_a   8.72929000
_cell_length_b   9.81734000
_cell_length_c   11.79650000
_cell_angle_alpha   73.74760000
_cell_angle_beta   69.77990000
_cell_angle_gamma   84.91650000
_symmetry_Int_Tables_number   1
_chemical_formula_structural   CeH16C9O8
_chemical_formula_sum   'Ce2 H32 C18 O16'
_cell_volume   910.69240664
_cell_formula_units_Z   2
loop_
 _symmetry_equiv_pos_site_id
 _symmetry_equiv_pos_as_xyz
  1  'x, y, z'
loop_
 _atom_site_type_symbol
 _atom_site_label
 _atom_site_symmetry_multiplicity
 _atom_site_fract_x
 _atom_site_fract_y
 _atom_site_fract_z
 _atom_site_occupancy
  Ce  Ce0  1  0.74682000  0.49165000  0.50576000  1.0
  Ce  Ce1  1  0.25425000  0.50791000  0.49389000  1.0
  H  H2  1  0.19265000  0.44675000  0.83924000  1.0
  H  H3  1  0.25010000  0.26684000  0.86192000  1.0
  H  H4  1  0.39889000  0.28661000  0.00028000  1.0
  H  H5  1  0.38977000  0.47246000  0.95605000  1.0
  H  H6  1  0.08761000  0.27889000  0.10586000  1.0
  H  H7  1  0.08765000  0.46530000  0.05784000  1.0
  H  H8  1  0.28942000  0.46324000  0.17710000  1.0
  H  H9  1  0.25073000  0.28100000  0.24109000  1.0
  H  H10  1  0.97590000  0.86399000  0.60756000  1.0
  H  H11  1  0.02905000  0.03150000  0.61127000  1.0
  H  H12  1  0.72975000  0.97687000  0.71958000  1.0
  H  H13  1  0.71034000  0.96621000  0.57709000  1.0
  H  H14  1  0.53547000  0.69511000  0.65285000  1.0
  H  H15  1  0.51202000  0.75481000  0.52269000  1.0
  H  H16  1  0.99561000  0.74015000  0.35416000  1.0
  H  H17  1  0.93358000  0.70180000  0.25586000  1.0
  H  H18  1  0.80822000  0.55300000  0.16073000  1.0
  H  H19  1  0.75124000  0.73310000  0.13818000  1.0
  H  H20  1  0.60141000  0.71350000  0.00040000  1.0
  H  H21  1  0.61067000  0.52771000  0.04452000  1.0
  H  H22  1  0.91275000  0.72120000  0.89364000  1.0
  H  H23  1  0.91255000  0.53480000  0.94156000  1.0
  H  H24  1  0.70950000  0.53697000  0.82363000  1.0
  H  H25  1  0.74815000  0.71922000  0.75942000  1.0
  H  H26  1  0.02361000  0.13600000  0.39237000  1.0
  H  H27  1  0.97019000  0.96863000  0.38866000  1.0
  H  H28  1  0.26959000  0.02329000  0.28050000  1.0
  H  H29  1  0.28883000  0.03385000  0.42306000  1.0
  H  H30  1  0.46467000  0.30341000  0.34668000  1.0
  H  H31  1  0.48956000  0.24533000  0.47663000  1.0
  H  H32  1  0.00445000  0.25933000  0.64607000  1.0
  H  H33  1  0.06732000  0.29809000  0.74379000  1.0
  C  C34  1  0.43720000  0.41442000  0.73761000  1.0
  C  C35  1  0.29040000  0.37300000  0.85553000  1.0
  C  C36  1  0.32015000  0.37558000  0.97496000  1.0
  C  C37  1  0.16215000  0.37355000  0.08472000  1.0
  C  C38  1  0.19720000  0.38085000  0.20082000  1.0
  C  C39  1  0.05254000  0.41161000  0.30583000  1.0
  C  C40  1  0.96195000  0.97873000  0.57145000  1.0
  C  C41  1  0.78035000  0.01604000  0.61656000  1.0
  C  C42  1  0.75420000  0.17459000  0.58491000  1.0
  C  C43  1  0.56353000  0.58583000  0.26238000  1.0
  C  C44  1  0.71061000  0.62704000  0.14459000  1.0
  C  C45  1  0.68043000  0.62459000  0.02533000  1.0
  C  C46  1  0.83788000  0.62664000  0.91519000  1.0
  C  C47  1  0.80189000  0.61938000  0.79949000  1.0
  C  C48  1  0.94606000  0.58826000  0.69433000  1.0
  C  C49  1  0.03738000  0.02122000  0.42854000  1.0
  C  C50  1  0.21899000  0.98395000  0.38350000  1.0
  C  C51  1  0.24559000  0.82541000  0.41512000  1.0
  O  O52  1  0.41752000  0.43884000  0.63029000  1.0
  O  O53  1  0.57710000  0.42798000  0.74304000  1.0
  O  O54  1  0.90865000  0.41438000  0.30279000  1.0
  O  O55  1  0.07894000  0.43731000  0.39886000  1.0
  O  O56  1  0.83974000  0.25293000  0.61170000  1.0
  O  O57  1  0.65087000  0.23228000  0.53226000  1.0
  O  O58  1  0.59618000  0.72106000  0.56338000  1.0
  O  O59  1  0.89568000  0.71578000  0.33951000  1.0
  O  O60  1  0.58236000  0.56269000  0.36981000  1.0
  O  O61  1  0.42414000  0.57109000  0.25648000  1.0
  O  O62  1  0.08992000  0.58329000  0.69771000  1.0
  O  O63  1  0.91894000  0.56447000  0.60095000  1.0
  O  O64  1  0.16023000  0.74674000  0.38851000  1.0
  O  O65  1  0.34926000  0.76809000  0.46750000  1.0
  O  O66  1  0.40506000  0.27961000  0.43630000  1.0
  O  O67  1  0.10456000  0.28423000  0.66011000  1.0
