# generated using pymatgen
data_AgH5C5(NO2)2
_symmetry_space_group_name_H-M   'P 1'
_cell_length_a   3.67694000
_cell_length_b   9.38402504
_cell_length_c   21.79425331
_cell_angle_alpha   77.98653175
_cell_angle_beta   85.24221748
_cell_angle_gamma   78.74497247
_symmetry_Int_Tables_number   1
_chemical_formula_structural   AgH5C5(NO2)2
_chemical_formula_sum   'Ag4 H20 C20 N8 O16'
_cell_volume   720.68207517
_cell_formula_units_Z   4
loop_
 _symmetry_equiv_pos_site_id
 _symmetry_equiv_pos_as_xyz
  1  'x, y, z'
loop_
 _atom_site_type_symbol
 _atom_site_label
 _atom_site_symmetry_multiplicity
 _atom_site_fract_x
 _atom_site_fract_y
 _atom_site_fract_z
 _atom_site_occupancy
  Ag  Ag0  1  0.77222000  0.56698000  0.55136000  1.0
  Ag  Ag1  1  0.88963000  0.93256000  0.94881000  1.0
  Ag  Ag2  1  0.22780000  0.43302000  0.44864000  1.0
  Ag  Ag3  1  0.11038000  0.06744000  0.05120000  1.0
  H  H4  1  0.30818000  0.12739000  0.51975000  1.0
  H  H5  1  0.95171000  0.37122000  0.98000000  1.0
  H  H6  1  0.69184000  0.87262000  0.48025000  1.0
  H  H7  1  0.04827000  0.62877000  0.01999000  1.0
  H  H8  1  0.27869000  0.89565000  0.60212000  1.0
  H  H9  1  0.77367000  0.60397000  0.89810000  1.0
  H  H10  1  0.72131000  0.10436000  0.39788000  1.0
  H  H11  1  0.22633000  0.39602000  0.10190000  1.0
  H  H12  1  0.63844000  0.07725000  0.73889000  1.0
  H  H13  1  0.45177000  0.42457000  0.76107000  1.0
  H  H14  1  0.36157000  0.92274000  0.26111000  1.0
  H  H15  1  0.54823000  0.57543000  0.23893000  1.0
  H  H16  1  0.67964000  0.31785000  0.66292000  1.0
  H  H17  1  0.65470000  0.18284000  0.83644000  1.0
  H  H18  1  0.32038000  0.68214000  0.33709000  1.0
  H  H19  1  0.34530000  0.81716000  0.16356000  1.0
  H  H20  1  0.43747000  0.89020000  0.70523000  1.0
  H  H21  1  0.03011000  0.61104000  0.79506000  1.0
  H  H22  1  0.56252000  0.10980000  0.29477000  1.0
  H  H23  1  0.96988000  0.38896000  0.20494000  1.0
  C  C24  1  0.49708000  0.24326000  0.58451000  1.0
  C  C25  1  0.31898000  0.25601000  0.91495000  1.0
  C  C26  1  0.50290000  0.75674000  0.41550000  1.0
  C  C27  1  0.68101000  0.74399000  0.08504000  1.0
  C  C28  1  0.38569000  0.11939000  0.56774000  1.0
  C  C29  1  0.06910000  0.37982000  0.93203000  1.0
  C  C30  1  0.61430000  0.88063000  0.43226000  1.0
  C  C31  1  0.93089000  0.62017000  0.06797000  1.0
  C  C32  1  0.36809000  0.99263000  0.61174000  1.0
  C  C33  1  0.96947000  0.50721000  0.88833000  1.0
  C  C34  1  0.63192000  0.00737000  0.38826000  1.0
  C  C35  1  0.03050000  0.49279000  0.11167000  1.0
  C  C36  1  0.56685000  0.09758000  0.69005000  1.0
  C  C37  1  0.35096000  0.40353000  0.80982000  1.0
  C  C38  1  0.43315000  0.90241000  0.30996000  1.0
  C  C39  1  0.64902000  0.59649000  0.19017000  1.0
  C  C40  1  0.58857000  0.22699000  0.64825000  1.0
  C  C41  1  0.45873000  0.27344000  0.85130000  1.0
  C  C42  1  0.41144000  0.77301000  0.35175000  1.0
  C  C43  1  0.54125000  0.72657000  0.14869000  1.0
  N  N44  1  0.45682000  0.98366000  0.67170000  1.0
  N  N45  1  0.10919000  0.51713000  0.82838000  1.0
  N  N46  1  0.54319000  0.01633000  0.32830000  1.0
  N  N47  1  0.89081000  0.48286000  0.17162000  1.0
  N  N48  1  0.02622000  0.63469000  0.66506000  1.0
  N  N49  1  0.32591000  0.86633000  0.83523000  1.0
  N  N50  1  0.97382000  0.36531000  0.33494000  1.0
  N  N51  1  0.67408000  0.13367000  0.16477000  1.0
  O  O52  1  0.51479000  0.36450000  0.54390000  1.0
  O  O53  1  0.41447000  0.13373000  0.95512000  1.0
  O  O54  1  0.48517000  0.63551000  0.45611000  1.0
  O  O55  1  0.58551000  0.86626000  0.04487000  1.0
  O  O56  1  0.04827000  0.69240000  0.60550000  1.0
  O  O57  1  0.34613000  0.80752000  0.89470000  1.0
  O  O58  1  0.95179000  0.30760000  0.39450000  1.0
  O  O59  1  0.65384000  0.19248000  0.10530000  1.0
  O  O60  1  0.90809000  0.51532000  0.68244000  1.0
  O  O61  1  0.10627000  0.98595000  0.81813000  1.0
  O  O62  1  0.09193000  0.48469000  0.31755000  1.0
  O  O63  1  0.89374000  0.01405000  0.18187000  1.0
  O  O64  1  0.12666000  0.70142000  0.70330000  1.0
  O  O65  1  0.53093000  0.80048000  0.79677000  1.0
  O  O66  1  0.87337000  0.29857000  0.29670000  1.0
  O  O67  1  0.46907000  0.19951000  0.20324000  1.0
