# generated using pymatgen
data_NdH19C30N5O7
_symmetry_space_group_name_H-M   'P 1'
_cell_length_a   10.59950000
_cell_length_b   11.18120000
_cell_length_c   13.65600000
_cell_angle_alpha   110.25400000
_cell_angle_beta   101.11600000
_cell_angle_gamma   107.96100000
_symmetry_Int_Tables_number   1
_chemical_formula_structural   NdH19C30N5O7
_chemical_formula_sum   'Nd2 H38 C60 N10 O14'
_cell_volume   1360.58262991
_cell_formula_units_Z   2
loop_
 _symmetry_equiv_pos_site_id
 _symmetry_equiv_pos_as_xyz
  1  'x, y, z'
loop_
 _atom_site_type_symbol
 _atom_site_label
 _atom_site_symmetry_multiplicity
 _atom_site_fract_x
 _atom_site_fract_y
 _atom_site_fract_z
 _atom_site_occupancy
  Nd  Nd0  1  0.00052000  0.08221000  0.88077000  1.0
  Nd  Nd1  1  0.99948000  0.91779000  0.11923000  1.0
  H  H2  1  0.12579000  0.35195000  0.86087000  1.0
  H  H3  1  0.87421000  0.64805000  0.13913000  1.0
  H  H4  1  0.23725000  0.35928000  0.95962000  1.0
  H  H5  1  0.76275000  0.64072000  0.04038000  1.0
  H  H6  1  0.65302000  0.91823000  0.72467000  1.0
  H  H7  1  0.34698000  0.08177000  0.27533000  1.0
  H  H8  1  0.47433000  0.76659000  0.53114000  1.0
  H  H9  1  0.52567000  0.23341000  0.46886000  1.0
  H  H10  1  0.55898000  0.68218000  0.37355000  1.0
  H  H11  1  0.44102000  0.31782000  0.62645000  1.0
  H  H12  1  0.26558000  0.88617000  0.48602000  1.0
  H  H13  1  0.73442000  0.11383000  0.51398000  1.0
  H  H14  1  0.42211000  0.03775000  0.68568000  1.0
  H  H15  1  0.57789000  0.96225000  0.31432000  1.0
  H  H16  1  0.30927000  0.10058000  0.83037000  1.0
  H  H17  1  0.69073000  0.89942000  0.16963000  1.0
  H  H18  1  0.76569000  0.68756000  0.30563000  1.0
  H  H19  1  0.23431000  0.31244000  0.69437000  1.0
  H  H20  1  0.02118000  0.75775000  0.34702000  1.0
  H  H21  1  0.97882000  0.24225000  0.65298000  1.0
  H  H22  1  0.99991000  0.76321000  0.70108000  1.0
  H  H23  1  0.00009000  0.23679000  0.29892000  1.0
  H  H24  1  0.92481000  0.57865000  0.50481000  1.0
  H  H25  1  0.07519000  0.42135000  0.49519000  1.0
  H  H26  1  0.76905000  0.33379000  0.46059000  1.0
  H  H27  1  0.23095000  0.66621000  0.53941000  1.0
  H  H28  1  0.72872000  0.24008000  0.93845000  1.0
  H  H29  1  0.27129000  0.75992000  0.06155000  1.0
  H  H30  1  0.52607000  0.30380000  0.97002000  1.0
  H  H31  1  0.47393000  0.69620000  0.02998000  1.0
  H  H32  1  0.45799000  0.44707000  0.88143000  1.0
  H  H33  1  0.54201000  0.55293000  0.11857000  1.0
  H  H34  1  0.55557000  0.67577000  0.79434000  1.0
  H  H35  1  0.44443000  0.32423000  0.20566000  1.0
  H  H36  1  0.29136000  0.55404000  0.72133000  1.0
  H  H37  1  0.70864000  0.44596000  0.27867000  1.0
  H  H38  1  0.15400000  0.67964000  0.80795000  1.0
  H  H39  1  0.84600000  0.32036000  0.19205000  1.0
  C  C40  1  0.68514000  0.87976000  0.65275000  1.0
  C  C41  1  0.31486000  0.12024000  0.34725000  1.0
  C  C42  1  0.58645000  0.79557000  0.54535000  1.0
  C  C43  1  0.41355000  0.20443000  0.45465000  1.0
  C  C44  1  0.63339000  0.74965000  0.45756000  1.0
  C  C45  1  0.36660000  0.25035000  0.54244000  1.0
  C  C46  1  0.77951000  0.79055000  0.47739000  1.0
  C  C47  1  0.22049000  0.20945000  0.52261000  1.0
  C  C48  1  0.87147000  0.87612000  0.58870000  1.0
  C  C49  1  0.12853000  0.12388000  0.41130000  1.0
  C  C50  1  0.02152000  0.91958000  0.61274000  1.0
  C  C51  1  0.97848000  0.08042000  0.38726000  1.0
  C  C52  1  0.07468000  0.87544000  0.52487000  1.0
  C  C53  1  0.92532000  0.12456000  0.47513000  1.0
  C  C54  1  0.22217000  0.91897000  0.55197000  1.0
  C  C55  1  0.77783000  0.08103000  0.44803000  1.0
  C  C56  1  0.30787000  0.00086000  0.66133000  1.0
  C  C57  1  0.69213000  0.99914000  0.33867000  1.0
  C  C58  1  0.24581000  0.03796000  0.74301000  1.0
  C  C59  1  0.75419000  0.96204000  0.25699000  1.0
  C  C60  1  0.83708000  0.74977000  0.39099000  1.0
  C  C61  1  0.16292000  0.25022000  0.60901000  1.0
  C  C62  1  0.97903000  0.79017000  0.41369000  1.0
  C  C63  1  0.02097000  0.20982000  0.58631000  1.0
  C  C64  1  0.92501000  0.73287000  0.86843000  1.0
  C  C65  1  0.07499000  0.26713000  0.13157000  1.0
  C  C66  1  0.87793000  0.62142000  0.75297000  1.0
  C  C67  1  0.12207000  0.37858000  0.24703000  1.0
  C  C68  1  0.92802000  0.65609000  0.67490000  1.0
  C  C69  1  0.07198000  0.34390000  0.32510000  1.0
  C  C70  1  0.88858000  0.55400000  0.56774000  1.0
  C  C71  1  0.11142000  0.44600000  0.43226000  1.0
  C  C72  1  0.80148000  0.41806000  0.54341000  1.0
  C  C73  1  0.19852000  0.58194000  0.45659000  1.0
  C  C74  1  0.78958000  0.48141000  0.72013000  1.0
  C  C75  1  0.21042000  0.51859000  0.27987000  1.0
  C  C76  1  0.72441000  0.43488000  0.79576000  1.0
  C  C77  1  0.27559000  0.56512000  0.20424000  1.0
  C  C78  1  0.76989000  0.35461000  0.84153000  1.0
  C  C79  1  0.23011000  0.64539000  0.15847000  1.0
  C  C80  1  0.69655000  0.30480000  0.90391000  1.0
  C  C81  1  0.30345000  0.69520000  0.09609000  1.0
  C  C82  1  0.58434000  0.33937000  0.92063000  1.0
  C  C83  1  0.41566000  0.66063000  0.07937000  1.0
  C  C84  1  0.54699000  0.41994000  0.87167000  1.0
  C  C85  1  0.45301000  0.58006000  0.12833000  1.0
  C  C86  1  0.89375000  0.32088000  0.82649000  1.0
  C  C87  1  0.10625000  0.67912000  0.17352000  1.0
  C  C88  1  0.71473000  0.92883000  0.95343000  1.0
  C  C89  1  0.28527000  0.07117000  0.04657000  1.0
  C  C90  1  0.55639000  0.86520000  0.91151000  1.0
  C  C91  1  0.44361000  0.13480000  0.08849000  1.0
  C  C92  1  0.49129000  0.72911000  0.82611000  1.0
  C  C93  1  0.50871000  0.27089000  0.17389000  1.0
  C  C94  1  0.34513000  0.66077000  0.78636000  1.0
  C  C95  1  0.65487000  0.33923000  0.21364000  1.0
  C  C96  1  0.26835000  0.73133000  0.83396000  1.0
  C  C97  1  0.73165000  0.26867000  0.16604000  1.0
  C  C98  1  0.47022000  0.92870000  0.95396000  1.0
  C  C99  1  0.52978000  0.07130000  0.04604000  1.0
  N  N100  1  0.82333000  0.91754000  0.67436000  1.0
  N  N101  1  0.17667000  0.08246000  0.32564000  1.0
  N  N102  1  0.10729000  0.99897000  0.72012000  1.0
  N  N103  1  0.89271000  0.00103000  0.27988000  1.0
  N  N104  1  0.75307000  0.38143000  0.61728000  1.0
  N  N105  1  0.24693000  0.61857000  0.38272000  1.0
  N  N106  1  0.61438000  0.46638000  0.80953000  1.0
  N  N107  1  0.38561000  0.53362000  0.19047000  1.0
  N  N108  1  0.32894000  0.86157000  0.91432000  1.0
  N  N109  1  0.67106000  0.13843000  0.08568000  1.0
  O  O110  1  0.92671000  0.69936000  0.94811000  1.0
  O  O111  1  0.07329000  0.30064000  0.05189000  1.0
  O  O112  1  0.96444000  0.85954000  0.88246000  1.0
  O  O113  1  0.03556000  0.14046000  0.11754000  1.0
  O  O114  1  0.00232000  0.41135000  0.82897000  1.0
  O  O115  1  0.99768000  0.58865000  0.17103000  1.0
  O  O116  1  0.87819000  0.19714000  0.81230000  1.0
  O  O117  1  0.12181000  0.80286000  0.18770000  1.0
  O  O118  1  0.77659000  0.99878000  0.90802000  1.0
  O  O119  1  0.22341000  0.00122000  0.09198000  1.0
  O  O120  1  0.77057000  0.89116000  0.02192000  1.0
  O  O121  1  0.22943000  0.10884000  0.97808000  1.0
  O  O122  1  0.18555000  0.30294000  0.88053000  1.0
  O  O123  1  0.81444000  0.69706000  0.11947000  1.0
