# generated using pymatgen
data_ZnH24C20(NO)4
_symmetry_space_group_name_H-M   'P 1'
_cell_length_a   6.73514000
_cell_length_b   9.65568000
_cell_length_c   15.45290000
_cell_angle_alpha   96.58080000
_cell_angle_beta   92.33000000
_cell_angle_gamma   91.90700000
_symmetry_Int_Tables_number   1
_chemical_formula_structural   ZnH24C20(NO)4
_chemical_formula_sum   'Zn2 H48 C40 N8 O8'
_cell_volume   996.76301851
_cell_formula_units_Z   2
loop_
 _symmetry_equiv_pos_site_id
 _symmetry_equiv_pos_as_xyz
  1  'x, y, z'
loop_
 _atom_site_type_symbol
 _atom_site_label
 _atom_site_symmetry_multiplicity
 _atom_site_fract_x
 _atom_site_fract_y
 _atom_site_fract_z
 _atom_site_occupancy
  Zn  Zn0  1  0.85938000  0.02129000  0.25062000  1.0
  Zn  Zn1  1  0.14061000  0.97872000  0.74939000  1.0
  H  H2  1  0.84644000  0.81436000  0.07095000  1.0
  H  H3  1  0.15355000  0.18565000  0.92906000  1.0
  H  H4  1  0.16274000  0.80627000  0.95886000  1.0
  H  H5  1  0.83724000  0.19372000  0.04114000  1.0
  H  H6  1  0.33462000  0.04868000  0.19831000  1.0
  H  H7  1  0.66539000  0.95133000  0.80170000  1.0
  H  H8  1  0.56084000  0.85366000  0.01772000  1.0
  H  H9  1  0.43915000  0.14633000  0.98228000  1.0
  H  H10  1  0.59561000  0.00784000  0.09302000  1.0
  H  H11  1  0.40439000  0.99216000  0.90698000  1.0
  H  H12  1  0.64639000  0.60621000  0.09753000  1.0
  H  H13  1  0.35361000  0.39380000  0.90247000  1.0
  H  H14  1  0.44114000  0.71393000  0.11929000  1.0
  H  H15  1  0.55886000  0.28608000  0.88071000  1.0
  H  H16  1  0.33013000  0.48559000  0.03612000  1.0
  H  H17  1  0.66987000  0.51441000  0.96388000  1.0
  H  H18  1  0.09999000  0.60437000  0.14106000  1.0
  H  H19  1  0.90001000  0.39564000  0.85894000  1.0
  H  H20  1  0.06966000  0.42024000  0.13712000  1.0
  H  H21  1  0.93034000  0.57977000  0.86288000  1.0
  H  H22  1  0.08957000  0.53469000  0.29142000  1.0
  H  H23  1  0.91044000  0.46532000  0.70859000  1.0
  H  H24  1  0.40222000  0.65722000  0.35273000  1.0
  H  H25  1  0.59779000  0.34278000  0.64727000  1.0
  H  H26  1  0.29861000  0.74232000  0.26577000  1.0
  H  H27  1  0.70140000  0.25769000  0.73423000  1.0
  H  H28  1  0.69743000  0.50045000  0.32383000  1.0
  H  H29  1  0.30257000  0.49955000  0.67617000  1.0
  H  H30  1  0.79820000  0.48080000  0.21940000  1.0
  H  H31  1  0.20180000  0.51920000  0.78060000  1.0
  H  H32  1  0.60119000  0.34348000  0.09095000  1.0
  H  H33  1  0.39881000  0.65653000  0.90904000  1.0
  H  H34  1  0.36381000  0.26687000  0.10726000  1.0
  H  H35  1  0.63619000  0.73313000  0.89274000  1.0
  H  H36  1  0.35970000  0.38891000  0.34623000  1.0
  H  H37  1  0.64031000  0.61110000  0.65377000  1.0
  H  H38  1  0.22079000  0.29536000  0.25795000  1.0
  H  H39  1  0.77921000  0.70464000  0.74205000  1.0
  H  H40  1  0.17198000  0.87863000  0.36548000  1.0
  H  H41  1  0.82802000  0.12137000  0.63452000  1.0
  H  H42  1  0.94701000  0.28187000  0.40477000  1.0
  H  H43  1  0.05300000  0.71813000  0.59523000  1.0
  H  H44  1  0.21544000  0.24789000  0.54292000  1.0
  H  H45  1  0.78458000  0.75210000  0.45708000  1.0
  H  H46  1  0.36408000  0.87381000  0.51557000  1.0
  H  H47  1  0.63593000  0.12618000  0.48443000  1.0
  H  H48  1  0.39191000  0.02994000  0.58648000  1.0
  H  H49  1  0.60811000  0.97005000  0.41352000  1.0
  C  C50  1  0.99393000  0.86314000  0.08004000  1.0
  C  C51  1  0.00606000  0.13685000  0.91997000  1.0
  C  C52  1  0.14883000  0.85602000  0.02491000  1.0
  C  C53  1  0.85115000  0.14399000  0.97509000  1.0
  C  C54  1  0.24004000  0.98783000  0.14837000  1.0
  C  C55  1  0.75996000  0.01218000  0.85164000  1.0
  C  C56  1  0.50212000  0.95629000  0.03822000  1.0
  C  C57  1  0.49786000  0.04370000  0.96178000  1.0
  C  C58  1  0.70231000  0.75613000  0.26032000  1.0
  C  C59  1  0.29769000  0.24387000  0.73967000  1.0
  C  C60  1  0.56270000  0.62876000  0.23262000  1.0
  C  C61  1  0.43731000  0.37124000  0.76738000  1.0
  C  C62  1  0.50921000  0.61725000  0.13399000  1.0
  C  C63  1  0.49079000  0.38276000  0.86601000  1.0
  C  C64  1  0.36556000  0.49189000  0.10672000  1.0
  C  C65  1  0.63443000  0.50811000  0.89328000  1.0
  C  C66  1  0.17404000  0.50982000  0.15681000  1.0
  C  C67  1  0.82596000  0.49019000  0.84319000  1.0
  C  C68  1  0.22565000  0.51983000  0.25511000  1.0
  C  C69  1  0.77435000  0.48018000  0.74489000  1.0
  C  C70  1  0.36805000  0.64632000  0.28173000  1.0
  C  C71  1  0.63195000  0.35368000  0.71827000  1.0
  C  C72  1  0.62320000  0.23696000  0.24911000  1.0
  C  C73  1  0.37680000  0.76304000  0.75089000  1.0
  C  C74  1  0.51618000  0.36603000  0.22597000  1.0
  C  C75  1  0.48382000  0.63398000  0.77403000  1.0
  C  C76  1  0.65900000  0.49386000  0.25354000  1.0
  C  C77  1  0.34100000  0.50614000  0.74645000  1.0
  C  C78  1  0.46497000  0.35812000  0.12730000  1.0
  C  C79  1  0.53503000  0.64189000  0.87270000  1.0
  C  C80  1  0.32425000  0.38580000  0.27596000  1.0
  C  C81  1  0.67575000  0.61421000  0.72404000  1.0
  C  C82  1  0.15183000  0.98546000  0.39261000  1.0
  C  C83  1  0.84817000  0.01454000  0.60739000  1.0
  C  C84  1  0.03793000  0.19484000  0.41633000  1.0
  C  C85  1  0.96207000  0.80515000  0.58367000  1.0
  C  C86  1  0.17254000  0.18074000  0.48352000  1.0
  C  C87  1  0.82749000  0.81926000  0.51648000  1.0
  C  C88  1  0.39736000  0.98624000  0.51793000  1.0
  C  C89  1  0.60265000  0.01374000  0.48206000  1.0
  N  N90  1  0.05174000  0.94654000  0.15631000  1.0
  N  N91  1  0.94825000  0.05347000  0.84369000  1.0
  N  N92  1  0.30366000  0.93571000  0.06933000  1.0
  N  N93  1  0.69632000  0.06429000  0.93067000  1.0
  N  N94  1  0.02652000  0.07216000  0.36009000  1.0
  N  N95  1  0.97348000  0.92783000  0.63991000  1.0
  N  N96  1  0.24284000  0.04745000  0.46741000  1.0
  N  N97  1  0.75717000  0.95254000  0.53258000  1.0
  O  O98  1  0.85194000  0.74842000  0.30997000  1.0
  O  O99  1  0.14806000  0.25158000  0.69003000  1.0
  O  O100  1  0.65083000  0.87045000  0.22942000  1.0
  O  O101  1  0.34917000  0.12955000  0.77058000  1.0
  O  O102  1  0.75155000  0.18472000  0.19441000  1.0
  O  O103  1  0.24844000  0.81527000  0.80557000  1.0
  O  O104  1  0.59100000  0.18637000  0.31864000  1.0
  O  O105  1  0.40900000  0.81363000  0.68135000  1.0
