# generated using pymatgen
data_ZnH11C11NO5
_symmetry_space_group_name_H-M   'P 1'
_cell_length_a   5.93747000
_cell_length_b   8.53332000
_cell_length_c   11.68750000
_cell_angle_alpha   75.67500000
_cell_angle_beta   89.99960000
_cell_angle_gamma   89.99880000
_symmetry_Int_Tables_number   1
_chemical_formula_structural   ZnH11C11NO5
_chemical_formula_sum   'Zn2 H22 C22 N2 O10'
_cell_volume   573.75114544
_cell_formula_units_Z   2
loop_
 _symmetry_equiv_pos_site_id
 _symmetry_equiv_pos_as_xyz
  1  'x, y, z'
loop_
 _atom_site_type_symbol
 _atom_site_label
 _atom_site_symmetry_multiplicity
 _atom_site_fract_x
 _atom_site_fract_y
 _atom_site_fract_z
 _atom_site_occupancy
  Zn  Zn0  1  0.77767000  0.00713000  0.82918000  1.0
  Zn  Zn1  1  0.27767000  0.99287000  0.17083000  1.0
  H  H2  1  0.95622000  0.41839000  0.18632000  1.0
  H  H3  1  0.45620000  0.58161000  0.81368000  1.0
  H  H4  1  0.16858000  0.69767000  0.23148000  1.0
  H  H5  1  0.66856000  0.30233000  0.76851000  1.0
  H  H6  1  0.28152000  0.64477000  0.62325000  1.0
  H  H7  1  0.78153000  0.35524000  0.37675000  1.0
  H  H8  1  0.24918000  0.55960000  0.43589000  1.0
  H  H9  1  0.74917000  0.44041000  0.56411000  1.0
  H  H10  1  0.84416000  0.83668000  0.30409000  1.0
  H  H11  1  0.34414000  0.16332000  0.69592000  1.0
  H  H12  1  0.88089000  0.91405000  0.49499000  1.0
  H  H13  1  0.38088000  0.08593000  0.50503000  1.0
  H  H14  1  0.48474000  0.52743000  0.24774000  1.0
  H  H15  1  0.98470000  0.47257000  0.75225000  1.0
  H  H16  1  0.65311000  0.69609000  0.17964000  1.0
  H  H17  1  0.15308000  0.30394000  0.82036000  1.0
  H  H18  1  0.40915000  0.74216000  0.00878000  1.0
  H  H19  1  0.90914000  0.25784000  0.99122000  1.0
  H  H20  1  0.11090000  0.54662000  0.98191000  1.0
  H  H21  1  0.61088000  0.45338000  0.01809000  1.0
  H  H22  1  0.28589000  0.46261000  0.10500000  1.0
  H  H23  1  0.78588000  0.53739000  0.89500000  1.0
  C  C24  1  0.59845000  0.84346000  0.68072000  1.0
  C  C25  1  0.09846000  0.15654000  0.31929000  1.0
  C  C26  1  0.58279000  0.78557000  0.57032000  1.0
  C  C27  1  0.08280000  0.21444000  0.42968000  1.0
  C  C28  1  0.40641000  0.68412000  0.55374000  1.0
  C  C29  1  0.90642000  0.31589000  0.44626000  1.0
  C  C30  1  0.38805000  0.63804000  0.44788000  1.0
  C  C31  1  0.88804000  0.36196000  0.55212000  1.0
  C  C32  1  0.54348000  0.69415000  0.35636000  1.0
  C  C33  1  0.04347000  0.30586000  0.64364000  1.0
  C  C34  1  0.72238000  0.79207000  0.37455000  1.0
  C  C35  1  0.22237000  0.20793000  0.62546000  1.0
  C  C36  1  0.74295000  0.83701000  0.48076000  1.0
  C  C37  1  0.24295000  0.16298000  0.51924000  1.0
  C  C38  1  0.50799000  0.65832000  0.23786000  1.0
  C  C39  1  0.00796000  0.34169000  0.76213000  1.0
  C  C40  1  0.08994000  0.85640000  0.99976000  1.0
  C  C41  1  0.58993000  0.14359000  0.00024000  1.0
  C  C42  1  0.25443000  0.72394000  0.06210000  1.0
  C  C43  1  0.75441000  0.27606000  0.93790000  1.0
  C  C44  1  0.15776000  0.55602000  0.07105000  1.0
  C  C45  1  0.65774000  0.44398000  0.92895000  1.0
  N  N46  1  0.30535000  0.74759000  0.18100000  1.0
  N  N47  1  0.80533000  0.25241000  0.81899000  1.0
  O  O48  1  0.49254000  0.77529000  0.77311000  1.0
  O  O49  1  0.99254000  0.22471000  0.22689000  1.0
  O  O50  1  0.72538000  0.96874000  0.67422000  1.0
  O  O51  1  0.22538000  0.03125000  0.32578000  1.0
  O  O52  1  0.05269000  0.97710000  0.04310000  1.0
  O  O53  1  0.55270000  0.02289000  0.95691000  1.0
  O  O54  1  0.99818000  0.83920000  0.90537000  1.0
  O  O55  1  0.49817000  0.16080000  0.09463000  1.0
  O  O56  1  0.96966000  0.53739000  0.14900000  1.0
  O  O57  1  0.46965000  0.46262000  0.85100000  1.0
