# generated using pymatgen
data_ZnH6(C3O)4
_symmetry_space_group_name_H-M   'P 1'
_cell_length_a   4.83265000
_cell_length_b   12.92840000
_cell_length_c   16.82900000
_cell_angle_alpha   111.22100000
_cell_angle_beta   89.99980000
_cell_angle_gamma   89.99990000
_symmetry_Int_Tables_number   1
_chemical_formula_structural   ZnH6(C3O)4
_chemical_formula_sum   'Zn4 H24 C48 O16'
_cell_volume   980.15200124
_cell_formula_units_Z   4
loop_
 _symmetry_equiv_pos_site_id
 _symmetry_equiv_pos_as_xyz
  1  'x, y, z'
loop_
 _atom_site_type_symbol
 _atom_site_label
 _atom_site_symmetry_multiplicity
 _atom_site_fract_x
 _atom_site_fract_y
 _atom_site_fract_z
 _atom_site_occupancy
  Zn  Zn0  1  0.28571000  0.92674000  0.05400000  1.0
  Zn  Zn1  1  0.78571000  0.57326000  0.94600000  1.0
  Zn  Zn2  1  0.71430000  0.07326000  0.94600000  1.0
  Zn  Zn3  1  0.21430000  0.42674000  0.05400000  1.0
  H  H4  1  0.84707000  0.56545000  0.23957000  1.0
  H  H5  1  0.34707000  0.93455000  0.76043000  1.0
  H  H6  1  0.15293000  0.43455000  0.76043000  1.0
  H  H7  1  0.65292000  0.06545000  0.23957000  1.0
  H  H8  1  0.81678000  0.72511000  0.37337000  1.0
  H  H9  1  0.31678000  0.77489000  0.62663000  1.0
  H  H10  1  0.18322000  0.27489000  0.62663000  1.0
  H  H11  1  0.68322000  0.22511000  0.37337000  1.0
  H  H12  1  0.52145000  0.71708000  0.49316000  1.0
  H  H13  1  0.02145000  0.78292000  0.50684000  1.0
  H  H14  1  0.47855000  0.28292000  0.50684000  1.0
  H  H15  1  0.97855000  0.21708000  0.49316000  1.0
  H  H16  1  0.25581000  0.54578000  0.47649000  1.0
  H  H17  1  0.75581000  0.95422000  0.52351000  1.0
  H  H18  1  0.74419000  0.45422000  0.52351000  1.0
  H  H19  1  0.24418000  0.04578000  0.47649000  1.0
  H  H20  1  0.12763000  0.35300000  0.39049000  1.0
  H  H21  1  0.62764000  0.14700000  0.60952000  1.0
  H  H22  1  0.87236000  0.64699000  0.60951000  1.0
  H  H23  1  0.37236000  0.85300000  0.39049000  1.0
  H  H24  1  0.17478000  0.18813000  0.25718000  1.0
  H  H25  1  0.67479000  0.31187000  0.74282000  1.0
  H  H26  1  0.82523000  0.81187000  0.74282000  1.0
  H  H27  1  0.32522000  0.68813000  0.25718000  1.0
  C  C28  1  0.46845000  0.16680000  0.11800000  1.0
  C  C29  1  0.96845000  0.33320000  0.88200000  1.0
  C  C30  1  0.53153000  0.83320000  0.88201000  1.0
  C  C31  1  0.03153000  0.66681000  0.11799000  1.0
  C  C32  1  0.73857000  0.37951000  0.12942000  1.0
  C  C33  1  0.23857000  0.12049000  0.87058000  1.0
  C  C34  1  0.26144000  0.62049000  0.87058000  1.0
  C  C35  1  0.76143000  0.87951000  0.12942000  1.0
  C  C36  1  0.44703000  0.26883000  0.19618000  1.0
  C  C37  1  0.94703000  0.23117000  0.80382000  1.0
  C  C38  1  0.55298000  0.73117000  0.80382000  1.0
  C  C39  1  0.05297000  0.76883000  0.19618000  1.0
  C  C40  1  0.58210000  0.36624000  0.20235000  1.0
  C  C41  1  0.08210000  0.13375000  0.79765000  1.0
  C  C42  1  0.41791000  0.63375000  0.79765000  1.0
  C  C43  1  0.91790000  0.86625000  0.20235000  1.0
  C  C44  1  0.56824000  0.46117000  0.27940000  1.0
  C  C45  1  0.06825000  0.03882000  0.72060000  1.0
  C  C46  1  0.43175000  0.53883000  0.72060000  1.0
  C  C47  1  0.93175000  0.96118000  0.27940000  1.0
  C  C48  1  0.71572000  0.56064000  0.29070000  1.0
  C  C49  1  0.21573000  0.93936000  0.70930000  1.0
  C  C50  1  0.28427000  0.43936000  0.70930000  1.0
  C  C51  1  0.78427000  0.06064000  0.29070000  1.0
  C  C52  1  0.69965000  0.65021000  0.36635000  1.0
  C  C53  1  0.19965000  0.84979000  0.63365000  1.0
  C  C54  1  0.30035000  0.34979000  0.63365000  1.0
  C  C55  1  0.80035000  0.15021000  0.36635000  1.0
  C  C56  1  0.53228000  0.64544000  0.43382000  1.0
  C  C57  1  0.03229000  0.85456000  0.56618000  1.0
  C  C58  1  0.46771000  0.35457000  0.56618000  1.0
  C  C59  1  0.96771000  0.14544000  0.43382000  1.0
  C  C60  1  0.38478000  0.55048000  0.42468000  1.0
  C  C61  1  0.88479000  0.94952000  0.57532000  1.0
  C  C62  1  0.61521000  0.44952000  0.57532000  1.0
  C  C63  1  0.11521000  0.05048000  0.42468000  1.0
  C  C64  1  0.40058000  0.45603000  0.34832000  1.0
  C  C65  1  0.90058000  0.04397000  0.65168000  1.0
  C  C66  1  0.59942000  0.54397000  0.65168000  1.0
  C  C67  1  0.09941000  0.95603000  0.34832000  1.0
  C  C68  1  0.25722000  0.35635000  0.33840000  1.0
  C  C69  1  0.75723000  0.14365000  0.66161000  1.0
  C  C70  1  0.74277000  0.64366000  0.66160000  1.0
  C  C71  1  0.24276000  0.85635000  0.33840000  1.0
  C  C72  1  0.28257000  0.26503000  0.26482000  1.0
  C  C73  1  0.78258000  0.23497000  0.73519000  1.0
  C  C74  1  0.71743000  0.73497000  0.73518000  1.0
  C  C75  1  0.21742000  0.76503000  0.26482000  1.0
  O  O76  1  0.30445000  0.08769000  0.11266000  1.0
  O  O77  1  0.80445000  0.41231000  0.88734000  1.0
  O  O78  1  0.69556000  0.91232000  0.88734000  1.0
  O  O79  1  0.19557000  0.58768000  0.11266000  1.0
  O  O80  1  0.65307000  0.16680000  0.06379000  1.0
  O  O81  1  0.15307000  0.33320000  0.93621000  1.0
  O  O82  1  0.34696000  0.83320000  0.93621000  1.0
  O  O83  1  0.84695000  0.66680000  0.06379000  1.0
  O  O84  1  0.61280000  0.40301000  0.07153000  1.0
  O  O85  1  0.11280000  0.09698000  0.92847000  1.0
  O  O86  1  0.38721000  0.59699000  0.92847000  1.0
  O  O87  1  0.88720000  0.90301000  0.07153000  1.0
  O  O88  1  0.00069000  0.37692000  0.13375000  1.0
  O  O89  1  0.50069000  0.12308000  0.86625000  1.0
  O  O90  1  0.99932000  0.62308000  0.86625000  1.0
  O  O91  1  0.49931000  0.87692000  0.13375000  1.0
