# generated using pymatgen
data_CuH7C9N2
_symmetry_space_group_name_H-M   'P 1'
_cell_length_a   33.04140000
_cell_length_b   33.40240000
_cell_length_c   35.36330000
_cell_angle_alpha   90.64330000
_cell_angle_beta   90.99070000
_cell_angle_gamma   90.58750000
_symmetry_Int_Tables_number   1
_chemical_formula_structural   CuH7C9N2
_chemical_formula_sum   'Cu12 H84 C108 N24'
_cell_volume   39018.70795275
_cell_formula_units_Z   12
loop_
 _symmetry_equiv_pos_site_id
 _symmetry_equiv_pos_as_xyz
  1  'x, y, z'
loop_
 _atom_site_type_symbol
 _atom_site_label
 _atom_site_symmetry_multiplicity
 _atom_site_fract_x
 _atom_site_fract_y
 _atom_site_fract_z
 _atom_site_occupancy
  Cu  Cu0  1  0.66282000  0.37157000  0.59460000  1.0
  Cu  Cu1  1  0.58782000  0.33015000  0.63374000  1.0
  Cu  Cu2  1  0.62814000  0.40940000  0.66992000  1.0
  Cu  Cu3  1  0.15399000  0.61709000  0.91749000  1.0
  Cu  Cu4  1  0.09146000  0.66772000  0.86967000  1.0
  Cu  Cu5  1  0.12255000  0.58389000  0.83801000  1.0
  Cu  Cu6  1  0.83579000  0.87083000  0.40276000  1.0
  Cu  Cu7  1  0.91474000  0.83294000  0.36772000  1.0
  Cu  Cu8  1  0.87487000  0.91036000  0.33088000  1.0
  Cu  Cu9  1  0.34784000  0.12243000  0.08333000  1.0
  Cu  Cu10  1  0.41223000  0.17443000  0.12946000  1.0
  Cu  Cu11  1  0.37237000  0.09744000  0.16685000  1.0
  H  H12  1  0.67540000  0.31284000  0.52531000  1.0
  H  H13  1  0.57207000  0.25601000  0.57718000  1.0
  H  H14  1  0.68855000  0.48289000  0.68270000  1.0
  H  H15  1  0.73477000  0.43272000  0.57864000  1.0
  H  H16  1  0.51836000  0.31400000  0.69223000  1.0
  H  H17  1  0.57155000  0.42250000  0.74063000  1.0
  H  H18  1  0.16473000  0.67278000  0.99056000  1.0
  H  H19  1  0.08783000  0.74686000  0.92041000  1.0
  H  H20  1  0.18269000  0.51045000  0.82655000  1.0
  H  H21  1  0.22057000  0.55371000  0.93778000  1.0
  H  H22  1  0.02330000  0.68685000  0.80812000  1.0
  H  H23  1  0.06393000  0.57146000  0.76732000  1.0
  H  H24  1  0.82073000  0.81226000  0.47068000  1.0
  H  H25  1  0.92999000  0.76132000  0.42516000  1.0
  H  H26  1  0.81522000  0.98300000  0.31740000  1.0
  H  H27  1  0.76229000  0.92968000  0.41646000  1.0
  H  H28  1  0.98823000  0.81970000  0.31218000  1.0
  H  H29  1  0.93457000  0.92573000  0.26373000  1.0
  H  H30  1  0.33899000  0.17379000  0.00857000  1.0
  H  H31  1  0.41892000  0.25051000  0.07630000  1.0
  H  H32  1  0.30969000  0.02529000  0.17895000  1.0
  H  H33  1  0.28222000  0.05648000  0.06270000  1.0
  H  H34  1  0.48320000  0.19308000  0.18901000  1.0
  H  H35  1  0.42442000  0.09263000  0.24269000  1.0
  H  H36  1  0.07117000  0.81875000  0.12180000  1.0
  H  H37  1  0.12128000  0.92821000  0.16929000  1.0
  H  H38  1  0.16823000  0.87948000  0.06584000  1.0
  H  H39  1  0.67638000  0.12691000  0.42797000  1.0
  H  H40  1  0.62747000  0.08223000  0.32177000  1.0
  H  H41  1  0.56633000  0.17601000  0.38167000  1.0
  H  H42  1  0.42960000  0.31872000  0.87329000  1.0
  H  H43  1  0.37547000  0.42510000  0.82775000  1.0
  H  H44  1  0.33369000  0.37660000  0.93272000  1.0
  H  H45  1  0.93335000  0.68357000  0.61719000  1.0
  H  H46  1  0.87756000  0.58291000  0.67161000  1.0
  H  H47  1  0.82383000  0.63055000  0.57020000  1.0
  H  H48  1  0.11361000  0.80424000  0.96408000  1.0
  H  H49  1  0.12960000  0.85446000  0.01403000  1.0
  H  H50  1  0.14270000  0.74502000  0.02438000  1.0
  H  H51  1  0.10491000  0.78672000  0.06719000  1.0
  H  H52  1  0.68215000  0.24874000  0.48962000  1.0
  H  H53  1  0.68355000  0.19086000  0.44764000  1.0
  H  H54  1  0.59673000  0.21936000  0.50946000  1.0
  H  H55  1  0.59108000  0.19888000  0.44390000  1.0
  H  H56  1  0.39339000  0.30608000  0.03230000  1.0
  H  H57  1  0.37537000  0.35451000  0.98281000  1.0
  H  H58  1  0.36180000  0.24459000  0.97330000  1.0
  H  H59  1  0.39834000  0.28622000  0.92870000  1.0
  H  H60  1  0.81598000  0.75009000  0.50834000  1.0
  H  H61  1  0.81540000  0.69277000  0.55013000  1.0
  H  H62  1  0.90296000  0.72467000  0.49110000  1.0
  H  H63  1  0.90725000  0.70696000  0.55679000  1.0
  H  H64  1  0.23698000  0.99782000  0.06076000  1.0
  H  H65  1  0.19253000  0.93941000  0.05932000  1.0
  H  H66  1  0.24725000  0.98001000  0.14551000  1.0
  H  H67  1  0.18024000  0.95812000  0.14360000  1.0
  H  H68  1  0.75188000  0.52568000  0.68408000  1.0
  H  H69  1  0.81283000  0.56744000  0.68238000  1.0
  H  H70  1  0.77533000  0.50109000  0.60340000  1.0
  H  H71  1  0.79665000  0.56888000  0.59660000  1.0
  H  H72  1  0.75139000  0.02299000  0.31308000  1.0
  H  H73  1  0.69099000  0.06464000  0.31352000  1.0
  H  H74  1  0.72448000  0.99938000  0.39266000  1.0
  H  H75  1  0.70559000  0.06788000  0.39953000  1.0
  H  H76  1  0.26484000  0.49438000  0.94065000  1.0
  H  H77  1  0.30965000  0.43659000  0.94082000  1.0
  H  H78  1  0.24840000  0.47010000  0.85760000  1.0
  H  H79  1  0.31669000  0.45323000  0.85590000  1.0
  H  H80  1  0.99842000  0.93220000  0.22808000  1.0
  H  H81  1  0.05660000  0.93447000  0.18728000  1.0
  H  H82  1  0.02599000  0.84695000  0.24684000  1.0
  H  H83  1  0.04737000  0.84295000  0.18273000  1.0
  H  H84  1  0.48192000  0.30828000  0.75401000  1.0
  H  H85  1  0.44347000  0.30812000  0.81264000  1.0
  H  H86  1  0.50383000  0.39454000  0.77838000  1.0
  H  H87  1  0.43536000  0.39828000  0.79844000  1.0
  H  H88  1  0.00103000  0.57018000  0.72802000  1.0
  H  H89  1  0.94095000  0.57128000  0.68745000  1.0
  H  H90  1  0.98246000  0.65889000  0.74313000  1.0
  H  H91  1  0.96016000  0.66082000  0.67846000  1.0
  H  H92  1  0.46034000  0.12248000  0.30358000  1.0
  H  H93  1  0.51151000  0.13837000  0.35440000  1.0
  H  H94  1  0.52448000  0.16219000  0.25408000  1.0
  H  H95  1  0.57041000  0.11793000  0.29101000  1.0
  C  C96  1  0.65043000  0.30356000  0.54285000  1.0
  C  C97  1  0.62388000  0.27047000  0.53869000  1.0
  C  C98  1  0.59743000  0.27487000  0.56922000  1.0
  C  C99  1  0.69517000  0.46557000  0.65744000  1.0
  C  C100  1  0.72556000  0.47129000  0.63048000  1.0
  C  C101  1  0.71848000  0.43993000  0.60420000  1.0
  C  C102  1  0.53625000  0.34050000  0.69950000  1.0
  C  C103  1  0.53228000  0.36777000  0.72987000  1.0
  C  C104  1  0.56329000  0.39609000  0.72393000  1.0
  C  C105  1  0.14555000  0.68576000  0.96879000  1.0
  C  C106  1  0.12762000  0.72377000  0.96790000  1.0
  C  C107  1  0.10674000  0.72393000  0.93282000  1.0
  C  C108  1  0.18694000  0.52592000  0.85352000  1.0
  C  C109  1  0.21497000  0.51833000  0.88296000  1.0
  C  C110  1  0.20628000  0.54776000  0.91041000  1.0
  C  C111  1  0.03812000  0.65848000  0.80300000  1.0
  C  C112  1  0.03002000  0.62948000  0.77461000  1.0
  C  C113  1  0.05854000  0.59942000  0.78224000  1.0
  C  C114  1  0.84725000  0.80430000  0.45468000  1.0
  C  C115  1  0.87514000  0.77326000  0.46058000  1.0
  C  C116  1  0.90322000  0.77858000  0.43152000  1.0
  C  C117  1  0.80693000  0.96492000  0.34143000  1.0
  C  C118  1  0.77491000  0.96961000  0.36686000  1.0
  C  C119  1  0.78018000  0.93778000  0.39218000  1.0
  C  C120  1  0.97013000  0.84556000  0.30495000  1.0
  C  C121  1  0.97535000  0.87321000  0.27563000  1.0
  C  C122  1  0.94302000  0.89989000  0.28032000  1.0
  C  C123  1  0.35884000  0.18764000  0.02984000  1.0
  C  C124  1  0.37784000  0.22553000  0.02973000  1.0
  C  C125  1  0.39924000  0.22715000  0.06454000  1.0
  C  C126  1  0.30791000  0.03796000  0.15083000  1.0
  C  C127  1  0.28246000  0.02696000  0.12001000  1.0
  C  C128  1  0.29389000  0.05363000  0.09141000  1.0
  C  C129  1  0.46404000  0.16813000  0.19716000  1.0
  C  C130  1  0.46628000  0.14437000  0.22971000  1.0
  C  C131  1  0.43361000  0.11729000  0.22493000  1.0
  C  C132  1  0.11862000  0.84654000  0.08960000  1.0
  C  C133  1  0.09252000  0.84388000  0.12050000  1.0
  C  C134  1  0.09172000  0.87397000  0.14856000  1.0
  C  C135  1  0.12003000  0.90563000  0.14672000  1.0
  C  C136  1  0.14740000  0.90855000  0.11687000  1.0
  C  C137  1  0.14615000  0.87875000  0.08839000  1.0
  C  C138  1  0.62171000  0.15559000  0.40812000  1.0
  C  C139  1  0.65346000  0.12798000  0.40540000  1.0
  C  C140  1  0.65652000  0.10182000  0.37422000  1.0
  C  C141  1  0.62631000  0.10307000  0.34570000  1.0
  C  C142  1  0.59308000  0.12866000  0.34858000  1.0
  C  C143  1  0.59116000  0.15477000  0.37997000  1.0
  C  C144  1  0.38277000  0.34506000  0.90685000  1.0
  C  C145  1  0.40735000  0.34257000  0.87491000  1.0
  C  C146  1  0.40533000  0.37131000  0.84620000  1.0
  C  C147  1  0.37744000  0.40257000  0.84988000  1.0
  C  C148  1  0.35156000  0.40534000  0.88095000  1.0
  C  C149  1  0.35456000  0.37613000  0.90917000  1.0
  C  C150  1  0.87802000  0.66137000  0.59063000  1.0
  C  C151  1  0.90900000  0.66125000  0.61839000  1.0
  C  C152  1  0.90964000  0.63283000  0.64744000  1.0
  C  C153  1  0.87776000  0.60479000  0.64895000  1.0
  C  C154  1  0.84634000  0.60396000  0.62163000  1.0
  C  C155  1  0.84745000  0.63182000  0.59217000  1.0
  C  C156  1  0.13087000  0.75452000  0.99684000  1.0
  C  C157  1  0.12181000  0.79374000  0.99240000  1.0
  C  C158  1  0.12337000  0.82356000  0.02242000  1.0
  C  C159  1  0.11595000  0.81645000  0.05936000  1.0
  C  C160  1  0.62355000  0.23886000  0.51045000  1.0
  C  C161  1  0.65411000  0.23120000  0.48631000  1.0
  C  C162  1  0.65382000  0.20097000  0.45674000  1.0
  C  C163  1  0.62066000  0.18590000  0.43813000  1.0
  C  C164  1  0.37454000  0.25516000  0.00043000  1.0
  C  C165  1  0.38419000  0.29460000  0.00428000  1.0
  C  C166  1  0.38151000  0.32358000  0.97423000  1.0
  C  C167  1  0.38744000  0.31582000  0.93702000  1.0
  C  C168  1  0.87554000  0.74269000  0.48915000  1.0
  C  C169  1  0.84450000  0.73420000  0.51252000  1.0
  C  C170  1  0.84498000  0.70472000  0.54213000  1.0
  C  C171  1  0.87814000  0.69208000  0.56160000  1.0
  C  C172  1  0.25206000  0.99566000  0.11892000  1.0
  C  C173  1  0.23006000  0.98399000  0.08784000  1.0
  C  C174  1  0.19884000  0.95338000  0.08696000  1.0
  C  C175  1  0.17673000  0.94146000  0.11689000  1.0
  C  C176  1  0.75742000  0.50113000  0.62915000  1.0
  C  C177  1  0.76769000  0.52761000  0.65719000  1.0
  C  C178  1  0.79944000  0.55764000  0.65524000  1.0
  C  C179  1  0.81284000  0.57520000  0.62331000  1.0
  C  C180  1  0.74339000  0.99921000  0.36755000  1.0
  C  C181  1  0.73476000  0.02540000  0.33951000  1.0
  C  C182  1  0.70369000  0.05554000  0.34086000  1.0
  C  C183  1  0.69001000  0.07373000  0.37260000  1.0
  C  C184  1  0.24545000  0.48773000  0.88366000  1.0
  C  C185  1  0.26982000  0.47893000  0.91369000  1.0
  C  C186  1  0.30150000  0.44943000  0.91341000  1.0
  C  C187  1  0.32201000  0.43739000  0.88243000  1.0
  C  C188  1  0.00703000  0.87359000  0.24801000  1.0
  C  C189  1  0.01543000  0.90448000  0.22466000  1.0
  C  C190  1  0.04598000  0.90485000  0.19589000  1.0
  C  C191  1  0.06090000  0.87241000  0.17757000  1.0
  C  C192  1  0.50403000  0.36754000  0.76056000  1.0
  C  C193  1  0.47930000  0.33655000  0.76969000  1.0
  C  C194  1  0.45063000  0.33712000  0.80012000  1.0
  C  C195  1  0.43163000  0.37004000  0.81350000  1.0
  C  C196  1  0.99865000  0.63061000  0.74576000  1.0
  C  C197  1  0.98687000  0.59924000  0.72329000  1.0
  C  C198  1  0.95542000  0.60012000  0.69440000  1.0
  C  C199  1  0.94319000  0.63268000  0.67483000  1.0
  C  C200  1  0.49579000  0.14719000  0.26033000  1.0
  C  C201  1  0.49036000  0.13362000  0.29591000  1.0
  C  C202  1  0.52145000  0.13389000  0.32529000  1.0
  C  C203  1  0.56122000  0.12714000  0.31938000  1.0
  N  N204  1  0.60770000  0.30766000  0.58997000  1.0
  N  N205  1  0.64060000  0.32549000  0.57345000  1.0
  N  N206  1  0.68670000  0.41733000  0.61478000  1.0
  N  N207  1  0.67223000  0.43334000  0.64787000  1.0
  N  N208  1  0.58413000  0.38627000  0.69280000  1.0
  N  N209  1  0.56722000  0.35173000  0.67759000  1.0
  N  N210  1  0.11211000  0.68888000  0.91447000  1.0
  N  N211  1  0.13634000  0.66518000  0.93676000  1.0
  N  N212  1  0.17561000  0.57073000  0.89817000  1.0
  N  N213  1  0.16354000  0.55723000  0.86279000  1.0
  N  N214  1  0.08137000  0.60977000  0.81277000  1.0
  N  N215  1  0.06869000  0.64647000  0.82577000  1.0
  N  N216  1  0.89270000  0.81002000  0.41002000  1.0
  N  N217  1  0.85793000  0.82600000  0.42452000  1.0
  N  N218  1  0.81248000  0.91587000  0.38242000  1.0
  N  N219  1  0.82911000  0.93283000  0.35090000  1.0
  N  N220  1  0.92072000  0.88896000  0.31006000  1.0
  N  N221  1  0.93756000  0.85521000  0.32548000  1.0
  N  N222  1  0.39314000  0.19304000  0.08368000  1.0
  N  N223  1  0.36790000  0.16851000  0.06219000  1.0
  N  N224  1  0.32363000  0.07825000  0.10433000  1.0
  N  N225  1  0.33239000  0.06862000  0.14129000  1.0
  N  N226  1  0.41359000  0.12459000  0.19226000  1.0
  N  N227  1  0.43235000  0.15636000  0.17507000  1.0
