# generated using pymatgen
data_SmH13C12S3(N3O4)2
_symmetry_space_group_name_H-M   'P 1'
_cell_length_a   9.80171000
_cell_length_b   10.30780000
_cell_length_c   11.03290000
_cell_angle_alpha   104.27300000
_cell_angle_beta   109.77200000
_cell_angle_gamma   94.80890000
_symmetry_Int_Tables_number   1
_chemical_formula_structural   SmH13C12S3(N3O4)2
_chemical_formula_sum   'Sm2 H26 C24 S6 N12 O16'
_cell_volume   999.36559541
_cell_formula_units_Z   2
loop_
 _symmetry_equiv_pos_site_id
 _symmetry_equiv_pos_as_xyz
  1  'x, y, z'
loop_
 _atom_site_type_symbol
 _atom_site_label
 _atom_site_symmetry_multiplicity
 _atom_site_fract_x
 _atom_site_fract_y
 _atom_site_fract_z
 _atom_site_occupancy
  Sm  Sm0  1  0.76960000  0.00909000  0.50027000  1.0
  Sm  Sm1  1  0.23040000  0.99090000  0.49973000  1.0
  H  H2  1  0.54254000  0.84710000  0.57315000  1.0
  H  H3  1  0.45746000  0.15289000  0.42685000  1.0
  H  H4  1  0.69336000  0.86352000  0.69040000  1.0
  H  H5  1  0.30663000  0.13647000  0.30960000  1.0
  H  H6  1  0.67208000  0.22417000  0.33742000  1.0
  H  H7  1  0.32792000  0.77583000  0.66258000  1.0
  H  H8  1  0.55083000  0.08713000  0.26650000  1.0
  H  H9  1  0.44917000  0.91287000  0.73350000  1.0
  H  H10  1  0.42587000  0.54763000  0.59770000  1.0
  H  H11  1  0.57413000  0.45236000  0.40229000  1.0
  H  H12  1  0.33301000  0.37199000  0.52660000  1.0
  H  H13  1  0.66699000  0.62801000  0.47339000  1.0
  H  H14  1  0.43868000  0.43658000  0.70012000  1.0
  H  H15  1  0.56132000  0.56341000  0.29987000  1.0
  H  H16  1  0.49623000  0.68762000  0.93782000  1.0
  H  H17  1  0.50377000  0.31239000  0.06219000  1.0
  H  H18  1  0.60658000  0.64600000  0.08288000  1.0
  H  H19  1  0.39342000  0.35401000  0.91712000  1.0
  H  H20  1  0.56405000  0.81126000  0.10207000  1.0
  H  H21  1  0.43595000  0.18874000  0.89794000  1.0
  H  H22  1  0.95615000  0.78340000  0.86567000  1.0
  H  H23  1  0.04385000  0.21660000  0.13433000  1.0
  H  H24  1  0.91308000  0.69705000  0.97371000  1.0
  H  H25  1  0.08692000  0.30295000  0.02629000  1.0
  H  H26  1  0.05740000  0.84047000  0.04415000  1.0
  H  H27  1  0.94260000  0.15954000  0.95586000  1.0
  C  C28  1  0.06007000  0.27085000  0.57942000  1.0
  C  C29  1  0.93993000  0.72914000  0.42059000  1.0
  C  C30  1  0.10700000  0.42215000  0.62940000  1.0
  C  C31  1  0.89301000  0.57785000  0.37060000  1.0
  C  C32  1  0.23369000  0.50510000  0.64093000  1.0
  C  C33  1  0.76632000  0.49490000  0.35907000  1.0
  C  C34  1  0.36463000  0.46318000  0.61332000  1.0
  C  C35  1  0.63537000  0.53681000  0.38667000  1.0
  C  C36  1  0.42308000  0.82032000  0.30242000  1.0
  C  C37  1  0.57693000  0.17968000  0.69758000  1.0
  C  C38  1  0.34432000  0.70762000  0.17652000  1.0
  C  C39  1  0.65568000  0.29238000  0.82348000  1.0
  C  C40  1  0.38394000  0.65673000  0.06621000  1.0
  C  C41  1  0.61606000  0.34327000  0.93379000  1.0
  C  C42  1  0.52009000  0.70391000  0.04567000  1.0
  C  C43  1  0.47991000  0.29610000  0.95433000  1.0
  C  C44  1  0.93130000  0.98218000  0.24430000  1.0
  C  C45  1  0.06870000  0.01783000  0.75571000  1.0
  C  C46  1  0.83648000  0.96745000  0.10106000  1.0
  C  C47  1  0.16352000  0.03256000  0.89894000  1.0
  C  C48  1  0.84162000  0.88754000  0.98117000  1.0
  C  C49  1  0.15837000  0.11246000  0.01882000  1.0
  C  C50  1  0.94865000  0.79719000  0.96479000  1.0
  C  C51  1  0.05135000  0.20282000  0.03521000  1.0
  S  S52  1  0.99711000  0.52494000  0.67789000  1.0
  S  S53  1  0.00290000  0.47505000  0.32211000  1.0
  S  S54  1  0.17850000  0.61736000  0.14883000  1.0
  S  S55  1  0.82150000  0.38264000  0.85116000  1.0
  S  S56  1  0.69105000  0.04793000  0.06210000  1.0
  S  S57  1  0.30895000  0.95207000  0.93790000  1.0
  N  N58  1  0.23004000  0.64045000  0.68472000  1.0
  N  N59  1  0.76996000  0.35955000  0.31528000  1.0
  N  N60  1  0.11188000  0.66733000  0.70922000  1.0
  N  N61  1  0.88811000  0.33267000  0.29077000  1.0
  N  N62  1  0.28015000  0.55048000  0.96955000  1.0
  N  N63  1  0.71985000  0.44952000  0.03045000  1.0
  N  N64  1  0.16615000  0.51736000  0.99850000  1.0
  N  N65  1  0.83385000  0.48264000  0.00149000  1.0
  N  N66  1  0.72942000  0.89570000  0.87037000  1.0
  N  N67  1  0.27058000  0.10430000  0.12962000  1.0
  N  N68  1  0.64068000  0.97641000  0.89651000  1.0
  N  N69  1  0.35931000  0.02359000  0.10349000  1.0
  O  O70  1  0.93514000  0.22526000  0.57915000  1.0
  O  O71  1  0.06487000  0.77473000  0.42085000  1.0
  O  O72  1  0.64898000  0.85465000  0.59258000  1.0
  O  O73  1  0.35102000  0.14535000  0.40742000  1.0
  O  O74  1  0.14691000  0.20278000  0.54106000  1.0
  O  O75  1  0.85309000  0.79721000  0.45894000  1.0
  O  O76  1  0.62229000  0.14468000  0.35442000  1.0
  O  O77  1  0.37771000  0.85532000  0.64558000  1.0
  O  O78  1  0.55298000  0.87339000  0.32273000  1.0
  O  O79  1  0.44702000  0.12661000  0.67727000  1.0
  O  O80  1  0.35484000  0.85290000  0.38169000  1.0
  O  O81  1  0.64516000  0.14709000  0.61832000  1.0
  O  O82  1  0.86756000  0.99899000  0.32790000  1.0
  O  O83  1  0.13244000  0.00101000  0.67210000  1.0
  O  O84  1  0.06624000  0.97587000  0.27024000  1.0
  O  O85  1  0.93376000  0.02412000  0.72976000  1.0
