# generated using pymatgen
data_CdH3C2BrN4
_symmetry_space_group_name_H-M   'P 1'
_cell_length_a   6.49974000
_cell_length_b   7.99284000
_cell_length_c   10.48600000
_cell_angle_alpha   89.99980000
_cell_angle_beta   90.00010000
_cell_angle_gamma   89.99970000
_symmetry_Int_Tables_number   1
_chemical_formula_structural   CdH3C2BrN4
_chemical_formula_sum   'Cd4 H12 C8 Br4 N16'
_cell_volume   544.76219019
_cell_formula_units_Z   4
loop_
 _symmetry_equiv_pos_site_id
 _symmetry_equiv_pos_as_xyz
  1  'x, y, z'
loop_
 _atom_site_type_symbol
 _atom_site_label
 _atom_site_symmetry_multiplicity
 _atom_site_fract_x
 _atom_site_fract_y
 _atom_site_fract_z
 _atom_site_occupancy
  Cd  Cd0  1  0.00665000  0.68871000  0.24383000  1.0
  Cd  Cd1  1  0.49335000  0.31129000  0.74383000  1.0
  Cd  Cd2  1  0.99335000  0.18871000  0.25617000  1.0
  Cd  Cd3  1  0.50665000  0.81129000  0.75617000  1.0
  H  H4  1  0.23640000  0.80392000  0.99076000  1.0
  H  H5  1  0.26361000  0.19609000  0.49076000  1.0
  H  H6  1  0.76361000  0.30392000  0.50925000  1.0
  H  H7  1  0.73639000  0.69608000  0.00925000  1.0
  H  H8  1  0.13095000  0.72064000  0.86007000  1.0
  H  H9  1  0.36905000  0.27936000  0.36007000  1.0
  H  H10  1  0.86906000  0.22064000  0.63993000  1.0
  H  H11  1  0.63095000  0.77936000  0.13993000  1.0
  H  H12  1  0.32366000  0.16188000  0.00858000  1.0
  H  H13  1  0.17633000  0.83811000  0.50858000  1.0
  H  H14  1  0.67634000  0.66189000  0.49142000  1.0
  H  H15  1  0.82366000  0.33811000  0.99142000  1.0
  C  C16  1  0.28567000  0.29339000  0.01812000  1.0
  C  C17  1  0.21432000  0.70663000  0.51811000  1.0
  C  C18  1  0.71433000  0.79338000  0.48188000  1.0
  C  C19  1  0.78566000  0.20660000  0.98188000  1.0
  C  C20  1  0.24883000  0.55310000  0.98198000  1.0
  C  C21  1  0.25118000  0.44690000  0.48197000  1.0
  C  C22  1  0.75118000  0.05311000  0.51803000  1.0
  C  C23  1  0.74882000  0.94689000  0.01802000  1.0
  Br  Br24  1  0.69726000  0.43669000  0.27988000  1.0
  Br  Br25  1  0.80273000  0.56331000  0.77989000  1.0
  Br  Br26  1  0.30274000  0.93669000  0.22011000  1.0
  Br  Br27  1  0.19726000  0.06331000  0.72012000  1.0
  N  N28  1  0.16338000  0.52268000  0.09602000  1.0
  N  N29  1  0.33663000  0.47732000  0.59602000  1.0
  N  N30  1  0.83663000  0.02269000  0.40399000  1.0
  N  N31  1  0.66337000  0.97731000  0.90398000  1.0
  N  N32  1  0.32782000  0.41201000  0.92979000  1.0
  N  N33  1  0.17218000  0.58798000  0.42979000  1.0
  N  N34  1  0.67218000  0.91202000  0.57021000  1.0
  N  N35  1  0.82782000  0.08798000  0.07021000  1.0
  N  N36  1  0.25182000  0.71157000  0.92323000  1.0
  N  N37  1  0.24818000  0.28843000  0.42323000  1.0
  N  N38  1  0.74819000  0.21158000  0.57678000  1.0
  N  N39  1  0.75182000  0.78842000  0.07678000  1.0
  N  N40  1  0.18932000  0.35527000  0.11943000  1.0
  N  N41  1  0.31068000  0.64473000  0.61943000  1.0
  N  N42  1  0.81069000  0.85528000  0.38057000  1.0
  N  N43  1  0.68932000  0.14472000  0.88057000  1.0
