# generated using pymatgen
data_ZnH14C14NO7
_symmetry_space_group_name_H-M   'P 1'
_cell_length_a   7.38813000
_cell_length_b   8.09772000
_cell_length_c   12.18950000
_cell_angle_alpha   107.94600000
_cell_angle_beta   92.96640000
_cell_angle_gamma   96.83500000
_symmetry_Int_Tables_number   1
_chemical_formula_structural   ZnH14C14NO7
_chemical_formula_sum   'Zn2 H28 C28 N2 O14'
_cell_volume   685.82551676
_cell_formula_units_Z   2
loop_
 _symmetry_equiv_pos_site_id
 _symmetry_equiv_pos_as_xyz
  1  'x, y, z'
loop_
 _atom_site_type_symbol
 _atom_site_label
 _atom_site_symmetry_multiplicity
 _atom_site_fract_x
 _atom_site_fract_y
 _atom_site_fract_z
 _atom_site_occupancy
  Zn  Zn0  1  0.34852000  0.27071000  0.45318000  1.0
  Zn  Zn1  1  0.65148000  0.72928000  0.54682000  1.0
  H  H2  1  0.71664000  0.15058000  0.16018000  1.0
  H  H3  1  0.28336000  0.84942000  0.83982000  1.0
  H  H4  1  0.66185000  0.28889000  0.06230000  1.0
  H  H5  1  0.33816000  0.71111000  0.93770000  1.0
  H  H6  1  0.62493000  0.44505000  0.92178000  1.0
  H  H7  1  0.37507000  0.55495000  0.07822000  1.0
  H  H8  1  0.14055000  0.54826000  0.40213000  1.0
  H  H9  1  0.85945000  0.45174000  0.59787000  1.0
  H  H10  1  0.01218000  0.62201000  0.23451000  1.0
  H  H11  1  0.98782000  0.37800000  0.76549000  1.0
  H  H12  1  0.14601000  0.12872000  0.01463000  1.0
  H  H13  1  0.85398000  0.87129000  0.98537000  1.0
  H  H14  1  0.26787000  0.07537000  0.19377000  1.0
  H  H15  1  0.73213000  0.92463000  0.80622000  1.0
  H  H16  1  0.01401000  0.31247000  0.92173000  1.0
  H  H17  1  0.98598000  0.68754000  0.07828000  1.0
  H  H18  1  0.00258000  0.23173000  0.46702000  1.0
  H  H19  1  0.99742000  0.76827000  0.53298000  1.0
  H  H20  1  0.17689000  0.95106000  0.36262000  1.0
  H  H21  1  0.82310000  0.04894000  0.63738000  1.0
  H  H22  1  0.58941000  0.42565000  0.35474000  1.0
  H  H23  1  0.41058000  0.57435000  0.64526000  1.0
  H  H24  1  0.10003000  0.22324000  0.58537000  1.0
  H  H25  1  0.89997000  0.77676000  0.41463000  1.0
  H  H26  1  0.38710000  0.91449000  0.38641000  1.0
  H  H27  1  0.61290000  0.08551000  0.61359000  1.0
  H  H28  1  0.68479000  0.28715000  0.40111000  1.0
  H  H29  1  0.31521000  0.71285000  0.59889000  1.0
  C  C30  1  0.66867000  0.92607000  0.21650000  1.0
  C  C31  1  0.33133000  0.07393000  0.78350000  1.0
  C  C32  1  0.63846000  0.02051000  0.14066000  1.0
  C  C33  1  0.36154000  0.97949000  0.85934000  1.0
  C  C34  1  0.51510000  0.94946000  0.04012000  1.0
  C  C35  1  0.48490000  0.05054000  0.95988000  1.0
  C  C36  1  0.57423000  0.22252000  0.98255000  1.0
  C  C37  1  0.42578000  0.77748000  0.01745000  1.0
  C  C38  1  0.55036000  0.31426000  0.90458000  1.0
  C  C39  1  0.44964000  0.68573000  0.09543000  1.0
  C  C40  1  0.56704000  0.75942000  0.19662000  1.0
  C  C41  1  0.43296000  0.24058000  0.80338000  1.0
  C  C42  1  0.56918000  0.66770000  0.28622000  1.0
  C  C43  1  0.43081000  0.33229000  0.71378000  1.0
  C  C44  1  0.17862000  0.00301000  0.68805000  1.0
  C  C45  1  0.82138000  0.99699000  0.31195000  1.0
  C  C46  1  0.14107000  0.45968000  0.31461000  1.0
  C  C47  1  0.85893000  0.54032000  0.68539000  1.0
  C  C48  1  0.06987000  0.50018000  0.22006000  1.0
  C  C49  1  0.93013000  0.49983000  0.77995000  1.0
  C  C50  1  0.07381000  0.38354000  0.10770000  1.0
  C  C51  1  0.92618000  0.61647000  0.89230000  1.0
  C  C52  1  0.14145000  0.22523000  0.09914000  1.0
  C  C53  1  0.85854000  0.77478000  0.90086000  1.0
  C  C54  1  0.21063000  0.19492000  0.19824000  1.0
  C  C55  1  0.78936000  0.80508000  0.80176000  1.0
  C  C56  1  0.01869000  0.42125000  0.00226000  1.0
  C  C57  1  0.98130000  0.57876000  0.99774000  1.0
  N  N58  1  0.21387000  0.31132000  0.30472000  1.0
  N  N59  1  0.78613000  0.68868000  0.69528000  1.0
  O  O60  1  0.59362000  0.50943000  0.25654000  1.0
  O  O61  1  0.40637000  0.49056000  0.74346000  1.0
  O  O62  1  0.53907000  0.76143000  0.38897000  1.0
  O  O63  1  0.46093000  0.23856000  0.61103000  1.0
  O  O64  1  0.06493000  0.10591000  0.67883000  1.0
  O  O65  1  0.93507000  0.89409000  0.32117000  1.0
  O  O66  1  0.16499000  0.84305000  0.62563000  1.0
  O  O67  1  0.83501000  0.15695000  0.37436000  1.0
  O  O68  1  0.10850000  0.28925000  0.52892000  1.0
  O  O69  1  0.89150000  0.71075000  0.47108000  1.0
  O  O70  1  0.30868000  0.99997000  0.37348000  1.0
  O  O71  1  0.69131000  0.00002000  0.62652000  1.0
  O  O72  1  0.59494000  0.37371000  0.42163000  1.0
  O  O73  1  0.40506000  0.62629000  0.57837000  1.0
