# generated using pymatgen
data_NaCu2H19(CO)12
_symmetry_space_group_name_H-M   'P 1'
_cell_length_a   8.05251000
_cell_length_b   11.57560000
_cell_length_c   11.57550000
_cell_angle_alpha   101.83200000
_cell_angle_beta   104.95200000
_cell_angle_gamma   104.95200000
_symmetry_Int_Tables_number   1
_chemical_formula_structural   NaCu2H19(CO)12
_chemical_formula_sum   'Na2 Cu4 H38 C24 O24'
_cell_volume   963.57484579
_cell_formula_units_Z   2
loop_
 _symmetry_equiv_pos_site_id
 _symmetry_equiv_pos_as_xyz
  1  'x, y, z'
loop_
 _atom_site_type_symbol
 _atom_site_label
 _atom_site_symmetry_multiplicity
 _atom_site_fract_x
 _atom_site_fract_y
 _atom_site_fract_z
 _atom_site_occupancy
  Na  Na0  1  0.25000000  0.60507000  0.39493000  1.0
  Na  Na1  1  0.75000000  0.39493000  0.60507000  1.0
  Cu  Cu2  1  0.95560000  0.48672000  0.09563000  1.0
  Cu  Cu3  1  0.54440000  0.90437000  0.51328000  1.0
  Cu  Cu4  1  0.04440000  0.51327000  0.90435000  1.0
  Cu  Cu5  1  0.45560000  0.09564000  0.48673000  1.0
  H  H6  1  0.60564000  0.23716000  0.26972000  1.0
  H  H7  1  0.89436000  0.73028000  0.76284000  1.0
  H  H8  1  0.39436000  0.76284000  0.73029000  1.0
  H  H9  1  0.10564000  0.26972000  0.23716000  1.0
  H  H10  1  0.70520000  0.25584000  0.14885000  1.0
  H  H11  1  0.79480000  0.85115000  0.74416000  1.0
  H  H12  1  0.29480000  0.74416000  0.85116000  1.0
  H  H13  1  0.20520000  0.14885000  0.25584000  1.0
  H  H14  1  0.56623000  0.34434000  0.18212000  1.0
  H  H15  1  0.93378000  0.81788000  0.65567000  1.0
  H  H16  1  0.43378000  0.65566000  0.81789000  1.0
  H  H17  1  0.06622000  0.18212000  0.34434000  1.0
  H  H18  1  0.14656000  0.14624000  0.93689000  1.0
  H  H19  1  0.35344000  0.06311000  0.85376000  1.0
  H  H20  1  0.85344000  0.85375000  0.06310000  1.0
  H  H21  1  0.64656000  0.93689000  0.14625000  1.0
  H  H22  1  0.94827000  0.08991000  0.97856000  1.0
  H  H23  1  0.55172000  0.02144000  0.91010000  1.0
  H  H24  1  0.05172000  0.91010000  0.02143000  1.0
  H  H25  1  0.44828000  0.97856000  0.08990000  1.0
  H  H26  1  0.92891000  0.08971000  0.82025000  1.0
  H  H27  1  0.57108000  0.17975000  0.91029000  1.0
  H  H28  1  0.07109000  0.91027000  0.17974000  1.0
  H  H29  1  0.42892000  0.82025000  0.08972000  1.0
  H  H30  1  0.59026000  0.70102000  0.24346000  1.0
  H  H31  1  0.90975000  0.75655000  0.29899000  1.0
  H  H32  1  0.40973000  0.29898000  0.75655000  1.0
  H  H33  1  0.09026000  0.24345000  0.70101000  1.0
  H  H34  1  0.55301000  0.55420000  0.27290000  1.0
  H  H35  1  0.94698000  0.72710000  0.44580000  1.0
  H  H36  1  0.44697000  0.44580000  0.72710000  1.0
  H  H37  1  0.05302000  0.27290000  0.55420000  1.0
  H  H38  1  0.61718000  0.57529000  0.13820000  1.0
  H  H39  1  0.88282000  0.86180000  0.42472000  1.0
  H  H40  1  0.38283000  0.42472000  0.86181000  1.0
  H  H41  1  0.11717000  0.13820000  0.57528000  1.0
  H  H42  1  0.00000000  0.50000000  0.50000000  1.0
  H  H43  1  0.50000000  0.50000000  0.50000000  1.0
  C  C44  1  0.83137000  0.40702000  0.31662000  1.0
  C  C45  1  0.66864000  0.68338000  0.59298000  1.0
  C  C46  1  0.16865000  0.59299000  0.68337000  1.0
  C  C47  1  0.33136000  0.31662000  0.40702000  1.0
  C  C48  1  0.66634000  0.30328000  0.22476000  1.0
  C  C49  1  0.83366000  0.77524000  0.69672000  1.0
  C  C50  1  0.33366000  0.69672000  0.77524000  1.0
  C  C51  1  0.16634000  0.22476000  0.30328000  1.0
  C  C52  1  0.99519000  0.27190000  0.94820000  1.0
  C  C53  1  0.50482000  0.05179000  0.72811000  1.0
  C  C54  1  0.00482000  0.72810000  0.05176000  1.0
  C  C55  1  0.49518000  0.94822000  0.27190000  1.0
  C  C56  1  0.00323000  0.14029000  0.91920000  1.0
  C  C57  1  0.49677000  0.08080000  0.85971000  1.0
  C  C58  1  0.99677000  0.85970000  0.08079000  1.0
  C  C59  1  0.50323000  0.91920000  0.14030000  1.0
  C  C60  1  0.34190000  0.56579000  0.12337000  1.0
  C  C61  1  0.15811000  0.87662000  0.43422000  1.0
  C  C62  1  0.65810000  0.43420000  0.87661000  1.0
  C  C63  1  0.84189000  0.12339000  0.56579000  1.0
  C  C64  1  0.53909000  0.59963000  0.19838000  1.0
  C  C65  1  0.96091000  0.80162000  0.40037000  1.0
  C  C66  1  0.46090000  0.40037000  0.80162000  1.0
  C  C67  1  0.03909000  0.19838000  0.59963000  1.0
  O  O68  1  0.93719000  0.48131000  0.28099000  1.0
  O  O69  1  0.56281000  0.71902000  0.51868000  1.0
  O  O70  1  0.06280000  0.51868000  0.71902000  1.0
  O  O71  1  0.43718000  0.28099000  0.48131000  1.0
  O  O72  1  0.85963000  0.41649000  0.43440000  1.0
  O  O73  1  0.64037000  0.56560000  0.58352000  1.0
  O  O74  1  0.14037000  0.58352000  0.56561000  1.0
  O  O75  1  0.35963000  0.43440000  0.41649000  1.0
  O  O76  1  0.95136000  0.30993000  0.04388000  1.0
  O  O77  1  0.54864000  0.95612000  0.69008000  1.0
  O  O78  1  0.04863000  0.69007000  0.95609000  1.0
  O  O79  1  0.45136000  0.04389000  0.30993000  1.0
  O  O80  1  0.03563000  0.33503000  0.87530000  1.0
  O  O81  1  0.46438000  0.12470000  0.66497000  1.0
  O  O82  1  0.96438000  0.66496000  0.12468000  1.0
  O  O83  1  0.53562000  0.87530000  0.33504000  1.0
  O  O84  1  0.30351000  0.56504000  0.00918000  1.0
  O  O85  1  0.19650000  0.99083000  0.43497000  1.0
  O  O86  1  0.69649000  0.43497000  0.99083000  1.0
  O  O87  1  0.80351000  0.00918000  0.56503000  1.0
  O  O88  1  0.22572000  0.54233000  0.18010000  1.0
  O  O89  1  0.27428000  0.81989000  0.45767000  1.0
  O  O90  1  0.77427000  0.45765000  0.81989000  1.0
  O  O91  1  0.72573000  0.18011000  0.54234000  1.0
