# generated using pymatgen
data_Zn2H14C10N2O9
_symmetry_space_group_name_H-M   'P 1'
_cell_length_a   9.40863000
_cell_length_b   11.31230000
_cell_length_c   12.75230000
_cell_angle_alpha   90.00000000
_cell_angle_beta   90.00000000
_cell_angle_gamma   90.00000000
_symmetry_Int_Tables_number   1
_chemical_formula_structural   Zn2H14C10N2O9
_chemical_formula_sum   'Zn8 H56 C40 N8 O36'
_cell_volume   1357.26867211
_cell_formula_units_Z   4
loop_
 _symmetry_equiv_pos_site_id
 _symmetry_equiv_pos_as_xyz
  1  'x, y, z'
loop_
 _atom_site_type_symbol
 _atom_site_label
 _atom_site_symmetry_multiplicity
 _atom_site_fract_x
 _atom_site_fract_y
 _atom_site_fract_z
 _atom_site_occupancy
  Zn  Zn0  1  0.39165000  0.32171000  0.42142000  1.0
  Zn  Zn1  1  0.89166000  0.67829000  0.57858000  1.0
  Zn  Zn2  1  0.39165000  0.17829000  0.92142000  1.0
  Zn  Zn3  1  0.89165000  0.82171000  0.07858000  1.0
  Zn  Zn4  1  0.90426000  0.09834000  0.75635000  1.0
  Zn  Zn5  1  0.40425000  0.90166000  0.24365000  1.0
  Zn  Zn6  1  0.90425000  0.40166000  0.25635000  1.0
  Zn  Zn7  1  0.40425000  0.59834000  0.74365000  1.0
  H  H8  1  0.48191000  0.24096000  0.66033000  1.0
  H  H9  1  0.98191000  0.75904000  0.33967000  1.0
  H  H10  1  0.48191000  0.25904000  0.16033000  1.0
  H  H11  1  0.98191000  0.74096000  0.83967000  1.0
  H  H12  1  0.55625000  0.10262000  0.62901000  1.0
  H  H13  1  0.05625000  0.89738000  0.37099000  1.0
  H  H14  1  0.55625000  0.39738000  0.12901000  1.0
  H  H15  1  0.05625000  0.60262000  0.87099000  1.0
  H  H16  1  0.35282000  0.06073000  0.50740000  1.0
  H  H17  1  0.85282000  0.93927000  0.49260000  1.0
  H  H18  1  0.35282000  0.43927000  0.00740000  1.0
  H  H19  1  0.85282000  0.56073000  0.99260000  1.0
  H  H20  1  0.30073000  0.08477000  0.63956000  1.0
  H  H21  1  0.80073000  0.91523000  0.36044000  1.0
  H  H22  1  0.30073000  0.41524000  0.13956000  1.0
  H  H23  1  0.80073000  0.58477000  0.86044000  1.0
  H  H24  1  0.61915000  0.39165000  0.58556000  1.0
  H  H25  1  0.11915000  0.60835000  0.41444000  1.0
  H  H26  1  0.61915000  0.10835000  0.08556000  1.0
  H  H27  1  0.11915000  0.89165000  0.91444000  1.0
  H  H28  1  0.73078000  0.35663000  0.47876000  1.0
  H  H29  1  0.23078000  0.64337000  0.52124000  1.0
  H  H30  1  0.73078000  0.14337000  0.97876000  1.0
  H  H31  1  0.23078000  0.85663000  0.02123000  1.0
  H  H32  1  0.67126000  0.06836000  0.47941000  1.0
  H  H33  1  0.17126000  0.93164000  0.52059000  1.0
  H  H34  1  0.67126000  0.43164000  0.97941000  1.0
  H  H35  1  0.17126000  0.56836000  0.02059000  1.0
  H  H36  1  0.72003000  0.18396000  0.39418000  1.0
  H  H37  1  0.22003000  0.81604000  0.60582000  1.0
  H  H38  1  0.72002000  0.31604000  0.89418000  1.0
  H  H39  1  0.22002000  0.68396000  0.10582000  1.0
  H  H40  1  0.22624000  0.26636000  0.69257000  1.0
  H  H41  1  0.72624000  0.73364000  0.30743000  1.0
  H  H42  1  0.22624000  0.23364000  0.19257000  1.0
  H  H43  1  0.72624000  0.76636000  0.80743000  1.0
  H  H44  1  0.09203000  0.32178000  0.61081000  1.0
  H  H45  1  0.59203000  0.67822000  0.38919000  1.0
  H  H46  1  0.09203000  0.17822000  0.11081000  1.0
  H  H47  1  0.59203000  0.82178000  0.88919000  1.0
  H  H48  1  0.03973000  0.15554000  0.51475000  1.0
  H  H49  1  0.53973000  0.84446000  0.48525000  1.0
  H  H50  1  0.03973000  0.34446000  0.01475000  1.0
  H  H51  1  0.53973000  0.65554000  0.98525000  1.0
  H  H52  1  0.16511000  0.11011000  0.41763000  1.0
  H  H53  1  0.66511000  0.88989000  0.58237000  1.0
  H  H54  1  0.16511000  0.38988000  0.91763000  1.0
  H  H55  1  0.66511000  0.61011000  0.08237000  1.0
  H  H56  1  0.41388000  0.52123000  0.32705000  1.0
  H  H57  1  0.91388000  0.47877000  0.67295000  1.0
  H  H58  1  0.41388000  0.97877000  0.82705000  1.0
  H  H59  1  0.91388000  0.02123000  0.17295000  1.0
  H  H60  1  0.56808000  0.46331000  0.31557000  1.0
  H  H61  1  0.06808000  0.53670000  0.68443000  1.0
  H  H62  1  0.56808000  0.03669000  0.81557000  1.0
  H  H63  1  0.06808000  0.96331000  0.18443000  1.0
  C  C64  1  0.49211000  0.17533000  0.59735000  1.0
  C  C65  1  0.99211000  0.82467000  0.40265000  1.0
  C  C66  1  0.49211000  0.32467000  0.09735000  1.0
  C  C67  1  0.99211000  0.67533000  0.90265000  1.0
  C  C68  1  0.34558000  0.12784000  0.56948000  1.0
  C  C69  1  0.84558000  0.87216000  0.43052000  1.0
  C  C70  1  0.34558000  0.37216000  0.06948000  1.0
  C  C71  1  0.84558000  0.62784000  0.93052000  1.0
  C  C72  1  0.67446000  0.31850000  0.54626000  1.0
  C  C73  1  0.17446000  0.68150000  0.45374000  1.0
  C  C74  1  0.67446000  0.18150000  0.04626000  1.0
  C  C75  1  0.17446000  0.81850000  0.95374000  1.0
  C  C76  1  0.78730000  0.27178000  0.62175000  1.0
  C  C77  1  0.28730000  0.72822000  0.37825000  1.0
  C  C78  1  0.78730000  0.22822000  0.12175000  1.0
  C  C79  1  0.28730000  0.77178000  0.87825000  1.0
  C  C80  1  0.62938000  0.14464000  0.43629000  1.0
  C  C81  1  0.12938000  0.85536000  0.56371000  1.0
  C  C82  1  0.62938000  0.35536000  0.93629000  1.0
  C  C83  1  0.12938000  0.64464000  0.06371000  1.0
  C  C84  1  0.52372000  0.10234000  0.35393000  1.0
  C  C85  1  0.02372000  0.89766000  0.64607000  1.0
  C  C86  1  0.52372000  0.39766000  0.85393000  1.0
  C  C87  1  0.02372000  0.60234000  0.14607000  1.0
  C  C88  1  0.20721000  0.30525000  0.61466000  1.0
  C  C89  1  0.70721000  0.69475000  0.38534000  1.0
  C  C90  1  0.20721000  0.19475000  0.11466000  1.0
  C  C91  1  0.70721000  0.80525000  0.88534000  1.0
  C  C92  1  0.28350000  0.42351000  0.61365000  1.0
  C  C93  1  0.78350000  0.57649000  0.38635000  1.0
  C  C94  1  0.28350000  0.07649000  0.11365000  1.0
  C  C95  1  0.78350000  0.92351000  0.88635000  1.0
  C  C96  1  0.13116000  0.18448000  0.46743000  1.0
  C  C97  1  0.63116000  0.81552000  0.53257000  1.0
  C  C98  1  0.13116000  0.31551000  0.96743000  1.0
  C  C99  1  0.63116000  0.68448000  0.03257000  1.0
  C  C100  1  0.08781000  0.28341000  0.39247000  1.0
  C  C101  1  0.58781000  0.71659000  0.60753000  1.0
  C  C102  1  0.08781000  0.21659000  0.89247000  1.0
  C  C103  1  0.58781000  0.78341000  0.10753000  1.0
  N  N104  1  0.56794000  0.23274000  0.50820000  1.0
  N  N105  1  0.06794000  0.76726000  0.49180000  1.0
  N  N106  1  0.56794000  0.26726000  0.00820000  1.0
  N  N107  1  0.06794000  0.73274000  0.99180000  1.0
  N  N108  1  0.25213000  0.22338000  0.53109000  1.0
  N  N109  1  0.75213000  0.77662000  0.46891000  1.0
  N  N110  1  0.25213000  0.27662000  0.03109000  1.0
  N  N111  1  0.75213000  0.72338000  0.96891000  1.0
  O  O112  1  0.79602000  0.15879000  0.63390000  1.0
  O  O113  1  0.29602000  0.84121000  0.36610000  1.0
  O  O114  1  0.79602000  0.34121000  0.13390000  1.0
  O  O115  1  0.29603000  0.65879000  0.86610000  1.0
  O  O116  1  0.86570000  0.34406000  0.66869000  1.0
  O  O117  1  0.36570000  0.65594000  0.33131000  1.0
  O  O118  1  0.86570000  0.15594000  0.16869000  1.0
  O  O119  1  0.36570000  0.84406000  0.83131000  1.0
  O  O120  1  0.42337000  0.16978000  0.32558000  1.0
  O  O121  1  0.92337000  0.83022000  0.67442000  1.0
  O  O122  1  0.42337000  0.33022000  0.82558000  1.0
  O  O123  1  0.92337000  0.66978000  0.17442000  1.0
  O  O124  1  0.54726000  0.99913000  0.31719000  1.0
  O  O125  1  0.04726000  0.00087000  0.68281000  1.0
  O  O126  1  0.54726000  0.50087000  0.81719000  1.0
  O  O127  1  0.04726000  0.49913000  0.18281000  1.0
  O  O128  1  0.37988000  0.44588000  0.54847000  1.0
  O  O129  1  0.87989000  0.55412000  0.45153000  1.0
  O  O130  1  0.37989000  0.05412000  0.04847000  1.0
  O  O131  1  0.87988000  0.94588000  0.95153000  1.0
  O  O132  1  0.24474000  0.49716000  0.68578000  1.0
  O  O133  1  0.74474000  0.50284000  0.31422000  1.0
  O  O134  1  0.24474000  0.00284000  0.18578000  1.0
  O  O135  1  0.74474000  0.99716000  0.81422000  1.0
  O  O136  1  0.18149000  0.35444000  0.36021000  1.0
  O  O137  1  0.68149000  0.64556000  0.63979000  1.0
  O  O138  1  0.18149000  0.14556000  0.86021000  1.0
  O  O139  1  0.68149000  0.85444000  0.13979000  1.0
  O  O140  1  0.95716000  0.28556000  0.36433000  1.0
  O  O141  1  0.45716000  0.71444000  0.63567000  1.0
  O  O142  1  0.95716000  0.21444000  0.86433000  1.0
  O  O143  1  0.45716000  0.78556000  0.13567000  1.0
  O  O144  1  0.46538000  0.44350000  0.31913000  1.0
  O  O145  1  0.96538000  0.55650000  0.68087000  1.0
  O  O146  1  0.46538000  0.05650000  0.81913000  1.0
  O  O147  1  0.96538000  0.94350000  0.18087000  1.0
