# generated using pymatgen
data_ZnH10C13BrN4O
_symmetry_space_group_name_H-M   'P 1'
_cell_length_a   14.45020000
_cell_length_b   14.49600000
_cell_length_c   15.02883724
_cell_angle_alpha   117.33910408
_cell_angle_beta   105.28348266
_cell_angle_gamma   104.30400000
_symmetry_Int_Tables_number   1
_chemical_formula_structural   ZnH10C13BrN4O
_chemical_formula_sum   'Zn4 H40 C52 Br4 N16 O4'
_cell_volume   2435.94222321
_cell_formula_units_Z   4
loop_
 _symmetry_equiv_pos_site_id
 _symmetry_equiv_pos_as_xyz
  1  'x, y, z'
loop_
 _atom_site_type_symbol
 _atom_site_label
 _atom_site_symmetry_multiplicity
 _atom_site_fract_x
 _atom_site_fract_y
 _atom_site_fract_z
 _atom_site_occupancy
  Zn  Zn0  1  0.37586000  0.02682000  0.39357000  1.0
  Zn  Zn1  1  0.63416000  0.98240000  0.60683000  1.0
  Zn  Zn2  1  0.51621000  0.15355000  0.65914000  1.0
  Zn  Zn3  1  0.49498000  0.85709000  0.34100000  1.0
  H  H4  1  0.53656000  0.16201000  0.33524000  1.0
  H  H5  1  0.31657000  0.63384000  0.28786000  1.0
  H  H6  1  0.46039000  0.78372000  0.08843000  1.0
  H  H7  1  0.34544000  0.02803000  0.71185000  1.0
  H  H8  1  0.69493000  0.37157000  0.91152000  1.0
  H  H9  1  0.69342000  0.98947000  0.30378000  1.0
  H  H10  1  0.34216000  0.24508000  0.74635000  1.0
  H  H11  1  0.68517000  0.38876000  0.69613000  1.0
  H  H12  1  0.73090000  0.79279000  0.59773000  1.0
  H  H13  1  0.49862000  0.59632000  0.25408000  1.0
  H  H14  1  0.56640000  0.99409000  0.93778000  1.0
  H  H15  1  0.19208000  0.77565000  0.82790000  1.0
  H  H16  1  0.05599000  0.62695000  0.06068000  1.0
  H  H17  1  0.94799000  0.36549000  0.17336000  1.0
  H  H18  1  0.82623000  0.20127000  0.66465000  1.0
  H  H19  1  0.48366000  0.79202000  0.93506000  1.0
  H  H20  1  0.27402000  0.97570000  0.83036000  1.0
  H  H21  1  0.85640000  0.54780000  0.06434000  1.0
  H  H22  1  0.14580000  0.44413000  0.17000000  1.0
  H  H23  1  0.19531000  0.13299000  0.40231000  1.0
  H  H24  1  0.31284000  0.68590000  0.72292000  1.0
  H  H25  1  0.44344000  0.08195000  0.04346000  1.0
  H  H26  1  0.96227000  0.58990000  0.27686000  1.0
  H  H27  1  0.03910000  0.39956000  0.95648000  1.0
  H  H28  1  0.09718000  0.17161000  0.61823000  1.0
  H  H29  1  0.92016000  0.11125000  0.42401000  1.0
  H  H30  1  0.55260000  0.47966000  0.38208000  1.0
  H  H31  1  0.68688000  0.49542000  0.57660000  1.0
  H  H32  1  0.83847000  0.02735000  0.70018000  1.0
  H  H33  1  0.77784000  0.97455000  0.76832000  1.0
  H  H34  1  0.91729000  0.01766000  0.80655000  1.0
  H  H35  1  0.99296000  0.74024000  0.25594000  1.0
  H  H36  1  0.04285000  0.79228000  0.18232000  1.0
  H  H37  1  0.00887000  0.87974000  0.28766000  1.0
  H  H38  1  0.32807000  0.13891000  0.30041000  1.0
  H  H39  1  0.20667000  0.01123000  0.23284000  1.0
  H  H40  1  0.21219000  0.11192000  0.19417000  1.0
  H  H41  1  0.48487000  0.73777000  0.74408000  1.0
  H  H42  1  0.61057000  0.86056000  0.81674000  1.0
  H  H43  1  0.59252000  0.72152000  0.71134000  1.0
  C  C44  1  0.56413000  0.20241000  0.42431000  1.0
  C  C45  1  0.41519000  0.99442000  0.97133000  1.0
  C  C46  1  0.55409000  0.77931000  0.73626000  1.0
  C  C47  1  0.85000000  0.03604000  0.77969000  1.0
  C  C48  1  0.04209000  0.81672000  0.26306000  1.0
  C  C49  1  0.25713000  0.07139000  0.22113000  1.0
  C  C50  1  0.98005000  0.54905000  0.20562000  1.0
  C  C51  1  0.02335000  0.44349000  0.02855000  1.0
  C  C52  1  0.34327000  0.77459000  0.79420000  1.0
  C  C53  1  0.90589000  0.17061000  0.49106000  1.0
  C  C54  1  0.14054000  0.22106000  0.59313000  1.0
  C  C55  1  0.67891000  0.41447000  0.50895000  1.0
  C  C56  1  0.67361000  0.76262000  0.51597000  1.0
  C  C57  1  0.62743000  0.54779000  0.40732000  1.0
  C  C58  1  0.99191000  0.27235000  0.56857000  1.0
  C  C59  1  0.09654000  0.28545000  0.57286000  1.0
  C  C60  1  0.70304000  0.42350000  0.43135000  1.0
  C  C61  1  0.71212000  0.52389000  0.42763000  1.0
  C  C62  1  0.77793000  0.13983000  0.57558000  1.0
  C  C63  1  0.71974000  0.30259000  0.88113000  1.0
  C  C64  1  0.29328000  0.70421000  0.31033000  1.0
  C  C65  1  0.42187000  0.83899000  0.11906000  1.0
  C  C66  1  0.39353000  0.98245000  0.68922000  1.0
  C  C67  1  0.24678000  0.15742000  0.48409000  1.0
  C  C68  1  0.80256000  0.19127000  0.85355000  1.0
  C  C69  1  0.21031000  0.81612000  0.33664000  1.0
  C  C70  1  0.33829000  0.94960000  0.14708000  1.0
  C  C71  1  0.47938000  0.87342000  0.66257000  1.0
  C  C72  1  0.71024000  0.02989000  0.39111000  1.0
  C  C73  1  0.31996000  0.21215000  0.65903000  1.0
  C  C74  1  0.63846000  0.31854000  0.60879000  1.0
  C  C75  1  0.55323000  0.66127000  0.34126000  1.0
  C  C76  1  0.63626000  0.31620000  0.51317000  1.0
  C  C77  1  0.62206000  0.65118000  0.41845000  1.0
  C  C78  1  0.80312000  0.12339000  0.48662000  1.0
  C  C79  1  0.23287000  0.20407000  0.58186000  1.0
  C  C80  1  0.81651000  0.30258000  0.93058000  1.0
  C  C81  1  0.19042000  0.69886000  0.28598000  1.0
  C  C82  1  0.37241000  0.88625000  0.06973000  1.0
  C  C83  1  0.41246000  0.90401000  0.71332000  1.0
  C  C84  1  0.43737000  0.83328000  0.91131000  1.0
  C  C85  1  0.32152000  0.93551000  0.85427000  1.0
  C  C86  1  0.92159000  0.52544000  0.08819000  1.0
  C  C87  1  0.08152000  0.46750000  0.14594000  1.0
  C  C88  1  0.48334000  0.94508000  0.91482000  1.0
  C  C89  1  0.27562000  0.82433000  0.85222000  1.0
  C  C90  1  0.03009000  0.56757000  0.08434000  1.0
  C  C91  1  0.97218000  0.42397000  0.14832000  1.0
  C  C92  1  0.38994000  0.88676000  0.79577000  1.0
  C  C93  1  0.37044000  0.88295000  0.97060000  1.0
  C  C94  1  0.09089000  0.59396000  0.20376000  1.0
  C  C95  1  0.91234000  0.39969000  0.02952000  1.0
  Br  Br96  1  0.16659000  0.39353000  0.54503000  1.0
  Br  Br97  1  0.98705000  0.39997000  0.68609000  1.0
  Br  Br98  1  0.84843000  0.62143000  0.45559000  1.0
  Br  Br99  1  0.71270000  0.30164000  0.31280000  1.0
  N  N100  1  0.52589000  0.14415000  0.46481000  1.0
  N  N101  1  0.36710000  0.81385000  0.36863000  1.0
  N  N102  1  0.41760000  0.87063000  0.21669000  1.0
  N  N103  1  0.44533000  0.99822000  0.63102000  1.0
  N  N104  1  0.65380000  0.20084000  0.78383000  1.0
  N  N105  1  0.70602000  0.13018000  0.76602000  1.0
  N  N106  1  0.31527000  0.88274000  0.38443000  1.0
  N  N107  1  0.36482000  0.94072000  0.23472000  1.0
  N  N108  1  0.63835000  0.83305000  0.49843000  1.0
  N  N109  1  0.49856000  0.93072000  0.61503000  1.0
  N  N110  1  0.63733000  0.99437000  0.42189000  1.0
  N  N111  1  0.38107000  0.17489000  0.61097000  1.0
  N  N112  1  0.57267000  0.21503000  0.57813000  1.0
  N  N113  1  0.56463000  0.77033000  0.38908000  1.0
  N  N114  1  0.67943000  0.06080000  0.53521000  1.0
  N  N115  1  0.33455000  0.13903000  0.50152000  1.0
  O  O116  1  0.87735000  0.15112000  0.86623000  1.0
  O  O117  1  0.14778000  0.87330000  0.34941000  1.0
  O  O118  1  0.28562000  0.01171000  0.13437000  1.0
  O  O119  1  0.52387000  0.79828000  0.64967000  1.0
