# generated using pymatgen
data_NiH30C20(NO)4
_symmetry_space_group_name_H-M   'P 1'
_cell_length_a   9.76661000
_cell_length_b   18.32680000
_cell_length_c   18.57230000
_cell_angle_alpha   82.91410000
_cell_angle_beta   74.77300000
_cell_angle_gamma   89.99030000
_symmetry_Int_Tables_number   1
_chemical_formula_structural   NiH30C20(NO)4
_chemical_formula_sum   'Ni4 H120 C80 N16 O16'
_cell_volume   3181.26147767
_cell_formula_units_Z   4
loop_
 _symmetry_equiv_pos_site_id
 _symmetry_equiv_pos_as_xyz
  1  'x, y, z'
loop_
 _atom_site_type_symbol
 _atom_site_label
 _atom_site_symmetry_multiplicity
 _atom_site_fract_x
 _atom_site_fract_y
 _atom_site_fract_z
 _atom_site_occupancy
  Ni  Ni0  1  0.93803000  0.03802000  0.75275000  1.0
  Ni  Ni1  1  0.69115000  0.46196000  0.24752000  1.0
  Ni  Ni2  1  0.06197000  0.96198000  0.24725000  1.0
  Ni  Ni3  1  0.30884000  0.53804000  0.75248000  1.0
  H  H4  1  0.44378000  0.01948000  0.78206000  1.0
  H  H5  1  0.22700000  0.48014000  0.21834000  1.0
  H  H6  1  0.55621000  0.98052000  0.21795000  1.0
  H  H7  1  0.77298000  0.51989000  0.78166000  1.0
  H  H8  1  0.52536000  0.92691000  0.99062000  1.0
  H  H9  1  0.51564000  0.57309000  0.00955000  1.0
  H  H10  1  0.47467000  0.07306000  0.00938000  1.0
  H  H11  1  0.48434000  0.42693000  0.99045000  1.0
  H  H12  1  0.13449000  0.77397000  0.72238000  1.0
  H  H13  1  0.85632000  0.72615000  0.27762000  1.0
  H  H14  1  0.86551000  0.22603000  0.27763000  1.0
  H  H15  1  0.14368000  0.27385000  0.72238000  1.0
  H  H16  1  0.97381000  0.86295000  0.76159000  1.0
  H  H17  1  0.73527000  0.63688000  0.23892000  1.0
  H  H18  1  0.02621000  0.13705000  0.23841000  1.0
  H  H19  1  0.26473000  0.36312000  0.76108000  1.0
  H  H20  1  0.82198000  0.87048000  0.72601000  1.0
  H  H21  1  0.54791000  0.62932000  0.27454000  1.0
  H  H22  1  0.17802000  0.12952000  0.27399000  1.0
  H  H23  1  0.45209000  0.37068000  0.72546000  1.0
  H  H24  1  0.13612000  0.86987000  0.94027000  1.0
  H  H25  1  0.07575000  0.62956000  0.06057000  1.0
  H  H26  1  0.86388000  0.13012000  0.05974000  1.0
  H  H27  1  0.92424000  0.37046000  0.93940000  1.0
  H  H28  1  0.24735000  0.97915000  0.74643000  1.0
  H  H29  1  0.99451000  0.51996000  0.25417000  1.0
  H  H30  1  0.75265000  0.02084000  0.25358000  1.0
  H  H31  1  0.00547000  0.48008000  0.74581000  1.0
  H  H32  1  0.15369000  0.89691000  0.79259000  1.0
  H  H33  1  0.94697000  0.60252000  0.20852000  1.0
  H  H34  1  0.84630000  0.10309000  0.20742000  1.0
  H  H35  1  0.05300000  0.39751000  0.79145000  1.0
  H  H36  1  0.63496000  0.07423000  0.83136000  1.0
  H  H37  1  0.46820000  0.42575000  0.16837000  1.0
  H  H38  1  0.36503000  0.92576000  0.16865000  1.0
  H  H39  1  0.53176000  0.57427000  0.83162000  1.0
  H  H40  1  0.67825000  0.02748000  0.91091000  1.0
  H  H41  1  0.59018000  0.47309000  0.08893000  1.0
  H  H42  1  0.32176000  0.97251000  0.08909000  1.0
  H  H43  1  0.40981000  0.52693000  0.91107000  1.0
  H  H44  1  0.29250000  0.85858000  0.02670000  1.0
  H  H45  1  0.31814000  0.64116000  0.97380000  1.0
  H  H46  1  0.70753000  0.14140000  0.97331000  1.0
  H  H47  1  0.68185000  0.35885000  0.02618000  1.0
  H  H48  1  0.81381000  0.23823000  0.88496000  1.0
  H  H49  1  0.69887000  0.26193000  0.11489000  1.0
  H  H50  1  0.18620000  0.76177000  0.11504000  1.0
  H  H51  1  0.30114000  0.73809000  0.88509000  1.0
  H  H52  1  0.98998000  0.27650000  0.84882000  1.0
  H  H53  1  0.83898000  0.22359000  0.15099000  1.0
  H  H54  1  0.01003000  0.72350000  0.15118000  1.0
  H  H55  1  0.16101000  0.77642000  0.84900000  1.0
  H  H56  1  0.94348000  0.22305000  0.93787000  1.0
  H  H57  1  0.88143000  0.27718000  0.06201000  1.0
  H  H58  1  0.05654000  0.77695000  0.06213000  1.0
  H  H59  1  0.11860000  0.72283000  0.93798000  1.0
  H  H60  1  0.87663000  0.85904000  0.57758000  1.0
  H  H61  1  0.45506000  0.64060000  0.42339000  1.0
  H  H62  1  0.12339000  0.14096000  0.42241000  1.0
  H  H63  1  0.54495000  0.35940000  0.57661000  1.0
  H  H64  1  0.33301000  0.69200000  0.67134000  1.0
  H  H65  1  0.00446000  0.80796000  0.32830000  1.0
  H  H66  1  0.66698000  0.30799000  0.32868000  1.0
  H  H67  1  0.99554000  0.19205000  0.67170000  1.0
  H  H68  1  0.33405000  0.64905000  0.59143000  1.0
  H  H69  1  0.92647000  0.85097000  0.40824000  1.0
  H  H70  1  0.66596000  0.35094000  0.40858000  1.0
  H  H71  1  0.07353000  0.14903000  0.59176000  1.0
  H  H72  1  0.16670000  0.68619000  0.51422000  1.0
  H  H73  1  0.68201000  0.81391000  0.48590000  1.0
  H  H74  1  0.83330000  0.31380000  0.48579000  1.0
  H  H75  1  0.31801000  0.18609000  0.51410000  1.0
  H  H76  1  0.55689000  0.08957000  0.60346000  1.0
  H  H77  1  0.16086000  0.41044000  0.39650000  1.0
  H  H78  1  0.44309000  0.91042000  0.39654000  1.0
  H  H79  1  0.83916000  0.58953000  0.60351000  1.0
  H  H80  1  0.69887000  0.15747000  0.57964000  1.0
  H  H81  1  0.27929000  0.34264000  0.42034000  1.0
  H  H82  1  0.30111000  0.84252000  0.42036000  1.0
  H  H83  1  0.72074000  0.65734000  0.57967000  1.0
  H  H84  1  0.57293000  0.15242000  0.66790000  1.0
  H  H85  1  0.24149000  0.34759000  0.33209000  1.0
  H  H86  1  0.42705000  0.84757000  0.33210000  1.0
  H  H87  1  0.75854000  0.65238000  0.66792000  1.0
  H  H88  1  0.98397000  0.77135000  0.48747000  1.0
  H  H89  1  0.47302000  0.72842000  0.51328000  1.0
  H  H90  1  0.01604000  0.22865000  0.51253000  1.0
  H  H91  1  0.52699000  0.27157000  0.48672000  1.0
  H  H92  1  0.76166000  0.92920000  0.83927000  1.0
  H  H93  1  0.60162000  0.57096000  0.16092000  1.0
  H  H94  1  0.23835000  0.07080000  0.16073000  1.0
  H  H95  1  0.39835000  0.42905000  0.83910000  1.0
  H  H96  1  0.07451000  0.95869000  0.64333000  1.0
  H  H97  1  0.71813000  0.54115000  0.35712000  1.0
  H  H98  1  0.92549000  0.04131000  0.35667000  1.0
  H  H99  1  0.28186000  0.45885000  0.64288000  1.0
  H  H100  1  0.08820000  0.04442000  0.84052000  1.0
  H  H101  1  0.92889000  0.45538000  0.15986000  1.0
  H  H102  1  0.91180000  0.95558000  0.15948000  1.0
  H  H103  1  0.07110000  0.54463000  0.84014000  1.0
  H  H104  1  0.90209000  0.97212000  0.65013000  1.0
  H  H105  1  0.55253000  0.52766000  0.35035000  1.0
  H  H106  1  0.09791000  0.02788000  0.34987000  1.0
  H  H107  1  0.44746000  0.47234000  0.64965000  1.0
  H  H108  1  0.99504000  0.96701000  0.87648000  1.0
  H  H109  1  0.87207000  0.53302000  0.12410000  1.0
  H  H110  1  0.00495000  0.03299000  0.12353000  1.0
  H  H111  1  0.12789000  0.46698000  0.87590000  1.0
  H  H112  1  0.13127000  0.57702000  0.66237000  1.0
  H  H113  1  0.79435000  0.92328000  0.33748000  1.0
  H  H114  1  0.86872000  0.42297000  0.33763000  1.0
  H  H115  1  0.20565000  0.07671000  0.66252000  1.0
  H  H116  1  0.11461000  0.62149000  0.73627000  1.0
  H  H117  1  0.85115000  0.87879000  0.26353000  1.0
  H  H118  1  0.88538000  0.37851000  0.26373000  1.0
  H  H119  1  0.14885000  0.12121000  0.73647000  1.0
  H  H120  1  0.71337000  0.96993000  0.76569000  1.0
  H  H121  1  0.47969000  0.53014000  0.23438000  1.0
  H  H122  1  0.28662000  0.03007000  0.23431000  1.0
  H  H123  1  0.52028000  0.46986000  0.76563000  1.0
  C  C124  1  0.41019000  0.98423000  0.83599000  1.0
  C  C125  1  0.24688000  0.51542000  0.16443000  1.0
  C  C126  1  0.58981000  0.01577000  0.16402000  1.0
  C  C127  1  0.75310000  0.48460000  0.83556000  1.0
  C  C128  1  0.00043000  0.82290000  0.65548000  1.0
  C  C129  1  0.65602000  0.67700000  0.34496000  1.0
  C  C130  1  0.99958000  0.17710000  0.34452000  1.0
  C  C131  1  0.34398000  0.32300000  0.65503000  1.0
  C  C132  1  0.28072000  0.94473000  0.85468000  1.0
  C  C133  1  0.13574000  0.55479000  0.14594000  1.0
  C  C134  1  0.71928000  0.05526000  0.14533000  1.0
  C  C135  1  0.86423000  0.44523000  0.85404000  1.0
  C  C136  1  0.49880000  0.97878000  0.88466000  1.0
  C  C137  1  0.38396000  0.52109000  0.11558000  1.0
  C  C138  1  0.50121000  0.02121000  0.11534000  1.0
  C  C139  1  0.61603000  0.47894000  0.88440000  1.0
  C  C140  1  0.45640000  0.93209000  0.95269000  1.0
  C  C141  1  0.40890000  0.56778000  0.04760000  1.0
  C  C142  1  0.54362000  0.06789000  0.04731000  1.0
  C  C143  1  0.59109000  0.43224000  0.95239000  1.0
  C  C144  1  0.10274000  0.77422000  0.67012000  1.0
  C  C145  1  0.77274000  0.72585000  0.33001000  1.0
  C  C146  1  0.89727000  0.22577000  0.32988000  1.0
  C  C147  1  0.22727000  0.27415000  0.66999000  1.0
  C  C148  1  0.93847000  0.87629000  0.71006000  1.0
  C  C149  1  0.64850000  0.62355000  0.29047000  1.0
  C  C150  1  0.06155000  0.12371000  0.28994000  1.0
  C  C151  1  0.35149000  0.37644000  0.70953000  1.0
  C  C152  1  0.16308000  0.72424000  0.62026000  1.0
  C  C153  1  0.78361000  0.77591000  0.37973000  1.0
  C  C154  1  0.83692000  0.27575000  0.37975000  1.0
  C  C155  1  0.21640000  0.22409000  0.62026000  1.0
  C  C156  1  0.23816000  0.90011000  0.92426000  1.0
  C  C157  1  0.16210000  0.59943000  0.07640000  1.0
  C  C158  1  0.76185000  0.09988000  0.07575000  1.0
  C  C159  1  0.83789000  0.40059000  0.92358000  1.0
  C  C160  1  0.18668000  0.95170000  0.80161000  1.0
  C  C161  1  0.98882000  0.54774000  0.19914000  1.0
  C  C162  1  0.81332000  0.04829000  0.19840000  1.0
  C  C163  1  0.01116000  0.45228000  0.80084000  1.0
  C  C164  1  0.97746000  0.16039000  0.84414000  1.0
  C  C165  1  0.82168000  0.33964000  0.15590000  1.0
  C  C166  1  0.02255000  0.83961000  0.15586000  1.0
  C  C167  1  0.17832000  0.66037000  0.84410000  1.0
  C  C168  1  0.64054000  0.01948000  0.86171000  1.0
  C  C169  1  0.50329000  0.48067000  0.13826000  1.0
  C  C170  1  0.35945000  0.98052000  0.13830000  1.0
  C  C171  1  0.49669000  0.51934000  0.86174000  1.0
  C  C172  1  0.32588000  0.89344000  0.97284000  1.0
  C  C173  1  0.29814000  0.60626000  0.02762000  1.0
  C  C174  1  0.67414000  0.10654000  0.02716000  1.0
  C  C175  1  0.70185000  0.39376000  0.97236000  1.0
  C  C176  1  0.72406000  0.06562000  0.65948000  1.0
  C  C177  1  0.38392000  0.43449000  0.34045000  1.0
  C  C178  1  0.27593000  0.93437000  0.34052000  1.0
  C  C179  1  0.61610000  0.56549000  0.65956000  1.0
  C  C180  1  0.92580000  0.22832000  0.88142000  1.0
  C  C181  1  0.80733000  0.27182000  0.11846000  1.0
  C  C182  1  0.07421000  0.77168000  0.11857000  1.0
  C  C183  1  0.19268000  0.72820000  0.88153000  1.0
  C  C184  1  0.95764000  0.82165000  0.58911000  1.0
  C  C185  1  0.54742000  0.67815000  0.41156000  1.0
  C  C186  1  0.04238000  0.17835000  0.41089000  1.0
  C  C187  1  0.45259000  0.32185000  0.58844000  1.0
  C  C188  1  0.26404000  0.66864000  0.64132000  1.0
  C  C189  1  0.90576000  0.83145000  0.35844000  1.0
  C  C190  1  0.73596000  0.33136000  0.35869000  1.0
  C  C191  1  0.09424000  0.16855000  0.64156000  1.0
  C  C192  1  0.12022000  0.72440000  0.55403000  1.0
  C  C193  1  0.67506000  0.77567000  0.44616000  1.0
  C  C194  1  0.87979000  0.27559000  0.44598000  1.0
  C  C195  1  0.32495000  0.22433000  0.55384000  1.0
  C  C196  1  0.63172000  0.11901000  0.62538000  1.0
  C  C197  1  0.25769000  0.38105000  0.37460000  1.0
  C  C198  1  0.36827000  0.88098000  0.37462000  1.0
  C  C199  1  0.74234000  0.61892000  0.62542000  1.0
  C  C200  1  0.01770000  0.77270000  0.53874000  1.0
  C  C201  1  0.55746000  0.72719000  0.46180000  1.0
  C  C202  1  0.98231000  0.22729000  0.46127000  1.0
  C  C203  1  0.44254000  0.27281000  0.53820000  1.0
  N  N204  1  0.74952000  0.97951000  0.81137000  1.0
  N  N205  1  0.56165000  0.52062000  0.18873000  1.0
  N  N206  1  0.25048000  0.02049000  0.18863000  1.0
  N  N207  1  0.43833000  0.47939000  0.81127000  1.0
  N  N208  1  0.97506000  0.95447000  0.67942000  1.0
  N  N209  1  0.65468000  0.54538000  0.32106000  1.0
  N  N210  1  0.02494000  0.04553000  0.32058000  1.0
  N  N211  1  0.34531000  0.45462000  0.67894000  1.0
  N  N212  1  0.18786000  0.60352000  0.69120000  1.0
  N  N213  1  0.87953000  0.89666000  0.30861000  1.0
  N  N214  1  0.81213000  0.39647000  0.30881000  1.0
  N  N215  1  0.12047000  0.10334000  0.69139000  1.0
  N  N216  1  0.05828000  0.99408000  0.82760000  1.0
  N  N217  1  0.88623000  0.50572000  0.17294000  1.0
  N  N218  1  0.94171000  0.00592000  0.17240000  1.0
  N  N219  1  0.11375000  0.49429000  0.82706000  1.0
  O  O220  1  0.10664000  0.14430000  0.83744000  1.0
  O  O221  1  0.94420000  0.35563000  0.16263000  1.0
  O  O222  1  0.89336000  0.85570000  0.16256000  1.0
  O  O223  1  0.05581000  0.64438000  0.83736000  1.0
  O  O224  1  0.70589000  0.99685000  0.65954000  1.0
  O  O225  1  0.36559000  0.50325000  0.34007000  1.0
  O  O226  1  0.29412000  0.00314000  0.34045000  1.0
  O  O227  1  0.63442000  0.49672000  0.65995000  1.0
  O  O228  1  0.88772000  0.12503000  0.82112000  1.0
  O  O229  1  0.70900000  0.37499000  0.17900000  1.0
  O  O230  1  0.11228000  0.87497000  0.17888000  1.0
  O  O231  1  0.29101000  0.62502000  0.82100000  1.0
  O  O232  1  0.81497000  0.09494000  0.68698000  1.0
  O  O233  1  0.50246000  0.40516000  0.31321000  1.0
  O  O234  1  0.18502000  0.90505000  0.31302000  1.0
  O  O235  1  0.49756000  0.59482000  0.68679000  1.0
