# generated using pymatgen
data_MgH12C20(NO2)2
_symmetry_space_group_name_H-M   'P 1'
_cell_length_a   9.27071000
_cell_length_b   10.01490000
_cell_length_c   10.01490000
_cell_angle_alpha   61.26080000
_cell_angle_beta   85.01760000
_cell_angle_gamma   85.01770000
_symmetry_Int_Tables_number   1
_chemical_formula_structural   MgH12C20(NO2)2
_chemical_formula_sum   'Mg2 H24 C40 N4 O8'
_cell_volume   811.13272698
_cell_formula_units_Z   2
loop_
 _symmetry_equiv_pos_site_id
 _symmetry_equiv_pos_as_xyz
  1  'x, y, z'
loop_
 _atom_site_type_symbol
 _atom_site_label
 _atom_site_symmetry_multiplicity
 _atom_site_fract_x
 _atom_site_fract_y
 _atom_site_fract_z
 _atom_site_occupancy
  Mg  Mg0  1  0.25000000  0.05233000  0.94767000  1.0
  Mg  Mg1  1  0.75000000  0.94767000  0.05233000  1.0
  H  H2  1  0.98891000  0.27261000  0.99676000  1.0
  H  H3  1  0.51109000  0.00324000  0.72739000  1.0
  H  H4  1  0.01109000  0.72739000  0.00324000  1.0
  H  H5  1  0.48891000  0.99676000  0.27261000  1.0
  H  H6  1  0.89715000  0.54607000  0.86184000  1.0
  H  H7  1  0.60285000  0.13815000  0.45393000  1.0
  H  H8  1  0.10285000  0.45394000  0.13815000  1.0
  H  H9  1  0.39715000  0.86184000  0.54607000  1.0
  H  H10  1  0.99698000  0.71613000  0.59806000  1.0
  H  H11  1  0.50302000  0.40194000  0.28387000  1.0
  H  H12  1  0.00302000  0.28387000  0.40194000  1.0
  H  H13  1  0.49698000  0.59806000  0.71613000  1.0
  H  H14  1  0.16108000  0.74287000  0.37179000  1.0
  H  H15  1  0.33892000  0.62821000  0.25713000  1.0
  H  H16  1  0.83892000  0.25713000  0.62821000  1.0
  H  H17  1  0.66108000  0.37179000  0.74287000  1.0
  H  H18  1  0.76697000  0.96853000  0.65304000  1.0
  H  H19  1  0.73303000  0.34696000  0.03147000  1.0
  H  H20  1  0.23303000  0.03147000  0.34696000  1.0
  H  H21  1  0.26697000  0.65304000  0.96853000  1.0
  H  H22  1  0.22368000  0.02435000  0.60455000  1.0
  H  H23  1  0.27632000  0.39545000  0.97565000  1.0
  H  H24  1  0.77632000  0.97565000  0.39545000  1.0
  H  H25  1  0.72368000  0.60455000  0.02435000  1.0
  C  C26  1  0.19330000  0.38271000  0.68131000  1.0
  C  C27  1  0.30670000  0.31869000  0.61729000  1.0
  C  C28  1  0.80670000  0.61729000  0.31869000  1.0
  C  C29  1  0.69330000  0.68131000  0.38271000  1.0
  C  C30  1  0.03395000  0.35058000  0.88382000  1.0
  C  C31  1  0.46605000  0.11618000  0.64942000  1.0
  C  C32  1  0.96605000  0.64942000  0.11617000  1.0
  C  C33  1  0.53396000  0.88382000  0.35058000  1.0
  C  C34  1  0.98156000  0.50370000  0.80708000  1.0
  C  C35  1  0.51845000  0.19292000  0.49630000  1.0
  C  C36  1  0.01844000  0.49630000  0.19292000  1.0
  C  C37  1  0.48156000  0.80708000  0.50370000  1.0
  C  C38  1  0.03646000  0.59745000  0.66137000  1.0
  C  C39  1  0.46354000  0.33863000  0.40254000  1.0
  C  C40  1  0.96354000  0.40254000  0.33863000  1.0
  C  C41  1  0.53646000  0.66137000  0.59745000  1.0
  C  C42  1  0.14325000  0.53738000  0.59254000  1.0
  C  C43  1  0.35675000  0.40746000  0.46261000  1.0
  C  C44  1  0.85675000  0.46261000  0.40746000  1.0
  C  C45  1  0.64325000  0.59254000  0.53739000  1.0
  C  C46  1  0.19982000  0.62456000  0.43905000  1.0
  C  C47  1  0.30018000  0.56095000  0.37544000  1.0
  C  C48  1  0.80018000  0.37544000  0.56095000  1.0
  C  C49  1  0.69982000  0.43905000  0.62456000  1.0
  C  C50  1  0.99484000  0.99655000  0.64196000  1.0
  C  C51  1  0.50516000  0.35804000  0.00345000  1.0
  C  C52  1  0.00516000  0.00345000  0.35804000  1.0
  C  C53  1  0.49483000  0.64196000  0.99655000  1.0
  C  C54  1  0.86785000  0.98280000  0.58410000  1.0
  C  C55  1  0.63215000  0.41590000  0.01720000  1.0
  C  C56  1  0.13215000  0.01720000  0.41590000  1.0
  C  C57  1  0.36784000  0.58410000  0.98280000  1.0
  C  C58  1  0.98950000  0.99553000  0.79348000  1.0
  C  C59  1  0.51050000  0.20652000  0.00447000  1.0
  C  C60  1  0.01051000  0.00447000  0.20652000  1.0
  C  C61  1  0.48949000  0.79348000  0.99554000  1.0
  C  C62  1  0.12684000  0.01327000  0.55716000  1.0
  C  C63  1  0.37316000  0.44284000  0.98673000  1.0
  C  C64  1  0.87316000  0.98673000  0.44284000  1.0
  C  C65  1  0.62684000  0.55716000  0.01328000  1.0
  N  N66  1  0.13836000  0.29160000  0.82466000  1.0
  N  N67  1  0.36164000  0.17533000  0.70840000  1.0
  N  N68  1  0.86164000  0.70840000  0.17534000  1.0
  N  N69  1  0.63836000  0.82466000  0.29160000  1.0
  O  O70  1  0.10971000  0.98352000  0.85003000  1.0
  O  O71  1  0.39029000  0.14997000  0.01648000  1.0
  O  O72  1  0.89028000  0.01648000  0.14997000  1.0
  O  O73  1  0.60971000  0.85003000  0.98353000  1.0
  O  O74  1  0.86452000  0.00518000  0.85182000  1.0
  O  O75  1  0.63548000  0.14818000  0.99482000  1.0
  O  O76  1  0.13548000  0.99482000  0.14818000  1.0
  O  O77  1  0.36452000  0.85181000  0.00519000  1.0
