# generated using pymatgen
data_LiBH20(C2N)8
_symmetry_space_group_name_H-M   'P 1'
_cell_length_a   7.56209000
_cell_length_b   7.56365000
_cell_length_c   9.76359774
_cell_angle_alpha   112.78540590
_cell_angle_beta   112.76704790
_cell_angle_gamma   89.99250000
_symmetry_Int_Tables_number   1
_chemical_formula_structural   LiBH20(C2N)8
_chemical_formula_sum   'Li1 B1 H20 C16 N8'
_cell_volume   467.33005520
_cell_formula_units_Z   1
loop_
 _symmetry_equiv_pos_site_id
 _symmetry_equiv_pos_as_xyz
  1  'x, y, z'
loop_
 _atom_site_type_symbol
 _atom_site_label
 _atom_site_symmetry_multiplicity
 _atom_site_fract_x
 _atom_site_fract_y
 _atom_site_fract_z
 _atom_site_occupancy
  Li  Li0  1  0.00007000  0.99996000  0.99996000  1.0
  B  B1  1  0.74996000  0.24998000  0.50005000  1.0
  H  H2  1  0.92340000  0.57856000  0.48056000  1.0
  H  H3  1  0.55725000  0.90196000  0.48079000  1.0
  H  H4  1  0.09819000  0.07660000  0.51929000  1.0
  H  H5  1  0.42110000  0.44278000  0.51944000  1.0
  H  H6  1  0.01129000  0.47278000  0.21261000  1.0
  H  H7  1  0.20148000  0.73985000  0.21296000  1.0
  H  H8  1  0.26047000  0.98891000  0.78724000  1.0
  H  H9  1  0.52680000  0.79885000  0.78705000  1.0
  H  H10  1  0.61137000  0.86749000  0.13359000  1.0
  H  H11  1  0.52234000  0.26589000  0.13352000  1.0
  H  H12  1  0.73397000  0.38858000  0.86656000  1.0
  H  H13  1  0.13232000  0.47790000  0.86643000  1.0
  H  H14  1  0.81493000  0.86316000  0.29976000  1.0
  H  H15  1  0.48490000  0.43641000  0.29975000  1.0
  H  H16  1  0.56360000  0.18501000  0.70033000  1.0
  H  H17  1  0.13674000  0.51525000  0.70024000  1.0
  H  H18  1  0.82993000  0.81677000  0.11130000  1.0
  H  H19  1  0.28155000  0.29443000  0.11133000  1.0
  H  H20  1  0.70564000  0.17002000  0.88876000  1.0
  H  H21  1  0.18295000  0.71865000  0.88865000  1.0
  C  C22  1  0.91291000  0.43597000  0.38826000  1.0
  C  C23  1  0.47538000  0.95225000  0.38849000  1.0
  C  C24  1  0.04789000  0.08705000  0.61160000  1.0
  C  C25  1  0.56367000  0.52472000  0.61162000  1.0
  C  C26  1  0.95347000  0.38148000  0.25357000  1.0
  C  C27  1  0.30019000  0.87210000  0.25384000  1.0
  C  C28  1  0.12813000  0.04660000  0.74630000  1.0
  C  C29  1  0.61813000  0.70010000  0.74608000  1.0
  C  C30  1  0.84113000  0.11522000  0.25072000  1.0
  C  C31  1  0.40968000  0.13540000  0.25082000  1.0
  C  C32  1  0.86473000  0.15893000  0.74932000  1.0
  C  C33  1  0.88447000  0.59042000  0.74920000  1.0
  C  C34  1  0.77125000  0.90499000  0.19719000  1.0
  C  C35  1  0.42606000  0.29206000  0.19717000  1.0
  C  C36  1  0.70796000  0.22873000  0.80290000  1.0
  C  C37  1  0.09478000  0.57413000  0.80277000  1.0
  N  N38  1  0.84140000  0.26621000  0.38696000  1.0
  N  N39  1  0.54555000  0.12066000  0.38707000  1.0
  N  N40  1  0.87940000  0.15857000  0.61303000  1.0
  N  N41  1  0.73353000  0.45443000  0.61305000  1.0
  N  N42  1  0.90806000  0.18127000  0.16812000  1.0
  N  N43  1  0.26019000  0.98679000  0.16830000  1.0
  N  N44  1  0.01343000  0.09205000  0.83187000  1.0
  N  N45  1  0.81837000  0.74008000  0.83160000  1.0
