# generated using pymatgen
data_GdH7C8SO9
_symmetry_space_group_name_H-M   'P 1'
_cell_length_a   6.35852000
_cell_length_b   8.62420000
_cell_length_c   10.59960000
_cell_angle_alpha   90.94230000
_cell_angle_beta   99.45710000
_cell_angle_gamma   107.43400000
_symmetry_Int_Tables_number   1
_chemical_formula_structural   GdH7C8SO9
_chemical_formula_sum   'Gd2 H14 C16 S2 O18'
_cell_volume   545.68018808
_cell_formula_units_Z   2
loop_
 _symmetry_equiv_pos_site_id
 _symmetry_equiv_pos_as_xyz
  1  'x, y, z'
loop_
 _atom_site_type_symbol
 _atom_site_label
 _atom_site_symmetry_multiplicity
 _atom_site_fract_x
 _atom_site_fract_y
 _atom_site_fract_z
 _atom_site_occupancy
  Gd  Gd0  1  0.15085000  0.24173000  0.61165000  1.0
  Gd  Gd1  1  0.84916000  0.75827000  0.38835000  1.0
  H  H2  1  0.61915000  0.41519000  0.14391000  1.0
  H  H3  1  0.38085000  0.58481000  0.85609000  1.0
  H  H4  1  0.65725000  0.36502000  0.91847000  1.0
  H  H5  1  0.34275000  0.63498000  0.08153000  1.0
  H  H6  1  0.17616000  0.15096000  0.05354000  1.0
  H  H7  1  0.82385000  0.84904000  0.94647000  1.0
  H  H8  1  0.53013000  0.08214000  0.67708000  1.0
  H  H9  1  0.46987000  0.91786000  0.32292000  1.0
  H  H10  1  0.30672000  0.95031000  0.60720000  1.0
  H  H11  1  0.69328000  0.04969000  0.39280000  1.0
  H  H12  1  0.65279000  0.35127000  0.70942000  1.0
  H  H13  1  0.34721000  0.64873000  0.29058000  1.0
  H  H14  1  0.58236000  0.50248000  0.65164000  1.0
  H  H15  1  0.41764000  0.49752000  0.34836000  1.0
  C  C16  1  0.01913000  0.22533000  0.19888000  1.0
  C  C17  1  0.98087000  0.77467000  0.80112000  1.0
  C  C18  1  0.86642000  0.30526000  0.22617000  1.0
  C  C19  1  0.13358000  0.69475000  0.77383000  1.0
  C  C20  1  0.73684000  0.35307000  0.12296000  1.0
  C  C21  1  0.26317000  0.64693000  0.87703000  1.0
  C  C22  1  0.75916000  0.32557000  0.99663000  1.0
  C  C23  1  0.24084000  0.67443000  0.00337000  1.0
  C  C24  1  0.92037000  0.25421000  0.97168000  1.0
  C  C25  1  0.07963000  0.74579000  0.02832000  1.0
  C  C26  1  0.04821000  0.20327000  0.07329000  1.0
  C  C27  1  0.95179000  0.79673000  0.92671000  1.0
  C  C28  1  0.84341000  0.34921000  0.36030000  1.0
  C  C29  1  0.15659000  0.65079000  0.63970000  1.0
  C  C30  1  0.97844000  0.24155000  0.84199000  1.0
  C  C31  1  0.02156000  0.75845000  0.15801000  1.0
  S  S32  1  0.20983000  0.16832000  0.31865000  1.0
  S  S33  1  0.79016000  0.83168000  0.68134000  1.0
  O  O34  1  0.08482000  0.03383000  0.38910000  1.0
  O  O35  1  0.91518000  0.96616000  0.61090000  1.0
  O  O36  1  0.30945000  0.31252000  0.41295000  1.0
  O  O37  1  0.69055000  0.68748000  0.58705000  1.0
  O  O38  1  0.36812000  0.12535000  0.25253000  1.0
  O  O39  1  0.63188000  0.87465000  0.74746000  1.0
  O  O40  1  0.84931000  0.24716000  0.44605000  1.0
  O  O41  1  0.15069000  0.75284000  0.55395000  1.0
  O  O42  1  0.81962000  0.48648000  0.38095000  1.0
  O  O43  1  0.18038000  0.51352000  0.61905000  1.0
  O  O44  1  0.16355000  0.21579000  0.83476000  1.0
  O  O45  1  0.83645000  0.78421000  0.16524000  1.0
  O  O46  1  0.85094000  0.25938000  0.73934000  1.0
  O  O47  1  0.14906000  0.74062000  0.26066000  1.0
  O  O48  1  0.37824000  0.06855000  0.63165000  1.0
  O  O49  1  0.62177000  0.93145000  0.36835000  1.0
  O  O50  1  0.52802000  0.40047000  0.69423000  1.0
  O  O51  1  0.47198000  0.59953000  0.30577000  1.0
