# generated using pymatgen
data_CoH22C14(NO4)2
_symmetry_space_group_name_H-M   'P 1'
_cell_length_a   7.01961000
_cell_length_b   8.35290421
_cell_length_c   10.46075017
_cell_angle_alpha   85.87797173
_cell_angle_beta   75.72131711
_cell_angle_gamma   69.66553638
_symmetry_Int_Tables_number   1
_chemical_formula_structural   CoH22C14(NO4)2
_chemical_formula_sum   'Co1 H22 C14 N2 O8'
_cell_volume   557.30086214
_cell_formula_units_Z   1
loop_
 _symmetry_equiv_pos_site_id
 _symmetry_equiv_pos_as_xyz
  1  'x, y, z'
loop_
 _atom_site_type_symbol
 _atom_site_label
 _atom_site_symmetry_multiplicity
 _atom_site_fract_x
 _atom_site_fract_y
 _atom_site_fract_z
 _atom_site_occupancy
  Co  Co0  1  0.49998000  0.00000000  0.00001000  1.0
  H  H1  1  0.86612000  0.91157000  0.01023000  1.0
  H  H2  1  0.13384000  0.08842000  0.98981000  1.0
  H  H3  1  0.82982000  0.03233000  0.12739000  1.0
  H  H4  1  0.17010000  0.96768000  0.87264000  1.0
  H  H5  1  0.62941000  0.02473000  0.59616000  1.0
  H  H6  1  0.37056000  0.97524000  0.40387000  1.0
  H  H7  1  0.24708000  0.93631000  0.64641000  1.0
  H  H8  1  0.75292000  0.06364000  0.35360000  1.0
  H  H9  1  0.57462000  0.74277000  0.79635000  1.0
  H  H10  1  0.42539000  0.25725000  0.20365000  1.0
  H  H11  1  0.98732000  0.35703000  0.93773000  1.0
  H  H12  1  0.01272000  0.64297000  0.06224000  1.0
  H  H13  1  0.76536000  0.29106000  0.98483000  1.0
  H  H14  1  0.23466000  0.70896000  0.01515000  1.0
  H  H15  1  0.76328000  0.47828000  0.05975000  1.0
  H  H16  1  0.23675000  0.52175000  0.94022000  1.0
  H  H17  1  0.66831000  0.32778000  0.76443000  1.0
  H  H18  1  0.33176000  0.67223000  0.23552000  1.0
  H  H19  1  0.91914000  0.34919000  0.70313000  1.0
  H  H20  1  0.08092000  0.65084000  0.29684000  1.0
  H  H21  1  0.69074000  0.51294000  0.67253000  1.0
  H  H22  1  0.30932000  0.48708000  0.32743000  1.0
  C  C23  1  0.85681000  0.95251000  0.78028000  1.0
  C  C24  1  0.14316000  0.04748000  0.21974000  1.0
  C  C25  1  0.93092000  0.97663000  0.63566000  1.0
  C  C26  1  0.06907000  0.02334000  0.36435000  1.0
  C  C27  1  0.79158000  0.01390000  0.55282000  1.0
  C  C28  1  0.20840000  0.98608000  0.44719000  1.0
  C  C29  1  0.13997000  0.96310000  0.58160000  1.0
  C  C30  1  0.86002000  0.03686000  0.41842000  1.0
  C  C31  1  0.62908000  0.67484000  0.88180000  1.0
  C  C32  1  0.37092000  0.32517000  0.11819000  1.0
  C  C33  1  0.81590000  0.40269000  0.96866000  1.0
  C  C34  1  0.18412000  0.59733000  0.03132000  1.0
  C  C35  1  0.75246000  0.41946000  0.74436000  1.0
  C  C36  1  0.24758000  0.58057000  0.25561000  1.0
  N  N37  1  0.72723000  0.50707000  0.86584000  1.0
  N  N38  1  0.27279000  0.49295000  0.13414000  1.0
  O  O39  1  0.98921000  0.87626000  0.84764000  1.0
  O  O40  1  0.01076000  0.12372000  0.15238000  1.0
  O  O41  1  0.65725000  0.01379000  0.82525000  1.0
  O  O42  1  0.34273000  0.98621000  0.17477000  1.0
  O  O43  1  0.59866000  0.75349000  0.98774000  1.0
  O  O44  1  0.40133000  0.24650000  0.01226000  1.0
  O  O45  1  0.77131000  0.95308000  0.09846000  1.0
  O  O46  1  0.22863000  0.04691000  0.90158000  1.0
