# generated using pymatgen
data_CdH24C22(NO2)4
_symmetry_space_group_name_H-M   'P 1'
_cell_length_a   9.49981000
_cell_length_b   10.97470000
_cell_length_c   12.78000000
_cell_angle_alpha   109.20200000
_cell_angle_beta   111.80000000
_cell_angle_gamma   90.00010000
_symmetry_Int_Tables_number   1
_chemical_formula_structural   CdH24C22(NO2)4
_chemical_formula_sum   'Cd2 H48 C44 N8 O16'
_cell_volume   1156.90671238
_cell_formula_units_Z   2
loop_
 _symmetry_equiv_pos_site_id
 _symmetry_equiv_pos_as_xyz
  1  'x, y, z'
loop_
 _atom_site_type_symbol
 _atom_site_label
 _atom_site_symmetry_multiplicity
 _atom_site_fract_x
 _atom_site_fract_y
 _atom_site_fract_z
 _atom_site_occupancy
  Cd  Cd0  1  0.00000000  0.00000000  0.00000000  1.0
  Cd  Cd1  1  0.00000000  0.50000000  0.00000000  1.0
  H  H2  1  0.90709000  0.48331000  0.60835000  1.0
  H  H3  1  0.29880000  0.01636000  0.39153000  1.0
  H  H4  1  0.09291000  0.51669000  0.39166000  1.0
  H  H5  1  0.70120000  0.98364000  0.60847000  1.0
  H  H6  1  0.63593000  0.07507000  0.89090000  1.0
  H  H7  1  0.74509000  0.42471000  0.10888000  1.0
  H  H8  1  0.36407000  0.92493000  0.10909000  1.0
  H  H9  1  0.25491000  0.57529000  0.89112000  1.0
  H  H10  1  0.63641000  0.22259000  0.24235000  1.0
  H  H11  1  0.39420000  0.27740000  0.75754000  1.0
  H  H12  1  0.36359000  0.77741000  0.75765000  1.0
  H  H13  1  0.60580000  0.72260000  0.24246000  1.0
  H  H14  1  0.92423000  0.15657000  0.25580000  1.0
  H  H15  1  0.66854000  0.34324000  0.74394000  1.0
  H  H16  1  0.07576000  0.84343000  0.74420000  1.0
  H  H17  1  0.33147000  0.65676000  0.25606000  1.0
  H  H18  1  0.36778000  0.16646000  0.05053000  1.0
  H  H19  1  0.31741000  0.33372000  0.94944000  1.0
  H  H20  1  0.63222000  0.83354000  0.94946000  1.0
  H  H21  1  0.68259000  0.66628000  0.05056000  1.0
  H  H22  1  0.37929000  0.11025000  0.90706000  1.0
  H  H23  1  0.47235000  0.38984000  0.09289000  1.0
  H  H24  1  0.62071000  0.88975000  0.09294000  1.0
  H  H25  1  0.52765000  0.61016000  0.90711000  1.0
  H  H26  1  0.54369000  0.12504000  0.43424000  1.0
  H  H27  1  0.10954000  0.37463000  0.56551000  1.0
  H  H28  1  0.45631000  0.87496000  0.56576000  1.0
  H  H29  1  0.89047000  0.62537000  0.43449000  1.0
  H  H30  1  0.77919000  0.27894000  0.56097000  1.0
  H  H31  1  0.21831000  0.22058000  0.43878000  1.0
  H  H32  1  0.22081000  0.72106000  0.43903000  1.0
  H  H33  1  0.78169000  0.77942000  0.56122000  1.0
  H  H34  1  0.59434000  0.54950000  0.38158000  1.0
  H  H35  1  0.21294000  0.95033000  0.61853000  1.0
  H  H36  1  0.40566000  0.45050000  0.61842000  1.0
  H  H37  1  0.78706000  0.04967000  0.38147000  1.0
  H  H38  1  0.35661000  0.39268000  0.25187000  1.0
  H  H39  1  0.10504000  0.10737000  0.74830000  1.0
  H  H40  1  0.64339000  0.60732000  0.74813000  1.0
  H  H41  1  0.89496000  0.89262000  0.25170000  1.0
  H  H42  1  0.12762000  0.93487000  0.19280000  1.0
  H  H43  1  0.93488000  0.56507000  0.80712000  1.0
  H  H44  1  0.87238000  0.06513000  0.80720000  1.0
  H  H45  1  0.06512000  0.43493000  0.19288000  1.0
  H  H46  1  0.00358000  0.80474000  0.13658000  1.0
  H  H47  1  0.86700000  0.69514000  0.86343000  1.0
  H  H48  1  0.99642000  0.19526000  0.86342000  1.0
  H  H49  1  0.13300000  0.30486000  0.13657000  1.0
  C  C50  1  0.67697000  0.10446000  0.98832000  1.0
  C  C51  1  0.68874000  0.39534000  0.01147000  1.0
  C  C52  1  0.32303000  0.89554000  0.01168000  1.0
  C  C53  1  0.31126000  0.60466000  0.98853000  1.0
  C  C54  1  0.68011000  0.18178000  0.17288000  1.0
  C  C55  1  0.50738000  0.31808000  0.82697000  1.0
  C  C56  1  0.31989000  0.81822000  0.82712000  1.0
  C  C57  1  0.49262000  0.68191000  0.17303000  1.0
  C  C58  1  0.82170000  0.14933000  0.17773000  1.0
  C  C59  1  0.64411000  0.35044000  0.82204000  1.0
  C  C60  1  0.17830000  0.85067000  0.82227000  1.0
  C  C61  1  0.35589000  0.64956000  0.17796000  1.0
  C  C62  1  0.43381000  0.18008000  0.99971000  1.0
  C  C63  1  0.43419000  0.31999000  0.00023000  1.0
  C  C64  1  0.56618000  0.81992000  0.00029000  1.0
  C  C65  1  0.56581000  0.68001000  0.99977000  1.0
  C  C66  1  0.43299000  0.24618000  0.33225000  1.0
  C  C67  1  0.10093000  0.25369000  0.66771000  1.0
  C  C68  1  0.56701000  0.75382000  0.66776000  1.0
  C  C69  1  0.89907000  0.74631000  0.33229000  1.0
  C  C70  1  0.55297000  0.21795000  0.42214000  1.0
  C  C71  1  0.13092000  0.28177000  0.57767000  1.0
  C  C72  1  0.44703000  0.78205000  0.57787000  1.0
  C  C73  1  0.86908000  0.71823000  0.42233000  1.0
  C  C74  1  0.68658000  0.30510000  0.49429000  1.0
  C  C75  1  0.19237000  0.19451000  0.50552000  1.0
  C  C76  1  0.31342000  0.69490000  0.50571000  1.0
  C  C77  1  0.80763000  0.80549000  0.49448000  1.0
  C  C78  1  0.70316000  0.42515000  0.47927000  1.0
  C  C79  1  0.22401000  0.07452000  0.52065000  1.0
  C  C80  1  0.29684000  0.57485000  0.52073000  1.0
  C  C81  1  0.77599000  0.92548000  0.47935000  1.0
  C  C82  1  0.58210000  0.45545000  0.39119000  1.0
  C  C83  1  0.19106000  0.04433000  0.60883000  1.0
  C  C84  1  0.41791000  0.54455000  0.60881000  1.0
  C  C85  1  0.80894000  0.95567000  0.39117000  1.0
  C  C86  1  0.44957000  0.36720000  0.31895000  1.0
  C  C87  1  0.13083000  0.13270000  0.68109000  1.0
  C  C88  1  0.55043000  0.63280000  0.68105000  1.0
  C  C89  1  0.86917000  0.86730000  0.31890000  1.0
  C  C90  1  0.29828000  0.14535000  0.25003000  1.0
  C  C91  1  0.04840000  0.35460000  0.74990000  1.0
  C  C92  1  0.70172000  0.85465000  0.74997000  1.0
  C  C93  1  0.95160000  0.64540000  0.25010000  1.0
  N  N94  1  0.81789000  0.10130000  0.06219000  1.0
  N  N95  1  0.75579000  0.39844000  0.93756000  1.0
  N  N96  1  0.18211000  0.89870000  0.93781000  1.0
  N  N97  1  0.24421000  0.60156000  0.06244000  1.0
  N  N98  1  0.58885000  0.15124000  0.05176000  1.0
  N  N99  1  0.53721000  0.34865000  0.94810000  1.0
  N  N100  1  0.41114000  0.84876000  0.94824000  1.0
  N  N101  1  0.46279000  0.65135000  0.05190000  1.0
  O  O102  1  0.19825000  0.16422000  0.15833000  1.0
  O  O103  1  0.03984000  0.33576000  0.84157000  1.0
  O  O104  1  0.80175000  0.83578000  0.84167000  1.0
  O  O105  1  0.96016000  0.66423000  0.15843000  1.0
  O  O106  1  0.28954000  0.03923000  0.27039000  1.0
  O  O107  1  0.01947000  0.46075000  0.72954000  1.0
  O  O108  1  0.71046000  0.96077000  0.72961000  1.0
  O  O109  1  0.98053000  0.53925000  0.27046000  1.0
  O  O110  1  0.83070000  0.51297000  0.54556000  1.0
  O  O111  1  0.28528000  0.98667000  0.45435000  1.0
  O  O112  1  0.16930000  0.48703000  0.45444000  1.0
  O  O113  1  0.71473000  0.01333000  0.54565000  1.0
  O  O114  1  0.02167000  0.89287000  0.13472000  1.0
  O  O115  1  0.88683000  0.60694000  0.86513000  1.0
  O  O116  1  0.97833000  0.10713000  0.86528000  1.0
  O  O117  1  0.11317000  0.39306000  0.13487000  1.0
