# generated using pymatgen
data_Cu2H11C13I2(NO)3
_symmetry_space_group_name_H-M   'P 1'
_cell_length_a   5.97583000
_cell_length_b   9.86626000
_cell_length_c   13.71900000
_cell_angle_alpha   80.98320000
_cell_angle_beta   88.09240000
_cell_angle_gamma   84.02180000
_symmetry_Int_Tables_number   1
_chemical_formula_structural   Cu2H11C13I2(NO)3
_chemical_formula_sum   'Cu4 H22 C26 I4 N6 O6'
_cell_volume   794.40119193
_cell_formula_units_Z   2
loop_
 _symmetry_equiv_pos_site_id
 _symmetry_equiv_pos_as_xyz
  1  'x, y, z'
loop_
 _atom_site_type_symbol
 _atom_site_label
 _atom_site_symmetry_multiplicity
 _atom_site_fract_x
 _atom_site_fract_y
 _atom_site_fract_z
 _atom_site_occupancy
  Cu  Cu0  1  0.18095000  0.68487000  0.62378000  1.0
  Cu  Cu1  1  0.81905000  0.31512000  0.37622000  1.0
  Cu  Cu2  1  0.78123000  0.50040000  0.49028000  1.0
  Cu  Cu3  1  0.21876000  0.49960000  0.50972000  1.0
  H  H4  1  0.97544000  0.98593000  0.81918000  1.0
  H  H5  1  0.02456000  0.01408000  0.18081000  1.0
  H  H6  1  0.57199000  0.81891000  0.56130000  1.0
  H  H7  1  0.42800000  0.18109000  0.43869000  1.0
  H  H8  1  0.75649000  0.03061000  0.58418000  1.0
  H  H9  1  0.24352000  0.96937000  0.41582000  1.0
  H  H10  1  0.57118000  0.17583000  0.70707000  1.0
  H  H11  1  0.42883000  0.82417000  0.29293000  1.0
  H  H12  1  0.88944000  0.91661000  0.96481000  1.0
  H  H13  1  0.11055000  0.08340000  0.03518000  1.0
  H  H14  1  0.59083000  0.89642000  0.09324000  1.0
  H  H15  1  0.40916000  0.10358000  0.90676000  1.0
  H  H16  1  0.28478000  0.61294000  0.94236000  1.0
  H  H17  1  0.71519000  0.38707000  0.05764000  1.0
  H  H18  1  0.58412000  0.63519000  0.81127000  1.0
  H  H19  1  0.41585000  0.36483000  0.18873000  1.0
  H  H20  1  0.82993000  0.56313000  0.15845000  1.0
  H  H21  1  0.17008000  0.43688000  0.84156000  1.0
  H  H22  1  0.86367000  0.72954000  0.19289000  1.0
  H  H23  1  0.13634000  0.27047000  0.80712000  1.0
  H  H24  1  0.02013000  0.57609000  0.25372000  1.0
  H  H25  1  0.97987000  0.42392000  0.74629000  1.0
  C  C26  1  0.23027000  0.93478000  0.72695000  1.0
  C  C27  1  0.76974000  0.06521000  0.27305000  1.0
  C  C28  1  0.50235000  0.88780000  0.61209000  1.0
  C  C29  1  0.49766000  0.11219000  0.38791000  1.0
  C  C30  1  0.60462000  0.00304000  0.62538000  1.0
  C  C31  1  0.39538000  0.99695000  0.37462000  1.0
  C  C32  1  0.50309000  0.08231000  0.69345000  1.0
  C  C33  1  0.49692000  0.91767000  0.30655000  1.0
  C  C34  1  0.92780000  0.78840000  0.79754000  1.0
  C  C35  1  0.07219000  0.21161000  0.20245000  1.0
  C  C36  1  0.75242000  0.78039000  0.87749000  1.0
  C  C37  1  0.24756000  0.21962000  0.12251000  1.0
  C  C38  1  0.75556000  0.85200000  0.95800000  1.0
  C  C39  1  0.24443000  0.14800000  0.04200000  1.0
  C  C40  1  0.58776000  0.84098000  0.03062000  1.0
  C  C41  1  0.41224000  0.15902000  0.96938000  1.0
  C  C42  1  0.41601000  0.75627000  0.02448000  1.0
  C  C43  1  0.58400000  0.24374000  0.97552000  1.0
  C  C44  1  0.41693000  0.68008000  0.94612000  1.0
  C  C45  1  0.58306000  0.31992000  0.05388000  1.0
  C  C46  1  0.58366000  0.69251000  0.87309000  1.0
  C  C47  1  0.41633000  0.30750000  0.12691000  1.0
  C  C48  1  0.23356000  0.75346000  0.10087000  1.0
  C  C49  1  0.76646000  0.24653000  0.89913000  1.0
  C  C50  1  0.94637000  0.62785000  0.18388000  1.0
  C  C51  1  0.05363000  0.37215000  0.81612000  1.0
  I  I52  1  0.96223000  0.73562000  0.46180000  1.0
  I  I53  1  0.03778000  0.26438000  0.53820000  1.0
  I  I54  1  0.48812000  0.51081000  0.34727000  1.0
  I  I55  1  0.51188000  0.48917000  0.65273000  1.0
  N  N56  1  0.31131000  0.85361000  0.66079000  1.0
  N  N57  1  0.68870000  0.14639000  0.33922000  1.0
  N  N58  1  0.31923000  0.04706000  0.74587000  1.0
  N  N59  1  0.68077000  0.95294000  0.25414000  1.0
  N  N60  1  0.03851000  0.90545000  0.78370000  1.0
  N  N61  1  0.96148000  0.09455000  0.21630000  1.0
  O  O62  1  0.96645000  0.69150000  0.74904000  1.0
  O  O63  1  0.03352000  0.30851000  0.25095000  1.0
  O  O64  1  0.18678000  0.84731000  0.15017000  1.0
  O  O65  1  0.81325000  0.15269000  0.84983000  1.0
  O  O66  1  0.12482000  0.64014000  0.10918000  1.0
  O  O67  1  0.87520000  0.35986000  0.89083000  1.0
