# generated using pymatgen
data_ZnH12C22N3O10
_symmetry_space_group_name_H-M   'P 1'
_cell_length_a   16.34600000
_cell_length_b   17.56180000
_cell_length_c   18.04930000
_cell_angle_alpha   90.17020000
_cell_angle_beta   92.57370000
_cell_angle_gamma   95.42590000
_symmetry_Int_Tables_number   1
_chemical_formula_structural   ZnH12C22N3O10
_chemical_formula_sum   'Zn2 H24 C44 N6 O20'
_cell_volume   5152.77103421
_cell_formula_units_Z   2
loop_
 _symmetry_equiv_pos_site_id
 _symmetry_equiv_pos_as_xyz
  1  'x, y, z'
loop_
 _atom_site_type_symbol
 _atom_site_label
 _atom_site_symmetry_multiplicity
 _atom_site_fract_x
 _atom_site_fract_y
 _atom_site_fract_z
 _atom_site_occupancy
  Zn  Zn0  1  0.41091000  0.49829000  0.49983000  1.0
  Zn  Zn1  1  0.58948000  0.50161000  0.50043000  1.0
  H  H2  1  0.71454000  0.44236000  0.41620000  1.0
  H  H3  1  0.86599000  0.44479000  0.41454000  1.0
  H  H4  1  0.87873000  0.57614000  0.61974000  1.0
  H  H5  1  0.12187000  0.42347000  0.37940000  1.0
  H  H6  1  0.13401000  0.55594000  0.58385000  1.0
  H  H7  1  0.28547000  0.55782000  0.58290000  1.0
  H  H8  1  0.00466000  0.55129000  0.56920000  1.0
  H  H9  1  0.99565000  0.44916000  0.42928000  1.0
  H  H10  1  0.61364000  0.26467000  0.50863000  1.0
  H  H11  1  0.60956000  0.12361000  0.50460000  1.0
  H  H12  1  0.34327000  0.10959000  0.50031000  1.0
  H  H13  1  0.65621000  0.89054000  0.50080000  1.0
  H  H14  1  0.38984000  0.87611000  0.49385000  1.0
  H  H15  1  0.38605000  0.73503000  0.48975000  1.0
  H  H16  1  0.40502000  0.99553000  0.49609000  1.0
  H  H17  1  0.59426000  0.00438000  0.50349000  1.0
  H  H18  1  0.37033000  0.51809000  0.73611000  1.0
  H  H19  1  0.63189000  0.49926000  0.74516000  1.0
  H  H20  1  0.36643000  0.47341000  0.25431000  1.0
  H  H21  1  0.63161000  0.51011000  0.26506000  1.0
  H  H22  1  0.66180000  0.55425000  0.62543000  1.0
  H  H23  1  0.33911000  0.44337000  0.37533000  1.0
  H  H24  1  0.34860000  0.31062000  0.50801000  1.0
  H  H25  1  0.65144000  0.68950000  0.49633000  1.0
  C  C26  1  0.48836000  0.35132000  0.50812000  1.0
  C  C27  1  0.50231000  0.48900000  0.35264000  1.0
  C  C28  1  0.51162000  0.64860000  0.49195000  1.0
  C  C29  1  0.49858000  0.51116000  0.64771000  1.0
  C  C30  1  0.75403000  0.47090000  0.46018000  1.0
  C  C31  1  0.83834000  0.47278000  0.45969000  1.0
  C  C32  1  0.88659000  0.51175000  0.51767000  1.0
  C  C33  1  0.84552000  0.54584000  0.57317000  1.0
  C  C34  1  0.75915000  0.54002000  0.57088000  1.0
  C  C35  1  0.97612000  0.51705000  0.52265000  1.0
  C  C36  1  0.02417000  0.48345000  0.47581000  1.0
  C  C37  1  0.15494000  0.45394000  0.42593000  1.0
  C  C38  1  0.11369000  0.48853000  0.48101000  1.0
  C  C39  1  0.16180000  0.52765000  0.53899000  1.0
  C  C40  1  0.24610000  0.52919000  0.53889000  1.0
  C  C41  1  0.24130000  0.45921000  0.42875000  1.0
  C  C42  1  0.48268000  0.26730000  0.50720000  1.0
  C  C43  1  0.55502000  0.22943000  0.50697000  1.0
  C  C44  1  0.55234000  0.15071000  0.50470000  1.0
  C  C45  1  0.47554000  0.10564000  0.50213000  1.0
  C  C46  1  0.40329000  0.14266000  0.50234000  1.0
  C  C47  1  0.40550000  0.22257000  0.50522000  1.0
  C  C48  1  0.46820000  0.02243000  0.49925000  1.0
  C  C49  1  0.53108000  0.97747000  0.50024000  1.0
  C  C50  1  0.59625000  0.85737000  0.49830000  1.0
  C  C51  1  0.52386000  0.89425000  0.49753000  1.0
  C  C52  1  0.44713000  0.84907000  0.49438000  1.0
  C  C53  1  0.44462000  0.77036000  0.49215000  1.0
  C  C54  1  0.51710000  0.73262000  0.49302000  1.0
  C  C55  1  0.59425000  0.77745000  0.49612000  1.0
  C  C56  1  0.50085000  0.50983000  0.73088000  1.0
  C  C57  1  0.42794000  0.51385000  0.76772000  1.0
  C  C58  1  0.42918000  0.51281000  0.84445000  1.0
  C  C59  1  0.50127000  0.50338000  0.88879000  1.0
  C  C60  1  0.57313000  0.49728000  0.84887000  1.0
  C  C61  1  0.57407000  0.50247000  0.77222000  1.0
  C  C62  1  0.50083000  0.50024000  0.96648000  1.0
  C  C63  1  0.49857000  0.49828000  0.03382000  1.0
  C  C64  1  0.49848000  0.49612000  0.11155000  1.0
  C  C65  1  0.42550000  0.48243000  0.15090000  1.0
  C  C66  1  0.42513000  0.48154000  0.22775000  1.0
  C  C67  1  0.49959000  0.49056000  0.26949000  1.0
  C  C68  1  0.57336000  0.50288000  0.23308000  1.0
  C  C69  1  0.57205000  0.50748000  0.15650000  1.0
  N  N70  1  0.71414000  0.50416000  0.51428000  1.0
  N  N71  1  0.28617000  0.49535000  0.48529000  1.0
  N  N72  1  0.65139000  0.48366000  0.88878000  1.0
  N  N73  1  0.35073000  0.52225000  0.87963000  1.0
  N  N74  1  0.65191000  0.52620000  0.12224000  1.0
  N  N75  1  0.34502000  0.46822000  0.11000000  1.0
  O  O76  1  0.42032000  0.38360000  0.51044000  1.0
  O  O77  1  0.55892000  0.38858000  0.50624000  1.0
  O  O78  1  0.57264000  0.49671000  0.38541000  1.0
  O  O79  1  0.43381000  0.48113000  0.38471000  1.0
  O  O80  1  0.58005000  0.61660000  0.49475000  1.0
  O  O81  1  0.44101000  0.61101000  0.48865000  1.0
  O  O82  1  0.42857000  0.50934000  0.61460000  1.0
  O  O83  1  0.56732000  0.51267000  0.61626000  1.0
  O  O84  1  0.72228000  0.57104000  0.62645000  1.0
  O  O85  1  0.27835000  0.42737000  0.37378000  1.0
  O  O86  1  0.33333333  0.25401000  0.50558000  1.0
  O  O87  1  0.66658000  0.74617000  0.49721000  1.0
  O  O88  1  0.64723000  0.44156000  0.94353000  1.0
  O  O89  1  0.71519000  0.51453000  0.86322000  1.0
  O  O90  1  0.35376000  0.56351000  0.93544000  1.0
  O  O91  1  0.28785000  0.48905000  0.84914000  1.0
  O  O92  1  0.65330000  0.57115000  0.06968000  1.0
  O  O93  1  0.71156000  0.49643000  0.15024000  1.0
  O  O94  1  0.34248000  0.42905000  0.05279000  1.0
  O  O95  1  0.28616000  0.49592000  0.13720000  1.0
