# generated using pymatgen
data_ZnPH6C6NO6
_symmetry_space_group_name_H-M   'P 1'
_cell_length_a   6.58925000
_cell_length_b   8.03672000
_cell_length_c   9.11878000
_cell_angle_alpha   115.22000000
_cell_angle_beta   89.99990000
_cell_angle_gamma   90.00000000
_symmetry_Int_Tables_number   1
_chemical_formula_structural   ZnPH6C6NO6
_chemical_formula_sum   'Zn2 P2 H12 C12 N2 O12'
_cell_volume   436.86350819
_cell_formula_units_Z   2
loop_
 _symmetry_equiv_pos_site_id
 _symmetry_equiv_pos_as_xyz
  1  'x, y, z'
loop_
 _atom_site_type_symbol
 _atom_site_label
 _atom_site_symmetry_multiplicity
 _atom_site_fract_x
 _atom_site_fract_y
 _atom_site_fract_z
 _atom_site_occupancy
  Zn  Zn0  1  0.75000000  0.21895000  0.47315000  1.0
  Zn  Zn1  1  0.25000000  0.78105000  0.52685000  1.0
  P  P2  1  0.75000000  0.83573000  0.49385000  1.0
  P  P3  1  0.25000000  0.16426000  0.50615000  1.0
  H  H4  1  0.75000000  0.51637000  0.16926000  1.0
  H  H5  1  0.25000000  0.48363000  0.83074000  1.0
  H  H6  1  0.75000000  0.79239000  0.85408000  1.0
  H  H7  1  0.25000000  0.20762000  0.14592000  1.0
  H  H8  1  0.75000000  0.09525000  0.10623000  1.0
  H  H9  1  0.25000000  0.90475000  0.89377000  1.0
  H  H10  1  0.75000000  0.18799000  0.76507000  1.0
  H  H11  1  0.25000000  0.81201000  0.23493000  1.0
  H  H12  1  0.86533000  0.48588000  0.40400000  1.0
  H  H13  1  0.36533000  0.51412000  0.59600000  1.0
  H  H14  1  0.13468000  0.51412000  0.59600000  1.0
  H  H15  1  0.63468000  0.48588000  0.40400000  1.0
  C  C16  1  0.75000000  0.81429000  0.28456000  1.0
  C  C17  1  0.25000000  0.18571000  0.71544000  1.0
  C  C18  1  0.75000000  0.64199000  0.15124000  1.0
  C  C19  1  0.25000000  0.35800000  0.84876000  1.0
  C  C20  1  0.75000000  0.63350000  0.99530000  1.0
  C  C21  1  0.25000000  0.36650000  0.00469000  1.0
  C  C22  1  0.75000000  0.79697000  0.97526000  1.0
  C  C23  1  0.25000000  0.20303000  0.02474000  1.0
  C  C24  1  0.75000000  0.96291000  0.11309000  1.0
  C  C25  1  0.25000000  0.03709000  0.88691000  1.0
  C  C26  1  0.75000000  0.45420000  0.84820000  1.0
  C  C27  1  0.25000000  0.54581000  0.15181000  1.0
  N  N28  1  0.75000000  0.97052000  0.26358000  1.0
  N  N29  1  0.25000000  0.02948000  0.73642000  1.0
  O  O30  1  0.75000000  0.04509000  0.59866000  1.0
  O  O31  1  0.25000000  0.95491000  0.40134000  1.0
  O  O32  1  0.93948000  0.73607000  0.51187000  1.0
  O  O33  1  0.43948000  0.26393000  0.48813000  1.0
  O  O34  1  0.06052000  0.26393000  0.48813000  1.0
  O  O35  1  0.56052000  0.73607000  0.51187000  1.0
  O  O36  1  0.74999000  0.30600000  0.87590000  1.0
  O  O37  1  0.25000000  0.69400000  0.12409000  1.0
  O  O38  1  0.75000000  0.45349000  0.71177000  1.0
  O  O39  1  0.25000000  0.54651000  0.28823000  1.0
  O  O40  1  0.75000000  0.39956000  0.35988000  1.0
  O  O41  1  0.25000000  0.60044000  0.64012000  1.0
