# generated using pymatgen
data_NiMo3H14C16(N3O5)2
_symmetry_space_group_name_H-M   'P 1'
_cell_length_a   7.93220000
_cell_length_b   11.54980000
_cell_length_c   12.96837341
_cell_angle_alpha   63.55664788
_cell_angle_beta   85.35717612
_cell_angle_gamma   79.53610000
_symmetry_Int_Tables_number   1
_chemical_formula_structural   NiMo3H14C16(N3O5)2
_chemical_formula_sum   'Ni2 Mo6 H28 C32 N12 O20'
_cell_volume   1046.10523424
_cell_formula_units_Z   2
loop_
 _symmetry_equiv_pos_site_id
 _symmetry_equiv_pos_as_xyz
  1  'x, y, z'
loop_
 _atom_site_type_symbol
 _atom_site_label
 _atom_site_symmetry_multiplicity
 _atom_site_fract_x
 _atom_site_fract_y
 _atom_site_fract_z
 _atom_site_occupancy
  Ni  Ni0  1  0.00924000  0.94042000  0.30388000  1.0
  Ni  Ni1  1  0.50910000  0.24432000  0.69613000  1.0
  Mo  Mo2  1  0.72598000  0.75935000  0.23047000  1.0
  Mo  Mo3  1  0.22583000  0.98983000  0.76944000  1.0
  Mo  Mo4  1  0.48114000  0.74989000  0.98333000  1.0
  Mo  Mo5  1  0.98109000  0.73315000  0.01649000  1.0
  Mo  Mo6  1  0.36054000  0.95100000  0.09642000  1.0
  Mo  Mo7  1  0.86042000  0.04741000  0.90355000  1.0
  H  H8  1  0.63836000  0.01844000  0.37083000  1.0
  H  H9  1  0.13802000  0.38904000  0.62897000  1.0
  H  H10  1  0.48778000  0.00708000  0.55341000  1.0
  H  H11  1  0.98747000  0.56004000  0.44624000  1.0
  H  H12  1  0.65729000  0.89567000  0.73751000  1.0
  H  H13  1  0.15727000  0.63281000  0.26224000  1.0
  H  H14  1  0.96096000  0.79416000  0.73428000  1.0
  H  H15  1  0.46113000  0.52842000  0.26565000  1.0
  H  H16  1  0.28174000  0.71149000  0.70325000  1.0
  H  H17  1  0.78196000  0.41516000  0.29684000  1.0
  H  H18  1  0.54062000  0.66121000  0.56438000  1.0
  H  H19  1  0.04080000  0.22591000  0.43565000  1.0
  H  H20  1  0.33359000  0.99669000  0.39900000  1.0
  H  H21  1  0.83331000  0.39564000  0.60109000  1.0
  H  H22  1  0.46741000  0.19594000  0.34968000  1.0
  H  H23  1  0.96714000  0.54562000  0.65040000  1.0
  H  H24  1  0.32795000  0.41286000  0.19764000  1.0
  H  H25  1  0.82752000  0.61054000  0.80238000  1.0
  H  H26  1  0.04836000  0.42488000  0.11514000  1.0
  H  H27  1  0.54812000  0.53997000  0.88498000  1.0
  H  H28  1  0.74248000  0.42246000  0.07457000  1.0
  H  H29  1  0.24238000  0.49655000  0.92587000  1.0
  H  H30  1  0.50075000  0.28589000  0.05894000  1.0
  H  H31  1  0.00061000  0.34448000  0.94123000  1.0
  H  H32  1  0.40975000  0.75168000  0.36781000  1.0
  H  H33  1  0.90984000  0.11960000  0.63216000  1.0
  H  H34  1  0.62442000  0.04310000  0.16946000  1.0
  H  H35  1  0.12422000  0.21253000  0.83044000  1.0
  C  C36  1  0.70387000  0.97010000  0.45350000  1.0
  C  C37  1  0.20365000  0.42345000  0.54634000  1.0
  C  C38  1  0.62166000  0.96311000  0.55451000  1.0
  C  C39  1  0.12147000  0.51737000  0.44526000  1.0
  C  C40  1  0.71518000  0.90060000  0.65695000  1.0
  C  C41  1  0.21515000  0.55737000  0.34287000  1.0
  C  C42  1  0.88532000  0.84390000  0.65547000  1.0
  C  C43  1  0.38541000  0.49940000  0.34443000  1.0
  C  C44  1  0.95893000  0.85339000  0.55094000  1.0
  C  C45  1  0.45901000  0.40446000  0.44903000  1.0
  C  C46  1  0.13402000  0.79667000  0.53783000  1.0
  C  C47  1  0.63416000  0.33469000  0.46222000  1.0
  C  C48  1  0.27529000  0.73256000  0.61333000  1.0
  C  C49  1  0.77549000  0.34620000  0.38672000  1.0
  C  C50  1  0.40783000  0.70725000  0.54567000  1.0
  C  C51  1  0.90800000  0.25319000  0.45438000  1.0
  C  C52  1  0.27365000  0.09342000  0.33754000  1.0
  C  C53  1  0.77346000  0.43084000  0.66262000  1.0
  C  C54  1  0.34776000  0.20429000  0.30948000  1.0
  C  C55  1  0.84760000  0.51363000  0.69067000  1.0
  C  C56  1  0.26895000  0.32542000  0.22686000  1.0
  C  C57  1  0.76873000  0.55215000  0.77326000  1.0
  C  C58  1  0.11446000  0.33248000  0.17976000  1.0
  C  C59  1  0.61424000  0.51212000  0.82039000  1.0
  C  C60  1  0.04536000  0.21769000  0.21433000  1.0
  C  C61  1  0.54516000  0.43189000  0.78587000  1.0
  C  C62  1  0.88291000  0.21668000  0.17222000  1.0
  C  C63  1  0.38273000  0.38872000  0.82796000  1.0
  C  C64  1  0.74988000  0.31730000  0.10858000  1.0
  C  C65  1  0.24973000  0.42557000  0.89167000  1.0
  C  C66  1  0.62507000  0.25177000  0.10032000  1.0
  C  C67  1  0.12492000  0.35183000  0.89983000  1.0
  N  N68  1  0.86902000  0.91875000  0.45105000  1.0
  N  N69  1  0.36892000  0.36984000  0.54888000  1.0
  N  N70  1  0.17873000  0.80844000  0.43111000  1.0
  N  N71  1  0.67880000  0.23966000  0.56891000  1.0
  N  N72  1  0.34443000  0.75454000  0.43789000  1.0
  N  N73  1  0.84454000  0.19259000  0.56213000  1.0
  N  N74  1  0.12603000  0.09895000  0.29040000  1.0
  N  N75  1  0.62581000  0.38927000  0.70974000  1.0
  N  N76  1  0.84065000  0.09827000  0.20048000  1.0
  N  N77  1  0.34048000  0.29867000  0.79956000  1.0
  N  N78  1  0.68411000  0.12182000  0.15665000  1.0
  N  N79  1  0.18395000  0.27833000  0.84339000  1.0
  O  O80  1  0.54702000  0.90547000  0.21018000  1.0
  O  O81  1  0.04679000  0.11562000  0.78974000  1.0
  O  O82  1  0.88265000  0.81087000  0.28023000  1.0
  O  O83  1  0.38254000  0.09109000  0.71975000  1.0
  O  O84  1  0.85154000  0.65736000  0.15822000  1.0
  O  O85  1  0.35153000  0.81566000  0.84165000  1.0
  O  O86  1  0.82088000  0.90171000  0.03779000  1.0
  O  O87  1  0.32074000  0.93949000  0.96224000  1.0
  O  O88  1  0.49469000  0.58289000  0.03492000  1.0
  O  O89  1  0.99442000  0.61764000  0.96503000  1.0
  O  O90  1  0.67994000  0.78264000  0.92368000  1.0
  O  O91  1  0.17990000  0.70619000  0.07612000  1.0
  O  O92  1  0.37397000  0.11358000  0.04676000  1.0
  O  O93  1  0.87361000  0.16043000  0.95314000  1.0
  O  O94  1  0.50897000  0.76820000  0.12092000  1.0
  O  O95  1  0.00895000  0.88908000  0.87894000  1.0
  O  O96  1  0.17678000  0.92165000  0.18186000  1.0
  O  O97  1  0.67665000  0.10349000  0.81817000  1.0
  O  O98  1  0.65788000  0.63917000  0.35473000  1.0
  O  O99  1  0.15787000  0.99402000  0.64511000  1.0
