# generated using pymatgen
data_Ag3H17C24(NO2)4
_symmetry_space_group_name_H-M   'P 1'
_cell_length_a   7.37510000
_cell_length_b   8.17651000
_cell_length_c   19.58600000
_cell_angle_alpha   90.00000000
_cell_angle_beta   90.00000000
_cell_angle_gamma   92.78240000
_symmetry_Int_Tables_number   1
_chemical_formula_structural   Ag3H17C24(NO2)4
_chemical_formula_sum   'Ag6 H34 C48 N8 O16'
_cell_volume   1179.69392273
_cell_formula_units_Z   2
loop_
 _symmetry_equiv_pos_site_id
 _symmetry_equiv_pos_as_xyz
  1  'x, y, z'
loop_
 _atom_site_type_symbol
 _atom_site_label
 _atom_site_symmetry_multiplicity
 _atom_site_fract_x
 _atom_site_fract_y
 _atom_site_fract_z
 _atom_site_occupancy
  Ag  Ag0  1  0.00000000  0.00000000  0.00000000  1.0
  Ag  Ag1  1  0.50000000  0.00000000  0.50000000  1.0
  Ag  Ag2  1  0.22377000  0.64253000  0.76713000  1.0
  Ag  Ag3  1  0.27623000  0.35747000  0.26713000  1.0
  Ag  Ag4  1  0.77623000  0.35747000  0.23287000  1.0
  Ag  Ag5  1  0.72377000  0.64253000  0.73287000  1.0
  H  H6  1  0.37327000  0.74772000  0.07133000  1.0
  H  H7  1  0.12673000  0.25228000  0.57133000  1.0
  H  H8  1  0.62673000  0.25228000  0.92867000  1.0
  H  H9  1  0.87327000  0.74772000  0.42867000  1.0
  H  H10  1  0.00002000  0.50001000  0.00000000  1.0
  H  H11  1  0.49999000  0.49999000  0.50000000  1.0
  H  H12  1  0.79888000  0.83001000  0.88003000  1.0
  H  H13  1  0.70112000  0.17000000  0.38003000  1.0
  H  H14  1  0.20112000  0.16999000  0.11997000  1.0
  H  H15  1  0.29888000  0.83000000  0.61998000  1.0
  H  H16  1  0.67514000  0.90733000  0.08291000  1.0
  H  H17  1  0.82486000  0.09267000  0.58291000  1.0
  H  H18  1  0.32485000  0.09267000  0.91709000  1.0
  H  H19  1  0.17515000  0.90733000  0.41709000  1.0
  H  H20  1  0.50271000  0.67353000  0.85968000  1.0
  H  H21  1  0.99729000  0.32647000  0.35968000  1.0
  H  H22  1  0.49729000  0.32647000  0.14032000  1.0
  H  H23  1  0.00271000  0.67353000  0.64032000  1.0
  H  H24  1  0.86233000  0.35267000  0.65470000  1.0
  H  H25  1  0.63767000  0.64733000  0.15470000  1.0
  H  H26  1  0.13767000  0.64733000  0.34530000  1.0
  H  H27  1  0.36233000  0.35266000  0.84530000  1.0
  H  H28  1  0.83818000  0.46396000  0.86112000  1.0
  H  H29  1  0.66182000  0.53604000  0.36112000  1.0
  H  H30  1  0.16182000  0.53603000  0.13888000  1.0
  H  H31  1  0.33818000  0.46396000  0.63888000  1.0
  H  H32  1  0.96695000  0.20195000  0.89410000  1.0
  H  H33  1  0.53305000  0.79805000  0.39410000  1.0
  H  H34  1  0.03305000  0.79805000  0.10590000  1.0
  H  H35  1  0.46695000  0.20195000  0.60590000  1.0
  H  H36  1  0.99355000  0.07775000  0.68075000  1.0
  H  H37  1  0.50645000  0.92225000  0.18075000  1.0
  H  H38  1  0.00645000  0.92225000  0.31925000  1.0
  H  H39  1  0.49355000  0.07775000  0.81925000  1.0
  C  C40  1  0.24099000  0.59631000  0.95468000  1.0
  C  C41  1  0.25901000  0.40369000  0.45468000  1.0
  C  C42  1  0.75901000  0.40369000  0.04532000  1.0
  C  C43  1  0.74099000  0.59631000  0.54532000  1.0
  C  C44  1  0.46499000  0.76330000  0.02806000  1.0
  C  C45  1  0.03501000  0.23670000  0.52806000  1.0
  C  C46  1  0.53501000  0.23670000  0.97194000  1.0
  C  C47  1  0.96499000  0.76331000  0.47194000  1.0
  C  C48  1  0.41667000  0.69582000  0.96467000  1.0
  C  C49  1  0.08333000  0.30419000  0.46467000  1.0
  C  C50  1  0.58333000  0.30418000  0.03533000  1.0
  C  C51  1  0.91667000  0.69582000  0.53533000  1.0
  C  C52  1  0.70063000  0.80911000  0.92094000  1.0
  C  C53  1  0.79937000  0.19089000  0.42094000  1.0
  C  C54  1  0.29937000  0.19089000  0.07906000  1.0
  C  C55  1  0.20063000  0.80911000  0.57906000  1.0
  C  C56  1  0.63027000  0.85056000  0.03503000  1.0
  C  C57  1  0.86973000  0.14944000  0.53503000  1.0
  C  C58  1  0.36973000  0.14944000  0.96496000  1.0
  C  C59  1  0.13027000  0.85057000  0.46497000  1.0
  C  C60  1  0.53717000  0.72135000  0.91026000  1.0
  C  C61  1  0.96283000  0.27865000  0.41026000  1.0
  C  C62  1  0.46283000  0.27865000  0.08974000  1.0
  C  C63  1  0.03717000  0.72135000  0.58974000  1.0
  C  C64  1  0.07361000  0.95826000  0.80606000  1.0
  C  C65  1  0.42639000  0.04174000  0.30606000  1.0
  C  C66  1  0.92639000  0.04174000  0.19394000  1.0
  C  C67  1  0.57361000  0.95826000  0.69394000  1.0
  C  C68  1  0.88860000  0.31214000  0.70666000  1.0
  C  C69  1  0.61140000  0.68786000  0.20666000  1.0
  C  C70  1  0.11140000  0.68786000  0.29334000  1.0
  C  C71  1  0.38860000  0.31214000  0.79334000  1.0
  C  C72  1  0.87178000  0.37573000  0.82206000  1.0
  C  C73  1  0.62822000  0.62427000  0.32206000  1.0
  C  C74  1  0.12822000  0.62426000  0.17794000  1.0
  C  C75  1  0.37179000  0.37573000  0.67794000  1.0
  C  C76  1  0.98922000  0.11810000  0.78922000  1.0
  C  C77  1  0.51078000  0.88190000  0.28922000  1.0
  C  C78  1  0.01078000  0.88190000  0.21077000  1.0
  C  C79  1  0.48922000  0.11810000  0.71078000  1.0
  C  C80  1  0.94374000  0.22804000  0.84029000  1.0
  C  C81  1  0.55626000  0.77196000  0.34029000  1.0
  C  C82  1  0.05626000  0.77196000  0.15971000  1.0
  C  C83  1  0.44374000  0.22804000  0.65971000  1.0
  C  C84  1  0.96005000  0.16218000  0.72126000  1.0
  C  C85  1  0.53995000  0.83782000  0.22126000  1.0
  C  C86  1  0.03995000  0.83782000  0.27874000  1.0
  C  C87  1  0.46005000  0.16218000  0.77874000  1.0
  N  N88  1  0.74725000  0.87225000  0.98247000  1.0
  N  N89  1  0.75275000  0.12775000  0.48247000  1.0
  N  N90  1  0.25275000  0.12774000  0.01753000  1.0
  N  N91  1  0.24725000  0.87225000  0.51753000  1.0
  N  N92  1  0.84438000  0.41780000  0.75629000  1.0
  N  N93  1  0.65562000  0.58220000  0.25629000  1.0
  N  N94  1  0.15562000  0.58220000  0.24371000  1.0
  N  N95  1  0.34438000  0.41780000  0.74372000  1.0
  O  O96  1  0.20848000  0.52797000  0.89883000  1.0
  O  O97  1  0.29152000  0.47203000  0.39883000  1.0
  O  O98  1  0.79152000  0.47203000  0.10117000  1.0
  O  O99  1  0.70847000  0.52797000  0.60117000  1.0
  O  O100  1  0.13656000  0.58806000  0.00816000  1.0
  O  O101  1  0.36344000  0.41194000  0.50816000  1.0
  O  O102  1  0.86344000  0.41194000  0.99184000  1.0
  O  O103  1  0.63656000  0.58806000  0.49184000  1.0
  O  O104  1  0.08761000  0.86172000  0.75444000  1.0
  O  O105  1  0.41239000  0.13828000  0.25444000  1.0
  O  O106  1  0.91239000  0.13828000  0.24556000  1.0
  O  O107  1  0.58761000  0.86172000  0.74556000  1.0
  O  O108  1  0.12385000  0.93106000  0.86592000  1.0
  O  O109  1  0.37614000  0.06894000  0.36592000  1.0
  O  O110  1  0.87614000  0.06894000  0.13408000  1.0
  O  O111  1  0.62386000  0.93106000  0.63408000  1.0
