# generated using pymatgen
data_ZnH10C12O5
_symmetry_space_group_name_H-M   'P 1'
_cell_length_a   6.41555000
_cell_length_b   7.53141000
_cell_length_c   11.76770000
_cell_angle_alpha   102.81800000
_cell_angle_beta   89.99930000
_cell_angle_gamma   89.99900000
_symmetry_Int_Tables_number   1
_chemical_formula_structural   ZnH10C12O5
_chemical_formula_sum   'Zn2 H20 C24 O10'
_cell_volume   554.42383152
_cell_formula_units_Z   2
loop_
 _symmetry_equiv_pos_site_id
 _symmetry_equiv_pos_as_xyz
  1  'x, y, z'
loop_
 _atom_site_type_symbol
 _atom_site_label
 _atom_site_symmetry_multiplicity
 _atom_site_fract_x
 _atom_site_fract_y
 _atom_site_fract_z
 _atom_site_occupancy
  Zn  Zn0  1  0.15592000  0.71757000  0.53686000  1.0
  Zn  Zn1  1  0.65592000  0.28242000  0.46315000  1.0
  H  H2  1  0.80716000  0.91206000  0.56353000  1.0
  H  H3  1  0.30716000  0.08795000  0.43647000  1.0
  H  H4  1  0.95825000  0.97209000  0.46392000  1.0
  H  H5  1  0.45825000  0.02791000  0.53607000  1.0
  H  H6  1  0.78440000  0.52543000  0.31232000  1.0
  H  H7  1  0.28439000  0.47458000  0.68770000  1.0
  H  H8  1  0.50560000  0.81296000  0.23785000  1.0
  H  H9  1  0.00560000  0.18704000  0.76216000  1.0
  H  H10  1  0.44576000  0.81798000  0.88096000  1.0
  H  H11  1  0.94574000  0.18201000  0.11903000  1.0
  H  H12  1  0.88031000  0.84534000  0.77433000  1.0
  H  H13  1  0.38027000  0.15468000  0.22568000  1.0
  H  H14  1  0.56570000  0.85353000  0.04966000  1.0
  H  H15  1  0.06568000  0.14650000  0.95034000  1.0
  H  H16  1  0.14768000  0.71195000  0.87111000  1.0
  H  H17  1  0.64767000  0.28803000  0.12888000  1.0
  H  H18  1  0.28576000  0.61091000  0.04510000  1.0
  H  H19  1  0.78576000  0.38906000  0.95489000  1.0
  H  H20  1  0.06089000  0.62165000  0.21734000  1.0
  H  H21  1  0.56091000  0.37833000  0.78266000  1.0
  C  C22  1  0.48680000  0.61382000  0.39521000  1.0
  C  C23  1  0.98678000  0.38617000  0.60480000  1.0
  C  C24  1  0.65441000  0.61798000  0.31118000  1.0
  C  C25  1  0.15440000  0.38203000  0.68883000  1.0
  C  C26  1  0.64422000  0.72758000  0.23497000  1.0
  C  C27  1  0.14421000  0.27243000  0.76503000  1.0
  C  C28  1  0.46960000  0.86081000  0.70592000  1.0
  C  C29  1  0.96957000  0.13919000  0.29407000  1.0
  C  C30  1  0.56048000  0.84061000  0.81749000  1.0
  C  C31  1  0.06046000  0.15939000  0.18250000  1.0
  C  C32  1  0.76548000  0.83131000  0.84047000  1.0
  C  C33  1  0.26545000  0.16869000  0.15953000  1.0
  C  C34  1  0.79388000  0.73327000  0.14280000  1.0
  C  C35  1  0.29389000  0.26674000  0.85720000  1.0
  C  C36  1  0.72322000  0.79835000  0.04690000  1.0
  C  C37  1  0.22323000  0.20167000  0.95310000  1.0
  C  C38  1  0.84696000  0.78757000  0.94712000  1.0
  C  C39  1  0.34695000  0.21243000  0.05288000  1.0
  C  C40  1  0.05145000  0.72093000  0.94852000  1.0
  C  C41  1  0.55144000  0.27905000  0.05148000  1.0
  C  C42  1  0.12705000  0.66282000  0.04564000  1.0
  C  C43  1  0.62705000  0.33716000  0.95435000  1.0
  C  C44  1  0.99975000  0.66676000  0.14198000  1.0
  C  C45  1  0.49975000  0.33323000  0.85802000  1.0
  O  O46  1  0.33094000  0.72209000  0.39965000  1.0
  O  O47  1  0.83095000  0.27792000  0.60035000  1.0
  O  O48  1  0.49372000  0.50434000  0.46468000  1.0
  O  O49  1  0.99372000  0.49567000  0.53532000  1.0
  O  O50  1  0.57185000  0.92109000  0.63073000  1.0
  O  O51  1  0.07181000  0.07893000  0.36926000  1.0
  O  O52  1  0.27659000  0.80840000  0.69241000  1.0
  O  O53  1  0.77654000  0.19158000  0.30758000  1.0
  O  O54  1  0.92553000  0.87718000  0.50879000  1.0
  O  O55  1  0.42552000  0.12282000  0.49121000  1.0
