# generated using pymatgen
data_Cu2H15(C5N)4
_symmetry_space_group_name_H-M   'P 1'
_cell_length_a   31.39930000
_cell_length_b   32.98710000
_cell_length_c   34.74090000
_cell_angle_alpha   89.44520000
_cell_angle_beta   86.79460000
_cell_angle_gamma   88.20150000
_symmetry_Int_Tables_number   1
_chemical_formula_structural   Cu2H15(C5N)4
_chemical_formula_sum   'Cu12 H90 C120 N24'
_cell_volume   35908.51811718
_cell_formula_units_Z   6
loop_
 _symmetry_equiv_pos_site_id
 _symmetry_equiv_pos_as_xyz
  1  'x, y, z'
loop_
 _atom_site_type_symbol
 _atom_site_label
 _atom_site_symmetry_multiplicity
 _atom_site_fract_x
 _atom_site_fract_y
 _atom_site_fract_z
 _atom_site_occupancy
  Cu  Cu0  1  0.76440000  0.18489000  0.14022000  1.0
  Cu  Cu1  1  0.81913000  0.21083000  0.20846000  1.0
  Cu  Cu2  1  0.77595000  0.12408000  0.21009000  1.0
  Cu  Cu3  1  0.82935000  0.78365000  0.83286000  1.0
  Cu  Cu4  1  0.91703000  0.79999000  0.78657000  1.0
  Cu  Cu5  1  0.83407000  0.85071000  0.76733000  1.0
  Cu  Cu6  1  0.19926000  0.21015000  0.86581000  1.0
  Cu  Cu7  1  0.13975000  0.20526000  0.79545000  1.0
  Cu  Cu8  1  0.21761000  0.14217000  0.80286000  1.0
  Cu  Cu9  1  0.20418000  0.78182000  0.16556000  1.0
  Cu  Cu10  1  0.12043000  0.79972000  0.21902000  1.0
  Cu  Cu11  1  0.19789000  0.85864000  0.21984000  1.0
  H  H12  1  0.79731000  0.24591000  0.07518000  1.0
  H  H13  1  0.86566000  0.28681000  0.17177000  1.0
  H  H14  1  0.73503000  0.04528000  0.17576000  1.0
  H  H15  1  0.70561000  0.13524000  0.08876000  1.0
  H  H16  1  0.87374000  0.20288000  0.28140000  1.0
  H  H17  1  0.81488000  0.08580000  0.28483000  1.0
  H  H18  1  0.85747000  0.71318000  0.88934000  1.0
  H  H19  1  0.97985000  0.74718000  0.83713000  1.0
  H  H20  1  0.75735000  0.90904000  0.79616000  1.0
  H  H21  1  0.74666000  0.81270000  0.88141000  1.0
  H  H22  1  0.98537000  0.84447000  0.73114000  1.0
  H  H23  1  0.86804000  0.90191000  0.69494000  1.0
  H  H24  1  0.15260000  0.28073000  0.91406000  1.0
  H  H25  1  0.06072000  0.26014000  0.82845000  1.0
  H  H26  1  0.28703000  0.08719000  0.84278000  1.0
  H  H27  1  0.25750000  0.17678000  0.93141000  1.0
  H  H28  1  0.10264000  0.17615000  0.71794000  1.0
  H  H29  1  0.20084000  0.08335000  0.73411000  1.0
  H  H30  1  0.17782000  0.70265000  0.12279000  1.0
  H  H31  1  0.06068000  0.73255000  0.18971000  1.0
  H  H32  1  0.27015000  0.91187000  0.18037000  1.0
  H  H33  1  0.28191000  0.80520000  0.10831000  1.0
  H  H34  1  0.05143000  0.85039000  0.27099000  1.0
  H  H35  1  0.16351000  0.92143000  0.28339000  1.0
  H  H36  1  0.06339000  0.01651000  0.46506000  1.0
  H  H37  1  0.94842000  0.09130000  0.46944000  1.0
  H  H38  1  0.04983000  0.09981000  0.52008000  1.0
  H  H39  1  0.96189000  0.00256000  0.51759000  1.0
  H  H40  1  0.00586000  0.05253000  0.35986000  1.0
  H  H41  1  0.01339000  0.03575000  0.62482000  1.0
  H  H42  1  0.04619000  0.47326000  0.98347000  1.0
  H  H43  1  0.94827000  0.47304000  0.07505000  1.0
  H  H44  1  0.95222000  0.52630000  0.98323000  1.0
  H  H45  1  0.03828000  0.52914000  0.07522000  1.0
  H  H46  1  0.99185000  0.36052000  0.02193000  1.0
  H  H47  1  0.99080000  0.64094000  0.02574000  1.0
  H  H48  1  0.53599000  0.90641000  0.96155000  1.0
  H  H49  1  0.52866000  0.02174000  0.01862000  1.0
  H  H50  1  0.47221000  0.92887000  0.04288000  1.0
  H  H51  1  0.47775000  0.00272000  0.94018000  1.0
  H  H52  1  0.65141000  0.96554000  0.98752000  1.0
  H  H53  1  0.35634000  0.98070000  0.99944000  1.0
  H  H54  1  0.88733000  0.34685000  0.12600000  1.0
  H  H55  1  0.92064000  0.34586000  0.03997000  1.0
  H  H56  1  0.86583000  0.29666000  0.05571000  1.0
  H  H57  1  0.92920000  0.40669000  0.10556000  1.0
  H  H58  1  0.90144000  0.65377000  0.92002000  1.0
  H  H59  1  0.98793000  0.65411000  0.95957000  1.0
  H  H60  1  0.98365000  0.70174000  0.90641000  1.0
  H  H61  1  0.91553000  0.59312000  0.96310000  1.0
  H  H62  1  0.10506000  0.34644000  0.92654000  1.0
  H  H63  1  0.00897000  0.34789000  0.95403000  1.0
  H  H64  1  0.02850000  0.30002000  0.89988000  1.0
  H  H65  1  0.08233000  0.40552000  0.96580000  1.0
  H  H66  1  0.02513000  0.69632000  0.13729000  1.0
  H  H67  1  0.99302000  0.65918000  0.08725000  1.0
  H  H68  1  0.10914000  0.65555000  0.10593000  1.0
  H  H69  1  0.06656000  0.59643000  0.09445000  1.0
  H  H70  1  0.65108000  0.08462000  0.06904000  1.0
  H  H71  1  0.66006000  0.99198000  0.05277000  1.0
  H  H72  1  0.70197000  0.01465000  0.10626000  1.0
  H  H73  1  0.59607000  0.05864000  0.02811000  1.0
  H  H74  1  0.30102000  0.94789000  0.12037000  1.0
  H  H75  1  0.33751000  0.97835000  0.06371000  1.0
  H  H76  1  0.33637000  0.86795000  0.08483000  1.0
  H  H77  1  0.40134000  0.90639000  0.06955000  1.0
  H  H78  1  0.67683000  0.85177000  0.90602000  1.0
  H  H79  1  0.66032000  0.94437000  0.91846000  1.0
  H  H80  1  0.70728000  0.92885000  0.86342000  1.0
  H  H81  1  0.61235000  0.87076000  0.95169000  1.0
  H  H82  1  0.34850000  0.06408000  0.88681000  1.0
  H  H83  1  0.34638000  0.04862000  0.97542000  1.0
  H  H84  1  0.30045000  0.10550000  0.95626000  1.0
  H  H85  1  0.40844000  0.01979000  0.90882000  1.0
  H  H86  1  0.93450000  0.16353000  0.31422000  1.0
  H  H87  1  0.98638000  0.12085000  0.34826000  1.0
  H  H88  1  0.87455000  0.09568000  0.34068000  1.0
  H  H89  1  0.91016000  0.10221000  0.40423000  1.0
  H  H90  1  0.09974000  0.14266000  0.64918000  1.0
  H  H91  1  0.08429000  0.05147000  0.63507000  1.0
  H  H92  1  0.13520000  0.06309000  0.68392000  1.0
  H  H93  1  0.06303000  0.12832000  0.58801000  1.0
  H  H94  1  0.11928000  0.95331000  0.34191000  1.0
  H  H95  1  0.02432000  0.98352000  0.34990000  1.0
  H  H96  1  0.03619000  0.92596000  0.30829000  1.0
  H  H97  1  0.10076000  0.00058000  0.39848000  1.0
  H  H98  1  0.91529000  0.92959000  0.63772000  1.0
  H  H99  1  0.00472000  0.96775000  0.63577000  1.0
  H  H100  1  0.99603000  0.91297000  0.68258000  1.0
  H  H101  1  0.93101000  0.97522000  0.58101000  1.0
  C  C102  1  0.81025000  0.25139000  0.10292000  1.0
  C  C103  1  0.84116000  0.27902000  0.11243000  1.0
  C  C104  1  0.84470000  0.27284000  0.15232000  1.0
  C  C105  1  0.73111000  0.07223000  0.15797000  1.0
  C  C106  1  0.71104000  0.07689000  0.12289000  1.0
  C  C107  1  0.71534000  0.11831000  0.11389000  1.0
  C  C108  1  0.85544000  0.17610000  0.27699000  1.0
  C  C109  1  0.85589000  0.13866000  0.29677000  1.0
  C  C110  1  0.82495000  0.11654000  0.27895000  1.0
  C  C111  1  0.88398000  0.72505000  0.87177000  1.0
  C  C112  1  0.92818000  0.71851000  0.87499000  1.0
  C  C113  1  0.94643000  0.74308000  0.84552000  1.0
  C  C114  1  0.75994000  0.88157000  0.81344000  1.0
  C  C115  1  0.73719000  0.87106000  0.84796000  1.0
  C  C116  1  0.75395000  0.83217000  0.85672000  1.0
  C  C117  1  0.95273000  0.85445000  0.72668000  1.0
  C  C118  1  0.93748000  0.88397000  0.70089000  1.0
  C  C119  1  0.89283000  0.88334000  0.70762000  1.0
  C  C120  1  0.13548000  0.27221000  0.88924000  1.0
  C  C121  1  0.09329000  0.28234000  0.88019000  1.0
  C  C122  1  0.08823000  0.26095000  0.84599000  1.0
  C  C123  1  0.27624000  0.11316000  0.86004000  1.0
  C  C124  1  0.28406000  0.12217000  0.89851000  1.0
  C  C125  1  0.26054000  0.15861000  0.90546000  1.0
  C  C126  1  0.12967000  0.15753000  0.72648000  1.0
  C  C127  1  0.14550000  0.12004000  0.71172000  1.0
  C  C128  1  0.17930000  0.10976000  0.73526000  1.0
  C  C129  1  0.15271000  0.71491000  0.14250000  1.0
  C  C130  1  0.10971000  0.70413000  0.14719000  1.0
  C  C131  1  0.09269000  0.73043000  0.17625000  1.0
  C  C132  1  0.26781000  0.88268000  0.16661000  1.0
  C  C133  1  0.28956000  0.86737000  0.13301000  1.0
  C  C134  1  0.27413000  0.82798000  0.13014000  1.0
  C  C135  1  0.08290000  0.86320000  0.27007000  1.0
  C  C136  1  0.09651000  0.89811000  0.28819000  1.0
  C  C137  1  0.14026000  0.89914000  0.27702000  1.0
  C  C138  1  0.03876000  0.03337000  0.45003000  1.0
  C  C139  1  0.00605000  0.05406000  0.47161000  1.0
  C  C140  1  0.97368000  0.07483000  0.45266000  1.0
  C  C141  1  0.97437000  0.07597000  0.41208000  1.0
  C  C142  1  0.00632000  0.05335000  0.39120000  1.0
  C  C143  1  0.03830000  0.03126000  0.40965000  1.0
  C  C144  1  0.00610000  0.05132000  0.51441000  1.0
  C  C145  1  0.03185000  0.07608000  0.53514000  1.0
  C  C146  1  0.03548000  0.07018000  0.57505000  1.0
  C  C147  1  0.01243000  0.03913000  0.59363000  1.0
  C  C148  1  0.98559000  0.01449000  0.57360000  1.0
  C  C149  1  0.98229000  0.02149000  0.53384000  1.0
  C  C150  1  0.02376000  0.45665000  0.00233000  1.0
  C  C151  1  0.99677000  0.47792000  0.02898000  1.0
  C  C152  1  0.96889000  0.45650000  0.05384000  1.0
  C  C153  1  0.96590000  0.41414000  0.05103000  1.0
  C  C154  1  0.99234000  0.39353000  0.02316000  1.0
  C  C155  1  0.02174000  0.41424000  0.99886000  1.0
  C  C156  1  0.99566000  0.52308000  0.02913000  1.0
  C  C157  1  0.97019000  0.54372000  0.00302000  1.0
  C  C158  1  0.96888000  0.58636000  0.00079000  1.0
  C  C159  1  0.99201000  0.60788000  0.02682000  1.0
  C  C160  1  0.01640000  0.58795000  0.05436000  1.0
  C  C161  1  0.01890000  0.54519000  0.05445000  1.0
  C  C162  1  0.55183000  0.93168000  0.97415000  1.0
  C  C163  1  0.52741000  0.96403000  0.99030000  1.0
  C  C164  1  0.54792000  0.99680000  0.00562000  1.0
  C  C165  1  0.59262000  0.99690000  0.00672000  1.0
  C  C166  1  0.61663000  0.96517000  0.98850000  1.0
  C  C167  1  0.59671000  0.93295000  0.97135000  1.0
  C  C168  1  0.47992000  0.96563000  0.99146000  1.0
  C  C169  1  0.45591000  0.94714000  0.02148000  1.0
  C  C170  1  0.41123000  0.95306000  0.02535000  1.0
  C  C171  1  0.39107000  0.97736000  0.99784000  1.0
  C  C172  1  0.41442000  0.99534000  0.96690000  1.0
  C  C173  1  0.45900000  0.98875000  0.96388000  1.0
  C  C174  1  0.86547000  0.30480000  0.08620000  1.0
  C  C175  1  0.88868000  0.33682000  0.09598000  1.0
  C  C176  1  0.91606000  0.35844000  0.06903000  1.0
  C  C177  1  0.93617000  0.39286000  0.07727000  1.0
  C  C178  1  0.95044000  0.69411000  0.90267000  1.0
  C  C179  1  0.93391000  0.66330000  0.92440000  1.0
  C  C180  1  0.95716000  0.64182000  0.95306000  1.0
  C  C181  1  0.94469000  0.60732000  0.97141000  1.0
  C  C182  1  0.06207000  0.30717000  0.90224000  1.0
  C  C183  1  0.07176000  0.33760000  0.92596000  1.0
  C  C184  1  0.04137000  0.35934000  0.95113000  1.0
  C  C185  1  0.05068000  0.39279000  0.97106000  1.0
  C  C186  1  0.08842000  0.67550000  0.12426000  1.0
  C  C187  1  0.04556000  0.67403000  0.12134000  1.0
  C  C188  1  0.02411000  0.64772000  0.09616000  1.0
  C  C189  1  0.03812000  0.61086000  0.08279000  1.0
  C  C190  1  0.69195000  0.04615000  0.10062000  1.0
  C  C191  1  0.66312000  0.05348000  0.07346000  1.0
  C  C192  1  0.64586000  0.02261000  0.05053000  1.0
  C  C193  1  0.61214000  0.02867000  0.02814000  1.0
  C  C194  1  0.31832000  0.88746000  0.10561000  1.0
  C  C195  1  0.32198000  0.92824000  0.10191000  1.0
  C  C196  1  0.34908000  0.94840000  0.07314000  1.0
  C  C197  1  0.38693000  0.93392000  0.05729000  1.0
  C  C198  1  0.70693000  0.89639000  0.87033000  1.0
  C  C199  1  0.67960000  0.88415000  0.89952000  1.0
  C  C200  1  0.65374000  0.91217000  0.92286000  1.0
  C  C201  1  0.62174000  0.90239000  0.94877000  1.0
  C  C202  1  0.30818000  0.09897000  0.92577000  1.0
  C  C203  1  0.33862000  0.06984000  0.91705000  1.0
  C  C204  1  0.35929000  0.04567000  0.94558000  1.0
  C  C205  1  0.39372000  0.02054000  0.93815000  1.0
  C  C206  1  0.88406000  0.12346000  0.32549000  1.0
  C  C207  1  0.92286000  0.13817000  0.33199000  1.0
  C  C208  1  0.95255000  0.11945000  0.35771000  1.0
  C  C209  1  0.94280000  0.09995000  0.39143000  1.0
  C  C210  1  0.12878000  0.09584000  0.68191000  1.0
  C  C211  1  0.10467000  0.10989000  0.65308000  1.0
  C  C212  1  0.08335000  0.08389000  0.62793000  1.0
  C  C213  1  0.06158000  0.09647000  0.59710000  1.0
  C  C214  1  0.07066000  0.92651000  0.31148000  1.0
  C  C215  1  0.08520000  0.95337000  0.33669000  1.0
  C  C216  1  0.05756000  0.98163000  0.35800000  1.0
  C  C217  1  0.06858000  0.00429000  0.38806000  1.0
  C  C218  1  0.96255000  0.91039000  0.67589000  1.0
  C  C219  1  0.94811000  0.93293000  0.64609000  1.0
  C  C220  1  0.97334000  0.96208000  0.62500000  1.0
  C  C221  1  0.96112000  0.98280000  0.59330000  1.0
  N  N222  1  0.81823000  0.24370000  0.16522000  1.0
  N  N223  1  0.79655000  0.23057000  0.13455000  1.0
  N  N224  1  0.73636000  0.13659000  0.14132000  1.0
  N  N225  1  0.74589000  0.10804000  0.16894000  1.0
  N  N226  1  0.80818000  0.13868000  0.25035000  1.0
  N  N227  1  0.82701000  0.17585000  0.24934000  1.0
  N  N228  1  0.91561000  0.76246000  0.82632000  1.0
  N  N229  1  0.87674000  0.75143000  0.84282000  1.0
  N  N230  1  0.78436000  0.82078000  0.82972000  1.0
  N  N231  1  0.78791000  0.85142000  0.80262000  1.0
  N  N232  1  0.88262000  0.85589000  0.73533000  1.0
  N  N233  1  0.91987000  0.83770000  0.74701000  1.0
  N  N234  1  0.12458000  0.24010000  0.83548000  1.0
  N  N235  1  0.15382000  0.24675000  0.86265000  1.0
  N  N236  1  0.24054000  0.17035000  0.87369000  1.0
  N  N237  1  0.25003000  0.14187000  0.84556000  1.0
  N  N238  1  0.18328000  0.13883000  0.76170000  1.0
  N  N239  1  0.15211000  0.16835000  0.75649000  1.0
  N  N240  1  0.12301000  0.75514000  0.18730000  1.0
  N  N241  1  0.16040000  0.74561000  0.16626000  1.0
  N  N242  1  0.24511000  0.82073000  0.15929000  1.0
  N  N243  1  0.24137000  0.85474000  0.18203000  1.0
  N  N244  1  0.15153000  0.86747000  0.25405000  1.0
  N  N245  1  0.11593000  0.84492000  0.24996000  1.0
