# generated using pymatgen
data_NaH8C4N4O3
_symmetry_space_group_name_H-M   'P 1'
_cell_length_a   8.58318000
_cell_length_b   9.21161000
_cell_length_c   10.47398623
_cell_angle_alpha   70.17387287
_cell_angle_beta   80.56423501
_cell_angle_gamma   88.18190000
_symmetry_Int_Tables_number   1
_chemical_formula_structural   NaH8C4N4O3
_chemical_formula_sum   'Na4 H32 C16 N16 O12'
_cell_volume   768.24384786
_cell_formula_units_Z   4
loop_
 _symmetry_equiv_pos_site_id
 _symmetry_equiv_pos_as_xyz
  1  'x, y, z'
loop_
 _atom_site_type_symbol
 _atom_site_label
 _atom_site_symmetry_multiplicity
 _atom_site_fract_x
 _atom_site_fract_y
 _atom_site_fract_z
 _atom_site_occupancy
  Na  Na0  1  0.06227000  0.90584000  0.38729000  1.0
  Na  Na1  1  0.93773000  0.09416000  0.61271000  1.0
  Na  Na2  1  0.88863000  0.09238000  0.10089000  1.0
  Na  Na3  1  0.11136000  0.90762000  0.89911000  1.0
  H  H4  1  0.74013000  0.89159000  0.36503000  1.0
  H  H5  1  0.25987000  0.10841000  0.63497000  1.0
  H  H6  1  0.74730000  0.05589000  0.38287000  1.0
  H  H7  1  0.25270000  0.94412000  0.61713000  1.0
  H  H8  1  0.57578000  0.92078000  0.16277000  1.0
  H  H9  1  0.42422000  0.07923000  0.83723000  1.0
  H  H10  1  0.55540000  0.06803000  0.03609000  1.0
  H  H11  1  0.44460000  0.93196000  0.96391000  1.0
  H  H12  1  0.99888000  0.24386000  0.31222000  1.0
  H  H13  1  0.00112000  0.75615000  0.68778000  1.0
  H  H14  1  0.15614000  0.23709000  0.37484000  1.0
  H  H15  1  0.84386000  0.76291000  0.62516000  1.0
  H  H16  1  0.21199000  0.12127000  0.18333000  1.0
  H  H17  1  0.78800000  0.87872000  0.81668000  1.0
  H  H18  1  0.23613000  0.04036000  0.07284000  1.0
  H  H19  1  0.76387000  0.95964000  0.92716000  1.0
  H  H20  1  0.07038000  0.56450000  0.40899000  1.0
  H  H21  1  0.92964000  0.43552000  0.59098000  1.0
  H  H22  1  0.92392000  0.57551000  0.33571000  1.0
  H  H23  1  0.07609000  0.42449000  0.66429000  1.0
  H  H24  1  0.01302000  0.22218000  0.79739000  1.0
  H  H25  1  0.98697000  0.77783000  0.20261000  1.0
  H  H26  1  0.12862000  0.23618000  0.89211000  1.0
  H  H27  1  0.87137000  0.76382000  0.10789000  1.0
  H  H28  1  0.45673000  0.84705000  0.76341000  1.0
  H  H29  1  0.54327000  0.15295000  0.23659000  1.0
  H  H30  1  0.57174000  0.73398000  0.97986000  1.0
  H  H31  1  0.42825000  0.26602000  0.02014000  1.0
  H  H32  1  0.78927000  0.38349000  0.83220000  1.0
  H  H33  1  0.21074000  0.61652000  0.16779000  1.0
  H  H34  1  0.66807000  0.49065000  0.61889000  1.0
  H  H35  1  0.33194000  0.50936000  0.38111000  1.0
  C  C36  1  0.49820000  0.74938000  0.54498000  1.0
  C  C37  1  0.50180000  0.25062000  0.45502000  1.0
  C  C38  1  0.56037000  0.68010000  0.67382000  1.0
  C  C39  1  0.43963000  0.31989000  0.32619000  1.0
  C  C40  1  0.53072000  0.74644000  0.77786000  1.0
  C  C41  1  0.46927000  0.25356000  0.22214000  1.0
  C  C42  1  0.59581000  0.68495000  0.89752000  1.0
  C  C43  1  0.40419000  0.31504000  0.10248000  1.0
  C  C44  1  0.69364000  0.55625000  0.91765000  1.0
  C  C45  1  0.30635000  0.44375000  0.08235000  1.0
  C  C46  1  0.71723000  0.48563000  0.81658000  1.0
  C  C47  1  0.28277000  0.51437000  0.18342000  1.0
  C  C48  1  0.65163000  0.54663000  0.69652000  1.0
  C  C49  1  0.34838000  0.45337000  0.30348000  1.0
  C  C50  1  0.76669000  0.50111000  0.04167000  1.0
  C  C51  1  0.23330000  0.49889000  0.95834000  1.0
  N  N52  1  0.57111000  0.74552000  0.42153000  1.0
  N  N53  1  0.42889000  0.25448000  0.57847000  1.0
  N  N54  1  0.47670000  0.82334000  0.33168000  1.0
  N  N55  1  0.52330000  0.17666000  0.66832000  1.0
  N  N56  1  0.35210000  0.87262000  0.39745000  1.0
  N  N57  1  0.64790000  0.12738000  0.60255000  1.0
  N  N58  1  0.36339000  0.82896000  0.53152000  1.0
  N  N59  1  0.63661000  0.17104000  0.46848000  1.0
  N  N60  1  0.83567000  0.36343000  0.09002000  1.0
  N  N61  1  0.16433000  0.63657000  0.90998000  1.0
  N  N62  1  0.88580000  0.36495000  0.20424000  1.0
  N  N63  1  0.11420000  0.63505000  0.79576000  1.0
  N  N64  1  0.84869000  0.49634000  0.22510000  1.0
  N  N65  1  0.15131000  0.50366000  0.77490000  1.0
  N  N66  1  0.77411000  0.58497000  0.12455000  1.0
  N  N67  1  0.22588000  0.41503000  0.87545000  1.0
  O  O68  1  0.80736000  0.98538000  0.33873000  1.0
  O  O69  1  0.19264000  0.01463000  0.66127000  1.0
  O  O70  1  0.63300000  0.99169000  0.07138000  1.0
  O  O71  1  0.36701000  0.00831000  0.92863000  1.0
  O  O72  1  0.06419000  0.17464000  0.37995000  1.0
  O  O73  1  0.93581000  0.82535000  0.62006000  1.0
  O  O74  1  0.16080000  0.04981000  0.15147000  1.0
  O  O75  1  0.83920000  0.95018000  0.84853000  1.0
  O  O76  1  0.98473000  0.63347000  0.37918000  1.0
  O  O77  1  0.01527000  0.36653000  0.62082000  1.0
  O  O78  1  0.04795000  0.16522000  0.88518000  1.0
  O  O79  1  0.95205000  0.83478000  0.11482000  1.0
