# generated using pymatgen
data_CoH14C16N2O5
_symmetry_space_group_name_H-M   'P 1'
_cell_length_a   11.37690000
_cell_length_b   13.19770000
_cell_length_c   25.92370000
_cell_angle_alpha   89.99960000
_cell_angle_beta   89.99960000
_cell_angle_gamma   89.99990000
_symmetry_Int_Tables_number   1
_chemical_formula_structural   CoH14C16N2O5
_chemical_formula_sum   'Co8 H112 C128 N16 O40'
_cell_volume   3892.41537911
_cell_formula_units_Z   8
loop_
 _symmetry_equiv_pos_site_id
 _symmetry_equiv_pos_as_xyz
  1  'x, y, z'
loop_
 _atom_site_type_symbol
 _atom_site_label
 _atom_site_symmetry_multiplicity
 _atom_site_fract_x
 _atom_site_fract_y
 _atom_site_fract_z
 _atom_site_occupancy
  Co  Co0  1  0.85031000  0.94448000  0.92275000  1.0
  Co  Co1  1  0.64968000  0.05552000  0.42275000  1.0
  Co  Co2  1  0.35032000  0.55552000  0.07725000  1.0
  Co  Co3  1  0.14969000  0.44448000  0.57725000  1.0
  Co  Co4  1  0.10738000  0.05133000  0.85766000  1.0
  Co  Co5  1  0.39262000  0.94867000  0.35767000  1.0
  Co  Co6  1  0.60738000  0.44867000  0.14234000  1.0
  Co  Co7  1  0.89262000  0.55133000  0.64233000  1.0
  H  H8  1  0.94122000  0.13170000  0.90838000  1.0
  H  H9  1  0.55877000  0.86831000  0.40838000  1.0
  H  H10  1  0.44123000  0.36830000  0.09163000  1.0
  H  H11  1  0.05877000  0.63170000  0.59162000  1.0
  H  H12  1  0.85803000  0.09133000  0.86056000  1.0
  H  H13  1  0.64196000  0.90867000  0.36056000  1.0
  H  H14  1  0.35803000  0.40866000  0.13945000  1.0
  H  H15  1  0.14197000  0.59133000  0.63943000  1.0
  H  H16  1  0.60077000  0.00577000  0.94987000  1.0
  H  H17  1  0.89922000  0.99424000  0.44986000  1.0
  H  H18  1  0.10076000  0.49422000  0.05013000  1.0
  H  H19  1  0.39924000  0.50577000  0.55013000  1.0
  H  H20  1  0.24076000  0.76783000  0.91899000  1.0
  H  H21  1  0.25924000  0.23218000  0.41899000  1.0
  H  H22  1  0.74077000  0.73217000  0.08101000  1.0
  H  H23  1  0.75924000  0.26782000  0.58100000  1.0
  H  H24  1  0.02874000  0.74739000  0.65835000  1.0
  H  H25  1  0.47126000  0.25262000  0.15836000  1.0
  H  H26  1  0.52874000  0.75262000  0.34165000  1.0
  H  H27  1  0.97125000  0.24738000  0.84164000  1.0
  H  H28  1  0.82790000  0.56339000  0.75393000  1.0
  H  H29  1  0.67210000  0.43661000  0.25393000  1.0
  H  H30  1  0.32791000  0.93662000  0.24608000  1.0
  H  H31  1  0.17210000  0.06339000  0.74607000  1.0
  H  H32  1  0.33995000  0.63038000  0.97048000  1.0
  H  H33  1  0.16005000  0.36962000  0.47048000  1.0
  H  H34  1  0.83995000  0.86962000  0.02952000  1.0
  H  H35  1  0.66005000  0.13038000  0.52952000  1.0
  H  H36  1  0.30062000  0.19560000  0.82938000  1.0
  H  H37  1  0.19939000  0.80440000  0.32938000  1.0
  H  H38  1  0.80061000  0.30439000  0.17062000  1.0
  H  H39  1  0.69938000  0.69560000  0.67062000  1.0
  H  H40  1  0.49692000  0.13840000  0.00202000  1.0
  H  H41  1  0.00307000  0.86162000  0.50201000  1.0
  H  H42  1  0.99692000  0.36160000  0.99798000  1.0
  H  H43  1  0.50308000  0.63840000  0.49798000  1.0
  H  H44  1  0.06803000  0.86887000  0.72936000  1.0
  H  H45  1  0.43198000  0.13113000  0.22937000  1.0
  H  H46  1  0.56803000  0.63113000  0.27064000  1.0
  H  H47  1  0.93197000  0.36887000  0.77063000  1.0
  H  H48  1  0.83284000  0.22536000  0.06402000  1.0
  H  H49  1  0.66717000  0.77465000  0.56401000  1.0
  H  H50  1  0.33283000  0.27464000  0.93598000  1.0
  H  H51  1  0.16717000  0.72536000  0.43598000  1.0
  H  H52  1  0.85438000  0.68286000  0.82879000  1.0
  H  H53  1  0.64563000  0.31713000  0.32879000  1.0
  H  H54  1  0.35439000  0.81714000  0.17122000  1.0
  H  H55  1  0.14563000  0.18286000  0.67121000  1.0
  H  H56  1  0.18657000  0.72884000  0.10583000  1.0
  H  H57  1  0.31343000  0.27115000  0.60583000  1.0
  H  H58  1  0.68658000  0.77117000  0.89417000  1.0
  H  H59  1  0.81342000  0.22884000  0.39416000  1.0
  H  H60  1  0.07464000  0.86654000  0.05941000  1.0
  H  H61  1  0.42536000  0.13346000  0.55941000  1.0
  H  H62  1  0.57465000  0.63347000  0.94059000  1.0
  H  H63  1  0.92536000  0.36654000  0.44059000  1.0
  H  H64  1  0.52127000  0.19789000  0.82918000  1.0
  H  H65  1  0.97874000  0.80210000  0.32918000  1.0
  H  H66  1  0.02127000  0.30210000  0.17082000  1.0
  H  H67  1  0.47872000  0.69790000  0.67082000  1.0
  H  H68  1  0.92384000  0.08982000  0.00870000  1.0
  H  H69  1  0.57616000  0.91018000  0.50869000  1.0
  H  H70  1  0.42383000  0.41017000  0.99131000  1.0
  H  H71  1  0.07617000  0.58983000  0.49130000  1.0
  H  H72  1  0.29153000  0.88509000  0.84968000  1.0
  H  H73  1  0.20847000  0.11491000  0.34968000  1.0
  H  H74  1  0.79153000  0.61491000  0.15033000  1.0
  H  H75  1  0.70846000  0.38509000  0.65032000  1.0
  H  H76  1  0.51246000  0.87561000  0.85494000  1.0
  H  H77  1  0.98754000  0.12439000  0.35494000  1.0
  H  H78  1  0.01246000  0.62439000  0.14507000  1.0
  H  H79  1  0.48754000  0.37561000  0.64506000  1.0
  H  H80  1  0.23712000  0.24710000  0.15227000  1.0
  H  H81  1  0.26288000  0.75291000  0.65226000  1.0
  H  H82  1  0.73712000  0.25290000  0.84774000  1.0
  H  H83  1  0.76288000  0.74710000  0.34774000  1.0
  H  H84  1  0.09192000  0.13356000  0.03829000  1.0
  H  H85  1  0.40808000  0.86644000  0.53829000  1.0
  H  H86  1  0.59192000  0.36644000  0.96171000  1.0
  H  H87  1  0.90808000  0.63356000  0.46171000  1.0
  H  H88  1  0.05822000  0.21478000  0.09082000  1.0
  H  H89  1  0.44177000  0.78523000  0.59082000  1.0
  H  H90  1  0.55822000  0.28522000  0.90918000  1.0
  H  H91  1  0.94177000  0.71478000  0.40918000  1.0
  H  H92  1  0.07450000  0.08141000  0.10133000  1.0
  H  H93  1  0.42550000  0.91859000  0.60133000  1.0
  H  H94  1  0.57450000  0.41859000  0.89867000  1.0
  H  H95  1  0.92550000  0.58141000  0.39867000  1.0
  H  H96  1  0.26987000  0.22870000  0.06849000  1.0
  H  H97  1  0.23013000  0.77130000  0.56849000  1.0
  H  H98  1  0.76987000  0.27129000  0.93151000  1.0
  H  H99  1  0.73012000  0.72870000  0.43151000  1.0
  H  H100  1  0.38221000  0.03226000  0.14492000  1.0
  H  H101  1  0.11780000  0.96775000  0.64491000  1.0
  H  H102  1  0.88220000  0.46775000  0.85509000  1.0
  H  H103  1  0.61780000  0.53225000  0.35508000  1.0
  H  H104  1  0.49704000  0.88507000  0.11119000  1.0
  H  H105  1  0.00297000  0.11494000  0.61119000  1.0
  H  H106  1  0.99703000  0.61494000  0.88881000  1.0
  H  H107  1  0.50297000  0.38506000  0.38880000  1.0
  H  H108  1  0.49076000  0.84239000  0.01793000  1.0
  H  H109  1  0.00924000  0.15762000  0.51793000  1.0
  H  H110  1  0.99075000  0.65761000  0.98207000  1.0
  H  H111  1  0.50924000  0.34238000  0.48206000  1.0
  H  H112  1  0.36837000  0.94810000  0.95830000  1.0
  H  H113  1  0.13162000  0.05191000  0.45830000  1.0
  H  H114  1  0.86837000  0.55190000  0.04170000  1.0
  H  H115  1  0.63162000  0.44809000  0.54170000  1.0
  H  H116  1  0.25594000  0.09220000  0.99135000  1.0
  H  H117  1  0.24406000  0.90780000  0.49134000  1.0
  H  H118  1  0.75594000  0.40779000  0.00866000  1.0
  H  H119  1  0.74405000  0.59220000  0.50866000  1.0
  C  C120  1  0.64923000  0.05702000  0.97496000  1.0
  C  C121  1  0.85076000  0.94299000  0.47496000  1.0
  C  C122  1  0.14923000  0.44297000  0.02504000  1.0
  C  C123  1  0.35077000  0.55702000  0.52503000  1.0
  C  C124  1  0.22536000  0.76025000  0.96026000  1.0
  C  C125  1  0.27464000  0.23975000  0.46026000  1.0
  C  C126  1  0.72537000  0.73975000  0.03974000  1.0
  C  C127  1  0.77464000  0.26025000  0.53974000  1.0
  C  C128  1  0.98086000  0.86012000  0.82774000  1.0
  C  C129  1  0.51914000  0.13987000  0.32774000  1.0
  C  C130  1  0.48087000  0.63988000  0.17227000  1.0
  C  C131  1  0.01914000  0.36012000  0.67226000  1.0
  C  C132  1  0.99168000  0.73453000  0.69653000  1.0
  C  C133  1  0.50832000  0.26547000  0.19654000  1.0
  C  C134  1  0.49168000  0.76548000  0.30347000  1.0
  C  C135  1  0.00832000  0.23452000  0.80346000  1.0
  C  C136  1  0.87953000  0.63267000  0.75021000  1.0
  C  C137  1  0.62047000  0.36733000  0.25021000  1.0
  C  C138  1  0.37954000  0.86734000  0.24979000  1.0
  C  C139  1  0.12047000  0.13266000  0.74979000  1.0
  C  C140  1  0.28066000  0.68478000  0.98842000  1.0
  C  C141  1  0.21934000  0.31522000  0.48842000  1.0
  C  C142  1  0.78067000  0.81523000  0.01158000  1.0
  C  C143  1  0.71934000  0.18478000  0.51158000  1.0
  C  C144  1  0.35112000  0.12594000  0.83373000  1.0
  C  C145  1  0.14889000  0.87406000  0.33373000  1.0
  C  C146  1  0.85111000  0.37406000  0.16627000  1.0
  C  C147  1  0.64888000  0.62594000  0.66627000  1.0
  C  C148  1  0.59188000  0.13022000  0.00386000  1.0
  C  C149  1  0.90812000  0.86979000  0.50385000  1.0
  C  C150  1  0.09188000  0.36977000  0.99615000  1.0
  C  C151  1  0.40812000  0.63023000  0.49614000  1.0
  C  C152  1  0.53419000  0.03666000  0.84313000  1.0
  C  C153  1  0.96581000  0.96333000  0.34313000  1.0
  C  C154  1  0.03419000  0.46333000  0.15688000  1.0
  C  C155  1  0.46581000  0.53667000  0.65687000  1.0
  C  C156  1  0.01302000  0.80279000  0.73615000  1.0
  C  C157  1  0.48698000  0.19721000  0.23615000  1.0
  C  C158  1  0.51302000  0.69721000  0.26386000  1.0
  C  C159  1  0.98698000  0.30279000  0.76385000  1.0
  C  C160  1  0.65730000  0.19313000  0.03625000  1.0
  C  C161  1  0.84270000  0.80688000  0.53624000  1.0
  C  C162  1  0.15729000  0.30686000  0.96375000  1.0
  C  C163  1  0.34271000  0.69313000  0.46375000  1.0
  C  C164  1  0.96290000  0.78566000  0.78463000  1.0
  C  C165  1  0.53710000  0.21434000  0.28463000  1.0
  C  C166  1  0.46291000  0.71435000  0.21538000  1.0
  C  C167  1  0.03710000  0.28566000  0.71537000  1.0
  C  C168  1  0.77875000  0.17817000  0.03903000  1.0
  C  C169  1  0.72125000  0.82184000  0.53902000  1.0
  C  C170  1  0.27874000  0.32182000  0.96097000  1.0
  C  C171  1  0.22125000  0.67817000  0.46097000  1.0
  C  C172  1  0.59527000  0.27452000  0.06609000  1.0
  C  C173  1  0.90473000  0.72548000  0.56608000  1.0
  C  C174  1  0.09527000  0.22547000  0.93391000  1.0
  C  C175  1  0.40473000  0.77453000  0.43391000  1.0
  C  C176  1  0.89459000  0.69846000  0.79151000  1.0
  C  C177  1  0.60541000  0.30154000  0.29151000  1.0
  C  C178  1  0.39460000  0.80155000  0.20849000  1.0
  C  C179  1  0.10541000  0.19845000  0.70849000  1.0
  C  C180  1  0.19426000  0.73974000  0.06430000  1.0
  C  C181  1  0.30575000  0.26025000  0.56430000  1.0
  C  C182  1  0.69426000  0.76026000  0.93570000  1.0
  C  C183  1  0.80574000  0.23975000  0.43570000  1.0
  C  C184  1  0.13276000  0.81539000  0.03850000  1.0
  C  C185  1  0.36725000  0.18460000  0.53850000  1.0
  C  C186  1  0.63277000  0.68461000  0.96150000  1.0
  C  C187  1  0.86724000  0.31539000  0.46149000  1.0
  C  C188  1  0.47336000  0.12712000  0.83424000  1.0
  C  C189  1  0.02665000  0.87288000  0.33424000  1.0
  C  C190  1  0.97335000  0.37287000  0.16576000  1.0
  C  C191  1  0.52664000  0.62713000  0.66576000  1.0
  C  C192  1  0.14963000  0.82747000  0.98543000  1.0
  C  C193  1  0.35037000  0.17253000  0.48542000  1.0
  C  C194  1  0.64964000  0.67253000  0.01458000  1.0
  C  C195  1  0.85037000  0.32747000  0.51457000  1.0
  C  C196  1  0.82967000  0.10350000  0.00846000  1.0
  C  C197  1  0.67032000  0.89650000  0.50845000  1.0
  C  C198  1  0.32967000  0.39649000  0.99154000  1.0
  C  C199  1  0.17033000  0.60350000  0.49154000  1.0
  C  C200  1  0.09120000  0.91112000  0.95573000  1.0
  C  C201  1  0.40880000  0.08887000  0.45573000  1.0
  C  C202  1  0.59122000  0.58887000  0.04427000  1.0
  C  C203  1  0.90879000  0.41113000  0.54426000  1.0
  C  C204  1  0.34628000  0.95234000  0.84560000  1.0
  C  C205  1  0.15372000  0.04766000  0.34561000  1.0
  C  C206  1  0.84628000  0.54766000  0.15440000  1.0
  C  C207  1  0.65371000  0.45234000  0.65440000  1.0
  C  C208  1  0.46821000  0.94752000  0.84809000  1.0
  C  C209  1  0.03180000  0.05248000  0.34809000  1.0
  C  C210  1  0.96820000  0.55248000  0.15192000  1.0
  C  C211  1  0.53179000  0.44752000  0.65191000  1.0
  C  C212  1  0.66541000  0.03603000  0.85122000  1.0
  C  C213  1  0.83459000  0.96397000  0.35122000  1.0
  C  C214  1  0.16540000  0.46397000  0.14879000  1.0
  C  C215  1  0.33459000  0.53603000  0.64878000  1.0
  C  C216  1  0.10775000  0.14682000  0.07951000  1.0
  C  C217  1  0.39225000  0.85318000  0.57950000  1.0
  C  C218  1  0.60775000  0.35317000  0.92049000  1.0
  C  C219  1  0.89224000  0.64682000  0.42049000  1.0
  C  C220  1  0.23913000  0.16161000  0.09012000  1.0
  C  C221  1  0.26087000  0.83839000  0.59012000  1.0
  C  C222  1  0.73913000  0.33838000  0.90988000  1.0
  C  C223  1  0.76087000  0.66161000  0.40988000  1.0
  C  C224  1  0.31011000  0.07191000  0.07099000  1.0
  C  C225  1  0.18988000  0.92810000  0.57098000  1.0
  C  C226  1  0.81012000  0.42809000  0.92902000  1.0
  C  C227  1  0.68988000  0.57190000  0.42902000  1.0
  C  C228  1  0.37922000  0.01289000  0.10408000  1.0
  C  C229  1  0.12078000  0.98711000  0.60407000  1.0
  C  C230  1  0.87921000  0.48711000  0.89593000  1.0
  C  C231  1  0.62079000  0.51289000  0.39592000  1.0
  C  C232  1  0.44391000  0.93081000  0.08500000  1.0
  C  C233  1  0.05609000  0.06920000  0.58500000  1.0
  C  C234  1  0.94390000  0.56920000  0.91500000  1.0
  C  C235  1  0.55610000  0.43080000  0.41500000  1.0
  C  C236  1  0.44067000  0.90665000  0.03262000  1.0
  C  C237  1  0.05933000  0.09336000  0.53262000  1.0
  C  C238  1  0.94067000  0.59335000  0.96738000  1.0
  C  C239  1  0.55933000  0.40664000  0.46738000  1.0
  C  C240  1  0.37242000  0.96550000  0.99936000  1.0
  C  C241  1  0.12757000  0.03451000  0.49935000  1.0
  C  C242  1  0.87242000  0.53449000  0.00064000  1.0
  C  C243  1  0.62757000  0.46549000  0.50064000  1.0
  C  C244  1  0.30775000  0.04713000  0.01834000  1.0
  C  C245  1  0.19225000  0.95287000  0.51833000  1.0
  C  C246  1  0.80775000  0.45286000  0.98167000  1.0
  C  C247  1  0.69224000  0.54713000  0.48167000  1.0
  N  N248  1  0.26655000  0.67468000  0.03980000  1.0
  N  N249  1  0.23346000  0.32532000  0.53980000  1.0
  N  N250  1  0.76654000  0.82532000  0.96020000  1.0
  N  N251  1  0.73346000  0.17468000  0.46020000  1.0
  N  N252  1  0.92611000  0.65040000  0.70317000  1.0
  N  N253  1  0.57389000  0.34960000  0.20318000  1.0
  N  N254  1  0.42611000  0.84961000  0.29683000  1.0
  N  N255  1  0.07389000  0.15039000  0.79682000  1.0
  N  N256  1  0.76684000  0.04470000  0.97603000  1.0
  N  N257  1  0.73315000  0.95531000  0.47603000  1.0
  N  N258  1  0.26684000  0.45530000  0.02397000  1.0
  N  N259  1  0.23316000  0.54470000  0.52396000  1.0
  N  N260  1  0.28771000  0.04045000  0.84004000  1.0
  N  N261  1  0.21229000  0.95955000  0.34004000  1.0
  N  N262  1  0.78771000  0.45954000  0.15997000  1.0
  N  N263  1  0.71229000  0.54046000  0.65996000  1.0
  O  O264  1  0.92580000  0.07089000  0.88377000  1.0
  O  O265  1  0.57419000  0.92911000  0.38377000  1.0
  O  O266  1  0.42581000  0.42910000  0.11624000  1.0
  O  O267  1  0.07420000  0.57090000  0.61623000  1.0
  O  O268  1  0.72514000  0.11343000  0.83834000  1.0
  O  O269  1  0.77487000  0.88656000  0.33834000  1.0
  O  O270  1  0.22513000  0.38656000  0.16167000  1.0
  O  O271  1  0.27486000  0.61343000  0.66166000  1.0
  O  O272  1  0.48468000  0.28067000  0.06087000  1.0
  O  O273  1  0.01533000  0.71933000  0.56086000  1.0
  O  O274  1  0.98467000  0.21933000  0.93913000  1.0
  O  O275  1  0.51533000  0.78068000  0.43913000  1.0
  O  O276  1  0.70638000  0.95692000  0.87305000  1.0
  O  O277  1  0.79362000  0.04308000  0.37304000  1.0
  O  O278  1  0.20638000  0.54307000  0.12697000  1.0
  O  O279  1  0.29362000  0.45692000  0.62695000  1.0
  O  O280  1  0.05255000  0.93201000  0.81798000  1.0
  O  O281  1  0.44745000  0.06798000  0.31798000  1.0
  O  O282  1  0.55256000  0.56799000  0.18203000  1.0
  O  O283  1  0.94745000  0.43202000  0.68202000  1.0
  O  O284  1  0.92439000  0.84542000  0.86928000  1.0
  O  O285  1  0.57560000  0.15458000  0.36928000  1.0
  O  O286  1  0.42440000  0.65458000  0.13073000  1.0
  O  O287  1  0.07561000  0.34542000  0.63072000  1.0
  O  O288  1  0.98966000  0.93902000  0.97178000  1.0
  O  O289  1  0.51033000  0.06097000  0.47178000  1.0
  O  O290  1  0.48968000  0.56097000  0.02822000  1.0
  O  O291  1  0.01033000  0.43902000  0.52822000  1.0
  O  O292  1  0.65876000  0.33278000  0.09394000  1.0
  O  O293  1  0.84124000  0.66722000  0.59394000  1.0
  O  O294  1  0.15876000  0.16721000  0.90606000  1.0
  O  O295  1  0.34124000  0.83279000  0.40606000  1.0
  O  O296  1  0.14723000  0.94594000  0.91766000  1.0
  O  O297  1  0.35277000  0.05406000  0.41766000  1.0
  O  O298  1  0.64724000  0.55406000  0.08234000  1.0
  O  O299  1  0.85277000  0.44594000  0.58233000  1.0
  O  O300  1  0.26020000  0.17706000  0.14402000  1.0
  O  O301  1  0.23979000  0.82295000  0.64401000  1.0
  O  O302  1  0.76021000  0.32294000  0.85598000  1.0
  O  O303  1  0.73979000  0.67706000  0.35599000  1.0
