# generated using pymatgen
data_AgH17C18N4O3
_symmetry_space_group_name_H-M   'P 1'
_cell_length_a   5.94074000
_cell_length_b   12.83010000
_cell_length_c   26.42540000
_cell_angle_alpha   94.07980000
_cell_angle_beta   89.99350000
_cell_angle_gamma   103.39900000
_symmetry_Int_Tables_number   1
_chemical_formula_structural   AgH17C18N4O3
_chemical_formula_sum   'Ag4 H68 C72 N16 O12'
_cell_volume   1954.08291048
_cell_formula_units_Z   4
loop_
 _symmetry_equiv_pos_site_id
 _symmetry_equiv_pos_as_xyz
  1  'x, y, z'
loop_
 _atom_site_type_symbol
 _atom_site_label
 _atom_site_symmetry_multiplicity
 _atom_site_fract_x
 _atom_site_fract_y
 _atom_site_fract_z
 _atom_site_occupancy
  Ag  Ag0  1  0.49999000  0.99999000  0.50000000  1.0
  Ag  Ag1  1  0.50001000  0.00000000  0.00000000  1.0
  Ag  Ag2  1  0.13988000  0.99993000  0.75001000  1.0
  Ag  Ag3  1  0.86010000  0.00008000  0.24999000  1.0
  H  H4  1  0.95899000  0.16534000  0.60414000  1.0
  H  H5  1  0.79407000  0.83446000  0.89585000  1.0
  H  H6  1  0.04100000  0.83466000  0.39586000  1.0
  H  H7  1  0.20593000  0.16554000  0.10415000  1.0
  H  H8  1  0.41681000  0.29024000  0.60204000  1.0
  H  H9  1  0.12722000  0.70936000  0.89798000  1.0
  H  H10  1  0.58319000  0.70977000  0.39795000  1.0
  H  H11  1  0.87278000  0.29064000  0.10203000  1.0
  H  H12  1  0.66201000  0.39493000  0.59386000  1.0
  H  H13  1  0.26774000  0.60470000  0.90615000  1.0
  H  H14  1  0.33801000  0.60507000  0.40614000  1.0
  H  H15  1  0.73226000  0.39529000  0.09385000  1.0
  H  H16  1  0.82001000  0.25114000  0.43994000  1.0
  H  H17  1  0.56778000  0.74972000  0.06013000  1.0
  H  H18  1  0.17998000  0.74886000  0.56006000  1.0
  H  H19  1  0.43224000  0.25027000  0.93988000  1.0
  H  H20  1  0.75179000  0.29339000  0.52888000  1.0
  H  H21  1  0.45780000  0.70693000  0.97114000  1.0
  H  H22  1  0.24820000  0.70661000  0.47112000  1.0
  H  H23  1  0.54222000  0.29306000  0.02886000  1.0
  H  H24  1  0.85741000  0.17346000  0.68471000  1.0
  H  H25  1  0.68455000  0.82613000  0.81522000  1.0
  H  H26  1  0.14257000  0.82654000  0.31529000  1.0
  H  H27  1  0.31546000  0.17387000  0.18479000  1.0
  H  H28  1  0.39619000  0.36331000  0.74544000  1.0
  H  H29  1  0.03322000  0.63623000  0.75461000  1.0
  H  H30  1  0.60378000  0.63669000  0.25455000  1.0
  H  H31  1  0.96679000  0.36378000  0.24539000  1.0
  H  H32  1  0.28230000  0.26079000  0.69765000  1.0
  H  H33  1  0.02193000  0.73877000  0.80240000  1.0
  H  H34  1  0.71769000  0.73921000  0.30235000  1.0
  H  H35  1  0.97809000  0.26123000  0.19760000  1.0
  H  H36  1  0.19793000  0.12653000  0.55299000  1.0
  H  H37  1  0.07122000  0.87342000  0.94706000  1.0
  H  H38  1  0.80206000  0.87346000  0.44701000  1.0
  H  H39  1  0.92879000  0.12658000  0.05294000  1.0
  H  H40  1  0.02855000  0.16479000  0.37393000  1.0
  H  H41  1  0.86259000  0.83616000  0.12612000  1.0
  H  H42  1  0.97144000  0.83521000  0.62607000  1.0
  H  H43  1  0.13745000  0.16383000  0.87388000  1.0
  H  H44  1  0.16339000  0.39089000  0.64207000  1.0
  H  H45  1  0.77298000  0.60863000  0.85799000  1.0
  H  H46  1  0.83662000  0.60911000  0.35793000  1.0
  H  H47  1  0.22702000  0.39138000  0.14201000  1.0
  H  H48  1  0.36789000  0.50874000  0.62672000  1.0
  H  H49  1  0.85963000  0.49078000  0.87332000  1.0
  H  H50  1  0.63211000  0.49126000  0.37328000  1.0
  H  H51  1  0.14036000  0.50922000  0.12668000  1.0
  H  H52  1  0.26820000  0.49657000  0.68947000  1.0
  H  H53  1  0.77216000  0.50297000  0.81057000  1.0
  H  H54  1  0.73179000  0.50343000  0.31052000  1.0
  H  H55  1  0.22785000  0.49704000  0.18943000  1.0
  H  H56  1  0.67312000  0.53508000  0.72133000  1.0
  H  H57  1  0.13891000  0.46465000  0.77865000  1.0
  H  H58  1  0.32688000  0.46492000  0.27867000  1.0
  H  H59  1  0.86109000  0.53536000  0.22135000  1.0
  H  H60  1  0.78957000  0.54431000  0.65947000  1.0
  H  H61  1  0.24603000  0.45538000  0.84052000  1.0
  H  H62  1  0.21043000  0.45569000  0.34053000  1.0
  H  H63  1  0.75396000  0.54462000  0.15948000  1.0
  H  H64  1  0.86764000  0.45499000  0.70073000  1.0
  H  H65  1  0.41335000  0.54486000  0.79931000  1.0
  H  H66  1  0.13235000  0.54501000  0.29927000  1.0
  H  H67  1  0.58666000  0.45514000  0.20069000  1.0
  H  H68  1  0.31379000  0.06044000  0.40090000  1.0
  H  H69  1  0.25260000  0.94016000  0.09915000  1.0
  H  H70  1  0.68620000  0.93956000  0.59910000  1.0
  H  H71  1  0.74742000  0.05984000  0.90085000  1.0
  C  C72  1  0.98669000  0.19569000  0.50268000  1.0
  C  C73  1  0.79040000  0.80465000  0.99737000  1.0
  C  C74  1  0.01330000  0.80431000  0.49732000  1.0
  C  C75  1  0.20961000  0.19535000  0.00263000  1.0
  C  C76  1  0.51549000  0.40006000  0.66894000  1.0
  C  C77  1  0.11593000  0.59953000  0.83110000  1.0
  C  C78  1  0.48451000  0.59994000  0.33106000  1.0
  C  C79  1  0.88408000  0.40047000  0.16890000  1.0
  C  C80  1  0.85779000  0.22029000  0.59166000  1.0
  C  C81  1  0.63777000  0.77957000  0.90834000  1.0
  C  C82  1  0.14221000  0.77971000  0.40834000  1.0
  C  C83  1  0.36223000  0.22042000  0.09167000  1.0
  C  C84  1  0.62068000  0.26070000  0.72072000  1.0
  C  C85  1  0.36038000  0.73893000  0.77927000  1.0
  C  C86  1  0.37930000  0.73930000  0.27928000  1.0
  C  C87  1  0.63963000  0.26107000  0.22073000  1.0
  C  C88  1  0.72755000  0.26135000  0.63103000  1.0
  C  C89  1  0.46678000  0.73828000  0.86895000  1.0
  C  C90  1  0.27245000  0.73865000  0.36897000  1.0
  C  C91  1  0.53322000  0.26172000  0.13105000  1.0
  C  C92  1  0.57779000  0.33744000  0.62101000  1.0
  C  C93  1  0.24098000  0.66216000  0.87900000  1.0
  C  C94  1  0.42222000  0.66257000  0.37899000  1.0
  C  C95  1  0.75902000  0.33783000  0.12100000  1.0
  C  C96  1  0.94492000  0.20630000  0.45110000  1.0
  C  C97  1  0.73771000  0.79439000  0.04896000  1.0
  C  C98  1  0.05507000  0.79370000  0.54890000  1.0
  C  C99  1  0.26232000  0.20560000  0.95104000  1.0
  C  C100  1  0.85843000  0.24131000  0.54196000  1.0
  C  C101  1  0.61680000  0.75886000  0.95807000  1.0
  C  C102  1  0.14157000  0.75869000  0.45804000  1.0
  C  C103  1  0.38321000  0.24113000  0.04194000  1.0
  C  C104  1  0.74428000  0.22763000  0.67884000  1.0
  C  C105  1  0.51723000  0.77196000  0.82112000  1.0
  C  C106  1  0.25571000  0.77237000  0.32116000  1.0
  C  C107  1  0.48277000  0.22805000  0.17889000  1.0
  C  C108  1  0.43995000  0.32107000  0.71055000  1.0
  C  C109  1  0.11930000  0.67851000  0.78949000  1.0
  C  C110  1  0.56004000  0.67893000  0.28945000  1.0
  C  C111  1  0.88071000  0.32149000  0.21051000  1.0
  C  C112  1  0.15276000  0.13794000  0.51405000  1.0
  C  C113  1  0.01444000  0.86225000  0.98600000  1.0
  C  C114  1  0.84722000  0.86206000  0.48595000  1.0
  C  C115  1  0.98557000  0.13775000  0.01400000  1.0
  C  C116  1  0.06134000  0.15825000  0.41396000  1.0
  C  C117  1  0.90207000  0.84253000  0.08609000  1.0
  C  C118  1  0.93865000  0.84174000  0.58604000  1.0
  C  C119  1  0.09796000  0.15747000  0.91391000  1.0
  C  C120  1  0.66942000  0.23663000  0.76958000  1.0
  C  C121  1  0.43270000  0.76321000  0.73040000  1.0
  C  C122  1  0.33058000  0.76338000  0.23042000  1.0
  C  C123  1  0.56731000  0.23679000  0.26960000  1.0
  C  C124  1  0.56306000  0.27239000  0.81335000  1.0
  C  C125  1  0.29028000  0.72738000  0.68668000  1.0
  C  C126  1  0.43693000  0.72762000  0.18665000  1.0
  C  C127  1  0.70973000  0.27263000  0.31332000  1.0
  C  C128  1  0.31711000  0.45153000  0.65602000  1.0
  C  C129  1  0.86606000  0.54801000  0.84402000  1.0
  C  C130  1  0.68289000  0.54848000  0.34397000  1.0
  C  C131  1  0.13394000  0.45199000  0.15597000  1.0
  C  C132  1  0.72388000  0.48841000  0.68854000  1.0
  C  C133  1  0.23614000  0.51130000  0.81146000  1.0
  C  C134  1  0.27612000  0.51159000  0.31146000  1.0
  C  C135  1  0.76386000  0.48870000  0.18854000  1.0
  C  C136  1  0.84304000  0.18005000  0.77749000  1.0
  C  C137  1  0.66277000  0.81994000  0.72242000  1.0
  C  C138  1  0.15697000  0.81997000  0.22251000  1.0
  C  C139  1  0.33723000  0.18006000  0.27759000  1.0
  C  C140  1  0.21940000  0.10069000  0.42840000  1.0
  C  C141  1  0.11793000  0.89989000  0.07165000  1.0
  C  C142  1  0.78058000  0.89930000  0.57160000  1.0
  C  C143  1  0.88209000  0.10011000  0.92835000  1.0
  N  N144  1  0.26493000  0.09182000  0.47797000  1.0
  N  N145  1  0.17265000  0.90849000  0.02208000  1.0
  N  N146  1  0.73505000  0.90818000  0.52203000  1.0
  N  N147  1  0.82737000  0.09151000  0.97792000  1.0
  N  N148  1  0.32519000  0.03718000  0.64516000  1.0
  N  N149  1  0.28864000  0.96257000  0.85474000  1.0
  N  N150  1  0.67479000  0.96282000  0.35484000  1.0
  N  N151  1  0.71138000  0.03743000  0.14526000  1.0
  N  N152  1  0.99369000  0.13631000  0.78154000  1.0
  N  N153  1  0.85714000  0.86376000  0.71831000  1.0
  N  N154  1  0.00631000  0.86370000  0.21846000  1.0
  N  N155  1  0.14287000  0.13625000  0.28169000  1.0
  N  N156  1  0.48388000  0.30560000  0.84987000  1.0
  N  N157  1  0.17755000  0.69417000  0.65022000  1.0
  N  N158  1  0.51611000  0.69441000  0.15013000  1.0
  N  N159  1  0.82247000  0.30584000  0.34979000  1.0
  O  O160  1  0.16318000  0.08410000  0.65616000  1.0
  O  O161  1  0.07984000  0.91547000  0.84365000  1.0
  O  O162  1  0.83678000  0.91590000  0.34384000  1.0
  O  O163  1  0.92017000  0.08453000  0.15635000  1.0
  O  O164  1  0.40375000  0.98771000  0.67883000  1.0
  O  O165  1  0.41665000  0.01232000  0.82112000  1.0
  O  O166  1  0.59623000  0.01230000  0.32117000  1.0
  O  O167  1  0.58335000  0.98769000  0.17888000  1.0
  O  O168  1  0.40935000  0.03981000  0.60130000  1.0
  O  O169  1  0.36998000  0.95987000  0.89860000  1.0
  O  O170  1  0.59063000  0.96019000  0.39870000  1.0
  O  O171  1  0.63005000  0.04013000  0.10140000  1.0
