# generated using pymatgen
data_CuH8C14(N4O3)2
_symmetry_space_group_name_H-M   'P 1'
_cell_length_a   9.40259000
_cell_length_b   9.44570000
_cell_length_c   14.77460000
_cell_angle_alpha   90.00100000
_cell_angle_beta   90.00030000
_cell_angle_gamma   71.16100000
_symmetry_Int_Tables_number   1
_chemical_formula_structural   CuH8C14(N4O3)2
_chemical_formula_sum   'Cu2 H16 C28 N16 O12'
_cell_volume   1241.89743740
_cell_formula_units_Z   2
loop_
 _symmetry_equiv_pos_site_id
 _symmetry_equiv_pos_as_xyz
  1  'x, y, z'
loop_
 _atom_site_type_symbol
 _atom_site_label
 _atom_site_symmetry_multiplicity
 _atom_site_fract_x
 _atom_site_fract_y
 _atom_site_fract_z
 _atom_site_occupancy
  Cu  Cu0  1  0.00000000  0.50000000  0.50000000  1.0
  Cu  Cu1  1  0.00000000  0.00001000  0.00000000  1.0
  H  H2  1  0.32593000  0.71952000  0.79025000  1.0
  H  H3  1  0.29840000  0.50182000  0.60361000  1.0
  H  H4  1  0.99811000  0.77502000  0.79517000  1.0
  H  H5  1  0.40058000  0.69893000  0.11500000  1.0
  H  H6  1  0.67408000  0.78049000  0.29025000  1.0
  H  H7  1  0.70160000  0.99818000  0.10361000  1.0
  H  H8  1  0.00189000  0.72498000  0.29517000  1.0
  H  H9  1  0.59942000  0.80107000  0.61499000  1.0
  H  H10  1  0.67407000  0.28049000  0.20975000  1.0
  H  H11  1  0.70161000  0.49818000  0.39639000  1.0
  H  H12  1  0.00189000  0.22498000  0.20483000  1.0
  H  H13  1  0.59941000  0.30107000  0.88501000  1.0
  H  H14  1  0.32593000  0.21951000  0.70975000  1.0
  H  H15  1  0.29840000  0.00181000  0.89639000  1.0
  H  H16  1  0.99812000  0.27502000  0.70483000  1.0
  H  H17  1  0.40058000  0.19893000  0.38501000  1.0
  C  C18  1  0.19583000  0.56864000  0.63645000  1.0
  C  C19  1  0.03766000  0.71170000  0.73368000  1.0
  C  C20  1  0.34054000  0.49889000  0.83246000  1.0
  C  C21  1  0.42219000  0.50589000  0.91831000  1.0
  C  C22  1  0.36605000  0.61870000  0.98381000  1.0
  C  C23  1  0.44545000  0.61168000  0.06458000  1.0
  C  C24  1  0.21774000  0.74108000  0.97279000  1.0
  C  C25  1  0.80417000  0.93137000  0.13645000  1.0
  C  C26  1  0.96234000  0.78830000  0.23368000  1.0
  C  C27  1  0.65945000  0.00112000  0.33246000  1.0
  C  C28  1  0.57781000  0.99412000  0.41831000  1.0
  C  C29  1  0.63395000  0.88131000  0.48380000  1.0
  C  C30  1  0.55455000  0.88832000  0.56458000  1.0
  C  C31  1  0.78226000  0.75892000  0.47278000  1.0
  C  C32  1  0.80418000  0.43137000  0.36355000  1.0
  C  C33  1  0.96234000  0.28830000  0.26632000  1.0
  C  C34  1  0.65945000  0.50112000  0.16754000  1.0
  C  C35  1  0.57780000  0.49412000  0.08169000  1.0
  C  C36  1  0.63394000  0.38131000  0.01619000  1.0
  C  C37  1  0.55454000  0.38833000  0.93542000  1.0
  C  C38  1  0.78225000  0.25892000  0.02721000  1.0
  C  C39  1  0.19583000  0.06863000  0.86355000  1.0
  C  C40  1  0.03767000  0.21170000  0.76632000  1.0
  C  C41  1  0.34055000  0.99888000  0.66754000  1.0
  C  C42  1  0.42219000  0.00588000  0.58169000  1.0
  C  C43  1  0.36605000  0.11869000  0.51619000  1.0
  C  C44  1  0.44545000  0.11167000  0.43542000  1.0
  C  C45  1  0.21774000  0.24107000  0.52721000  1.0
  N  N46  1  0.05752000  0.59576000  0.60613000  1.0
  N  N47  1  0.95723000  0.68753000  0.66644000  1.0
  N  N48  1  0.18789000  0.64004000  0.71684000  1.0
  N  N49  1  0.30493000  0.62248000  0.77633000  1.0
  N  N50  1  0.94248000  0.90425000  0.10613000  1.0
  N  N51  1  0.04277000  0.81247000  0.16644000  1.0
  N  N52  1  0.81211000  0.85997000  0.21683000  1.0
  N  N53  1  0.69507000  0.87753000  0.27632000  1.0
  N  N54  1  0.94248000  0.40424000  0.39387000  1.0
  N  N55  1  0.04278000  0.31246000  0.33356000  1.0
  N  N56  1  0.81211000  0.35997000  0.28316000  1.0
  N  N57  1  0.69507000  0.37752000  0.22368000  1.0
  N  N58  1  0.05752000  0.09575000  0.89387000  1.0
  N  N59  1  0.95723000  0.18754000  0.83356000  1.0
  N  N60  1  0.18789000  0.14002000  0.78317000  1.0
  N  N61  1  0.30494000  0.12247000  0.72368000  1.0
  O  O62  1  0.31216000  0.38496000  0.81011000  1.0
  O  O63  1  0.11226000  0.71652000  0.93124000  1.0
  O  O64  1  0.21188000  0.86739000  0.00946000  1.0
  O  O65  1  0.68783000  0.11505000  0.31011000  1.0
  O  O66  1  0.88774000  0.78348000  0.43123000  1.0
  O  O67  1  0.78812000  0.63261000  0.50946000  1.0
  O  O68  1  0.68783000  0.61505000  0.18989000  1.0
  O  O69  1  0.88774000  0.28348000  0.06876000  1.0
  O  O70  1  0.78812000  0.13261000  0.99054000  1.0
  O  O71  1  0.31217000  0.88494000  0.68988000  1.0
  O  O72  1  0.11226000  0.21651000  0.56877000  1.0
  O  O73  1  0.21188000  0.36738000  0.49054000  1.0
