# generated using pymatgen
data_SrH8C11N2O5
_symmetry_space_group_name_H-M   'P 1'
_cell_length_a   6.60709000
_cell_length_b   12.59730000
_cell_length_c   14.03000000
_cell_angle_alpha   103.63700000
_cell_angle_beta   90.00000000
_cell_angle_gamma   90.00000000
_symmetry_Int_Tables_number   1
_chemical_formula_structural   SrH8C11N2O5
_chemical_formula_sum   'Sr4 H32 C44 N8 O20'
_cell_volume   1134.81811582
_cell_formula_units_Z   4
loop_
 _symmetry_equiv_pos_site_id
 _symmetry_equiv_pos_as_xyz
  1  'x, y, z'
loop_
 _atom_site_type_symbol
 _atom_site_label
 _atom_site_symmetry_multiplicity
 _atom_site_fract_x
 _atom_site_fract_y
 _atom_site_fract_z
 _atom_site_occupancy
  Sr  Sr0  1  0.06610000  0.16215000  0.46945000  1.0
  Sr  Sr1  1  0.56609000  0.33785000  0.53056000  1.0
  Sr  Sr2  1  0.93390000  0.83785000  0.53055000  1.0
  Sr  Sr3  1  0.43391000  0.66215000  0.46945000  1.0
  H  H4  1  0.04306000  0.17826000  0.25668000  1.0
  H  H5  1  0.54306000  0.32173000  0.74332000  1.0
  H  H6  1  0.95694000  0.82173000  0.74332000  1.0
  H  H7  1  0.45694000  0.67826000  0.25668000  1.0
  H  H8  1  0.85526000  0.00439000  0.27553000  1.0
  H  H9  1  0.35526000  0.49561000  0.72447000  1.0
  H  H10  1  0.14473000  0.99561000  0.72447000  1.0
  H  H11  1  0.64474000  0.50439000  0.27553000  1.0
  H  H12  1  0.02552000  0.91932000  0.14151000  1.0
  H  H13  1  0.52552000  0.58068000  0.85849000  1.0
  H  H14  1  0.97448000  0.08068000  0.85849000  1.0
  H  H15  1  0.47448000  0.41932000  0.14151000  1.0
  H  H16  1  0.28846000  0.80379000  0.04145000  1.0
  H  H17  1  0.78846000  0.69621000  0.95855000  1.0
  H  H18  1  0.71154000  0.19622000  0.95855000  1.0
  H  H19  1  0.21154000  0.30378000  0.04144000  1.0
  H  H20  1  0.28078000  0.60240000  0.01832000  1.0
  H  H21  1  0.78077000  0.89761000  0.98168000  1.0
  H  H22  1  0.71924000  0.39761000  0.98168000  1.0
  H  H23  1  0.21923000  0.10239000  0.01832000  1.0
  H  H24  1  0.00266000  0.51562000  0.09436000  1.0
  H  H25  1  0.50266000  0.98438000  0.90564000  1.0
  H  H26  1  0.99735000  0.48439000  0.90564000  1.0
  H  H27  1  0.49734000  0.01561000  0.09436000  1.0
  H  H28  1  0.73720000  0.63057000  0.19216000  1.0
  H  H29  1  0.23720000  0.86943000  0.80784000  1.0
  H  H30  1  0.26281000  0.36943000  0.80784000  1.0
  H  H31  1  0.76280000  0.13057000  0.19216000  1.0
  H  H32  1  0.20986000  0.08623000  0.24469000  1.0
  H  H33  1  0.70986000  0.41377000  0.75531000  1.0
  H  H34  1  0.79014000  0.91377000  0.75531000  1.0
  H  H35  1  0.29014000  0.58623000  0.24469000  1.0
  C  C36  1  0.24604000  0.88037000  0.37519000  1.0
  C  C37  1  0.74605000  0.61963000  0.62481000  1.0
  C  C38  1  0.75396000  0.11962000  0.62481000  1.0
  C  C39  1  0.25396000  0.38037000  0.37519000  1.0
  C  C40  1  0.43909000  0.89825000  0.32538000  1.0
  C  C41  1  0.93909000  0.60175000  0.67462000  1.0
  C  C42  1  0.56091000  0.10175000  0.67462000  1.0
  C  C43  1  0.06091000  0.39825000  0.32538000  1.0
  C  C44  1  0.56318000  0.99064000  0.33715000  1.0
  C  C45  1  0.06318000  0.50936000  0.66285000  1.0
  C  C46  1  0.43682000  0.00936000  0.66285000  1.0
  C  C47  1  0.93682000  0.49064000  0.33715000  1.0
  C  C48  1  0.56772000  0.09928000  0.40638000  1.0
  C  C49  1  0.06772000  0.40072000  0.59362000  1.0
  C  C50  1  0.43227000  0.90072000  0.59362000  1.0
  C  C51  1  0.93228000  0.59928000  0.40638000  1.0
  C  C52  1  0.70839000  0.84817000  0.23566000  1.0
  C  C53  1  0.20839000  0.65183000  0.76434000  1.0
  C  C54  1  0.29161000  0.15183000  0.76434000  1.0
  C  C55  1  0.79161000  0.34817000  0.23566000  1.0
  C  C56  1  0.86221000  0.78248000  0.17376000  1.0
  C  C57  1  0.36221000  0.71752000  0.82624000  1.0
  C  C58  1  0.13779000  0.21752000  0.82624000  1.0
  C  C59  1  0.63779000  0.28248000  0.17376000  1.0
  C  C60  1  0.01927000  0.83075000  0.13098000  1.0
  C  C61  1  0.51928000  0.66925000  0.86902000  1.0
  C  C62  1  0.98073000  0.16926000  0.86902000  1.0
  C  C63  1  0.48072000  0.33074000  0.13098000  1.0
  C  C64  1  0.16798000  0.76599000  0.07497000  1.0
  C  C65  1  0.66798000  0.73401000  0.92503000  1.0
  C  C66  1  0.83202000  0.23401000  0.92503000  1.0
  C  C67  1  0.33202000  0.26599000  0.07497000  1.0
  C  C68  1  0.16330000  0.65253000  0.06163000  1.0
  C  C69  1  0.66330000  0.84747000  0.93838000  1.0
  C  C70  1  0.83670000  0.34748000  0.93838000  1.0
  C  C71  1  0.33670000  0.15253000  0.06162000  1.0
  C  C72  1  0.00783000  0.60411000  0.10418000  1.0
  C  C73  1  0.50783000  0.89589000  0.89582000  1.0
  C  C74  1  0.99218000  0.39590000  0.89582000  1.0
  C  C75  1  0.49217000  0.10411000  0.10418000  1.0
  C  C76  1  0.85762000  0.66826000  0.15903000  1.0
  C  C77  1  0.35762000  0.83174000  0.84097000  1.0
  C  C78  1  0.14238000  0.33175000  0.84097000  1.0
  C  C79  1  0.64238000  0.16825000  0.15903000  1.0
  N  N80  1  0.53212000  0.81131000  0.26306000  1.0
  N  N81  1  0.03212000  0.68869000  0.73694000  1.0
  N  N82  1  0.46788000  0.18869000  0.73694000  1.0
  N  N83  1  0.96789000  0.31131000  0.26306000  1.0
  N  N84  1  0.72960000  0.95637000  0.27856000  1.0
  N  N85  1  0.22960000  0.54363000  0.72144000  1.0
  N  N86  1  0.27040000  0.04363000  0.72144000  1.0
  N  N87  1  0.77040000  0.45637000  0.27856000  1.0
  O  O88  1  0.12485000  0.95868000  0.40885000  1.0
  O  O89  1  0.62485000  0.54131000  0.59115000  1.0
  O  O90  1  0.87515000  0.04131000  0.59115000  1.0
  O  O91  1  0.37515000  0.45868000  0.40885000  1.0
  O  O92  1  0.43449000  0.12483000  0.47280000  1.0
  O  O93  1  0.93449000  0.37516000  0.52721000  1.0
  O  O94  1  0.56551000  0.87516000  0.52721000  1.0
  O  O95  1  0.06551000  0.62484000  0.47279000  1.0
  O  O96  1  0.71544000  0.16221000  0.39764000  1.0
  O  O97  1  0.21544000  0.33779000  0.60236000  1.0
  O  O98  1  0.28455000  0.83779000  0.60236000  1.0
  O  O99  1  0.78456000  0.66221000  0.39764000  1.0
  O  O100  1  0.06808000  0.10030000  0.26211000  1.0
  O  O101  1  0.56808000  0.39970000  0.73789000  1.0
  O  O102  1  0.93192000  0.89970000  0.73789000  1.0
  O  O103  1  0.43193000  0.60030000  0.26211000  1.0
  O  O104  1  0.21218000  0.78364000  0.38371000  1.0
  O  O105  1  0.71219000  0.71636000  0.61628000  1.0
  O  O106  1  0.78782000  0.21636000  0.61628000  1.0
  O  O107  1  0.28782000  0.28364000  0.38372000  1.0
