# generated using pymatgen
data_CuH27C36IN7O3
_symmetry_space_group_name_H-M   'P 1'
_cell_length_a   8.68721000
_cell_length_b   19.69490000
_cell_length_c   24.72650000
_cell_angle_alpha   90.00010000
_cell_angle_beta   90.17550000
_cell_angle_gamma   89.99990000
_symmetry_Int_Tables_number   1
_chemical_formula_structural   CuH27C36IN7O3
_chemical_formula_sum   'Cu4 H108 C144 I4 N28 O12'
_cell_volume   4230.52932384
_cell_formula_units_Z   4
loop_
 _symmetry_equiv_pos_site_id
 _symmetry_equiv_pos_as_xyz
  1  'x, y, z'
loop_
 _atom_site_type_symbol
 _atom_site_label
 _atom_site_symmetry_multiplicity
 _atom_site_fract_x
 _atom_site_fract_y
 _atom_site_fract_z
 _atom_site_occupancy
  Cu  Cu0  1  0.45728000  0.50066000  0.54945000  1.0
  Cu  Cu1  1  0.04271000  0.00066000  0.45055000  1.0
  Cu  Cu2  1  0.54271000  0.49933000  0.45054000  1.0
  Cu  Cu3  1  0.95728000  0.99934000  0.54946000  1.0
  H  H4  1  0.07487000  0.98760000  0.73288000  1.0
  H  H5  1  0.42513000  0.48759000  0.26712000  1.0
  H  H6  1  0.92514000  0.01241000  0.26711000  1.0
  H  H7  1  0.57486000  0.51241000  0.73288000  1.0
  H  H8  1  0.17385000  0.88919000  0.68124000  1.0
  H  H9  1  0.32616000  0.38918000  0.31876000  1.0
  H  H10  1  0.82615000  0.11081000  0.31876000  1.0
  H  H11  1  0.67385000  0.61081000  0.68124000  1.0
  H  H12  1  0.90090000  0.75410000  0.77861000  1.0
  H  H13  1  0.59912000  0.25410000  0.22139000  1.0
  H  H14  1  0.09912000  0.24590000  0.22139000  1.0
  H  H15  1  0.40089000  0.74590000  0.77861000  1.0
  H  H16  1  0.80097000  0.85234000  0.83026000  1.0
  H  H17  1  0.69903000  0.35234000  0.16974000  1.0
  H  H18  1  0.19903000  0.14766000  0.16975000  1.0
  H  H19  1  0.30097000  0.64766000  0.83025000  1.0
  H  H20  1  0.31961000  0.73254000  0.62240000  1.0
  H  H21  1  0.18039000  0.23254000  0.37760000  1.0
  H  H22  1  0.68041000  0.26746000  0.37760000  1.0
  H  H23  1  0.81959000  0.76747000  0.62240000  1.0
  H  H24  1  0.46848000  0.64890000  0.56851000  1.0
  H  H25  1  0.03153000  0.14890000  0.43150000  1.0
  H  H26  1  0.53153000  0.35110000  0.43150000  1.0
  H  H27  1  0.96845000  0.85110000  0.56851000  1.0
  H  H28  1  0.14953000  0.49712000  0.59657000  1.0
  H  H29  1  0.35045000  0.99712000  0.40343000  1.0
  H  H30  1  0.85046000  0.50288000  0.40343000  1.0
  H  H31  1  0.64953000  0.00288000  0.59657000  1.0
  H  H32  1  0.99046000  0.57333000  0.65571000  1.0
  H  H33  1  0.50953000  0.07332000  0.34429000  1.0
  H  H34  1  0.00954000  0.42667000  0.34429000  1.0
  H  H35  1  0.49045000  0.92667000  0.65571000  1.0
  H  H36  1  0.99252000  0.10805000  0.83648000  1.0
  H  H37  1  0.50747000  0.60806000  0.16352000  1.0
  H  H38  1  0.00749000  0.89194000  0.16351000  1.0
  H  H39  1  0.49253000  0.39195000  0.83649000  1.0
  H  H40  1  0.92254000  0.21569000  0.78928000  1.0
  H  H41  1  0.57746000  0.71569000  0.21072000  1.0
  H  H42  1  0.07746000  0.78431000  0.21072000  1.0
  H  H43  1  0.42253000  0.28432000  0.78928000  1.0
  H  H44  1  0.63263000  0.10202000  0.68055000  1.0
  H  H45  1  0.86737000  0.60202000  0.31945000  1.0
  H  H46  1  0.36737000  0.89798000  0.31945000  1.0
  H  H47  1  0.13263000  0.39799000  0.68055000  1.0
  H  H48  1  0.70596000  0.99495000  0.72661000  1.0
  H  H49  1  0.79404000  0.49495000  0.27339000  1.0
  H  H50  1  0.29404000  0.00505000  0.27339000  1.0
  H  H51  1  0.20597000  0.50505000  0.72661000  1.0
  H  H52  1  0.83720000  0.41873000  0.68959000  1.0
  H  H53  1  0.66280000  0.91873000  0.31041000  1.0
  H  H54  1  0.16277000  0.58127000  0.31041000  1.0
  H  H55  1  0.33721000  0.08127000  0.68959000  1.0
  H  H56  1  0.70507000  0.50107000  0.62907000  1.0
  H  H57  1  0.79492000  0.00107000  0.37093000  1.0
  H  H58  1  0.29491000  0.49894000  0.37093000  1.0
  H  H59  1  0.20509000  0.99894000  0.62907000  1.0
  H  H60  1  0.40031000  0.35531000  0.57360000  1.0
  H  H61  1  0.09971000  0.85531000  0.42640000  1.0
  H  H62  1  0.59970000  0.64469000  0.42639000  1.0
  H  H63  1  0.90029000  0.14469000  0.57361000  1.0
  H  H64  1  0.51979000  0.26572000  0.63037000  1.0
  H  H65  1  0.98022000  0.76572000  0.36963000  1.0
  H  H66  1  0.48021000  0.73428000  0.36963000  1.0
  H  H67  1  0.01979000  0.23428000  0.63037000  1.0
  H  H68  1  0.01144000  0.90494000  0.89209000  1.0
  H  H69  1  0.48856000  0.40494000  0.10791000  1.0
  H  H70  1  0.98857000  0.09506000  0.10791000  1.0
  H  H71  1  0.51143000  0.59506000  0.89209000  1.0
  H  H72  1  0.95133000  0.90854000  0.98918000  1.0
  H  H73  1  0.54868000  0.40854000  0.01082000  1.0
  H  H74  1  0.04868000  0.09146000  0.01082000  1.0
  H  H75  1  0.45132000  0.59146000  0.98918000  1.0
  H  H76  1  0.61301000  0.06461000  0.96046000  1.0
  H  H77  1  0.88699000  0.56461000  0.03954000  1.0
  H  H78  1  0.38701000  0.93539000  0.03954000  1.0
  H  H79  1  0.11300000  0.43539000  0.96046000  1.0
  H  H80  1  0.66976000  0.05939000  0.86274000  1.0
  H  H81  1  0.83023000  0.55939000  0.13726000  1.0
  H  H82  1  0.33025000  0.94061000  0.13726000  1.0
  H  H83  1  0.16976000  0.44061000  0.86274000  1.0
  H  H84  1  0.69153000  0.91045000  0.12448000  1.0
  H  H85  1  0.80849000  0.41045000  0.87552000  1.0
  H  H86  1  0.30850000  0.08955000  0.87553000  1.0
  H  H87  1  0.19151000  0.58955000  0.12447000  1.0
  H  H88  1  0.64258000  0.89670000  0.22227000  1.0
  H  H89  1  0.85743000  0.39670000  0.77773000  1.0
  H  H90  1  0.35743000  0.10331000  0.77773000  1.0
  H  H91  1  0.14257000  0.60330000  0.22227000  1.0
  H  H92  1  0.56764000  0.10258000  0.24308000  1.0
  H  H93  1  0.93236000  0.60258000  0.75692000  1.0
  H  H94  1  0.43237000  0.89743000  0.75692000  1.0
  H  H95  1  0.06764000  0.39742000  0.24308000  1.0
  H  H96  1  0.60458000  0.12494000  0.14369000  1.0
  H  H97  1  0.89542000  0.62494000  0.85631000  1.0
  H  H98  1  0.39544000  0.87506000  0.85631000  1.0
  H  H99  1  0.10457000  0.37505000  0.14369000  1.0
  H  H100  1  0.22894000  0.77141000  0.68868000  1.0
  H  H101  1  0.27107000  0.27140000  0.31132000  1.0
  H  H102  1  0.77105000  0.22859000  0.31132000  1.0
  H  H103  1  0.72893000  0.72859000  0.68868000  1.0
  H  H104  1  0.59566000  0.21874000  0.69747000  1.0
  H  H105  1  0.90434000  0.71874000  0.30253000  1.0
  H  H106  1  0.40434000  0.78126000  0.30253000  1.0
  H  H107  1  0.09565000  0.28126000  0.69747000  1.0
  H  H108  1  0.80283000  0.95049000  0.05895000  1.0
  H  H109  1  0.69718000  0.45049000  0.94105000  1.0
  H  H110  1  0.19718000  0.04951000  0.94105000  1.0
  H  H111  1  0.30282000  0.54951000  0.05895000  1.0
  C  C112  1  0.93267000  0.92682000  0.78565000  1.0
  C  C113  1  0.56733000  0.42682000  0.21435000  1.0
  C  C114  1  0.06734000  0.07318000  0.21434000  1.0
  C  C115  1  0.43267000  0.57318000  0.78565000  1.0
  C  C116  1  0.03597000  0.93656000  0.74274000  1.0
  C  C117  1  0.46403000  0.43656000  0.25727000  1.0
  C  C118  1  0.96402000  0.06344000  0.25726000  1.0
  C  C119  1  0.53597000  0.56344000  0.74274000  1.0
  C  C120  1  0.09114000  0.88168000  0.71374000  1.0
  C  C121  1  0.40887000  0.38167000  0.28626000  1.0
  C  C122  1  0.90886000  0.11832000  0.28625000  1.0
  C  C123  1  0.59114000  0.61832000  0.71374000  1.0
  C  C124  1  0.04464000  0.81540000  0.72663000  1.0
  C  C125  1  0.45536000  0.31539000  0.27337000  1.0
  C  C126  1  0.95537000  0.18460000  0.27336000  1.0
  C  C127  1  0.54463000  0.68460000  0.72664000  1.0
  C  C128  1  0.93908000  0.80519000  0.76866000  1.0
  C  C129  1  0.56094000  0.30519000  0.23135000  1.0
  C  C130  1  0.06093000  0.19481000  0.23135000  1.0
  C  C131  1  0.43906000  0.69481000  0.76865000  1.0
  C  C132  1  0.88304000  0.86057000  0.79767000  1.0
  C  C133  1  0.61696000  0.36057000  0.20234000  1.0
  C  C134  1  0.11696000  0.13943000  0.20233000  1.0
  C  C135  1  0.38304000  0.63943000  0.79766000  1.0
  C  C136  1  0.04840000  0.70392000  0.68044000  1.0
  C  C137  1  0.45160000  0.20392000  0.31956000  1.0
  C  C138  1  0.95161000  0.29607000  0.31955000  1.0
  C  C139  1  0.54839000  0.79607000  0.68045000  1.0
  C  C140  1  0.14487000  0.65872000  0.64601000  1.0
  C  C141  1  0.35512000  0.15871000  0.35399000  1.0
  C  C142  1  0.85513000  0.34128000  0.35399000  1.0
  C  C143  1  0.64487000  0.84128000  0.64601000  1.0
  C  C144  1  0.27893000  0.68037000  0.61975000  1.0
  C  C145  1  0.22107000  0.18037000  0.38026000  1.0
  C  C146  1  0.72108000  0.31963000  0.38025000  1.0
  C  C147  1  0.77893000  0.81963000  0.61975000  1.0
  C  C148  1  0.36170000  0.63453000  0.58875000  1.0
  C  C149  1  0.13829000  0.13453000  0.41126000  1.0
  C  C150  1  0.63830000  0.36547000  0.41125000  1.0
  C  C151  1  0.86170000  0.86547000  0.58875000  1.0
  C  C152  1  0.18451000  0.54924000  0.60505000  1.0
  C  C153  1  0.31548000  0.04924000  0.39495000  1.0
  C  C154  1  0.81548000  0.45076000  0.39494000  1.0
  C  C155  1  0.68452000  0.95076000  0.60506000  1.0
  C  C156  1  0.09634000  0.59168000  0.63732000  1.0
  C  C157  1  0.40365000  0.09168000  0.36269000  1.0
  C  C158  1  0.90365000  0.40832000  0.36268000  1.0
  C  C159  1  0.59634000  0.90831000  0.63732000  1.0
  C  C160  1  0.85188000  0.04491000  0.78520000  1.0
  C  C161  1  0.64811000  0.54491000  0.21479000  1.0
  C  C162  1  0.14812000  0.95508000  0.21480000  1.0
  C  C163  1  0.35188000  0.45509000  0.78520000  1.0
  C  C164  1  0.91462000  0.10713000  0.80187000  1.0
  C  C165  1  0.58538000  0.60713000  0.19813000  1.0
  C  C166  1  0.08539000  0.89287000  0.19813000  1.0
  C  C167  1  0.41462000  0.39287000  0.80187000  1.0
  C  C168  1  0.87510000  0.16744000  0.77587000  1.0
  C  C169  1  0.62489000  0.66744000  0.22414000  1.0
  C  C170  1  0.12490000  0.83256000  0.22413000  1.0
  C  C171  1  0.37511000  0.33256000  0.77586000  1.0
  C  C172  1  0.77075000  0.16562000  0.73246000  1.0
  C  C173  1  0.72925000  0.66562000  0.26755000  1.0
  C  C174  1  0.22925000  0.83438000  0.26754000  1.0
  C  C175  1  0.27075000  0.33439000  0.73246000  1.0
  C  C176  1  0.71334000  0.10296000  0.71434000  1.0
  C  C177  1  0.78665000  0.60296000  0.28566000  1.0
  C  C178  1  0.28666000  0.89704000  0.28565000  1.0
  C  C179  1  0.21335000  0.39705000  0.71434000  1.0
  C  C180  1  0.75384000  0.04313000  0.74016000  1.0
  C  C181  1  0.74616000  0.54313000  0.25983000  1.0
  C  C182  1  0.24617000  0.95687000  0.25983000  1.0
  C  C183  1  0.25384000  0.45687000  0.74016000  1.0
  C  C184  1  0.77723000  0.28496000  0.69949000  1.0
  C  C185  1  0.72276000  0.78496000  0.30051000  1.0
  C  C186  1  0.22276000  0.71504000  0.30051000  1.0
  C  C187  1  0.27724000  0.21505000  0.69949000  1.0
  C  C188  1  0.68940000  0.33461000  0.66594000  1.0
  C  C189  1  0.81060000  0.83461000  0.33406000  1.0
  C  C190  1  0.31059000  0.66540000  0.33406000  1.0
  C  C191  1  0.18940000  0.16540000  0.66594000  1.0
  C  C192  1  0.74033000  0.40210000  0.66492000  1.0
  C  C193  1  0.75967000  0.90210000  0.33509000  1.0
  C  C194  1  0.25965000  0.59790000  0.33509000  1.0
  C  C195  1  0.24035000  0.09790000  0.66491000  1.0
  C  C196  1  0.66616000  0.44853000  0.63180000  1.0
  C  C197  1  0.83384000  0.94854000  0.36820000  1.0
  C  C198  1  0.33383000  0.55147000  0.36820000  1.0
  C  C199  1  0.16617000  0.05147000  0.63181000  1.0
  C  C200  1  0.49610000  0.36694000  0.60078000  1.0
  C  C201  1  0.00390000  0.86695000  0.39923000  1.0
  C  C202  1  0.50388000  0.63305000  0.39922000  1.0
  C  C203  1  0.99610000  0.13306000  0.60078000  1.0
  C  C204  1  0.56392000  0.31739000  0.63285000  1.0
  C  C205  1  0.93608000  0.81739000  0.36715000  1.0
  C  C206  1  0.43606000  0.68261000  0.36715000  1.0
  C  C207  1  0.06393000  0.18262000  0.63285000  1.0
  C  C208  1  0.84616000  0.98283000  0.87010000  1.0
  C  C209  1  0.65384000  0.48283000  0.12990000  1.0
  C  C210  1  0.15385000  0.01717000  0.12990000  1.0
  C  C211  1  0.34615000  0.51717000  0.87010000  1.0
  C  C212  1  0.92320000  0.93972000  0.90662000  1.0
  C  C213  1  0.57681000  0.43972000  0.09338000  1.0
  C  C214  1  0.07681000  0.06028000  0.09338000  1.0
  C  C215  1  0.42318000  0.56028000  0.90662000  1.0
  C  C216  1  0.88848000  0.94170000  0.96144000  1.0
  C  C217  1  0.61154000  0.44169000  0.03856000  1.0
  C  C218  1  0.11154000  0.05831000  0.03856000  1.0
  C  C219  1  0.38846000  0.55831000  0.96144000  1.0
  C  C220  1  0.77768000  0.98699000  0.98165000  1.0
  C  C221  1  0.72233000  0.48699000  0.01835000  1.0
  C  C222  1  0.22234000  0.01301000  0.01835000  1.0
  C  C223  1  0.27767000  0.51301000  0.98165000  1.0
  C  C224  1  0.69948000  0.02967000  0.94531000  1.0
  C  C225  1  0.80052000  0.52967000  0.05469000  1.0
  C  C226  1  0.30053000  0.97033000  0.05469000  1.0
  C  C227  1  0.19948000  0.47033000  0.94531000  1.0
  C  C228  1  0.73294000  0.02682000  0.89054000  1.0
  C  C229  1  0.76706000  0.52682000  0.10946000  1.0
  C  C230  1  0.26707000  0.97318000  0.10946000  1.0
  C  C231  1  0.23294000  0.47318000  0.89054000  1.0
  C  C232  1  0.67285000  0.03581000  0.06701000  1.0
  C  C233  1  0.82715000  0.53581000  0.93299000  1.0
  C  C234  1  0.32716000  0.96419000  0.93299000  1.0
  C  C235  1  0.17285000  0.46419000  0.06701000  1.0
  C  C236  1  0.65568000  0.02034000  0.12610000  1.0
  C  C237  1  0.84432000  0.52034000  0.87390000  1.0
  C  C238  1  0.34435000  0.97966000  0.87390000  1.0
  C  C239  1  0.15567000  0.47966000  0.12610000  1.0
  C  C240  1  0.66751000  0.95539000  0.14887000  1.0
  C  C241  1  0.83248000  0.45539000  0.85113000  1.0
  C  C242  1  0.33250000  0.04461000  0.85114000  1.0
  C  C243  1  0.16750000  0.54461000  0.14887000  1.0
  C  C244  1  0.63929000  0.94722000  0.20397000  1.0
  C  C245  1  0.86070000  0.44722000  0.79604000  1.0
  C  C246  1  0.36072000  0.05278000  0.79604000  1.0
  C  C247  1  0.13928000  0.55277000  0.20396000  1.0
  C  C248  1  0.59414000  0.06109000  0.21527000  1.0
  C  C249  1  0.90585000  0.56109000  0.78473000  1.0
  C  C250  1  0.40587000  0.93891000  0.78473000  1.0
  C  C251  1  0.09414000  0.43890000  0.21527000  1.0
  C  C252  1  0.61711000  0.07406000  0.16050000  1.0
  C  C253  1  0.88289000  0.57406000  0.83950000  1.0
  C  C254  1  0.38291000  0.92594000  0.83950000  1.0
  C  C255  1  0.11710000  0.42593000  0.16050000  1.0
  I  I256  1  0.71534000  0.56905000  0.52039000  1.0
  I  I257  1  0.78464000  0.06905000  0.47961000  1.0
  I  I258  1  0.28465000  0.43095000  0.47961000  1.0
  I  I259  1  0.21535000  0.93094000  0.52040000  1.0
  N  N260  1  0.88152000  0.98416000  0.81460000  1.0
  N  N261  1  0.61847000  0.48416000  0.18540000  1.0
  N  N262  1  0.11848000  0.01584000  0.18540000  1.0
  N  N263  1  0.38153000  0.51584000  0.81460000  1.0
  N  N264  1  0.11450000  0.76230000  0.69722000  1.0
  N  N265  1  0.38551000  0.26229000  0.30278000  1.0
  N  N266  1  0.88550000  0.23770000  0.30278000  1.0
  N  N267  1  0.61449000  0.73770000  0.69722000  1.0
  N  N268  1  0.31782000  0.56934000  0.58197000  1.0
  N  N269  1  0.18218000  0.06934000  0.41803000  1.0
  N  N270  1  0.68217000  0.43066000  0.41803000  1.0
  N  N271  1  0.81782000  0.93066000  0.58197000  1.0
  N  N272  1  0.71113000  0.22357000  0.70642000  1.0
  N  N273  1  0.78887000  0.72357000  0.29358000  1.0
  N  N274  1  0.28887000  0.77643000  0.29357000  1.0
  N  N275  1  0.21113000  0.27643000  0.70642000  1.0
  N  N276  1  0.54612000  0.43183000  0.59956000  1.0
  N  N277  1  0.95388000  0.93183000  0.40044000  1.0
  N  N278  1  0.45386000  0.56817000  0.40044000  1.0
  N  N279  1  0.04612000  0.06817000  0.59956000  1.0
  N  N280  1  0.74774000  0.98702000  0.03740000  1.0
  N  N281  1  0.75227000  0.48702000  0.96261000  1.0
  N  N282  1  0.25227000  0.01297000  0.96260000  1.0
  N  N283  1  0.24773000  0.51298000  0.03739000  1.0
  N  N284  1  0.60388000  0.99879000  0.23717000  1.0
  N  N285  1  0.89611000  0.49879000  0.76283000  1.0
  N  N286  1  0.39613000  0.00121000  0.76283000  1.0
  N  N287  1  0.10388000  0.50121000  0.23717000  1.0
  O  O288  1  0.91260000  0.68732000  0.69157000  1.0
  O  O289  1  0.58739000  0.18731000  0.30844000  1.0
  O  O290  1  0.08741000  0.31269000  0.30843000  1.0
  O  O291  1  0.41260000  0.81269000  0.69157000  1.0
  O  O292  1  0.90693000  0.30045000  0.71822000  1.0
  O  O293  1  0.59306000  0.80045000  0.28179000  1.0
  O  O294  1  0.09306000  0.69955000  0.28178000  1.0
  O  O295  1  0.40693000  0.19955000  0.71822000  1.0
  O  O296  1  0.62057000  0.08901000  0.04764000  1.0
  O  O297  1  0.87943000  0.58901000  0.95236000  1.0
  O  O298  1  0.37944000  0.91099000  0.95236000  1.0
  O  O299  1  0.12056000  0.41099000  0.04764000  1.0
