# generated using pymatgen
data_Na2NiH46C28S4(N3O8)2
_symmetry_space_group_name_H-M   'P 1'
_cell_length_a   9.68308000
_cell_length_b   10.12960000
_cell_length_c   11.66970000
_cell_angle_alpha   90.23670000
_cell_angle_beta   107.99100000
_cell_angle_gamma   112.41700000
_symmetry_Int_Tables_number   1
_chemical_formula_structural   Na2NiH46C28S4(N3O8)2
_chemical_formula_sum   'Na2 Ni1 H46 C28 S4 N6 O16'
_cell_volume   996.67511590
_cell_formula_units_Z   1
loop_
 _symmetry_equiv_pos_site_id
 _symmetry_equiv_pos_as_xyz
  1  'x, y, z'
loop_
 _atom_site_type_symbol
 _atom_site_label
 _atom_site_symmetry_multiplicity
 _atom_site_fract_x
 _atom_site_fract_y
 _atom_site_fract_z
 _atom_site_occupancy
  Na  Na0  1  0.83021000  0.31005000  0.93073000  1.0
  Na  Na1  1  0.16979000  0.68995000  0.06927000  1.0
  Ni  Ni2  1  0.50000000  0.50000000  0.50000000  1.0
  H  H3  1  0.19343000  0.19709000  0.15768000  1.0
  H  H4  1  0.80657000  0.80291000  0.84233000  1.0
  H  H5  1  0.34012000  0.32800000  0.11089000  1.0
  H  H6  1  0.65988000  0.67201000  0.88912000  1.0
  H  H7  1  0.27482000  0.38178000  0.22367000  1.0
  H  H8  1  0.72519000  0.61822000  0.77633000  1.0
  H  H9  1  0.46780000  0.01335000  0.14865000  1.0
  H  H10  1  0.53220000  0.98666000  0.85135000  1.0
  H  H11  1  0.51825000  0.17999000  0.08892000  1.0
  H  H12  1  0.48175000  0.82002000  0.91109000  1.0
  H  H13  1  0.32003000  0.08131000  0.09121000  1.0
  H  H14  1  0.67997000  0.91869000  0.90879000  1.0
  H  H15  1  0.72365000  0.19569000  0.32917000  1.0
  H  H16  1  0.27635000  0.80432000  0.67084000  1.0
  H  H17  1  0.57913000  0.04691000  0.36519000  1.0
  H  H18  1  0.42087000  0.95309000  0.63481000  1.0
  H  H19  1  0.64283000  0.22463000  0.44206000  1.0
  H  H20  1  0.35717000  0.77537000  0.55795000  1.0
  H  H21  1  0.71858000  0.71822000  0.50033000  1.0
  H  H22  1  0.28142000  0.28178000  0.49967000  1.0
  H  H23  1  0.80269000  0.60189000  0.55367000  1.0
  H  H24  1  0.19731000  0.39811000  0.44633000  1.0
  H  H25  1  0.56896000  0.64720000  0.07511000  1.0
  H  H26  1  0.43103000  0.35280000  0.92489000  1.0
  H  H27  1  0.88685000  0.48920000  0.42529000  1.0
  H  H28  1  0.11315000  0.51080000  0.57471000  1.0
  H  H29  1  0.73657000  0.52382000  0.04208000  1.0
  H  H30  1  0.26343000  0.47618000  0.95792000  1.0
  H  H31  1  0.23696000  0.08835000  0.86782000  1.0
  H  H32  1  0.76304000  0.91165000  0.13218000  1.0
  H  H33  1  0.10031000  0.07143000  0.94755000  1.0
  H  H34  1  0.89969000  0.92857000  0.05245000  1.0
  H  H35  1  0.10079000  0.91448000  0.87540000  1.0
  H  H36  1  0.89921000  0.08552000  0.12460000  1.0
  H  H37  1  0.00688000  0.87383000  0.65289000  1.0
  H  H38  1  0.99312000  0.12617000  0.34711000  1.0
  H  H39  1  0.90738000  0.97739000  0.56882000  1.0
  H  H40  1  0.09262000  0.02261000  0.43118000  1.0
  H  H41  1  0.11965000  0.05153000  0.63257000  1.0
  H  H42  1  0.88034000  0.94847000  0.36743000  1.0
  H  H43  1  0.71459000  0.01880000  0.58996000  1.0
  H  H44  1  0.28540000  0.98120000  0.41004000  1.0
  H  H45  1  0.73078000  0.17929000  0.66737000  1.0
  H  H46  1  0.26922000  0.82071000  0.33262000  1.0
  H  H47  1  0.86796000  0.18639000  0.59277000  1.0
  H  H48  1  0.13204000  0.81361000  0.40723000  1.0
  C  C49  1  0.42779000  0.27255000  0.28936000  1.0
  C  C50  1  0.57221000  0.72745000  0.71065000  1.0
  C  C51  1  0.30176000  0.29698000  0.18961000  1.0
  C  C52  1  0.69824000  0.70302000  0.81039000  1.0
  C  C53  1  0.44619000  0.11213000  0.13999000  1.0
  C  C54  1  0.55381000  0.88788000  0.86002000  1.0
  C  C55  1  0.61729000  0.16199000  0.35607000  1.0
  C  C56  1  0.38271000  0.83801000  0.64394000  1.0
  C  C57  1  0.63986000  0.61240000  0.15080000  1.0
  C  C58  1  0.36013000  0.38759000  0.84920000  1.0
  C  C59  1  0.63526000  0.63758000  0.26691000  1.0
  C  C60  1  0.36475000  0.36241000  0.73309000  1.0
  C  C61  1  0.81831000  0.52489000  0.34888000  1.0
  C  C62  1  0.18169000  0.47511000  0.65112000  1.0
  C  C63  1  0.82062000  0.49914000  0.23215000  1.0
  C  C64  1  0.17937000  0.50086000  0.76785000  1.0
  C  C65  1  0.72566000  0.59489000  0.36729000  1.0
  C  C66  1  0.27433000  0.40511000  0.63270000  1.0
  C  C67  1  0.73263000  0.54331000  0.13268000  1.0
  C  C68  1  0.26736000  0.45668000  0.86731000  1.0
  C  C69  1  0.90505000  0.10336000  0.76475000  1.0
  C  C70  1  0.09496000  0.89664000  0.23524000  1.0
  C  C71  1  0.11626000  0.02703000  0.86944000  1.0
  C  C72  1  0.88373000  0.97296000  0.13056000  1.0
  C  C73  1  0.00832000  0.98262000  0.64653000  1.0
  C  C74  1  0.99168000  0.01738000  0.35347000  1.0
  C  C75  1  0.79793000  0.12230000  0.64668000  1.0
  C  C76  1  0.20208000  0.87770000  0.35332000  1.0
  S  S77  1  0.51277000  0.72146000  0.29127000  1.0
  S  S78  1  0.48723000  0.27854000  0.70873000  1.0
  S  S79  1  0.92911000  0.40059000  0.20525000  1.0
  S  S80  1  0.07089000  0.59941000  0.79475000  1.0
  N  N81  1  0.49195000  0.18558000  0.26230000  1.0
  N  N82  1  0.50805000  0.81443000  0.73771000  1.0
  N  N83  1  0.71550000  0.61700000  0.48417000  1.0
  N  N84  1  0.28450000  0.38301000  0.51582000  1.0
  N  N85  1  0.00091000  0.03696000  0.75900000  1.0
  N  N86  1  0.99909000  0.96304000  0.24100000  1.0
  O  O87  1  0.47274000  0.32810000  0.39962000  1.0
  O  O88  1  0.52727000  0.67190000  0.60038000  1.0
  O  O89  1  0.39484000  0.61148000  0.33381000  1.0
  O  O90  1  0.60517000  0.38853000  0.66619000  1.0
  O  O91  1  0.01516000  0.37711000  0.32533000  1.0
  O  O92  1  0.98483000  0.62288000  0.67467000  1.0
  O  O93  1  0.80691000  0.26666000  0.12712000  1.0
  O  O94  1  0.19309000  0.73333000  0.87288000  1.0
  O  O95  1  0.44015000  0.75999000  0.17328000  1.0
  O  O96  1  0.55986000  0.24002000  0.82672000  1.0
  O  O97  1  0.62269000  0.84572000  0.38487000  1.0
  O  O98  1  0.37731000  0.15428000  0.61513000  1.0
  O  O99  1  0.03013000  0.48824000  0.13865000  1.0
  O  O100  1  0.96987000  0.51176000  0.86135000  1.0
  O  O101  1  0.90527000  0.14833000  0.86530000  1.0
  O  O102  1  0.09473000  0.85167000  0.13471000  1.0
