# generated using pymatgen
data_CuH20C18(NO)4
_symmetry_space_group_name_H-M   'P 1'
_cell_length_a   7.61488000
_cell_length_b   11.05930000
_cell_length_c   11.15130000
_cell_angle_alpha   92.87660000
_cell_angle_beta   93.36130000
_cell_angle_gamma   106.70900000
_symmetry_Int_Tables_number   1
_chemical_formula_structural   CuH20C18(NO)4
_chemical_formula_sum   'Cu2 H40 C36 N8 O8'
_cell_volume   895.70030573
_cell_formula_units_Z   2
loop_
 _symmetry_equiv_pos_site_id
 _symmetry_equiv_pos_as_xyz
  1  'x, y, z'
loop_
 _atom_site_type_symbol
 _atom_site_label
 _atom_site_symmetry_multiplicity
 _atom_site_fract_x
 _atom_site_fract_y
 _atom_site_fract_z
 _atom_site_occupancy
  Cu  Cu0  1  0.00000000  0.50000000  0.50000000  1.0
  Cu  Cu1  1  0.00000000  0.00000000  0.00000000  1.0
  H  H2  1  0.68412000  0.25057000  0.56115000  1.0
  H  H3  1  0.31588000  0.74942000  0.43886000  1.0
  H  H4  1  0.94700000  0.05877000  0.29182000  1.0
  H  H5  1  0.05300000  0.94123000  0.70818000  1.0
  H  H6  1  0.44083000  0.46657000  0.89718000  1.0
  H  H7  1  0.55917000  0.53344000  0.10282000  1.0
  H  H8  1  0.35126000  0.59816000  0.89943000  1.0
  H  H9  1  0.64875000  0.40184000  0.10057000  1.0
  H  H10  1  0.58600000  0.61869000  0.87001000  1.0
  H  H11  1  0.41400000  0.38131000  0.12999000  1.0
  H  H12  1  0.02814000  0.15636000  0.67401000  1.0
  H  H13  1  0.97187000  0.84364000  0.32599000  1.0
  H  H14  1  0.24852000  0.46185000  0.70498000  1.0
  H  H15  1  0.75148000  0.53815000  0.29502000  1.0
  H  H16  1  0.38458000  0.61490000  0.67774000  1.0
  H  H17  1  0.61542000  0.38510000  0.32226000  1.0
  H  H18  1  0.72403000  0.63736000  0.62093000  1.0
  H  H19  1  0.27596000  0.36264000  0.37907000  1.0
  H  H20  1  0.37043000  0.27264000  0.66512000  1.0
  H  H21  1  0.62957000  0.72736000  0.33488000  1.0
  H  H22  1  0.40926000  0.96147000  0.39028000  1.0
  H  H23  1  0.59075000  0.03853000  0.60971000  1.0
  H  H24  1  0.37105000  0.11106000  0.41468000  1.0
  H  H25  1  0.62896000  0.88894000  0.58532000  1.0
  H  H26  1  0.59812000  0.10197000  0.39387000  1.0
  H  H27  1  0.40188000  0.89803000  0.60614000  1.0
  H  H28  1  0.77042000  0.15642000  0.14369000  1.0
  H  H29  1  0.22958000  0.84358000  0.85631000  1.0
  H  H30  1  0.93290000  0.39188000  0.79421000  1.0
  H  H31  1  0.06710000  0.60812000  0.20578000  1.0
  H  H32  1  0.06090000  0.38108000  0.17370000  1.0
  H  H33  1  0.93910000  0.61891000  0.82629000  1.0
  H  H34  1  0.65030000  0.76824000  0.03702000  1.0
  H  H35  1  0.34969000  0.23176000  0.96298000  1.0
  H  H36  1  0.35427000  0.80977000  0.15376000  1.0
  H  H37  1  0.64573000  0.19024000  0.84624000  1.0
  H  H38  1  0.45540000  0.16391000  0.20487000  1.0
  H  H39  1  0.54460000  0.83610000  0.79513000  1.0
  H  H40  1  0.27439000  0.01982000  0.19988000  1.0
  H  H41  1  0.72562000  0.98018000  0.80012000  1.0
  C  C42  1  0.64647000  0.33414000  0.58892000  1.0
  C  C43  1  0.35352000  0.66586000  0.41108000  1.0
  C  C44  1  0.96896000  0.03212000  0.38293000  1.0
  C  C45  1  0.03104000  0.96788000  0.61707000  1.0
  C  C46  1  0.44529000  0.55477000  0.85491000  1.0
  C  C47  1  0.55471000  0.44523000  0.14509000  1.0
  C  C48  1  0.98738000  0.12157000  0.48003000  1.0
  C  C49  1  0.01262000  0.87843000  0.51997000  1.0
  C  C50  1  0.97193000  0.25088000  0.45678000  1.0
  C  C51  1  0.02807000  0.74912000  0.54322000  1.0
  C  C52  1  0.01885000  0.08875000  0.59763000  1.0
  C  C53  1  0.98116000  0.91125000  0.40237000  1.0
  C  C54  1  0.38689000  0.52833000  0.72103000  1.0
  C  C55  1  0.61311000  0.47167000  0.27897000  1.0
  C  C56  1  0.67365000  0.53522000  0.61788000  1.0
  C  C57  1  0.32635000  0.46478000  0.38211000  1.0
  C  C58  1  0.49135000  0.34364000  0.64076000  1.0
  C  C59  1  0.50865000  0.65636000  0.35924000  1.0
  C  C60  1  0.45183000  0.05991000  0.36575000  1.0
  C  C61  1  0.54817000  0.94010000  0.63425000  1.0
  C  C62  1  0.99914000  0.37344000  0.98158000  1.0
  C  C63  1  0.00086000  0.62656000  0.01842000  1.0
  C  C64  1  0.69798000  0.05679000  0.12644000  1.0
  C  C65  1  0.30202000  0.94321000  0.87357000  1.0
  C  C66  1  0.96163000  0.44004000  0.88414000  1.0
  C  C67  1  0.03837000  0.55996000  0.11586000  1.0
  C  C68  1  0.03692000  0.43410000  0.09779000  1.0
  C  C69  1  0.96308000  0.56590000  0.90220000  1.0
  C  C70  1  0.63136000  0.85425000  0.07702000  1.0
  C  C71  1  0.36864000  0.14576000  0.92299000  1.0
  C  C72  1  0.99593000  0.23762000  0.95950000  1.0
  C  C73  1  0.00407000  0.76238000  0.04050000  1.0
  C  C74  1  0.48574000  0.87283000  0.13432000  1.0
  C  C75  1  0.51426000  0.12718000  0.86568000  1.0
  C  C76  1  0.41883000  0.06590000  0.23082000  1.0
  C  C77  1  0.58118000  0.93410000  0.76919000  1.0
  N  N78  1  0.51105000  0.47156000  0.65846000  1.0
  N  N79  1  0.48894000  0.52844000  0.34153000  1.0
  N  N80  1  0.75927000  0.45441000  0.57462000  1.0
  N  N81  1  0.24072000  0.54559000  0.42538000  1.0
  N  N82  1  0.52986000  0.00147000  0.16402000  1.0
  N  N83  1  0.47014000  0.99853000  0.83599000  1.0
  N  N84  1  0.76295000  0.96974000  0.07228000  1.0
  N  N85  1  0.23705000  0.03027000  0.92772000  1.0
  O  O86  1  0.89953000  0.27112000  0.35865000  1.0
  O  O87  1  0.10046000  0.72887000  0.64135000  1.0
  O  O88  1  0.03852000  0.33725000  0.54428000  1.0
  O  O89  1  0.96148000  0.66274000  0.45572000  1.0
  O  O90  1  0.93444000  0.17995000  0.85904000  1.0
  O  O91  1  0.06556000  0.82005000  0.14095000  1.0
  O  O92  1  0.05680000  0.18649000  0.04902000  1.0
  O  O93  1  0.94320000  0.81351000  0.95098000  1.0
