# generated using pymatgen
data_AgH12C14N3O7
_symmetry_space_group_name_H-M   'P 1'
_cell_length_a   11.08530000
_cell_length_b   11.65650000
_cell_length_c   11.99310000
_cell_angle_alpha   98.87560000
_cell_angle_beta   89.99990000
_cell_angle_gamma   89.99990000
_symmetry_Int_Tables_number   1
_chemical_formula_structural   AgH12C14N3O7
_chemical_formula_sum   'Ag4 H48 C56 N12 O28'
_cell_volume   1531.14139543
_cell_formula_units_Z   4
loop_
 _symmetry_equiv_pos_site_id
 _symmetry_equiv_pos_as_xyz
  1  'x, y, z'
loop_
 _atom_site_type_symbol
 _atom_site_label
 _atom_site_symmetry_multiplicity
 _atom_site_fract_x
 _atom_site_fract_y
 _atom_site_fract_z
 _atom_site_occupancy
  Ag  Ag0  1  0.84443000  0.27364000  0.68233000  1.0
  Ag  Ag1  1  0.34443000  0.22636000  0.81767000  1.0
  Ag  Ag2  1  0.15557000  0.72636000  0.31767000  1.0
  Ag  Ag3  1  0.65557000  0.77364000  0.18233000  1.0
  H  H4  1  0.69673000  0.07858000  0.53440000  1.0
  H  H5  1  0.19673000  0.42142000  0.96560000  1.0
  H  H6  1  0.30327000  0.92142000  0.46560000  1.0
  H  H7  1  0.80327000  0.57858000  0.03440000  1.0
  H  H8  1  0.70823000  0.86371000  0.46891000  1.0
  H  H9  1  0.20823000  0.63629000  0.03109000  1.0
  H  H10  1  0.29177000  0.13629000  0.53109000  1.0
  H  H11  1  0.79177000  0.36371000  0.96891000  1.0
  H  H12  1  0.03044000  0.08259000  0.69022000  1.0
  H  H13  1  0.53045000  0.41741000  0.80978000  1.0
  H  H14  1  0.96955000  0.91741000  0.30978000  1.0
  H  H15  1  0.46955000  0.58259000  0.19022000  1.0
  H  H16  1  0.05718000  0.86770000  0.62852000  1.0
  H  H17  1  0.55718000  0.63230000  0.87148000  1.0
  H  H18  1  0.94282000  0.13230000  0.37148000  1.0
  H  H19  1  0.44282000  0.36770000  0.12852000  1.0
  H  H20  1  0.85244000  0.50170000  0.49258000  1.0
  H  H21  1  0.35244000  0.99830000  0.00742000  1.0
  H  H22  1  0.14756000  0.49830000  0.50742000  1.0
  H  H23  1  0.64756000  0.00171000  0.99258000  1.0
  H  H24  1  0.86178000  0.53493000  0.35305000  1.0
  H  H25  1  0.36178000  0.96507000  0.14695000  1.0
  H  H26  1  0.13822000  0.46507000  0.64695000  1.0
  H  H27  1  0.63822000  0.03493000  0.85305000  1.0
  H  H28  1  0.62486000  0.51302000  0.48480000  1.0
  H  H29  1  0.12485000  0.98698000  0.01520000  1.0
  H  H30  1  0.37514000  0.48698000  0.51520000  1.0
  H  H31  1  0.87514000  0.01302000  0.98480000  1.0
  H  H32  1  0.63386000  0.55574000  0.34887000  1.0
  H  H33  1  0.13386000  0.94426000  0.15113000  1.0
  H  H34  1  0.36614000  0.44426000  0.65113000  1.0
  H  H35  1  0.86614000  0.05574000  0.84887000  1.0
  H  H36  1  0.78919000  0.21241000  0.24219000  1.0
  H  H37  1  0.28919000  0.28759000  0.25781000  1.0
  H  H38  1  0.21081000  0.78759000  0.75781000  1.0
  H  H39  1  0.71081000  0.71241000  0.74219000  1.0
  H  H40  1  0.80737000  0.99935000  0.17992000  1.0
  H  H41  1  0.30737000  0.50065000  0.32008000  1.0
  H  H42  1  0.19263000  0.00065000  0.82008000  1.0
  H  H43  1  0.69263000  0.49935000  0.67992000  1.0
  H  H44  1  0.43383000  0.15197000  0.36845000  1.0
  H  H45  1  0.93383000  0.34803000  0.13155000  1.0
  H  H46  1  0.56617000  0.84803000  0.63155000  1.0
  H  H47  1  0.06617000  0.65197000  0.86845000  1.0
  H  H48  1  0.46876000  0.93758000  0.30358000  1.0
  H  H49  1  0.96876000  0.56242000  0.19642000  1.0
  H  H50  1  0.53124000  0.06242000  0.69642000  1.0
  H  H51  1  0.03124000  0.43758000  0.80358000  1.0
  C  C52  1  0.77393000  0.02811000  0.55564000  1.0
  C  C53  1  0.27393000  0.47189000  0.94436000  1.0
  C  C54  1  0.22607000  0.97189000  0.44436000  1.0
  C  C55  1  0.72607000  0.52811000  0.05564000  1.0
  C  C56  1  0.78089000  0.90901000  0.51876000  1.0
  C  C57  1  0.28089000  0.59099000  0.98124000  1.0
  C  C58  1  0.21911000  0.09099000  0.48124000  1.0
  C  C59  1  0.71911000  0.40901000  0.01876000  1.0
  C  C60  1  0.96076000  0.03030000  0.64257000  1.0
  C  C61  1  0.46076000  0.46970000  0.85743000  1.0
  C  C62  1  0.03924000  0.96970000  0.35743000  1.0
  C  C63  1  0.53924000  0.53031000  0.14257000  1.0
  C  C64  1  0.97554000  0.91186000  0.60807000  1.0
  C  C65  1  0.47554000  0.58814000  0.89193000  1.0
  C  C66  1  0.02446000  0.08814000  0.39193000  1.0
  C  C67  1  0.52446000  0.41186000  0.10807000  1.0
  C  C68  1  0.88387000  0.84949000  0.54604000  1.0
  C  C69  1  0.38387000  0.65051000  0.95396000  1.0
  C  C70  1  0.11613000  0.15051000  0.45396000  1.0
  C  C71  1  0.61613000  0.34949000  0.04604000  1.0
  C  C72  1  0.90202000  0.72249000  0.50884000  1.0
  C  C73  1  0.40202000  0.77751000  0.99116000  1.0
  C  C74  1  0.09798000  0.27751000  0.49116000  1.0
  C  C75  1  0.59798000  0.22249000  0.00884000  1.0
  C  C76  1  0.80732000  0.54705000  0.43045000  1.0
  C  C77  1  0.30732000  0.95295000  0.06955000  1.0
  C  C78  1  0.19268000  0.45295000  0.56955000  1.0
  C  C79  1  0.69268000  0.04705000  0.93045000  1.0
  C  C80  1  0.67901000  0.50611000  0.40744000  1.0
  C  C81  1  0.17901000  0.99389000  0.09256000  1.0
  C  C82  1  0.32099000  0.49389000  0.59256000  1.0
  C  C83  1  0.82099000  0.00611000  0.90744000  1.0
  C  C84  1  0.58609000  0.32498000  0.34675000  1.0
  C  C85  1  0.08609000  0.17502000  0.15325000  1.0
  C  C86  1  0.41391000  0.67502000  0.65325000  1.0
  C  C87  1  0.91391000  0.82498000  0.84675000  1.0
  C  C88  1  0.60835000  0.19861000  0.30978000  1.0
  C  C89  1  0.10835000  0.30139000  0.19022000  1.0
  C  C90  1  0.39165000  0.80139000  0.69022000  1.0
  C  C91  1  0.89165000  0.69861000  0.80978000  1.0
  C  C92  1  0.71547000  0.15535000  0.25773000  1.0
  C  C93  1  0.21547000  0.34465000  0.24227000  1.0
  C  C94  1  0.28453000  0.84465000  0.74226000  1.0
  C  C95  1  0.78453000  0.65535000  0.75773000  1.0
  C  C96  1  0.72646000  0.03607000  0.22325000  1.0
  C  C97  1  0.22646000  0.46393000  0.27675000  1.0
  C  C98  1  0.27354000  0.96393000  0.77675000  1.0
  C  C99  1  0.77354000  0.53607000  0.72325000  1.0
  C  C100  1  0.51733000  0.12024000  0.32693000  1.0
  C  C101  1  0.01733000  0.37976000  0.17307000  1.0
  C  C102  1  0.48267000  0.87976000  0.67306000  1.0
  C  C103  1  0.98267000  0.62024000  0.82694000  1.0
  C  C104  1  0.53653000  0.00246000  0.29202000  1.0
  C  C105  1  0.03653000  0.49754000  0.20798000  1.0
  C  C106  1  0.46347000  0.99754000  0.70798000  1.0
  C  C107  1  0.96347000  0.50246000  0.79202000  1.0
  N  N108  1  0.86140000  0.08825000  0.61748000  1.0
  N  N109  1  0.36140000  0.41175000  0.88252000  1.0
  N  N110  1  0.13860000  0.91174000  0.38252000  1.0
  N  N111  1  0.63860000  0.58826000  0.11748000  1.0
  N  N112  1  0.63886000  0.96048000  0.24004000  1.0
  N  N113  1  0.13886000  0.53952000  0.25996000  1.0
  N  N114  1  0.36114000  0.03952000  0.75996000  1.0
  N  N115  1  0.86114000  0.46048000  0.74004000  1.0
  N  N116  1  0.56548000  0.26102000  0.63347000  1.0
  N  N117  1  0.06548000  0.23898000  0.86653000  1.0
  N  N118  1  0.43452000  0.73898000  0.36654000  1.0
  N  N119  1  0.93452000  0.76102000  0.13347000  1.0
  O  O120  1  0.99943000  0.67349000  0.51219000  1.0
  O  O121  1  0.49943000  0.82651000  0.98781000  1.0
  O  O122  1  0.00057000  0.32651000  0.48781000  1.0
  O  O123  1  0.50057000  0.17350000  0.01219000  1.0
  O  O124  1  0.79848000  0.66988000  0.47217000  1.0
  O  O125  1  0.29848000  0.83012000  0.02783000  1.0
  O  O126  1  0.20152000  0.33012000  0.52783000  1.0
  O  O127  1  0.70152000  0.16988000  0.97217000  1.0
  O  O128  1  0.68992000  0.38544000  0.35740000  1.0
  O  O129  1  0.18992000  0.11456000  0.14260000  1.0
  O  O130  1  0.31008000  0.61456000  0.64260000  1.0
  O  O131  1  0.81008000  0.88544000  0.85740000  1.0
  O  O132  1  0.48543000  0.36772000  0.36246000  1.0
  O  O133  1  0.98543000  0.13228000  0.13754000  1.0
  O  O134  1  0.51457000  0.63228000  0.63754000  1.0
  O  O135  1  0.01457000  0.86772000  0.86246000  1.0
  O  O136  1  0.63834000  0.29937000  0.56640000  1.0
  O  O137  1  0.13834000  0.20063000  0.93360000  1.0
  O  O138  1  0.36166000  0.70062000  0.43360000  1.0
  O  O139  1  0.86166000  0.79937000  0.06640000  1.0
  O  O140  1  0.60315000  0.24418000  0.73079000  1.0
  O  O141  1  0.10315000  0.25582000  0.76921000  1.0
  O  O142  1  0.39685000  0.75582000  0.26921000  1.0
  O  O143  1  0.89685000  0.74418000  0.23079000  1.0
  O  O144  1  0.45722000  0.23897000  0.60514000  1.0
  O  O145  1  0.95722000  0.26102000  0.89485000  1.0
  O  O146  1  0.54277000  0.76104000  0.39487000  1.0
  O  O147  1  0.04277000  0.73898000  0.10514000  1.0
