# generated using pymatgen
data_ZnP2H24C26(IO)2
_symmetry_space_group_name_H-M   'P 1'
_cell_length_a   8.77279000
_cell_length_b   11.56140000
_cell_length_c   15.18240000
_cell_angle_alpha   68.94480000
_cell_angle_beta   88.52880000
_cell_angle_gamma   73.70540000
_symmetry_Int_Tables_number   1
_chemical_formula_structural   ZnP2H24C26(IO)2
_chemical_formula_sum   'Zn2 P4 H48 C52 I4 O4'
_cell_volume   1374.49037156
_cell_formula_units_Z   2
loop_
 _symmetry_equiv_pos_site_id
 _symmetry_equiv_pos_as_xyz
  1  'x, y, z'
loop_
 _atom_site_type_symbol
 _atom_site_label
 _atom_site_symmetry_multiplicity
 _atom_site_fract_x
 _atom_site_fract_y
 _atom_site_fract_z
 _atom_site_occupancy
  Zn  Zn0  1  0.50927000  0.94572000  0.75708000  1.0
  Zn  Zn1  1  0.49072000  0.05428000  0.24292000  1.0
  P  P2  1  0.47896000  0.81655000  0.99069000  1.0
  P  P3  1  0.52104000  0.18345000  0.00931000  1.0
  P  P4  1  0.49297000  0.81340000  0.60752000  1.0
  P  P5  1  0.50703000  0.18660000  0.39248000  1.0
  H  H6  1  0.33883000  0.85966000  0.16195000  1.0
  H  H7  1  0.66118000  0.14034000  0.83805000  1.0
  H  H8  1  0.06809000  0.87592000  0.21378000  1.0
  H  H9  1  0.93191000  0.12408000  0.78622000  1.0
  H  H10  1  0.86134000  0.85226000  0.11948000  1.0
  H  H11  1  0.13866000  0.14775000  0.88052000  1.0
  H  H12  1  0.92441000  0.81756000  0.96649000  1.0
  H  H13  1  0.07559000  0.18244000  0.03351000  1.0
  H  H14  1  0.19575000  0.80361000  0.91279000  1.0
  H  H15  1  0.80425000  0.19639000  0.08721000  1.0
  H  H16  1  0.58145000  0.89375000  0.09615000  1.0
  H  H17  1  0.41854000  0.10625000  0.90385000  1.0
  H  H18  1  0.67060000  0.92568000  0.98716000  1.0
  H  H19  1  0.32941000  0.07432000  0.01284000  1.0
  H  H20  1  0.72245000  0.64097000  0.93057000  1.0
  H  H21  1  0.27754000  0.35903000  0.06942000  1.0
  H  H22  1  0.91298000  0.42475000  0.01951000  1.0
  H  H23  1  0.08702000  0.57525000  0.98048000  1.0
  H  H24  1  0.91371000  0.32416000  0.19432000  1.0
  H  H25  1  0.08629000  0.67583000  0.80568000  1.0
  H  H26  1  0.71955000  0.43705000  0.28092000  1.0
  H  H27  1  0.28045000  0.56295000  0.71908000  1.0
  H  H28  1  0.52665000  0.65018000  0.19320000  1.0
  H  H29  1  0.47335000  0.34982000  0.80680000  1.0
  H  H30  1  0.15240000  0.88609000  0.61364000  1.0
  H  H31  1  0.84760000  0.11391000  0.38635000  1.0
  H  H32  1  0.93538000  0.85926000  0.52830000  1.0
  H  H33  1  0.06462000  0.14074000  0.47170000  1.0
  H  H34  1  0.99946000  0.74441000  0.41477000  1.0
  H  H35  1  0.00054000  0.25559000  0.58523000  1.0
  H  H36  1  0.28243000  0.65027000  0.39091000  1.0
  H  H37  1  0.71757000  0.34973000  0.60909000  1.0
  H  H38  1  0.50006000  0.67680000  0.47582000  1.0
  H  H39  1  0.49994000  0.32320000  0.52418000  1.0
  H  H40  1  0.76836000  0.70042000  0.51635000  1.0
  H  H41  1  0.23164000  0.29959000  0.48366000  1.0
  H  H42  1  0.00272000  0.50798000  0.58361000  1.0
  H  H43  1  0.99728000  0.49202000  0.41639000  1.0
  H  H44  1  0.02610000  0.36713000  0.75317000  1.0
  H  H45  1  0.97390000  0.63286000  0.24683000  1.0
  H  H46  1  0.81365000  0.41781000  0.85697000  1.0
  H  H47  1  0.18635000  0.58219000  0.14303000  1.0
  H  H48  1  0.58064000  0.61459000  0.79135000  1.0
  H  H49  1  0.41936000  0.38541000  0.20865000  1.0
  H  H50  1  0.66782000  0.94297000  0.55440000  1.0
  H  H51  1  0.33218000  0.05703000  0.44560000  1.0
  H  H52  1  0.60716000  0.90042000  0.46136000  1.0
  H  H53  1  0.39284000  0.09958000  0.53864000  1.0
  C  C54  1  0.24967000  0.84842000  0.11925000  1.0
  C  C55  1  0.75033000  0.15158000  0.88075000  1.0
  C  C56  1  0.09666000  0.85743000  0.14887000  1.0
  C  C57  1  0.90334000  0.14258000  0.85113000  1.0
  C  C58  1  0.98004000  0.84527000  0.09470000  1.0
  C  C59  1  0.01996000  0.15474000  0.90530000  1.0
  C  C60  1  0.01522000  0.82487000  0.01034000  1.0
  C  C61  1  0.98478000  0.17514000  0.98966000  1.0
  C  C62  1  0.16771000  0.81665000  0.97959000  1.0
  C  C63  1  0.83230000  0.18336000  0.02041000  1.0
  C  C64  1  0.28536000  0.82759000  0.03441000  1.0
  C  C65  1  0.71464000  0.17242000  0.96559000  1.0
  C  C66  1  0.55562000  0.93092000  0.01858000  1.0
  C  C67  1  0.44438000  0.06908000  0.98142000  1.0
  C  C68  1  0.61273000  0.65906000  0.05617000  1.0
  C  C69  1  0.38727000  0.34094000  0.94384000  1.0
  C  C70  1  0.72183000  0.59555000  0.00718000  1.0
  C  C71  1  0.27817000  0.40445000  0.99282000  1.0
  C  C72  1  0.82866000  0.47465000  0.05737000  1.0
  C  C73  1  0.17134000  0.52535000  0.94263000  1.0
  C  C74  1  0.82827000  0.41788000  0.15558000  1.0
  C  C75  1  0.17173000  0.58212000  0.84442000  1.0
  C  C76  1  0.71981000  0.48139000  0.20426000  1.0
  C  C77  1  0.28018000  0.51861000  0.79574000  1.0
  C  C78  1  0.61156000  0.60161000  0.15479000  1.0
  C  C79  1  0.38844000  0.39838000  0.84521000  1.0
  C  C80  1  0.18010000  0.83525000  0.56442000  1.0
  C  C81  1  0.81991000  0.16475000  0.43558000  1.0
  C  C82  1  0.05870000  0.81967000  0.51625000  1.0
  C  C83  1  0.94130000  0.18033000  0.48375000  1.0
  C  C84  1  0.09530000  0.75403000  0.45358000  1.0
  C  C85  1  0.90471000  0.24597000  0.54642000  1.0
  C  C86  1  0.25407000  0.70185000  0.43968000  1.0
  C  C87  1  0.74593000  0.29814000  0.56032000  1.0
  C  C88  1  0.37652000  0.71652000  0.48768000  1.0
  C  C89  1  0.62348000  0.28348000  0.51232000  1.0
  C  C90  1  0.33943000  0.78408000  0.54965000  1.0
  C  C91  1  0.66057000  0.21592000  0.45035000  1.0
  C  C92  1  0.65974000  0.66979000  0.65007000  1.0
  C  C93  1  0.34026000  0.33021000  0.34993000  1.0
  C  C94  1  0.77764000  0.63935000  0.59114000  1.0
  C  C95  1  0.22236000  0.36065000  0.40886000  1.0
  C  C96  1  0.90914000  0.53037000  0.62872000  1.0
  C  C97  1  0.09087000  0.46963000  0.37129000  1.0
  C  C98  1  0.92239000  0.45149000  0.72426000  1.0
  C  C99  1  0.07760000  0.54851000  0.27574000  1.0
  C  C100  1  0.80355000  0.48043000  0.78261000  1.0
  C  C101  1  0.19645000  0.51956000  0.21739000  1.0
  C  C102  1  0.67248000  0.58976000  0.74602000  1.0
  C  C103  1  0.32751000  0.41024000  0.25399000  1.0
  C  C104  1  0.56509000  0.93527000  0.51889000  1.0
  C  C105  1  0.43491000  0.06472000  0.48111000  1.0
  I  I106  1  0.32850000  0.18293000  0.70450000  1.0
  I  I107  1  0.67150000  0.81707000  0.29550000  1.0
  I  I108  1  0.80997000  0.90969000  0.74461000  1.0
  I  I109  1  0.19003000  0.09031000  0.25539000  1.0
  O  O110  1  0.46857000  0.84004000  0.88576000  1.0
  O  O111  1  0.53142000  0.15997000  0.11424000  1.0
  O  O112  1  0.42243000  0.85819000  0.68679000  1.0
  O  O113  1  0.57756000  0.14181000  0.31321000  1.0
