# generated using pymatgen
data_MnH12C8NO5
_symmetry_space_group_name_H-M   'P 1'
_cell_length_a   6.46743000
_cell_length_b   7.98120000
_cell_length_c   10.38280000
_cell_angle_alpha   100.49000000
_cell_angle_beta   103.11300000
_cell_angle_gamma   105.34900000
_symmetry_Int_Tables_number   1
_chemical_formula_structural   MnH12C8NO5
_chemical_formula_sum   'Mn2 H24 C16 N2 O10'
_cell_volume   486.33218768
_cell_formula_units_Z   2
loop_
 _symmetry_equiv_pos_site_id
 _symmetry_equiv_pos_as_xyz
  1  'x, y, z'
loop_
 _atom_site_type_symbol
 _atom_site_label
 _atom_site_symmetry_multiplicity
 _atom_site_fract_x
 _atom_site_fract_y
 _atom_site_fract_z
 _atom_site_occupancy
  Mn  Mn0  1  0.89392000  0.46973000  0.34405000  1.0
  Mn  Mn1  1  0.10609000  0.53029000  0.65596000  1.0
  H  H2  1  0.88880000  0.04660000  0.58952000  1.0
  H  H3  1  0.11119000  0.95341000  0.41048000  1.0
  H  H4  1  0.73202000  0.94455000  0.68913000  1.0
  H  H5  1  0.26797000  0.05546000  0.31087000  1.0
  H  H6  1  0.54719000  0.01272000  0.84372000  1.0
  H  H7  1  0.45283000  0.98728000  0.15628000  1.0
  H  H8  1  0.76644000  0.17149000  0.98700000  1.0
  H  H9  1  0.23358000  0.82852000  0.01301000  1.0
  H  H10  1  0.68039000  0.23367000  0.83177000  1.0
  H  H11  1  0.31963000  0.76633000  0.16823000  1.0
  H  H12  1  0.55958000  0.89987000  0.38029000  1.0
  H  H13  1  0.44041000  0.10013000  0.61971000  1.0
  H  H14  1  0.22674000  0.42344000  0.05420000  1.0
  H  H15  1  0.77327000  0.57655000  0.94579000  1.0
  H  H16  1  0.42053000  0.49538000  0.22208000  1.0
  H  H17  1  0.57945000  0.50461000  0.77791000  1.0
  H  H18  1  0.23839000  0.27189000  0.15825000  1.0
  H  H19  1  0.76159000  0.72810000  0.84174000  1.0
  H  H20  1  0.21066000  0.04127000  0.77661000  1.0
  H  H21  1  0.78936000  0.95873000  0.22338000  1.0
  H  H22  1  0.15713000  0.24433000  0.83782000  1.0
  H  H23  1  0.84288000  0.75566000  0.16217000  1.0
  H  H24  1  0.11449000  0.06738000  0.92303000  1.0
  H  H25  1  0.88551000  0.93261000  0.07696000  1.0
  C  C26  1  0.75237000  0.92757000  0.58619000  1.0
  C  C27  1  0.24760000  0.07245000  0.41381000  1.0
  C  C28  1  0.34554000  0.75011000  0.47698000  1.0
  C  C29  1  0.65445000  0.24989000  0.52303000  1.0
  C  C30  1  0.62253000  0.15461000  0.90072000  1.0
  C  C31  1  0.37749000  0.84538000  0.09928000  1.0
  C  C32  1  0.51726000  0.33408000  0.07397000  1.0
  C  C33  1  0.48274000  0.66591000  0.92602000  1.0
  C  C34  1  0.53605000  0.91495000  0.48258000  1.0
  C  C35  1  0.46394000  0.08506000  0.51742000  1.0
  C  C36  1  0.83150000  0.76591000  0.55566000  1.0
  C  C37  1  0.16849000  0.23410000  0.44434000  1.0
  C  C38  1  0.34136000  0.38448000  0.12955000  1.0
  C  C39  1  0.65863000  0.61550000  0.87044000  1.0
  C  C40  1  0.22111000  0.13877000  0.86847000  1.0
  C  C41  1  0.77890000  0.86122000  0.13152000  1.0
  N  N42  1  0.45445000  0.21297000  0.95285000  1.0
  N  N43  1  0.54556000  0.78702000  0.04715000  1.0
  O  O44  1  0.79120000  0.68453000  0.43049000  1.0
  O  O45  1  0.20877000  0.31547000  0.56951000  1.0
  O  O46  1  0.72490000  0.40284000  0.13877000  1.0
  O  O47  1  0.27509000  0.59715000  0.86122000  1.0
  O  O48  1  0.20243000  0.66608000  0.36114000  1.0
  O  O49  1  0.79757000  0.33393000  0.63887000  1.0
  O  O50  1  0.94018000  0.72671000  0.65806000  1.0
  O  O51  1  0.05984000  0.27331000  0.34194000  1.0
  O  O52  1  0.33951000  0.71186000  0.59007000  1.0
  O  O53  1  0.66049000  0.28816000  0.40994000  1.0
