# generated using pymatgen
data_AlH6C21(NO2)9
_symmetry_space_group_name_H-M   'P 1'
_cell_length_a   4.20486000
_cell_length_b   27.98680000
_cell_length_c   27.98640001
_cell_angle_alpha   120.00141839
_cell_angle_beta   90.00040003
_cell_angle_gamma   89.99880000
_symmetry_Int_Tables_number   1
_chemical_formula_structural   AlH6C21(NO2)9
_chemical_formula_sum   'Al2 H12 C42 N18 O36'
_cell_volume   2852.17550825
_cell_formula_units_Z   2
loop_
 _symmetry_equiv_pos_site_id
 _symmetry_equiv_pos_as_xyz
  1  'x, y, z'
loop_
 _atom_site_type_symbol
 _atom_site_label
 _atom_site_symmetry_multiplicity
 _atom_site_fract_x
 _atom_site_fract_y
 _atom_site_fract_z
 _atom_site_occupancy
  Al  Al0  1  0.93155000  1.00000000  0.50000000  1.0
  Al  Al1  1  0.92313000  0.33333000  0.16667000  1.0
  H  H2  1  0.18236000  0.48877000  0.29661000  1.0
  H  H3  1  0.21752000  0.59210000  0.34631000  1.0
  H  H4  1  0.47326000  0.75071000  0.46028000  1.0
  H  H5  1  0.45383000  0.73644000  0.29939000  1.0
  H  H6  1  0.18234000  0.20339000  0.19216000  1.0
  H  H7  1  0.21753000  0.15370000  0.24579000  1.0
  H  H8  1  0.47335000  0.03971000  0.29043000  1.0
  H  H9  1  0.45378000  0.20060000  0.43705000  1.0
  H  H10  1  0.18232000  0.30783000  0.01123000  1.0
  H  H11  1  0.21754000  0.25422000  0.90791000  1.0
  H  H12  1  0.47327000  0.20957000  0.74928000  1.0
  H  H13  1  0.45382000  0.06295000  0.76356000  1.0
  C  C14  1  0.43917000  0.03786000  0.58397000  1.0
  C  C15  1  0.43917000  0.91603000  0.45389000  1.0
  C  C16  1  0.43919000  0.04611000  0.46214000  1.0
  C  C17  1  0.42614000  0.41638000  0.19884000  1.0
  C  C18  1  0.42614000  0.30116000  0.21754000  1.0
  C  C19  1  0.42613000  0.28246000  0.08363000  1.0
  C  C20  1  0.43678000  0.47826000  0.22510000  1.0
  C  C21  1  0.30160000  0.50982000  0.27771000  1.0
  C  C22  1  0.32230000  0.56697000  0.30553000  1.0
  C  C23  1  0.47341000  0.59397000  0.28082000  1.0
  C  C24  1  0.60254000  0.56244000  0.22770000  1.0
  C  C25  1  0.59009000  0.50496000  0.20060000  1.0
  C  C26  1  0.46503000  0.76949000  0.43434000  1.0
  C  C27  1  0.45403000  0.73664000  0.37704000  1.0
  C  C28  1  0.45950000  0.76149000  0.34423000  1.0
  C  C29  1  0.47644000  0.81841000  0.36942000  1.0
  C  C30  1  0.46753000  0.85367000  0.42733000  1.0
  C  C31  1  0.46831000  0.82664000  0.45838000  1.0
  C  C32  1  0.43677000  0.27489000  0.25315000  1.0
  C  C33  1  0.30162000  0.22229000  0.23211000  1.0
  C  C34  1  0.32233000  0.19446000  0.26143000  1.0
  C  C35  1  0.47344000  0.21917000  0.31315000  1.0
  C  C36  1  0.60258000  0.27229000  0.33474000  1.0
  C  C37  1  0.59009000  0.29939000  0.30436000  1.0
  C  C38  1  0.46509000  0.06566000  0.33515000  1.0
  C  C39  1  0.45402000  0.12295000  0.35960000  1.0
  C  C40  1  0.45947000  0.15576000  0.41726000  1.0
  C  C41  1  0.47643000  0.13057000  0.44899000  1.0
  C  C42  1  0.46754000  0.07266000  0.42634000  1.0
  C  C43  1  0.46838000  0.04161000  0.36826000  1.0
  C  C44  1  0.43679000  0.24685000  0.02175000  1.0
  C  C45  1  0.30159000  0.26790000  0.99019000  1.0
  C  C46  1  0.32233000  0.23857000  0.93304000  1.0
  C  C47  1  0.47351000  0.18685000  0.90602000  1.0
  C  C48  1  0.60269000  0.16528000  0.93756000  1.0
  C  C49  1  0.59015000  0.19565000  0.99504000  1.0
  C  C50  1  0.46502000  0.16485000  0.73051000  1.0
  C  C51  1  0.45402000  0.14040000  0.76335000  1.0
  C  C52  1  0.45952000  0.08275000  0.73851000  1.0
  C  C53  1  0.47645000  0.05100000  0.68158000  1.0
  C  C54  1  0.46754000  0.07365000  0.64632000  1.0
  C  C55  1  0.46832000  0.13173000  0.67335000  1.0
  N  N56  1  0.48820000  0.65158000  0.30404000  1.0
  N  N57  1  0.44646000  0.67888000  0.35563000  1.0
  N  N58  1  0.48824000  0.19595000  0.34754000  1.0
  N  N59  1  0.44645000  0.14437000  0.32325000  1.0
  N  N60  1  0.48832000  0.15247000  0.84842000  1.0
  N  N61  1  0.44643000  0.17675000  0.82112000  1.0
  N  N62  1  0.74515000  0.47183000  0.14649000  1.0
  N  N63  1  0.73043000  0.59247000  0.20074000  1.0
  N  N64  1  0.48906000  0.85638000  0.51980000  1.0
  N  N65  1  0.51823000  0.83911000  0.33002000  1.0
  N  N66  1  0.74513000  0.35350000  0.32534000  1.0
  N  N67  1  0.73050000  0.29925000  0.39173000  1.0
  N  N68  1  0.48922000  0.98020000  0.33658000  1.0
  N  N69  1  0.51822000  0.16997000  0.50909000  1.0
  N  N70  1  0.74516000  0.17467000  0.02817000  1.0
  N  N71  1  0.73064000  0.10829000  0.90753000  1.0
  N  N72  1  0.48909000  0.16341000  0.64361000  1.0
  N  N73  1  0.51826000  0.99090000  0.66088000  1.0
  O  O74  1  0.18350000  0.01995000  0.45606000  1.0
  O  O75  1  0.18348000  0.04394000  0.56389000  1.0
  O  O76  1  0.18349000  0.93610000  0.48004000  1.0
  O  O77  1  0.66242000  0.05251000  0.49506000  1.0
  O  O78  1  0.66241000  0.94254000  0.44749000  1.0
  O  O79  1  0.66240000  0.00495000  0.55745000  1.0
  O  O80  1  0.18064000  0.27941000  0.10816000  1.0
  O  O81  1  0.18065000  0.39185000  0.17126000  1.0
  O  O82  1  0.18064000  0.32874000  0.22059000  1.0
  O  O83  1  0.65801000  0.31551000  0.10453000  1.0
  O  O84  1  0.65802000  0.28901000  0.18449000  1.0
  O  O85  1  0.65802000  0.39549000  0.21100000  1.0
  O  O86  1  0.63931000  0.42492000  0.11597000  1.0
  O  O87  1  0.97354000  0.49293000  0.13606000  1.0
  O  O88  1  0.96470000  0.62200000  0.22257000  1.0
  O  O89  1  0.58237000  0.58690000  0.16041000  1.0
  O  O90  1  0.30685000  0.89513000  0.54661000  1.0
  O  O91  1  0.68789000  0.83749000  0.53856000  1.0
  O  O92  1  0.74729000  0.86983000  0.33848000  1.0
  O  O93  1  0.33367000  0.82078000  0.29051000  1.0
  O  O94  1  0.63924000  0.38403000  0.30897000  1.0
  O  O95  1  0.97353000  0.36394000  0.35687000  1.0
  O  O96  1  0.96479000  0.27742000  0.39942000  1.0
  O  O97  1  0.58245000  0.33957000  0.42649000  1.0
  O  O98  1  0.30707000  0.95339000  0.34853000  1.0
  O  O99  1  0.68805000  0.96144000  0.29893000  1.0
  O  O100  1  0.74727000  0.16151000  0.53136000  1.0
  O  O101  1  0.33367000  0.20948000  0.53027000  1.0
  O  O102  1  0.63924000  0.19103000  0.07507000  1.0
  O  O103  1  0.97358000  0.14314000  0.00708000  1.0
  O  O104  1  0.96492000  0.10060000  0.87800000  1.0
  O  O105  1  0.58262000  0.07352000  0.91308000  1.0
  O  O106  1  0.30691000  0.15147000  0.60486000  1.0
  O  O107  1  0.68791000  0.20106000  0.66251000  1.0
  O  O108  1  0.74730000  0.96864000  0.63015000  1.0
  O  O109  1  0.33374000  0.96973000  0.67922000  1.0
