# generated using pymatgen
data_ZnH8C12(NO2)2
_symmetry_space_group_name_H-M   'P 1'
_cell_length_a   13.50250000
_cell_length_b   13.50250000
_cell_length_c   14.71550000
_cell_angle_alpha   63.49690000
_cell_angle_beta   63.49680000
_cell_angle_gamma   87.61530000
_symmetry_Int_Tables_number   1
_chemical_formula_structural   ZnH8C12(NO2)2
_chemical_formula_sum   'Zn6 H48 C72 N12 O24'
_cell_volume   2106.65655108
_cell_formula_units_Z   6
loop_
 _symmetry_equiv_pos_site_id
 _symmetry_equiv_pos_as_xyz
  1  'x, y, z'
loop_
 _atom_site_type_symbol
 _atom_site_label
 _atom_site_symmetry_multiplicity
 _atom_site_fract_x
 _atom_site_fract_y
 _atom_site_fract_z
 _atom_site_occupancy
  Zn  Zn0  1  0.15589000  0.88753000  0.64969000  1.0
  Zn  Zn1  1  0.88753000  0.15589000  0.14969000  1.0
  Zn  Zn2  1  0.40162000  0.13594000  0.89198000  1.0
  Zn  Zn3  1  0.13595000  0.40162000  0.39198000  1.0
  Zn  Zn4  1  0.50004000  0.76684000  0.76605000  1.0
  Zn  Zn5  1  0.76684000  0.50004000  0.26604000  1.0
  H  H6  1  0.80643000  0.00008000  0.92408000  1.0
  H  H7  1  0.00008000  0.80643000  0.42408000  1.0
  H  H8  1  0.14269000  0.00588000  0.88432000  1.0
  H  H9  1  0.00588000  0.14269000  0.38432000  1.0
  H  H10  1  0.51652000  0.87671000  0.46851000  1.0
  H  H11  1  0.87671000  0.51652000  0.96851000  1.0
  H  H12  1  0.48213000  0.22443000  0.32072000  1.0
  H  H13  1  0.22443000  0.48214000  0.82071000  1.0
  H  H14  1  0.76196000  0.07972000  0.06024000  1.0
  H  H15  1  0.07972000  0.76196000  0.56024000  1.0
  H  H16  1  0.08521000  0.07983000  0.02366000  1.0
  H  H17  1  0.07983000  0.08521000  0.52366000  1.0
  H  H18  1  0.72598000  0.94185000  0.32748000  1.0
  H  H19  1  0.94185000  0.72597000  0.82748000  1.0
  H  H20  1  0.69344000  0.27643000  0.18766000  1.0
  H  H21  1  0.27642000  0.69345000  0.68766000  1.0
  H  H22  1  0.60017000  0.02538000  0.86128000  1.0
  H  H23  1  0.02538000  0.60017000  0.36129000  1.0
  H  H24  1  0.81221000  0.08006000  0.72577000  1.0
  H  H25  1  0.08006000  0.81221000  0.22578000  1.0
  H  H26  1  0.76614000  0.41790000  0.55123000  1.0
  H  H27  1  0.41790000  0.76613000  0.05123000  1.0
  H  H28  1  0.55661000  0.35034000  0.69306000  1.0
  H  H29  1  0.35034000  0.55661000  0.19307000  1.0
  H  H30  1  0.14654000  0.26076000  0.17893000  1.0
  H  H31  1  0.26077000  0.14654000  0.67893000  1.0
  H  H32  1  0.48918000  0.28410000  0.12078000  1.0
  H  H33  1  0.28410000  0.48918000  0.62078000  1.0
  H  H34  1  0.53246000  0.20831000  0.98138000  1.0
  H  H35  1  0.20831000  0.53246000  0.48139000  1.0
  H  H36  1  0.20340000  0.19404000  0.03408000  1.0
  H  H37  1  0.19405000  0.20340000  0.53408000  1.0
  H  H38  1  0.57299000  0.49071000  0.09610000  1.0
  H  H39  1  0.49071000  0.57299000  0.59610000  1.0
  H  H40  1  0.74442000  0.83585000  0.92183000  1.0
  H  H41  1  0.83585000  0.74442000  0.42183000  1.0
  H  H42  1  0.49310000  0.55099000  0.95811000  1.0
  H  H43  1  0.55100000  0.49310000  0.45811000  1.0
  H  H44  1  0.65890000  0.88204000  0.79030000  1.0
  H  H45  1  0.88205000  0.65890000  0.29030000  1.0
  H  H46  1  0.79234000  0.13246000  0.43575000  1.0
  H  H47  1  0.13246000  0.79235000  0.93575000  1.0
  H  H48  1  0.39777000  0.96608000  0.74239000  1.0
  H  H49  1  0.96608000  0.39777000  0.24239000  1.0
  H  H50  1  0.72385000  0.92296000  0.57648000  1.0
  H  H51  1  0.92296000  0.72385000  0.07648000  1.0
  H  H52  1  0.45231000  0.17587000  0.60450000  1.0
  H  H53  1  0.17587000  0.45232000  0.10449000  1.0
  C  C54  1  0.00900000  0.95336000  0.80766000  1.0
  C  C55  1  0.95336000  0.00900000  0.30766000  1.0
  C  C56  1  0.35926000  0.01203000  0.48367000  1.0
  C  C57  1  0.01203000  0.35926000  0.98367000  1.0
  C  C58  1  0.97876000  0.99834000  0.89207000  1.0
  C  C59  1  0.99834000  0.97875000  0.39207000  1.0
  C  C60  1  0.48455000  0.04621000  0.40258000  1.0
  C  C61  1  0.04621000  0.48456000  0.90258000  1.0
  C  C62  1  0.87008000  0.01837000  0.94358000  1.0
  C  C63  1  0.01838000  0.87008000  0.44358000  1.0
  C  C64  1  0.05723000  0.02031000  0.92162000  1.0
  C  C65  1  0.02031000  0.05723000  0.42162000  1.0
  C  C66  1  0.55309000  0.96543000  0.40564000  1.0
  C  C67  1  0.96542000  0.55309000  0.90564000  1.0
  C  C68  1  0.53401000  0.16008000  0.32328000  1.0
  C  C69  1  0.16007000  0.53401000  0.82328000  1.0
  C  C70  1  0.84527000  0.06188000  0.01905000  1.0
  C  C71  1  0.06188000  0.84527000  0.51905000  1.0
  C  C72  1  0.02593000  0.06271000  0.99886000  1.0
  C  C73  1  0.06271000  0.02593000  0.49885000  1.0
  C  C74  1  0.66805000  0.00072000  0.32878000  1.0
  C  C75  1  0.00072000  0.66805000  0.82878000  1.0
  C  C76  1  0.64987000  0.18896000  0.24974000  1.0
  C  C77  1  0.18896000  0.64987000  0.74974000  1.0
  C  C78  1  0.80348000  0.25336000  0.62918000  1.0
  C  C79  1  0.25336000  0.80348000  0.12918000  1.0
  C  C80  1  0.92887000  0.28795000  0.54926000  1.0
  C  C81  1  0.28795000  0.92886000  0.04926000  1.0
  C  C82  1  0.64158000  0.11117000  0.79127000  1.0
  C  C83  1  0.11118000  0.64158000  0.29127000  1.0
  C  C84  1  0.75715000  0.14130000  0.71695000  1.0
  C  C85  1  0.14130000  0.75715000  0.21695000  1.0
  C  C86  1  0.73181000  0.33056000  0.61910000  1.0
  C  C87  1  0.33056000  0.73181000  0.11910000  1.0
  C  C88  1  0.61692000  0.29421000  0.69676000  1.0
  C  C89  1  0.29421000  0.61692000  0.19676000  1.0
  C  C90  1  0.28688000  0.32945000  0.23982000  1.0
  C  C91  1  0.32945000  0.28688000  0.73982000  1.0
  C  C92  1  0.44821000  0.22209000  0.02685000  1.0
  C  C93  1  0.22209000  0.44821000  0.52686000  1.0
  C  C94  1  0.26403000  0.21268000  0.05671000  1.0
  C  C95  1  0.21269000  0.26403000  0.55671000  1.0
  C  C96  1  0.23331000  0.25159000  0.13655000  1.0
  C  C97  1  0.25159000  0.23331000  0.63655000  1.0
  C  C98  1  0.42420000  0.26342000  0.10395000  1.0
  C  C99  1  0.26342000  0.42420000  0.60395000  1.0
  C  C100  1  0.31446000  0.27874000  0.16041000  1.0
  C  C101  1  0.27874000  0.31446000  0.66041000  1.0
  C  C102  1  0.66320000  0.65997000  0.01991000  1.0
  C  C103  1  0.65997000  0.66320000  0.51991000  1.0
  C  C104  1  0.59459000  0.57795000  0.02867000  1.0
  C  C105  1  0.57795000  0.59459000  0.52867000  1.0
  C  C106  1  0.70955000  0.63087000  0.10263000  1.0
  C  C107  1  0.63087000  0.70955000  0.60263000  1.0
  C  C108  1  0.68789000  0.77133000  0.93291000  1.0
  C  C109  1  0.77133000  0.68789000  0.43291000  1.0
  C  C110  1  0.55038000  0.61017000  0.95285000  1.0
  C  C111  1  0.61018000  0.55038000  0.45284000  1.0
  C  C112  1  0.64179000  0.79659000  0.85960000  1.0
  C  C113  1  0.79660000  0.64178000  0.35960000  1.0
  C  C114  1  0.62593000  0.16864000  0.51074000  1.0
  C  C115  1  0.16864000  0.62593000  0.01073000  1.0
  C  C116  1  0.51411000  0.12180000  0.59769000  1.0
  C  C117  1  0.12180000  0.51411000  0.09769000  1.0
  C  C118  1  0.70463000  0.09820000  0.50294000  1.0
  C  C119  1  0.09820000  0.70463000  0.00294000  1.0
  C  C120  1  0.66784000  0.98331000  0.58031000  1.0
  C  C121  1  0.98331000  0.66784000  0.08031000  1.0
  C  C122  1  0.48384000  0.00678000  0.67314000  1.0
  C  C123  1  0.00678000  0.48384000  0.17314000  1.0
  C  C124  1  0.65705000  0.29285000  0.42738000  1.0
  C  C125  1  0.29285000  0.65704000  0.92738000  1.0
  N  N126  1  0.08422000  0.92197000  0.54595000  1.0
  N  N127  1  0.92197000  0.08422000  0.04596000  1.0
  N  N128  1  0.11050000  0.71548000  0.75213000  1.0
  N  N129  1  0.71547000  0.11050000  0.25213000  1.0
  N  N130  1  0.57278000  0.18631000  0.78153000  1.0
  N  N131  1  0.18631000  0.57278000  0.28153000  1.0
  N  N132  1  0.19764000  0.36966000  0.50306000  1.0
  N  N133  1  0.36966000  0.19763000  0.00306000  1.0
  N  N134  1  0.57281000  0.71811000  0.87022000  1.0
  N  N135  1  0.71811000  0.57281000  0.37022000  1.0
  N  N136  1  0.93846000  0.55934000  0.16368000  1.0
  N  N137  1  0.55934000  0.93846000  0.66369000  1.0
  O  O138  1  0.11540000  0.95092000  0.75581000  1.0
  O  O139  1  0.95091000  0.11540000  0.25581000  1.0
  O  O140  1  0.32235000  0.90566000  0.55859000  1.0
  O  O141  1  0.90566000  0.32235000  0.05860000  1.0
  O  O142  1  0.93386000  0.92155000  0.79372000  1.0
  O  O143  1  0.92155000  0.93385000  0.29372000  1.0
  O  O144  1  0.29891000  0.08479000  0.47500000  1.0
  O  O145  1  0.08479000  0.29892000  0.97500000  1.0
  O  O146  1  0.96716000  0.39292000  0.47036000  1.0
  O  O147  1  0.39292000  0.96716000  0.97035000  1.0
  O  O148  1  0.98913000  0.21565000  0.56337000  1.0
  O  O149  1  0.21565000  0.98913000  0.06337000  1.0
  O  O150  1  0.17970000  0.32482000  0.29842000  1.0
  O  O151  1  0.32482000  0.17970000  0.79842000  1.0
  O  O152  1  0.36473000  0.37420000  0.24125000  1.0
  O  O153  1  0.37420000  0.36473000  0.74125000  1.0
  O  O154  1  0.70863000  0.52433000  0.15827000  1.0
  O  O155  1  0.52433000  0.70863000  0.65827000  1.0
  O  O156  1  0.74493000  0.70759000  0.11251000  1.0
  O  O157  1  0.70760000  0.74493000  0.61251000  1.0
  O  O158  1  0.76357000  0.33491000  0.35743000  1.0
  O  O159  1  0.33491000  0.76357000  0.85743000  1.0
  O  O160  1  0.58010000  0.34820000  0.42969000  1.0
  O  O161  1  0.34821000  0.58010000  0.92969000  1.0
