# generated using pymatgen
data_Ni3P4H38C40(N5O7)2
_symmetry_space_group_name_H-M   'P 1'
_cell_length_a   8.88448000
_cell_length_b   10.66790000
_cell_length_c   13.62450000
_cell_angle_alpha   67.59970000
_cell_angle_beta   75.77300000
_cell_angle_gamma   80.23250000
_symmetry_Int_Tables_number   1
_chemical_formula_structural   Ni3P4H38C40(N5O7)2
_chemical_formula_sum   'Ni3 P4 H38 C40 N10 O14'
_cell_volume   1153.09078139
_cell_formula_units_Z   1
loop_
 _symmetry_equiv_pos_site_id
 _symmetry_equiv_pos_as_xyz
  1  'x, y, z'
loop_
 _atom_site_type_symbol
 _atom_site_label
 _atom_site_symmetry_multiplicity
 _atom_site_fract_x
 _atom_site_fract_y
 _atom_site_fract_z
 _atom_site_occupancy
  Ni  Ni0  1  0.50000000  0.50000000  0.00000000  1.0
  Ni  Ni1  1  0.30076000  0.89706000  0.15445000  1.0
  Ni  Ni2  1  0.69923000  0.10294000  0.84556000  1.0
  P  P3  1  0.53545000  0.82005000  0.96558000  1.0
  P  P4  1  0.46455000  0.17994000  0.03442000  1.0
  P  P5  1  0.21395000  0.71601000  0.05282000  1.0
  P  P6  1  0.78604000  0.28399000  0.94718000  1.0
  H  H7  1  0.34514000  0.04864000  0.95684000  1.0
  H  H8  1  0.65486000  0.95136000  0.04316000  1.0
  H  H9  1  0.00621000  0.73491000  0.98604000  1.0
  H  H10  1  0.99379000  0.26509000  0.01395000  1.0
  H  H11  1  0.37833000  0.99554000  0.79091000  1.0
  H  H12  1  0.62167000  0.00445000  0.20909000  1.0
  H  H13  1  0.37506000  0.82429000  0.80398000  1.0
  H  H14  1  0.62494000  0.17570000  0.19602000  1.0
  H  H15  1  0.05875000  0.09170000  0.87552000  1.0
  H  H16  1  0.94125000  0.90830000  0.12448000  1.0
  H  H17  1  0.86623000  0.89530000  0.72326000  1.0
  H  H18  1  0.13376000  0.10470000  0.27674000  1.0
  H  H19  1  0.16911000  0.78452000  0.73703000  1.0
  H  H20  1  0.83089000  0.21548000  0.26298000  1.0
  H  H21  1  0.30974000  0.61975000  0.32135000  1.0
  H  H22  1  0.69026000  0.38024000  0.67866000  1.0
  H  H23  1  0.34936000  0.51301000  0.51293000  1.0
  H  H24  1  0.65064000  0.48699000  0.48708000  1.0
  H  H25  1  0.43391000  0.91027000  0.49180000  1.0
  H  H26  1  0.56610000  0.08972000  0.50820000  1.0
  H  H27  1  0.38191000  0.00018000  0.30300000  1.0
  H  H28  1  0.61809000  0.99982000  0.69700000  1.0
  H  H29  1  0.30729000  0.42240000  0.88469000  1.0
  H  H30  1  0.69270000  0.57761000  0.11532000  1.0
  H  H31  1  0.25320000  0.50174000  0.69702000  1.0
  H  H32  1  0.74679000  0.49826000  0.30299000  1.0
  H  H33  1  0.62004000  0.77132000  0.59413000  1.0
  H  H34  1  0.37997000  0.22867000  0.40587000  1.0
  H  H35  1  0.65417000  0.68117000  0.78691000  1.0
  H  H36  1  0.34583000  0.31881000  0.21310000  1.0
  H  H37  1  0.07331000  0.36969000  0.24996000  1.0
  H  H38  1  0.92671000  0.63033000  0.75003000  1.0
  H  H39  1  0.02812000  0.56634000  0.30820000  1.0
  H  H40  1  0.97188000  0.43367000  0.69179000  1.0
  H  H41  1  0.01924000  0.28001000  0.63694000  1.0
  H  H42  1  0.98077000  0.72000000  0.36305000  1.0
  H  H43  1  0.07172000  0.09614000  0.56249000  1.0
  H  H44  1  0.92829000  0.90387000  0.43750000  1.0
  C  C45  1  0.32423000  0.86139000  0.95441000  1.0
  C  C46  1  0.67577000  0.13861000  0.04559000  1.0
  C  C47  1  0.31542000  0.90386000  0.83556000  1.0
  C  C48  1  0.68457000  0.09613000  0.16444000  1.0
  C  C49  1  0.04597000  0.02660000  0.83386000  1.0
  C  C50  1  0.95403000  0.97339000  0.16614000  1.0
  C  C51  1  0.94952000  0.92022000  0.75757000  1.0
  C  C52  1  0.05047000  0.07978000  0.24243000  1.0
  C  C53  1  0.09943000  0.86372000  0.76361000  1.0
  C  C54  1  0.90057000  0.13627000  0.23638000  1.0
  C  C55  1  0.33759000  0.67928000  0.36322000  1.0
  C  C56  1  0.66241000  0.32072000  0.63678000  1.0
  C  C57  1  0.36016000  0.62140000  0.46939000  1.0
  C  C58  1  0.63983000  0.37860000  0.53062000  1.0
  C  C59  1  0.39939000  0.70220000  0.51843000  1.0
  C  C60  1  0.60061000  0.29779000  0.48157000  1.0
  C  C61  1  0.40835000  0.84136000  0.45719000  1.0
  C  C62  1  0.59166000  0.15863000  0.54281000  1.0
  C  C63  1  0.37931000  0.89262000  0.35302000  1.0
  C  C64  1  0.62069000  0.10738000  0.64698000  1.0
  C  C65  1  0.37248000  0.49968000  0.81707000  1.0
  C  C66  1  0.62751000  0.50032000  0.18293000  1.0
  C  C67  1  0.34468000  0.54381000  0.71249000  1.0
  C  C68  1  0.65531000  0.45619000  0.28751000  1.0
  C  C69  1  0.43016000  0.64607000  0.62922000  1.0
  C  C70  1  0.56984000  0.35393000  0.37079000  1.0
  C  C71  1  0.54587000  0.69524000  0.65566000  1.0
  C  C72  1  0.45413000  0.30476000  0.34434000  1.0
  C  C73  1  0.56833000  0.64433000  0.76179000  1.0
  C  C74  1  0.43168000  0.35567000  0.23822000  1.0
  C  C75  1  0.06066000  0.35320000  0.33581000  1.0
  C  C76  1  0.93935000  0.64681000  0.66417000  1.0
  C  C77  1  0.03294000  0.46456000  0.36940000  1.0
  C  C78  1  0.96707000  0.53546000  0.63059000  1.0
  C  C79  1  0.01691000  0.44277000  0.47972000  1.0
  C  C80  1  0.98310000  0.55724000  0.52027000  1.0
  C  C81  1  0.03247000  0.30669000  0.54993000  1.0
  C  C82  1  0.96754000  0.69332000  0.45006000  1.0
  C  C83  1  0.06115000  0.20225000  0.50834000  1.0
  C  C84  1  0.93886000  0.79776000  0.49165000  1.0
  N  N85  1  0.91781000  0.02093000  0.80174000  1.0
  N  N86  1  0.08219000  0.97906000  0.19827000  1.0
  N  N87  1  0.15887000  0.93198000  0.81220000  1.0
  N  N88  1  0.84112000  0.06801000  0.18780000  1.0
  N  N89  1  0.34665000  0.81294000  0.30555000  1.0
  N  N90  1  0.65335000  0.18706000  0.69445000  1.0
  N  N91  1  0.48157000  0.54995000  0.84165000  1.0
  N  N92  1  0.51843000  0.45005000  0.15835000  1.0
  N  N93  1  0.07551000  0.22336000  0.40283000  1.0
  N  N94  1  0.92449000  0.77666000  0.59716000  1.0
  O  O95  1  0.26687000  0.97486000  0.99104000  1.0
  O  O96  1  0.73312000  0.02514000  0.00896000  1.0
  O  O97  1  0.59157000  0.67863000  0.96265000  1.0
  O  O98  1  0.40842000  0.32136000  0.03735000  1.0
  O  O99  1  0.53663000  0.83953000  0.07265000  1.0
  O  O100  1  0.46337000  0.16047000  0.92736000  1.0
  O  O101  1  0.61993000  0.92759000  0.86495000  1.0
  O  O102  1  0.38007000  0.07240000  0.13505000  1.0
  O  O103  1  0.03102000  0.75381000  0.04477000  1.0
  O  O104  1  0.96897000  0.24619000  0.95523000  1.0
  O  O105  1  0.26862000  0.58961000  0.02485000  1.0
  O  O106  1  0.73138000  0.41039000  0.97515000  1.0
  O  O107  1  0.22059000  0.71760000  0.16273000  1.0
  O  O108  1  0.77940000  0.28240000  0.83727000  1.0
