# generated using pymatgen
data_CuH8C9S2N4Cl
_symmetry_space_group_name_H-M   'P 1'
_cell_length_a   8.95428000
_cell_length_b   8.95420000
_cell_length_c   15.30410000
_cell_angle_alpha   96.53490000
_cell_angle_beta   96.53440000
_cell_angle_gamma   94.38980000
_symmetry_Int_Tables_number   1
_chemical_formula_structural   CuH8C9S2N4Cl
_chemical_formula_sum   'Cu4 H32 C36 S8 N16 Cl4'
_cell_volume   1206.17789390
_cell_formula_units_Z   4
loop_
 _symmetry_equiv_pos_site_id
 _symmetry_equiv_pos_as_xyz
  1  'x, y, z'
loop_
 _atom_site_type_symbol
 _atom_site_label
 _atom_site_symmetry_multiplicity
 _atom_site_fract_x
 _atom_site_fract_y
 _atom_site_fract_z
 _atom_site_occupancy
  Cu  Cu0  1  0.07599000  0.58039000  0.42917000  1.0
  Cu  Cu1  1  0.41960000  0.92401000  0.07083000  1.0
  Cu  Cu2  1  0.92400000  0.41960000  0.57083000  1.0
  Cu  Cu3  1  0.58040000  0.07599000  0.92917000  1.0
  H  H4  1  0.34150000  0.40943000  0.47248000  1.0
  H  H5  1  0.59056000  0.65851000  0.02752000  1.0
  H  H6  1  0.65849000  0.59056000  0.52753000  1.0
  H  H7  1  0.40945000  0.34150000  0.97248000  1.0
  H  H8  1  0.54032000  0.30193000  0.38226000  1.0
  H  H9  1  0.69808000  0.45970000  0.11773000  1.0
  H  H10  1  0.45967000  0.69805000  0.61775000  1.0
  H  H11  1  0.30194000  0.54032000  0.88226000  1.0
  H  H12  1  0.48633000  0.28857000  0.21473000  1.0
  H  H13  1  0.71144000  0.51367000  0.28527000  1.0
  H  H14  1  0.51367000  0.71141000  0.78528000  1.0
  H  H15  1  0.28857000  0.48632000  0.71473000  1.0
  H  H16  1  0.94835000  0.53943000  0.07902000  1.0
  H  H17  1  0.46057000  0.05165000  0.42098000  1.0
  H  H18  1  0.05165000  0.46058000  0.92098000  1.0
  H  H19  1  0.53943000  0.94835000  0.57902000  1.0
  H  H20  1  0.09128000  0.40954000  0.08992000  1.0
  H  H21  1  0.59046000  0.90872000  0.41007000  1.0
  H  H22  1  0.90872000  0.59047000  0.91008000  1.0
  H  H23  1  0.40953000  0.09128000  0.58992000  1.0
  H  H24  1  0.22536000  0.17886000  0.09585000  1.0
  H  H25  1  0.82114000  0.77462000  0.40415000  1.0
  H  H26  1  0.77464000  0.82114000  0.90414000  1.0
  H  H27  1  0.17885000  0.22537000  0.59585000  1.0
  H  H28  1  0.95440000  0.19841000  0.12975000  1.0
  H  H29  1  0.80160000  0.04560000  0.37026000  1.0
  H  H30  1  0.04560000  0.80160000  0.87024000  1.0
  H  H31  1  0.19840000  0.95440000  0.62974000  1.0
  H  H32  1  0.79629000  0.95580000  0.13386000  1.0
  H  H33  1  0.04420000  0.20371000  0.36614000  1.0
  H  H34  1  0.20371000  0.04421000  0.86613000  1.0
  H  H35  1  0.95580000  0.79629000  0.63387000  1.0
  C  C36  1  0.33166000  0.40171000  0.40023000  1.0
  C  C37  1  0.59830000  0.66835000  0.09977000  1.0
  C  C38  1  0.66833000  0.59829000  0.59978000  1.0
  C  C39  1  0.40171000  0.33166000  0.90023000  1.0
  C  C40  1  0.43814000  0.34157000  0.35070000  1.0
  C  C41  1  0.65843000  0.56187000  0.14929000  1.0
  C  C42  1  0.56185000  0.65841000  0.64930000  1.0
  C  C43  1  0.34158000  0.43813000  0.85071000  1.0
  C  C44  1  0.41055000  0.33775000  0.25890000  1.0
  C  C45  1  0.66225000  0.58946000  0.24109000  1.0
  C  C46  1  0.58946000  0.66224000  0.74111000  1.0
  C  C47  1  0.33775000  0.41054000  0.75890000  1.0
  C  C48  1  0.19405000  0.45192000  0.27179000  1.0
  C  C49  1  0.54808000  0.80596000  0.22821000  1.0
  C  C50  1  0.80596000  0.54808000  0.72821000  1.0
  C  C51  1  0.45192000  0.19404000  0.77179000  1.0
  C  C52  1  0.05858000  0.52129000  0.11303000  1.0
  C  C53  1  0.47871000  0.94143000  0.38697000  1.0
  C  C54  1  0.94143000  0.47872000  0.88697000  1.0
  C  C55  1  0.52128000  0.05857000  0.61303000  1.0
  C  C56  1  0.11499000  0.82145000  0.09674000  1.0
  C  C57  1  0.17855000  0.88501000  0.40326000  1.0
  C  C58  1  0.88501000  0.17856000  0.90325000  1.0
  C  C59  1  0.82144000  0.11499000  0.59675000  1.0
  C  C60  1  0.14940000  0.07994000  0.10100000  1.0
  C  C61  1  0.92006000  0.85059000  0.39900000  1.0
  C  C62  1  0.85060000  0.92006000  0.89899000  1.0
  C  C63  1  0.07993000  0.14941000  0.60100000  1.0
  C  C64  1  0.00176000  0.09035000  0.11949000  1.0
  C  C65  1  0.90965000  0.99823000  0.38051000  1.0
  C  C66  1  0.99824000  0.90966000  0.88050000  1.0
  C  C67  1  0.09034000  0.00176000  0.61949000  1.0
  C  C68  1  0.91471000  0.95568000  0.12295000  1.0
  C  C69  1  0.04432000  0.08529000  0.37705000  1.0
  C  C70  1  0.08530000  0.04433000  0.87705000  1.0
  C  C71  1  0.95568000  0.91471000  0.62295000  1.0
  S  S72  1  0.03422000  0.53395000  0.22928000  1.0
  S  S73  1  0.46605000  0.96578000  0.27072000  1.0
  S  S74  1  0.96579000  0.46606000  0.77072000  1.0
  S  S75  1  0.53394000  0.03421000  0.72928000  1.0
  S  S76  1  0.20333000  0.65359000  0.08490000  1.0
  S  S77  1  0.34641000  0.79667000  0.41510000  1.0
  S  S78  1  0.79667000  0.34642000  0.91509000  1.0
  S  S79  1  0.65359000  0.20333000  0.58491000  1.0
  N  N80  1  0.20888000  0.45777000  0.36153000  1.0
  N  N81  1  0.54222000  0.79112000  0.13847000  1.0
  N  N82  1  0.79112000  0.54223000  0.63847000  1.0
  N  N83  1  0.45778000  0.20888000  0.86153000  1.0
  N  N84  1  0.28842000  0.39265000  0.21908000  1.0
  N  N85  1  0.60736000  0.71158000  0.28091000  1.0
  N  N86  1  0.71159000  0.60734000  0.78092000  1.0
  N  N87  1  0.39264000  0.28841000  0.71908000  1.0
  N  N88  1  0.97091000  0.82086000  0.11146000  1.0
  N  N89  1  0.17913000  0.02909000  0.38854000  1.0
  N  N90  1  0.02909000  0.17914000  0.88853000  1.0
  N  N91  1  0.82086000  0.97091000  0.61147000  1.0
  N  N92  1  0.20816000  0.94598000  0.08963000  1.0
  N  N93  1  0.05402000  0.79183000  0.41036000  1.0
  N  N94  1  0.79184000  0.05403000  0.91036000  1.0
  N  N95  1  0.94597000  0.20817000  0.58964000  1.0
  Cl  Cl96  1  0.16381000  0.56200000  0.57958000  1.0
  Cl  Cl97  1  0.43799000  0.83619000  0.92042000  1.0
  Cl  Cl98  1  0.83618000  0.43800000  0.42043000  1.0
  Cl  Cl99  1  0.56201000  0.16381000  0.07958000  1.0
