# generated using pymatgen
data_TbH4C8N2Cl3
_symmetry_space_group_name_H-M   'P 1'
_cell_length_a   6.25894000
_cell_length_b   7.05718000
_cell_length_c   22.06270000
_cell_angle_alpha   90.00190000
_cell_angle_beta   90.00520000
_cell_angle_gamma   89.99980000
_symmetry_Int_Tables_number   1
_chemical_formula_structural   TbH4C8N2Cl3
_chemical_formula_sum   'Tb4 H16 C32 N8 Cl12'
_cell_volume   974.51973984
_cell_formula_units_Z   4
loop_
 _symmetry_equiv_pos_site_id
 _symmetry_equiv_pos_as_xyz
  1  'x, y, z'
loop_
 _atom_site_type_symbol
 _atom_site_label
 _atom_site_symmetry_multiplicity
 _atom_site_fract_x
 _atom_site_fract_y
 _atom_site_fract_z
 _atom_site_occupancy
  Tb  Tb0  1  0.54681000  0.99165000  0.75000000  1.0
  Tb  Tb1  1  0.04682000  0.50835000  0.25000000  1.0
  Tb  Tb2  1  0.95318000  0.49165000  0.75000000  1.0
  Tb  Tb3  1  0.45318000  0.00834000  0.25000000  1.0
  H  H4  1  0.87321000  0.11007000  0.89848000  1.0
  H  H5  1  0.37320000  0.38993000  0.10152000  1.0
  H  H6  1  0.62681000  0.61008000  0.60153000  1.0
  H  H7  1  0.12681000  0.88994000  0.39849000  1.0
  H  H8  1  0.12681000  0.88993000  0.10152000  1.0
  H  H9  1  0.62681000  0.61008000  0.89847000  1.0
  H  H10  1  0.37322000  0.38994000  0.39849000  1.0
  H  H11  1  0.87317000  0.11006000  0.60152000  1.0
  H  H12  1  0.36138000  0.85610000  0.01168000  1.0
  H  H13  1  0.86133000  0.64387000  0.98831000  1.0
  H  H14  1  0.13861000  0.35612000  0.48832000  1.0
  H  H15  1  0.63863000  0.14388000  0.51168000  1.0
  H  H16  1  0.63864000  0.14388000  0.98832000  1.0
  H  H17  1  0.13863000  0.35611000  0.01169000  1.0
  H  H18  1  0.86136000  0.64388000  0.51168000  1.0
  H  H19  1  0.36137000  0.85612000  0.48832000  1.0
  C  C20  1  0.13205000  0.98027000  0.94954000  1.0
  C  C21  1  0.63202000  0.51972000  0.05046000  1.0
  C  C22  1  0.36794000  0.48028000  0.55046000  1.0
  C  C23  1  0.86796000  0.01974000  0.44954000  1.0
  C  C24  1  0.86797000  0.01971000  0.05047000  1.0
  C  C25  1  0.36799000  0.48027000  0.94954000  1.0
  C  C26  1  0.63205000  0.51973000  0.44954000  1.0
  C  C27  1  0.13204000  0.98027000  0.55045000  1.0
  C  C28  1  0.26690000  0.96477000  0.89774000  1.0
  C  C29  1  0.76688000  0.53521000  0.10225000  1.0
  C  C30  1  0.23311000  0.46477000  0.60225000  1.0
  C  C31  1  0.73306000  0.03526000  0.39776000  1.0
  C  C32  1  0.73312000  0.03524000  0.10225000  1.0
  C  C33  1  0.23312000  0.46478000  0.89776000  1.0
  C  C34  1  0.76688000  0.53522000  0.39775000  1.0
  C  C35  1  0.26686000  0.96476000  0.60225000  1.0
  C  C36  1  0.20311000  0.91862000  0.00679000  1.0
  C  C37  1  0.70312000  0.58139000  0.99320000  1.0
  C  C38  1  0.29687000  0.41863000  0.49320000  1.0
  C  C39  1  0.79686000  0.08138000  0.50680000  1.0
  C  C40  1  0.79686000  0.08139000  0.99320000  1.0
  C  C41  1  0.29686000  0.41861000  0.00680000  1.0
  C  C42  1  0.70313000  0.58140000  0.50681000  1.0
  C  C43  1  0.20312000  0.91861000  0.49320000  1.0
  C  C44  1  0.92811000  0.06204000  0.94280000  1.0
  C  C45  1  0.42806000  0.43793000  0.05721000  1.0
  C  C46  1  0.57189000  0.56207000  0.55721000  1.0
  C  C47  1  0.07193000  0.93795000  0.44279000  1.0
  C  C48  1  0.07195000  0.93793000  0.05721000  1.0
  C  C49  1  0.57194000  0.56207000  0.94279000  1.0
  C  C50  1  0.42805000  0.43795000  0.44279000  1.0
  C  C51  1  0.92811000  0.06207000  0.55720000  1.0
  N  N52  1  0.37485000  0.95880000  0.85482000  1.0
  N  N53  1  0.87484000  0.54119000  0.14518000  1.0
  N  N54  1  0.12517000  0.45882000  0.64517000  1.0
  N  N55  1  0.62519000  0.04118000  0.35482000  1.0
  N  N56  1  0.62518000  0.04117000  0.14518000  1.0
  N  N57  1  0.12518000  0.45881000  0.85483000  1.0
  N  N58  1  0.87484000  0.54119000  0.35482000  1.0
  N  N59  1  0.37484000  0.95881000  0.64517000  1.0
  Cl  Cl60  1  0.67703000  0.28641000  0.82287000  1.0
  Cl  Cl61  1  0.17704000  0.21358000  0.17714000  1.0
  Cl  Cl62  1  0.82297000  0.78641000  0.67713000  1.0
  Cl  Cl63  1  0.32296000  0.71358000  0.32287000  1.0
  Cl  Cl64  1  0.32297000  0.71358000  0.17714000  1.0
  Cl  Cl65  1  0.82296000  0.78642000  0.82287000  1.0
  Cl  Cl66  1  0.17703000  0.21358000  0.32287000  1.0
  Cl  Cl67  1  0.67703000  0.28642000  0.67713000  1.0
  Cl  Cl68  1  0.15826000  0.15796000  0.75000000  1.0
  Cl  Cl69  1  0.65826000  0.34204000  0.25000000  1.0
  Cl  Cl70  1  0.34175000  0.65796000  0.75000000  1.0
  Cl  Cl71  1  0.84175000  0.84203000  0.25000000  1.0
