# generated using pymatgen
data_ZnH26C26(NO)4
_symmetry_space_group_name_H-M   'P 1'
_cell_length_a   9.14023000
_cell_length_b   11.63680000
_cell_length_c   13.32070427
_cell_angle_alpha   115.79384349
_cell_angle_beta   95.71817518
_cell_angle_gamma   104.82430000
_symmetry_Int_Tables_number   1
_chemical_formula_structural   ZnH26C26(NO)4
_chemical_formula_sum   'Zn2 H52 C52 N8 O8'
_cell_volume   1196.43219829
_cell_formula_units_Z   2
loop_
 _symmetry_equiv_pos_site_id
 _symmetry_equiv_pos_as_xyz
  1  'x, y, z'
loop_
 _atom_site_type_symbol
 _atom_site_label
 _atom_site_symmetry_multiplicity
 _atom_site_fract_x
 _atom_site_fract_y
 _atom_site_fract_z
 _atom_site_occupancy
  Zn  Zn0  1  0.12290000  0.27397000  0.06624000  1.0
  Zn  Zn1  1  0.87712000  0.72605000  0.93378000  1.0
  H  H2  1  0.00046000  0.97417000  0.85549000  1.0
  H  H3  1  0.99954000  0.02581000  0.14450000  1.0
  H  H4  1  0.43064000  0.05916000  0.76471000  1.0
  H  H5  1  0.56936000  0.94084000  0.23529000  1.0
  H  H6  1  0.42801000  0.28830000  0.95852000  1.0
  H  H7  1  0.57198000  0.71171000  0.04148000  1.0
  H  H8  1  0.03711000  0.78530000  0.69301000  1.0
  H  H9  1  0.96289000  0.21470000  0.30699000  1.0
  H  H10  1  0.22964000  0.78859000  0.71077000  1.0
  H  H11  1  0.77037000  0.21142000  0.28923000  1.0
  H  H12  1  0.77083000  0.75891000  0.49071000  1.0
  H  H13  1  0.22917000  0.24110000  0.50930000  1.0
  H  H14  1  0.86348000  0.93565000  0.56812000  1.0
  H  H15  1  0.13651000  0.06435000  0.43189000  1.0
  H  H16  1  0.87987000  0.83404000  0.63334000  1.0
  H  H17  1  0.12013000  0.16595000  0.36666000  1.0
  H  H18  1  0.87800000  0.80067000  0.24740000  1.0
  H  H19  1  0.12200000  0.19936000  0.75262000  1.0
  H  H20  1  0.82803000  0.88547000  0.37797000  1.0
  H  H21  1  0.17199000  0.11455000  0.62205000  1.0
  H  H22  1  0.77506000  0.70742000  0.30831000  1.0
  H  H23  1  0.22492000  0.29261000  0.69170000  1.0
  H  H24  1  0.43007000  0.81484000  0.29784000  1.0
  H  H25  1  0.56992000  0.18516000  0.70216000  1.0
  H  H26  1  0.45283000  0.71154000  0.35850000  1.0
  H  H27  1  0.54716000  0.28845000  0.64149000  1.0
  H  H28  1  0.53912000  0.88925000  0.44103000  1.0
  H  H29  1  0.46086000  0.11075000  0.55897000  1.0
  H  H30  1  0.53516000  0.91816000  0.61327000  1.0
  H  H31  1  0.46483000  0.08184000  0.38673000  1.0
  H  H32  1  0.47104000  0.74034000  0.54563000  1.0
  H  H33  1  0.52895000  0.25966000  0.45437000  1.0
  H  H34  1  0.42874000  0.83163000  0.67820000  1.0
  H  H35  1  0.57125000  0.16836000  0.32179000  1.0
  H  H36  1  0.05619000  0.81162000  0.19956000  1.0
  H  H37  1  0.94381000  0.18837000  0.80044000  1.0
  H  H38  1  0.26005000  0.87821000  0.24378000  1.0
  H  H39  1  0.73993000  0.12178000  0.75622000  1.0
  H  H40  1  0.03650000  0.53113000  0.20950000  1.0
  H  H41  1  0.96348000  0.46886000  0.79049000  1.0
  H  H42  1  0.28531000  0.45902000  0.95024000  1.0
  H  H43  1  0.71470000  0.54098000  0.04976000  1.0
  H  H44  1  0.31227000  0.73102000  0.05705000  1.0
  H  H45  1  0.68774000  0.26899000  0.94296000  1.0
  H  H46  1  0.21138000  0.42193000  0.43391000  1.0
  H  H47  1  0.78865000  0.57809000  0.56609000  1.0
  H  H48  1  0.66100000  0.48004000  0.35705000  1.0
  H  H49  1  0.33902000  0.51998000  0.64295000  1.0
  H  H50  1  0.69736000  0.93208000  0.89269000  1.0
  H  H51  1  0.30265000  0.06790000  0.10731000  1.0
  H  H52  1  0.57146000  0.23424000  0.16139000  1.0
  H  H53  1  0.42855000  0.76574000  0.83862000  1.0
  C  C54  1  0.11592000  0.03036000  0.85670000  1.0
  C  C55  1  0.88409000  0.96963000  0.14330000  1.0
  C  C56  1  0.34255000  0.07764000  0.81216000  1.0
  C  C57  1  0.65745000  0.92236000  0.18784000  1.0
  C  C58  1  0.33943000  0.18975000  0.90653000  1.0
  C  C59  1  0.66057000  0.81026000  0.09347000  1.0
  C  C60  1  0.15293000  0.83712000  0.68904000  1.0
  C  C61  1  0.84707000  0.16288000  0.31096000  1.0
  C  C62  1  0.15440000  0.82839000  0.57262000  1.0
  C  C63  1  0.84559000  0.17160000  0.42738000  1.0
  C  C64  1  0.02036000  0.82519000  0.50761000  1.0
  C  C65  1  0.97963000  0.17481000  0.49239000  1.0
  C  C66  1  0.01856000  0.81224000  0.39681000  1.0
  C  C67  1  0.98144000  0.18777000  0.60320000  1.0
  C  C68  1  0.15405000  0.80935000  0.35479000  1.0
  C  C69  1  0.84594000  0.19066000  0.64521000  1.0
  C  C70  1  0.28922000  0.81514000  0.42097000  1.0
  C  C71  1  0.71076000  0.18485000  0.57903000  1.0
  C  C72  1  0.28935000  0.82376000  0.52984000  1.0
  C  C73  1  0.71064000  0.17624000  0.47016000  1.0
  C  C74  1  0.87744000  0.83858000  0.55296000  1.0
  C  C75  1  0.12256000  0.16142000  0.44705000  1.0
  C  C76  1  0.86882000  0.80112000  0.32868000  1.0
  C  C77  1  0.13118000  0.19889000  0.67133000  1.0
  C  C78  1  0.43429000  0.80806000  0.37720000  1.0
  C  C79  1  0.56570000  0.19193000  0.62279000  1.0
  C  C80  1  0.43691000  0.82859000  0.59583000  1.0
  C  C81  1  0.56309000  0.17141000  0.40417000  1.0
  C  C82  1  0.15831000  0.79872000  0.23781000  1.0
  C  C83  1  0.84168000  0.20128000  0.76219000  1.0
  C  C84  1  0.10797000  0.54826000  0.15374000  1.0
  C  C85  1  0.89201000  0.45174000  0.84626000  1.0
  C  C86  1  0.23782000  0.51449000  0.02023000  1.0
  C  C87  1  0.76218000  0.48550000  0.97977000  1.0
  C  C88  1  0.25351000  0.64928000  0.07270000  1.0
  C  C89  1  0.74647000  0.35071000  0.92729000  1.0
  C  C90  1  0.35436000  0.38532000  0.25743000  1.0
  C  C91  1  0.64565000  0.61469000  0.74257000  1.0
  C  C92  1  0.42853000  0.44432000  0.38294000  1.0
  C  C93  1  0.57149000  0.55570000  0.61707000  1.0
  C  C94  1  0.33780000  0.45589000  0.46360000  1.0
  C  C95  1  0.66222000  0.54413000  0.53641000  1.0
  C  C96  1  0.59154000  0.48958000  0.42052000  1.0
  C  C97  1  0.40848000  0.51045000  0.57949000  1.0
  C  C98  1  0.81273000  0.19103000  0.06826000  1.0
  C  C99  1  0.18727000  0.80896000  0.93175000  1.0
  C  C100  1  0.65027000  0.09247000  0.03099000  1.0
  C  C101  1  0.34974000  0.90750000  0.96900000  1.0
  C  C102  1  0.60963000  0.96137000  0.93835000  1.0
  C  C103  1  0.39037000  0.03861000  0.06164000  1.0
  C  C104  1  0.53953000  0.13066000  0.09211000  1.0
  C  C105  1  0.46048000  0.86933000  0.90789000  1.0
  N  N106  1  0.19749000  0.15899000  0.93316000  1.0
  N  N107  1  0.80251000  0.84101000  0.06684000  1.0
  N  N108  1  0.20062000  0.97779000  0.78196000  1.0
  N  N109  1  0.79937000  0.02220000  0.21803000  1.0
  N  N110  1  0.17124000  0.66885000  0.15696000  1.0
  N  N111  1  0.82875000  0.33114000  0.84303000  1.0
  N  N112  1  0.14680000  0.45289000  0.07156000  1.0
  N  N113  1  0.85321000  0.54711000  0.92844000  1.0
  O  O114  1  0.20888000  0.30685000  0.22302000  1.0
  O  O115  1  0.79114000  0.69318000  0.77700000  1.0
  O  O116  1  0.43140000  0.41343000  0.19372000  1.0
  O  O117  1  0.56862000  0.58657000  0.80627000  1.0
  O  O118  1  0.90600000  0.14641000  0.00507000  1.0
  O  O119  1  0.09402000  0.85359000  0.99494000  1.0
  O  O120  1  0.85064000  0.30541000  0.15439000  1.0
  O  O121  1  0.14934000  0.69456000  0.84561000  1.0
