# generated using pymatgen
data_Zn2H14C18N4O11
_symmetry_space_group_name_H-M   'P 1'
_cell_length_a   9.94278000
_cell_length_b   11.18590000
_cell_length_c   14.49210000
_cell_angle_alpha   88.30760000
_cell_angle_beta   85.78170000
_cell_angle_gamma   80.45210000
_symmetry_Int_Tables_number   1
_chemical_formula_structural   Zn2H14C18N4O11
_chemical_formula_sum   'Zn2 H14 C18 N4 O11'
_cell_volume   1584.91626340
_cell_formula_units_Z   1
loop_
 _symmetry_equiv_pos_site_id
 _symmetry_equiv_pos_as_xyz
  1  'x, y, z'
loop_
 _atom_site_type_symbol
 _atom_site_label
 _atom_site_symmetry_multiplicity
 _atom_site_fract_x
 _atom_site_fract_y
 _atom_site_fract_z
 _atom_site_occupancy
  Zn  Zn0  1  0.35524000  0.53310000  0.50780000  1.0
  Zn  Zn1  1  0.65499000  0.47538000  0.48704000  1.0
  H  H2  1  0.70256000  0.09761000  0.47292000  1.0
  H  H3  1  0.75289000  0.56305000  0.63573000  1.0
  H  H4  1  0.04240000  0.43280000  0.41585000  1.0
  H  H5  1  0.98861000  0.28449000  0.32302000  1.0
  H  H6  1  0.81403000  0.31522000  0.36437000  1.0
  H  H7  1  0.93929000  0.24159000  0.43952000  1.0
  H  H8  1  0.38986000  0.12176000  0.50128000  1.0
  H  H9  1  0.14256000  0.46718000  0.57619000  1.0
  H  H10  1  0.79084000  0.93737000  0.40805000  1.0
  H  H11  1  0.34586000  0.85593000  0.55565000  1.0
  H  H12  1  0.91204000  0.73688000  0.45385000  1.0
  H  H13  1  0.16584000  0.80887000  0.47051000  1.0
  H  H14  1  0.07152000  0.83074000  0.36933000  1.0
  H  H15  1  0.19816000  0.69966000  0.38104000  1.0
  C  C16  1  0.50031000  0.27606000  0.49827000  1.0
  C  C17  1  0.52399000  0.73242000  0.49781000  1.0
  C  C18  1  0.50678000  0.50404000  0.68102000  1.0
  C  C19  1  0.49602000  0.51903000  0.21966000  1.0
  C  C20  1  0.49812000  0.51994000  0.13486000  1.0
  C  C21  1  0.50163000  0.51938000  0.04222000  1.0
  C  C22  1  0.50574000  0.51728000  0.95691000  1.0
  C  C23  1  0.50908000  0.51360000  0.86439000  1.0
  C  C24  1  0.11812000  0.76305000  0.41867000  1.0
  C  C25  1  0.91923000  0.31074000  0.38404000  1.0
  C  C26  1  0.51118000  0.50922000  0.77975000  1.0
  C  C27  1  0.61826000  0.93228000  0.47297000  1.0
  C  C28  1  0.51772000  0.86594000  0.50105000  1.0
  C  C29  1  0.60576000  0.06193000  0.48057000  1.0
  C  C30  1  0.49166000  0.14569000  0.49489000  1.0
  C  C31  1  0.03426000  0.59925000  0.51330000  1.0
  C  C32  1  0.90625000  0.54936000  0.54229000  1.0
  C  C33  1  0.49931000  0.51511000  0.31910000  1.0
  N  N34  1  0.15344000  0.54063000  0.53444000  1.0
  N  N35  1  0.86355000  0.47127000  0.49146000  1.0
  N  N36  1  0.01197000  0.70012000  0.46125000  1.0
  N  N37  1  0.94076000  0.43111000  0.40997000  1.0
  O  O38  1  0.38893000  0.34963000  0.48928000  1.0
  O  O39  1  0.39481000  0.92450000  0.53785000  1.0
  O  O40  1  0.84151000  0.59636000  0.61960000  1.0
  O  O41  1  0.61678000  0.30630000  0.50929000  1.0
  O  O42  1  0.39009000  0.56084000  0.36565000  1.0
  O  O43  1  0.61193000  0.46580000  0.35029000  1.0
  O  O44  1  0.41062000  0.69875000  0.52862000  1.0
  O  O45  1  0.63119000  0.66320000  0.46830000  1.0
  O  O46  1  0.39462000  0.49316000  0.64964000  1.0
  O  O47  1  0.61855000  0.51086000  0.63166000  1.0
  O  O48  1  0.74426000  0.87377000  0.43602000  1.0
