# generated using pymatgen
data_SrH12C14(BrO3)2
_symmetry_space_group_name_H-M   'P 1'
_cell_length_a   8.01114000
_cell_length_b   11.52640000
_cell_length_c   18.74000000
_cell_angle_alpha   90.00000000
_cell_angle_beta   90.00000000
_cell_angle_gamma   90.00000000
_symmetry_Int_Tables_number   1
_chemical_formula_structural   SrH12C14(BrO3)2
_chemical_formula_sum   'Sr4 H48 C56 Br8 O24'
_cell_volume   1730.44418076
_cell_formula_units_Z   4
loop_
 _symmetry_equiv_pos_site_id
 _symmetry_equiv_pos_as_xyz
  1  'x, y, z'
loop_
 _atom_site_type_symbol
 _atom_site_label
 _atom_site_symmetry_multiplicity
 _atom_site_fract_x
 _atom_site_fract_y
 _atom_site_fract_z
 _atom_site_occupancy
  Sr  Sr0  1  0.75000000  0.05297000  0.50000000  1.0
  Sr  Sr1  1  0.25000000  0.44703000  0.00000000  1.0
  Sr  Sr2  1  0.25000000  0.94702000  0.50000000  1.0
  Sr  Sr3  1  0.75000000  0.55297000  0.00000000  1.0
  H  H4  1  0.01542000  0.17258000  0.59685000  1.0
  H  H5  1  0.51542000  0.32742000  0.90315000  1.0
  H  H6  1  0.48458000  0.17258000  0.40315000  1.0
  H  H7  1  0.98458000  0.32742000  0.09685000  1.0
  H  H8  1  0.98458000  0.82742000  0.40314000  1.0
  H  H9  1  0.48458000  0.67258000  0.09685000  1.0
  H  H10  1  0.51542000  0.82742000  0.59685000  1.0
  H  H11  1  0.01542000  0.67258000  0.90315000  1.0
  H  H12  1  0.85119000  0.21272000  0.63724000  1.0
  H  H13  1  0.35119000  0.28728000  0.86276000  1.0
  H  H14  1  0.64881000  0.21272000  0.36276000  1.0
  H  H15  1  0.14881000  0.28728000  0.13724000  1.0
  H  H16  1  0.14881000  0.78728000  0.36276000  1.0
  H  H17  1  0.64881000  0.71272000  0.13724000  1.0
  H  H18  1  0.35119000  0.78728000  0.63724000  1.0
  H  H19  1  0.85119000  0.71272000  0.86276000  1.0
  H  H20  1  0.84704000  0.53246000  0.75265000  1.0
  H  H21  1  0.34705000  0.96755000  0.74735000  1.0
  H  H22  1  0.65295000  0.53246000  0.24734000  1.0
  H  H23  1  0.15297000  0.96754000  0.25265000  1.0
  H  H24  1  0.15295000  0.46754000  0.24735000  1.0
  H  H25  1  0.65296000  0.03246000  0.25265000  1.0
  H  H26  1  0.34705000  0.46755000  0.75265000  1.0
  H  H27  1  0.84703000  0.03246000  0.74734000  1.0
  H  H28  1  0.01747000  0.40682000  0.67392000  1.0
  H  H29  1  0.51747000  0.09319000  0.82608000  1.0
  H  H30  1  0.48252000  0.40682000  0.32607000  1.0
  H  H31  1  0.98254000  0.09318000  0.17393000  1.0
  H  H32  1  0.98251000  0.59318000  0.32608000  1.0
  H  H33  1  0.48253000  0.90681000  0.17393000  1.0
  H  H34  1  0.51747000  0.59318000  0.67392000  1.0
  H  H35  1  0.01746000  0.90682000  0.82607000  1.0
  H  H36  1  0.12248000  0.48286000  0.55743000  1.0
  H  H37  1  0.62249000  0.01713000  0.94257000  1.0
  H  H38  1  0.37751000  0.48287000  0.44257000  1.0
  H  H39  1  0.87753000  0.01714000  0.05743000  1.0
  H  H40  1  0.87752000  0.51713000  0.44257000  1.0
  H  H41  1  0.37752000  0.98286000  0.05743000  1.0
  H  H42  1  0.62248000  0.51714000  0.55743000  1.0
  H  H43  1  0.12246000  0.98286000  0.94256000  1.0
  H  H44  1  0.04912000  0.68392000  0.51970000  1.0
  H  H45  1  0.54913000  0.81607000  0.98030000  1.0
  H  H46  1  0.45088000  0.68393000  0.48030000  1.0
  H  H47  1  0.95088000  0.81608000  0.01970000  1.0
  H  H48  1  0.95089000  0.31607000  0.48030000  1.0
  H  H49  1  0.45087000  0.18393000  0.01971000  1.0
  H  H50  1  0.54912000  0.31608000  0.51970000  1.0
  H  H51  1  0.04912000  0.18392000  0.98029000  1.0
  C  C52  1  0.86157000  0.84034000  0.58614000  1.0
  C  C53  1  0.36158000  0.65966000  0.91386000  1.0
  C  C54  1  0.63844000  0.84034000  0.41386000  1.0
  C  C55  1  0.13844000  0.65966000  0.08614000  1.0
  C  C56  1  0.13844000  0.15966000  0.41386000  1.0
  C  C57  1  0.63842000  0.34034000  0.08614000  1.0
  C  C58  1  0.36157000  0.15966000  0.58614000  1.0
  C  C59  1  0.86155000  0.34034000  0.91386000  1.0
  C  C60  1  0.90365000  0.72116000  0.61342000  1.0
  C  C61  1  0.40366000  0.77884000  0.88659000  1.0
  C  C62  1  0.59635000  0.72116000  0.38658000  1.0
  C  C63  1  0.09635000  0.77884000  0.11342000  1.0
  C  C64  1  0.09635000  0.27884000  0.38659000  1.0
  C  C65  1  0.59634000  0.22116000  0.11342000  1.0
  C  C66  1  0.40365000  0.27885000  0.61341000  1.0
  C  C67  1  0.90365000  0.22115000  0.88658000  1.0
  C  C68  1  0.84914000  0.67652000  0.67895000  1.0
  C  C69  1  0.34915000  0.82349000  0.82105000  1.0
  C  C70  1  0.65087000  0.67652000  0.32105000  1.0
  C  C71  1  0.15088000  0.82348000  0.17895000  1.0
  C  C72  1  0.15085000  0.32348000  0.32105000  1.0
  C  C73  1  0.65087000  0.17651000  0.17895000  1.0
  C  C74  1  0.34913000  0.32349000  0.67895000  1.0
  C  C75  1  0.84912000  0.17652000  0.82105000  1.0
  C  C76  1  0.89052000  0.56462000  0.70122000  1.0
  C  C77  1  0.39051000  0.93538000  0.79878000  1.0
  C  C78  1  0.60949000  0.56462000  0.29877000  1.0
  C  C79  1  0.10950000  0.93538000  0.20122000  1.0
  C  C80  1  0.10949000  0.43538000  0.29878000  1.0
  C  C81  1  0.60950000  0.06462000  0.20123000  1.0
  C  C82  1  0.39051000  0.43538000  0.70122000  1.0
  C  C83  1  0.89049000  0.06463000  0.79877000  1.0
  C  C84  1  0.98718000  0.49457000  0.65682000  1.0
  C  C85  1  0.48719000  0.00544000  0.84318000  1.0
  C  C86  1  0.51283000  0.49457000  0.34317000  1.0
  C  C87  1  0.01284000  0.00544000  0.15683000  1.0
  C  C88  1  0.01282000  0.50543000  0.34318000  1.0
  C  C89  1  0.51283000  0.99456000  0.15682000  1.0
  C  C90  1  0.48717000  0.50544000  0.65682000  1.0
  C  C91  1  0.98717000  0.99456000  0.84317000  1.0
  C  C92  1  0.04482000  0.53712000  0.59157000  1.0
  C  C93  1  0.54483000  0.96288000  0.90843000  1.0
  C  C94  1  0.45518000  0.53713000  0.40843000  1.0
  C  C95  1  0.95519000  0.96287000  0.09157000  1.0
  C  C96  1  0.95518000  0.46288000  0.40843000  1.0
  C  C97  1  0.45518000  0.03712000  0.09157000  1.0
  C  C98  1  0.54482000  0.46288000  0.59157000  1.0
  C  C99  1  0.04481000  0.03712000  0.90843000  1.0
  C  C100  1  0.00425000  0.64947000  0.57045000  1.0
  C  C101  1  0.50426000  0.85054000  0.92955000  1.0
  C  C102  1  0.49575000  0.64946000  0.42955000  1.0
  C  C103  1  0.99575000  0.85054000  0.07045000  1.0
  C  C104  1  0.99575000  0.35054000  0.42955000  1.0
  C  C105  1  0.49575000  0.14946000  0.07045000  1.0
  C  C106  1  0.50425000  0.35054000  0.57045000  1.0
  C  C107  1  0.00424000  0.14946000  0.92954000  1.0
  Br  Br108  1  0.72031000  0.76907000  0.74337000  1.0
  Br  Br109  1  0.22032000  0.73093000  0.75663000  1.0
  Br  Br110  1  0.77968000  0.76908000  0.25663000  1.0
  Br  Br111  1  0.27969000  0.73092000  0.24337000  1.0
  Br  Br112  1  0.27968000  0.23092000  0.25663000  1.0
  Br  Br113  1  0.77968000  0.26908000  0.24337000  1.0
  Br  Br114  1  0.22032000  0.23092000  0.74337000  1.0
  Br  Br115  1  0.72031000  0.26908000  0.75663000  1.0
  O  O116  1  0.89388000  0.18936000  0.59060000  1.0
  O  O117  1  0.39387000  0.31064000  0.90940000  1.0
  O  O118  1  0.60612000  0.18936000  0.40940000  1.0
  O  O119  1  0.10612000  0.31064000  0.09060000  1.0
  O  O120  1  0.10612000  0.81064000  0.40940000  1.0
  O  O121  1  0.60613000  0.68936000  0.09060000  1.0
  O  O122  1  0.39388000  0.81064000  0.59060000  1.0
  O  O123  1  0.89388000  0.68936000  0.90940000  1.0
  O  O124  1  0.71257000  0.87779000  0.59034000  1.0
  O  O125  1  0.21258000  0.62221000  0.90966000  1.0
  O  O126  1  0.78743000  0.87779000  0.40966000  1.0
  O  O127  1  0.28743000  0.62221000  0.09034000  1.0
  O  O128  1  0.28743000  0.12221000  0.40966000  1.0
  O  O129  1  0.78743000  0.37780000  0.09034000  1.0
  O  O130  1  0.21256000  0.12221000  0.59034000  1.0
  O  O131  1  0.71257000  0.37779000  0.90966000  1.0
  O  O132  1  0.97800000  0.89887000  0.55725000  1.0
  O  O133  1  0.47800000  0.60113000  0.94275000  1.0
  O  O134  1  0.52201000  0.89887000  0.44275000  1.0
  O  O135  1  0.02200000  0.60112000  0.05725000  1.0
  O  O136  1  0.02201000  0.10113000  0.44275000  1.0
  O  O137  1  0.52201000  0.39887000  0.05725000  1.0
  O  O138  1  0.47799000  0.10114000  0.55726000  1.0
  O  O139  1  0.97800000  0.39887000  0.94275000  1.0
