# generated using pymatgen
data_CuH12C16(NO2)2
_symmetry_space_group_name_H-M   'P 1'
_cell_length_a   8.26013000
_cell_length_b   10.00050000
_cell_length_c   11.72710000
_cell_angle_alpha   89.99990000
_cell_angle_beta   89.38100000
_cell_angle_gamma   89.99920000
_symmetry_Int_Tables_number   1
_chemical_formula_structural   CuH12C16(NO2)2
_chemical_formula_sum   'Cu2 H24 C32 N4 O8'
_cell_volume   968.66560595
_cell_formula_units_Z   2
loop_
 _symmetry_equiv_pos_site_id
 _symmetry_equiv_pos_as_xyz
  1  'x, y, z'
loop_
 _atom_site_type_symbol
 _atom_site_label
 _atom_site_symmetry_multiplicity
 _atom_site_fract_x
 _atom_site_fract_y
 _atom_site_fract_z
 _atom_site_occupancy
  Cu  Cu0  1  0.00000000  0.50000000  0.00000000  1.0
  Cu  Cu1  1  0.50000000  0.00000000  0.50000000  1.0
  H  H2  1  0.87545000  0.70692000  0.72085000  1.0
  H  H3  1  0.62455000  0.20693000  0.77915000  1.0
  H  H4  1  0.12454000  0.29308000  0.27915000  1.0
  H  H5  1  0.37545000  0.79308000  0.22084000  1.0
  H  H6  1  0.73367000  0.81771000  0.60728000  1.0
  H  H7  1  0.76633000  0.31771000  0.89273000  1.0
  H  H8  1  0.26633000  0.18228000  0.39273000  1.0
  H  H9  1  0.23367000  0.68228000  0.10727000  1.0
  H  H10  1  0.56546000  0.45667000  0.83838000  1.0
  H  H11  1  0.93455000  0.95667000  0.66162000  1.0
  H  H12  1  0.43454000  0.54333000  0.16162000  1.0
  H  H13  1  0.06546000  0.04333000  0.33838000  1.0
  H  H14  1  0.31431000  0.38605000  0.94228000  1.0
  H  H15  1  0.18568000  0.88606000  0.55771000  1.0
  H  H16  1  0.68568000  0.61394000  0.05772000  1.0
  H  H17  1  0.81432000  0.11394000  0.44229000  1.0
  H  H18  1  0.32649000  0.83057000  0.76500000  1.0
  H  H19  1  0.17351000  0.33058000  0.73500000  1.0
  H  H20  1  0.67351000  0.16942000  0.23501000  1.0
  H  H21  1  0.82649000  0.66943000  0.26499000  1.0
  H  H22  1  0.08719000  0.74527000  0.87390000  1.0
  H  H23  1  0.41281000  0.24528000  0.62610000  1.0
  H  H24  1  0.91280000  0.25472000  0.12610000  1.0
  H  H25  1  0.58720000  0.75472000  0.37389000  1.0
  C  C26  1  0.77446000  0.66026000  0.77117000  1.0
  C  C27  1  0.72554000  0.16027000  0.72884000  1.0
  C  C28  1  0.22554000  0.33973000  0.22884000  1.0
  C  C29  1  0.27446000  0.83974000  0.27116000  1.0
  C  C30  1  0.61612000  0.69763000  0.73361000  1.0
  C  C31  1  0.88388000  0.19764000  0.76639000  1.0
  C  C32  1  0.38387000  0.30237000  0.26640000  1.0
  C  C33  1  0.11613000  0.80237000  0.23360000  1.0
  C  C34  1  0.61400000  0.78644000  0.64091000  1.0
  C  C35  1  0.88600000  0.28644000  0.85909000  1.0
  C  C36  1  0.38600000  0.21355000  0.35910000  1.0
  C  C37  1  0.11399000  0.71355000  0.14090000  1.0
  C  C38  1  0.46927000  0.65071000  0.79170000  1.0
  C  C39  1  0.03073000  0.15071000  0.70830000  1.0
  C  C40  1  0.53072000  0.34929000  0.20831000  1.0
  C  C41  1  0.96928000  0.84930000  0.29169000  1.0
  C  C42  1  0.46182000  0.52348000  0.84308000  1.0
  C  C43  1  0.03818000  0.02348000  0.65692000  1.0
  C  C44  1  0.53817000  0.47652000  0.15693000  1.0
  C  C45  1  0.96183000  0.97652000  0.34308000  1.0
  C  C46  1  0.32315000  0.48347000  0.90132000  1.0
  C  C47  1  0.17685000  0.98348000  0.59868000  1.0
  C  C48  1  0.67685000  0.51652000  0.09869000  1.0
  C  C49  1  0.82316000  0.01652000  0.40132000  1.0
  C  C50  1  0.19574000  0.68448000  0.86253000  1.0
  C  C51  1  0.30426000  0.18448000  0.63747000  1.0
  C  C52  1  0.80425000  0.31551000  0.13746000  1.0
  C  C53  1  0.69575000  0.81552000  0.36254000  1.0
  C  C54  1  0.32953000  0.73113000  0.80232000  1.0
  C  C55  1  0.17047000  0.23114000  0.69767000  1.0
  C  C56  1  0.67046000  0.26887000  0.19768000  1.0
  C  C57  1  0.82954000  0.76887000  0.30232000  1.0
  N  N58  1  0.19191000  0.56268000  0.91199000  1.0
  N  N59  1  0.30808000  0.06268000  0.58801000  1.0
  N  N60  1  0.80808000  0.43732000  0.08801000  1.0
  N  N61  1  0.69192000  0.93732000  0.41199000  1.0
  O  O62  1  0.80751000  0.58608000  0.85332000  1.0
  O  O63  1  0.69248000  0.08608000  0.64668000  1.0
  O  O64  1  0.19248000  0.41392000  0.14669000  1.0
  O  O65  1  0.30751000  0.91392000  0.35330000  1.0
  O  O66  1  0.48801000  0.83072000  0.59172000  1.0
  O  O67  1  0.01200000  0.33071000  0.90829000  1.0
  O  O68  1  0.51199000  0.16928000  0.40829000  1.0
  O  O69  1  0.98800000  0.66928000  0.09172000  1.0
