# generated using pymatgen
data_Zr3H11C24Cl3O16
_symmetry_space_group_name_H-M   'P 1'
_cell_length_a   14.77040000
_cell_length_b   14.78200000
_cell_length_c   20.94950000
_cell_angle_alpha   89.99980000
_cell_angle_beta   90.00910000
_cell_angle_gamma   89.97870000
_symmetry_Int_Tables_number   1
_chemical_formula_structural   Zr3H11C24Cl3O16
_chemical_formula_sum   'Zr12 H44 C96 Cl12 O64'
_cell_volume   4574.03076434
_cell_formula_units_Z   4
loop_
 _symmetry_equiv_pos_site_id
 _symmetry_equiv_pos_as_xyz
  1  'x, y, z'
loop_
 _atom_site_type_symbol
 _atom_site_label
 _atom_site_symmetry_multiplicity
 _atom_site_fract_x
 _atom_site_fract_y
 _atom_site_fract_z
 _atom_site_occupancy
  Zr  Zr0  1  0.61887000  0.38060000  0.49453000  1.0
  Zr  Zr1  1  0.38006000  0.62004000  0.50349000  1.0
  Zr  Zr2  1  0.49513000  0.50447000  0.37949000  1.0
  Zr  Zr3  1  0.50430000  0.49552000  0.61884000  1.0
  Zr  Zr4  1  0.61852000  0.61996000  0.49936000  1.0
  Zr  Zr5  1  0.37928000  0.38180000  0.49930000  1.0
  Zr  Zr6  1  0.87905000  0.88129000  0.99915000  1.0
  Zr  Zr7  1  0.12248000  0.11663000  0.99901000  1.0
  Zr  Zr8  1  0.88274000  0.12099000  0.99915000  1.0
  Zr  Zr9  1  0.11776000  0.87784000  0.99855000  1.0
  Zr  Zr10  1  0.99984000  0.99985000  0.87957000  1.0
  Zr  Zr11  1  0.00051000  0.99922000  0.11836000  1.0
  H  H12  1  0.68526000  0.50309000  0.40231000  1.0
  H  H13  1  0.50334000  0.68481000  0.59654000  1.0
  H  H14  1  0.30729000  0.50383000  0.40876000  1.0
  H  H15  1  0.50222000  0.30918000  0.59008000  1.0
  H  H16  1  0.81125000  0.00313000  0.90551000  1.0
  H  H17  1  0.18798000  0.99704000  0.90418000  1.0
  H  H18  1  0.00393000  0.18708000  0.09357000  1.0
  H  H19  1  0.99806000  0.81065000  0.09253000  1.0
  H  H20  1  0.91915000  0.35588000  0.49524000  1.0
  H  H21  1  0.90751000  0.64261000  0.52825000  1.0
  H  H22  1  0.08896000  0.36343000  0.49978000  1.0
  H  H23  1  0.64171000  0.08107000  0.47677000  1.0
  H  H24  1  0.35705000  0.09187000  0.51897000  1.0
  H  H25  1  0.63512000  0.91131000  0.48195000  1.0
  H  H26  1  0.29220000  0.27109000  0.13658000  1.0
  H  H27  1  0.14137000  0.12219000  0.27705000  1.0
  H  H28  1  0.36952000  0.35624000  0.22491000  1.0
  H  H29  1  0.72078000  0.71497000  0.86209000  1.0
  H  H30  1  0.87512000  0.86013000  0.72163000  1.0
  H  H31  1  0.64310000  0.62991000  0.77379000  1.0
  H  H32  1  0.71028000  0.72618000  0.13676000  1.0
  H  H33  1  0.86248000  0.87344000  0.27731000  1.0
  H  H34  1  0.62698000  0.64683000  0.22507000  1.0
  H  H35  1  0.26570000  0.29709000  0.86168000  1.0
  H  H36  1  0.13132000  0.13299000  0.72130000  1.0
  H  H37  1  0.34917000  0.37667000  0.77353000  1.0
  H  H38  1  0.13000000  0.84865000  0.71633000  1.0
  H  H39  1  0.27271000  0.71834000  0.86980000  1.0
  H  H40  1  0.22220000  0.75903000  0.63807000  1.0
  H  H41  1  0.85101000  0.13187000  0.28061000  1.0
  H  H42  1  0.71734000  0.27304000  0.12806000  1.0
  H  H43  1  0.75953000  0.22116000  0.35951000  1.0
  H  H44  1  0.29366000  0.72742000  0.13799000  1.0
  H  H45  1  0.13313000  0.87212000  0.27542000  1.0
  H  H46  1  0.37388000  0.64903000  0.22808000  1.0
  H  H47  1  0.72812000  0.29308000  0.85911000  1.0
  H  H48  1  0.87762000  0.13678000  0.72192000  1.0
  H  H49  1  0.64782000  0.37118000  0.76896000  1.0
  H  H50  1  0.57874000  0.14552000  0.01074000  1.0
  H  H51  1  0.59315000  0.85535000  0.00515000  1.0
  H  H52  1  0.40888000  0.13505000  0.00916000  1.0
  H  H53  1  0.85316000  0.57712000  0.99050000  1.0
  H  H54  1  0.14367000  0.59173000  0.99265000  1.0
  H  H55  1  0.86399000  0.40742000  0.99142000  1.0
  C  C56  1  0.80289000  0.49894000  0.50146000  1.0
  C  C57  1  0.49667000  0.80476000  0.50309000  1.0
  C  C58  1  0.19526000  0.50426000  0.51069000  1.0
  C  C59  1  0.49978000  0.19713000  0.49269000  1.0
  C  C60  1  0.64039000  0.34899000  0.34106000  1.0
  C  C61  1  0.66164000  0.34747000  0.64572000  1.0
  C  C62  1  0.35029000  0.64117000  0.65728000  1.0
  C  C63  1  0.34872000  0.66168000  0.35158000  1.0
  C  C64  1  0.64442000  0.66230000  0.34904000  1.0
  C  C65  1  0.34623000  0.34614000  0.34885000  1.0
  C  C66  1  0.34536000  0.34794000  0.64985000  1.0
  C  C67  1  0.66197000  0.64433000  0.64983000  1.0
  C  C68  1  0.84940000  0.84589000  0.84777000  1.0
  C  C69  1  0.14806000  0.15566000  0.84747000  1.0
  C  C70  1  0.16011000  0.14341000  0.15064000  1.0
  C  C71  1  0.84329000  0.85248000  0.15086000  1.0
  C  C72  1  0.69683000  0.00307000  0.00504000  1.0
  C  C73  1  0.99600000  0.69531000  0.99377000  1.0
  C  C74  1  0.30421000  0.99306000  0.00273000  1.0
  C  C75  1  0.00645000  0.30278000  0.99527000  1.0
  C  C76  1  0.85425000  0.15832000  0.84761000  1.0
  C  C77  1  0.84542000  0.14903000  0.15056000  1.0
  C  C78  1  0.15521000  0.84969000  0.15001000  1.0
  C  C79  1  0.14526000  0.84201000  0.84675000  1.0
  C  C80  1  0.09404000  0.50627000  0.51555000  1.0
  C  C81  1  0.90356000  0.49957000  0.50920000  1.0
  C  C82  1  0.04164000  0.58517000  0.52565000  1.0
  C  C83  1  0.95409000  0.41978000  0.50306000  1.0
  C  C84  1  0.94742000  0.58139000  0.52169000  1.0
  C  C85  1  0.04786000  0.42402000  0.50594000  1.0
  C  C86  1  0.49373000  0.90606000  0.50370000  1.0
  C  C87  1  0.49904000  0.09614000  0.49605000  1.0
  C  C88  1  0.41504000  0.95809000  0.51560000  1.0
  C  C89  1  0.57845000  0.04593000  0.48666000  1.0
  C  C90  1  0.41799000  0.05213000  0.51065000  1.0
  C  C91  1  0.57482000  0.95223000  0.49003000  1.0
  C  C92  1  0.29862000  0.28893000  0.30013000  1.0
  C  C93  1  0.21141000  0.19203000  0.20172000  1.0
  C  C94  1  0.23413000  0.22113000  0.31467000  1.0
  C  C95  1  0.27660000  0.25751000  0.18650000  1.0
  C  C96  1  0.19145000  0.17365000  0.26556000  1.0
  C  C97  1  0.31899000  0.30467000  0.23538000  1.0
  C  C98  1  0.71503000  0.69621000  0.69864000  1.0
  C  C99  1  0.80247000  0.79287000  0.79688000  1.0
  C  C100  1  0.78179000  0.76173000  0.68408000  1.0
  C  C101  1  0.73729000  0.72748000  0.81219000  1.0
  C  C102  1  0.82435000  0.80937000  0.73313000  1.0
  C  C103  1  0.69469000  0.68045000  0.76339000  1.0
  C  C104  1  0.69664000  0.71527000  0.30034000  1.0
  C  C105  1  0.79133000  0.80476000  0.20197000  1.0
  C  C106  1  0.76378000  0.78042000  0.31492000  1.0
  C  C107  1  0.72469000  0.74081000  0.18669000  1.0
  C  C108  1  0.81038000  0.82405000  0.26581000  1.0
  C  C109  1  0.67865000  0.69725000  0.23554000  1.0
  C  C110  1  0.28889000  0.29937000  0.69840000  1.0
  C  C111  1  0.19472000  0.20896000  0.79656000  1.0
  C  C112  1  0.22528000  0.23079000  0.68376000  1.0
  C  C113  1  0.25527000  0.27874000  0.81183000  1.0
  C  C114  1  0.17922000  0.18647000  0.73278000  1.0
  C  C115  1  0.30123000  0.32267000  0.76305000  1.0
  C  C116  1  0.29865000  0.68884000  0.70893000  1.0
  C  C117  1  0.19618000  0.78868000  0.79798000  1.0
  C  C118  1  0.31240000  0.67708000  0.77519000  1.0
  C  C119  1  0.18105000  0.80061000  0.73249000  1.0
  C  C120  1  0.26142000  0.72690000  0.81884000  1.0
  C  C121  1  0.23204000  0.75111000  0.68923000  1.0
  C  C122  1  0.68758000  0.29708000  0.28915000  1.0
  C  C123  1  0.79013000  0.19802000  0.19940000  1.0
  C  C124  1  0.67502000  0.31058000  0.22292000  1.0
  C  C125  1  0.80184000  0.18207000  0.26482000  1.0
  C  C126  1  0.72642000  0.26161000  0.17897000  1.0
  C  C127  1  0.75111000  0.23138000  0.30838000  1.0
  C  C128  1  0.29917000  0.71543000  0.30193000  1.0
  C  C129  1  0.20770000  0.80378000  0.20166000  1.0
  C  C130  1  0.23103000  0.78003000  0.31520000  1.0
  C  C131  1  0.27641000  0.74142000  0.18759000  1.0
  C  C132  1  0.18611000  0.82312000  0.26508000  1.0
  C  C133  1  0.32079000  0.69843000  0.23747000  1.0
  C  C134  1  0.71639000  0.29851000  0.69523000  1.0
  C  C135  1  0.80741000  0.20962000  0.79572000  1.0
  C  C136  1  0.78274000  0.23205000  0.68214000  1.0
  C  C137  1  0.74304000  0.27649000  0.80954000  1.0
  C  C138  1  0.82725000  0.18847000  0.73226000  1.0
  C  C139  1  0.69876000  0.31958000  0.75966000  1.0
  C  C140  1  0.40541000  0.99065000  0.00579000  1.0
  C  C141  1  0.59575000  0.00067000  0.00748000  1.0
  C  C142  1  0.45828000  0.91087000  0.00525000  1.0
  C  C143  1  0.54443000  0.08034000  0.00925000  1.0
  C  C144  1  0.55249000  0.91672000  0.00614000  1.0
  C  C145  1  0.45073000  0.07442000  0.00840000  1.0
  C  C146  1  0.00855000  0.40399000  0.99283000  1.0
  C  C147  1  0.99820000  0.59427000  0.99185000  1.0
  C  C148  1  0.08828000  0.45695000  0.99277000  1.0
  C  C149  1  0.91850000  0.54293000  0.99106000  1.0
  C  C150  1  0.08229000  0.55108000  0.99227000  1.0
  C  C151  1  0.92462000  0.44930000  0.99154000  1.0
  Cl  Cl152  1  0.08650000  0.69018000  0.54380000  1.0
  Cl  Cl153  1  0.31217000  0.91308000  0.53910000  1.0
  Cl  Cl154  1  0.20118000  0.19114000  0.39105000  1.0
  Cl  Cl155  1  0.81744000  0.78898000  0.60780000  1.0
  Cl  Cl156  1  0.79503000  0.81186000  0.39138000  1.0
  Cl  Cl157  1  0.19935000  0.19413000  0.60744000  1.0
  Cl  Cl158  1  0.39091000  0.60351000  0.80804000  1.0
  Cl  Cl159  1  0.59826000  0.38628000  0.19044000  1.0
  Cl  Cl160  1  0.19685000  0.81052000  0.39097000  1.0
  Cl  Cl161  1  0.81395000  0.19822000  0.60626000  1.0
  Cl  Cl162  1  0.41464000  0.80229000  0.00262000  1.0
  Cl  Cl163  1  0.19709000  0.41344000  0.99378000  1.0
  O  O164  1  0.76423000  0.42199000  0.49575000  1.0
  O  O165  1  0.42132000  0.76267000  0.50319000  1.0
  O  O166  1  0.23683000  0.57981000  0.50795000  1.0
  O  O167  1  0.57704000  0.23598000  0.49017000  1.0
  O  O168  1  0.58310000  0.40940000  0.32524000  1.0
  O  O169  1  0.60202000  0.40299000  0.66672000  1.0
  O  O170  1  0.41056000  0.58358000  0.67322000  1.0
  O  O171  1  0.40432000  0.60176000  0.33082000  1.0
  O  O172  1  0.66189000  0.67733000  0.40765000  1.0
  O  O173  1  0.32821000  0.33137000  0.40741000  1.0
  O  O174  1  0.32915000  0.33157000  0.59127000  1.0
  O  O175  1  0.67542000  0.66380000  0.59142000  1.0
  O  O176  1  0.40083000  0.40664000  0.32846000  1.0
  O  O177  1  0.40681000  0.40149000  0.67029000  1.0
  O  O178  1  0.60521000  0.58571000  0.67008000  1.0
  O  O179  1  0.58713000  0.60445000  0.32851000  1.0
  O  O180  1  0.66298000  0.32958000  0.39835000  1.0
  O  O181  1  0.33209000  0.67687000  0.41007000  1.0
  O  O182  1  0.33057000  0.66317000  0.60005000  1.0
  O  O183  1  0.67617000  0.33047000  0.58713000  1.0
  O  O184  1  0.42323000  0.23705000  0.49395000  1.0
  O  O185  1  0.76328000  0.57565000  0.49996000  1.0
  O  O186  1  0.57449000  0.76704000  0.50188000  1.0
  O  O187  1  0.23318000  0.42678000  0.50704000  1.0
  O  O188  1  0.50199000  0.36343000  0.56409000  1.0
  O  O189  1  0.36222000  0.50309000  0.43410000  1.0
  O  O190  1  0.50226000  0.63191000  0.56920000  1.0
  O  O191  1  0.63185000  0.50238000  0.42921000  1.0
  O  O192  1  0.49785000  0.60067000  0.45120000  1.0
  O  O193  1  0.60059000  0.49806000  0.54696000  1.0
  O  O194  1  0.40248000  0.49881000  0.55079000  1.0
  O  O195  1  0.49755000  0.40312000  0.44771000  1.0
  O  O196  1  0.82822000  0.82885000  0.90567000  1.0
  O  O197  1  0.16997000  0.17190000  0.90530000  1.0
  O  O198  1  0.17908000  0.16252000  0.09272000  1.0
  O  O199  1  0.82517000  0.83201000  0.09303000  1.0
  O  O200  1  0.73542000  0.08019000  0.00310000  1.0
  O  O201  1  0.07275000  0.73503000  0.99520000  1.0
  O  O202  1  0.26181000  0.91814000  0.00131000  1.0
  O  O203  1  0.92834000  0.26540000  0.99630000  1.0
  O  O204  1  0.91059000  0.09777000  0.82984000  1.0
  O  O205  1  0.90407000  0.09210000  0.17026000  1.0
  O  O206  1  0.09549000  0.90702000  0.16787000  1.0
  O  O207  1  0.08919000  0.90167000  0.82715000  1.0
  O  O208  1  0.83026000  0.16938000  0.09219000  1.0
  O  O209  1  0.17215000  0.82773000  0.09231000  1.0
  O  O210  1  0.16326000  0.82456000  0.90514000  1.0
  O  O211  1  0.83375000  0.17705000  0.90537000  1.0
  O  O212  1  0.73672000  0.92636000  0.00366000  1.0
  O  O213  1  0.08156000  0.26063000  0.99716000  1.0
  O  O214  1  0.26701000  0.07119000  0.00078000  1.0
  O  O215  1  0.91889000  0.73420000  0.99507000  1.0
  O  O216  1  0.90301000  0.90953000  0.16898000  1.0
  O  O217  1  0.90667000  0.90518000  0.82942000  1.0
  O  O218  1  0.09106000  0.09603000  0.82913000  1.0
  O  O219  1  0.09925000  0.08766000  0.16890000  1.0
  O  O220  1  0.99822000  0.86411000  0.06573000  1.0
  O  O221  1  0.00301000  0.13371000  0.06668000  1.0
  O  O222  1  0.13463000  0.99773000  0.93114000  1.0
  O  O223  1  0.86478000  0.00220000  0.93228000  1.0
  O  O224  1  0.00170000  0.09884000  0.94982000  1.0
  O  O225  1  0.99806000  0.90031000  0.94908000  1.0
  O  O226  1  0.09955000  0.99749000  0.04822000  1.0
  O  O227  1  0.90105000  0.00087000  0.04871000  1.0
