# generated using pymatgen
data_CuH50C42S2(N2O)4
_symmetry_space_group_name_H-M   'P 1'
_cell_length_a   7.34048000
_cell_length_b   10.45350000
_cell_length_c   13.84750000
_cell_angle_alpha   82.50680000
_cell_angle_beta   75.69230000
_cell_angle_gamma   89.81190000
_symmetry_Int_Tables_number   1
_chemical_formula_structural   CuH50C42S2(N2O)4
_chemical_formula_sum   'Cu1 H50 C42 S2 N8 O4'
_cell_volume   1020.35583162
_cell_formula_units_Z   1
loop_
 _symmetry_equiv_pos_site_id
 _symmetry_equiv_pos_as_xyz
  1  'x, y, z'
loop_
 _atom_site_type_symbol
 _atom_site_label
 _atom_site_symmetry_multiplicity
 _atom_site_fract_x
 _atom_site_fract_y
 _atom_site_fract_z
 _atom_site_occupancy
  Cu  Cu0  1  0.49999000  0.00000000  0.50001000  1.0
  H  H1  1  0.28541000  0.53774000  0.64329000  1.0
  H  H2  1  0.71459000  0.46226000  0.35671000  1.0
  H  H3  1  0.56189000  0.24918000  0.56486000  1.0
  H  H4  1  0.43810000  0.75082000  0.43514000  1.0
  H  H5  1  0.10964000  0.06867000  0.50325000  1.0
  H  H6  1  0.89034000  0.93133000  0.49675000  1.0
  H  H7  1  0.90257000  0.25776000  0.54449000  1.0
  H  H8  1  0.09743000  0.74224000  0.45551000  1.0
  H  H9  1  0.03664000  0.44845000  0.59527000  1.0
  H  H10  1  0.96335000  0.55155000  0.40474000  1.0
  H  H11  1  0.46560000  0.66156000  0.69649000  1.0
  H  H12  1  0.53438000  0.33844000  0.30351000  1.0
  H  H13  1  0.71101000  0.64968000  0.64248000  1.0
  H  H14  1  0.28899000  0.35033000  0.35752000  1.0
  H  H15  1  0.72762000  0.47744000  0.78525000  1.0
  H  H16  1  0.27237000  0.52256000  0.21475000  1.0
  H  H17  1  0.67400000  0.63130000  0.82094000  1.0
  H  H18  1  0.32600000  0.36871000  0.17906000  1.0
  H  H19  1  0.38451000  0.41080000  0.84144000  1.0
  H  H20  1  0.61549000  0.58920000  0.15856000  1.0
  H  H21  1  0.32939000  0.56482000  0.87579000  1.0
  H  H22  1  0.67062000  0.43517000  0.12421000  1.0
  H  H23  1  0.33588000  0.40050000  0.02151000  1.0
  H  H24  1  0.66413000  0.59949000  0.97849000  1.0
  H  H25  1  0.57350000  0.36992000  0.96910000  1.0
  H  H26  1  0.42651000  0.63008000  0.03090000  1.0
  H  H27  1  0.71138000  0.87044000  0.70113000  1.0
  H  H28  1  0.28860000  0.12955000  0.29887000  1.0
  H  H29  1  0.42739000  0.88998000  0.91762000  1.0
  H  H30  1  0.57262000  0.11001000  0.08238000  1.0
  H  H31  1  0.64875000  0.93519000  0.93825000  1.0
  H  H32  1  0.35127000  0.06481000  0.06175000  1.0
  H  H33  1  0.63862000  0.81558000  0.85938000  1.0
  H  H34  1  0.36139000  0.18442000  0.14062000  1.0
  H  H35  1  0.60369000  0.19960000  0.74090000  1.0
  H  H36  1  0.39632000  0.80040000  0.25909000  1.0
  H  H37  1  0.62705000  0.16678000  0.86727000  1.0
  H  H38  1  0.37297000  0.83322000  0.13273000  1.0
  H  H39  1  0.40454000  0.14030000  0.84077000  1.0
  H  H40  1  0.59547000  0.85970000  0.15922000  1.0
  H  H41  1  0.08387000  0.70267000  0.90767000  1.0
  H  H42  1  0.91616000  0.29734000  0.09233000  1.0
  H  H43  1  0.05442000  0.54319000  0.06157000  1.0
  H  H44  1  0.94560000  0.45682000  0.93843000  1.0
  H  H45  1  0.97667000  0.61559000  0.23037000  1.0
  H  H46  1  0.02334000  0.38441000  0.76964000  1.0
  H  H47  1  0.92906000  0.84655000  0.24887000  1.0
  H  H48  1  0.07095000  0.15345000  0.75114000  1.0
  H  H49  1  0.07943000  0.92715000  0.82969000  1.0
  H  H50  1  0.92059000  0.07285000  0.17031000  1.0
  C  C51  1  0.21152000  0.80838000  0.64806000  1.0
  C  C52  1  0.78847000  0.19160000  0.35195000  1.0
  C  C53  1  0.31025000  0.36379000  0.58641000  1.0
  C  C54  1  0.68974000  0.63621000  0.41359000  1.0
  C  C55  1  0.41658000  0.25568000  0.56066000  1.0
  C  C56  1  0.58341000  0.74432000  0.43933000  1.0
  C  C57  1  0.16049000  0.15451000  0.52640000  1.0
  C  C58  1  0.83949000  0.84549000  0.47360000  1.0
  C  C59  1  0.04832000  0.25976000  0.54843000  1.0
  C  C60  1  0.95166000  0.74024000  0.45158000  1.0
  C  C61  1  0.12343000  0.36558000  0.57790000  1.0
  C  C62  1  0.87656000  0.63443000  0.42210000  1.0
  C  C63  1  0.55533000  0.48178000  0.63882000  1.0
  C  C64  1  0.44466000  0.51822000  0.36118000  1.0
  C  C65  1  0.58448000  0.59646000  0.68991000  1.0
  C  C66  1  0.41552000  0.40354000  0.31009000  1.0
  C  C67  1  0.61724000  0.54964000  0.79380000  1.0
  C  C68  1  0.38276000  0.45037000  0.20620000  1.0
  C  C69  1  0.43971000  0.49231000  0.86991000  1.0
  C  C70  1  0.56029000  0.50769000  0.13009000  1.0
  C  C71  1  0.46869000  0.44630000  0.97439000  1.0
  C  C72  1  0.53131000  0.55370000  0.02561000  1.0
  C  C73  1  0.67654000  0.97365000  0.70161000  1.0
  C  C74  1  0.32345000  0.02635000  0.29838000  1.0
  C  C75  1  0.57883000  0.90626000  0.88251000  1.0
  C  C76  1  0.42118000  0.09374000  0.11749000  1.0
  C  C77  1  0.55787000  0.13546000  0.81205000  1.0
  C  C78  1  0.44215000  0.86454000  0.18794000  1.0
  C  C79  1  0.02585000  0.86727000  0.98958000  1.0
  C  C80  1  0.97416000  0.13274000  0.01042000  1.0
  C  C81  1  0.05071000  0.73302000  0.98246000  1.0
  C  C82  1  0.94931000  0.26699000  0.01754000  1.0
  C  C83  1  0.03339000  0.64545000  0.06746000  1.0
  C  C84  1  0.96663000  0.35456000  0.93254000  1.0
  C  C85  1  0.98902000  0.68686000  0.16420000  1.0
  C  C86  1  0.01099000  0.31314000  0.83580000  1.0
  C  C87  1  0.96259000  0.81491000  0.17456000  1.0
  C  C88  1  0.03742000  0.18509000  0.82545000  1.0
  C  C89  1  0.98020000  0.90933000  0.08817000  1.0
  C  C90  1  0.01981000  0.09068000  0.91184000  1.0
  C  C91  1  0.04492000  0.95908000  0.90400000  1.0
  C  C92  1  0.95509000  0.04093000  0.09601000  1.0
  S  S93  1  0.06018000  0.69397000  0.70666000  1.0
  S  S94  1  0.93980000  0.30603000  0.29335000  1.0
  N  N95  1  0.32349000  0.89204000  0.60744000  1.0
  N  N96  1  0.67647000  0.10796000  0.39256000  1.0
  N  N97  1  0.34056000  0.15506000  0.53181000  1.0
  N  N98  1  0.65942000  0.84493000  0.46819000  1.0
  N  N99  1  0.38019000  0.46762000  0.62201000  1.0
  N  N100  1  0.61980000  0.53238000  0.37798000  1.0
  N  N101  1  0.61039000  0.00447000  0.79525000  1.0
  N  N102  1  0.38961000  0.99552000  0.20474000  1.0
  O  O103  1  0.68246000  0.40450000  0.61671000  1.0
  O  O104  1  0.31752000  0.59551000  0.38329000  1.0
  O  O105  1  0.70006000  0.05022000  0.62255000  1.0
  O  O106  1  0.29993000  0.94977000  0.37744000  1.0
