# generated using pymatgen
data_CdH12C13N3O7
_symmetry_space_group_name_H-M   'P 1'
_cell_length_a   8.39059000
_cell_length_b   10.00870000
_cell_length_c   10.59490000
_cell_angle_alpha   92.05000000
_cell_angle_beta   103.47100000
_cell_angle_gamma   112.77700000
_symmetry_Int_Tables_number   1
_chemical_formula_structural   CdH12C13N3O7
_chemical_formula_sum   'Cd2 H24 C26 N6 O14'
_cell_volume   789.88346332
_cell_formula_units_Z   2
loop_
 _symmetry_equiv_pos_site_id
 _symmetry_equiv_pos_as_xyz
  1  'x, y, z'
loop_
 _atom_site_type_symbol
 _atom_site_label
 _atom_site_symmetry_multiplicity
 _atom_site_fract_x
 _atom_site_fract_y
 _atom_site_fract_z
 _atom_site_occupancy
  Cd  Cd0  1  0.74254000  0.08213000  0.44138000  1.0
  Cd  Cd1  1  0.25746000  0.91787000  0.55862000  1.0
  H  H2  1  0.12982000  0.78001000  0.00074000  1.0
  H  H3  1  0.87018000  0.21999000  0.99926000  1.0
  H  H4  1  0.15748000  0.90822000  0.88725000  1.0
  H  H5  1  0.84252000  0.09178000  0.11275000  1.0
  H  H6  1  0.86930000  0.83983000  0.94722000  1.0
  H  H7  1  0.13070000  0.16017000  0.05278000  1.0
  H  H8  1  0.98505000  0.90794000  0.11359000  1.0
  H  H9  1  0.01495000  0.09206000  0.88641000  1.0
  H  H10  1  0.24209000  0.28953000  0.28273000  1.0
  H  H11  1  0.75791000  0.71047000  0.71727000  1.0
  H  H12  1  0.77551000  0.42427000  0.53916000  1.0
  H  H13  1  0.22449000  0.57573000  0.46084000  1.0
  H  H14  1  0.70069000  0.27683000  0.18520000  1.0
  H  H15  1  0.29931000  0.72317000  0.81480000  1.0
  H  H16  1  0.33382000  0.86681000  0.23867000  1.0
  H  H17  1  0.66618000  0.13319000  0.76133000  1.0
  H  H18  1  0.66750000  0.68953000  0.24830000  1.0
  H  H19  1  0.33250000  0.31047000  0.75170000  1.0
  H  H20  1  0.40827000  0.16772000  0.96425000  1.0
  H  H21  1  0.59173000  0.83228000  0.03575000  1.0
  H  H22  1  0.04680000  0.08035000  0.36376000  1.0
  H  H23  1  0.95320000  0.91965000  0.63624000  1.0
  H  H24  1  0.92186000  0.91691000  0.34173000  1.0
  H  H25  1  0.07814000  0.08309000  0.65827000  1.0
  C  C26  1  0.14829000  0.89271000  0.98770000  1.0
  C  C27  1  0.85171000  0.10729000  0.01230000  1.0
  C  C28  1  0.99312000  0.92359000  0.01250000  1.0
  C  C29  1  0.00688000  0.07641000  0.98750000  1.0
  C  C30  1  0.44613000  0.20206000  0.47757000  1.0
  C  C31  1  0.55387000  0.79794000  0.52242000  1.0
  C  C32  1  0.38258000  0.36510000  0.31512000  1.0
  C  C33  1  0.61742000  0.63490000  0.68488000  1.0
  C  C34  1  0.50380000  0.33925000  0.41562000  1.0
  C  C35  1  0.49620000  0.66075000  0.58438000  1.0
  C  C36  1  0.68185000  0.44202000  0.45866000  1.0
  C  C37  1  0.31815000  0.55798000  0.54134000  1.0
  C  C38  1  0.44503000  0.49114000  0.25690000  1.0
  C  C39  1  0.55498000  0.50886000  0.74310000  1.0
  C  C40  1  0.93090000  0.68089000  0.45361000  1.0
  C  C41  1  0.06910000  0.31911000  0.54639000  1.0
  C  C42  1  0.58034000  0.17617000  0.16387000  1.0
  C  C43  1  0.41966000  0.82383000  0.83613000  1.0
  C  C44  1  0.39492000  0.96411000  0.19549000  1.0
  C  C45  1  0.60508000  0.03589000  0.80451000  1.0
  C  C46  1  0.62331000  0.59251000  0.29613000  1.0
  C  C47  1  0.37669000  0.40749000  0.70387000  1.0
  C  C48  1  0.74211000  0.56866000  0.39981000  1.0
  C  C49  1  0.25789000  0.43134000  0.60018000  1.0
  C  C50  1  0.43624000  0.12410000  0.05475000  1.0
  C  C51  1  0.56376000  0.87590000  0.94525000  1.0
  N  N52  1  0.32092000  0.99013000  0.07645000  1.0
  N  N53  1  0.67907000  0.00987000  0.92355000  1.0
  N  N54  1  0.31736000  0.51911000  0.15184000  1.0
  N  N55  1  0.68263000  0.48089000  0.84816000  1.0
  N  N56  1  0.55281000  0.07502000  0.25077000  1.0
  N  N57  1  0.44719000  0.92498000  0.74923000  1.0
  O  O58  1  0.91946000  0.01390000  0.32610000  1.0
  O  O59  1  0.08054000  0.98610000  0.67390000  1.0
  O  O60  1  0.37495000  0.63273000  0.10152000  1.0
  O  O61  1  0.62505000  0.36727000  0.89848000  1.0
  O  O62  1  0.56528000  0.16810000  0.54870000  1.0
  O  O63  1  0.43472000  0.83190000  0.45130000  1.0
  O  O64  1  0.72202000  0.87662000  0.54401000  1.0
  O  O65  1  0.27798000  0.12339000  0.45599000  1.0
  O  O66  1  0.99275000  0.78364000  0.38558000  1.0
  O  O67  1  0.00725000  0.21636000  0.61442000  1.0
  O  O68  1  0.02095000  0.67336000  0.56458000  1.0
  O  O69  1  0.97905000  0.32664000  0.43542000  1.0
  O  O70  1  0.15918000  0.42851000  0.11939000  1.0
  O  O71  1  0.84082000  0.57149000  0.88061000  1.0
