# generated using pymatgen
data_Cu4H8C13N8
_symmetry_space_group_name_H-M   'P 1'
_cell_length_a   14.91700000
_cell_length_b   14.91610000
_cell_length_c   14.91870000
_cell_angle_alpha   89.99640000
_cell_angle_beta   89.98870000
_cell_angle_gamma   89.99820000
_symmetry_Int_Tables_number   1
_chemical_formula_structural   Cu4H8C13N8
_chemical_formula_sum   'Cu12 H24 C39 N24'
_cell_volume   3319.46235115
_cell_formula_units_Z   3
loop_
 _symmetry_equiv_pos_site_id
 _symmetry_equiv_pos_as_xyz
  1  'x, y, z'
loop_
 _atom_site_type_symbol
 _atom_site_label
 _atom_site_symmetry_multiplicity
 _atom_site_fract_x
 _atom_site_fract_y
 _atom_site_fract_z
 _atom_site_occupancy
  Cu  Cu0  1  0.74888000  0.89893000  0.74868000  1.0
  Cu  Cu1  1  0.74867000  0.74752000  0.89885000  1.0
  Cu  Cu2  1  0.90219000  0.75106000  0.75067000  1.0
  Cu  Cu3  1  0.25109000  0.10033000  0.74939000  1.0
  Cu  Cu4  1  0.25003000  0.24916000  0.90201000  1.0
  Cu  Cu5  1  0.10186000  0.25255000  0.74867000  1.0
  Cu  Cu6  1  0.74896000  0.10053000  0.25071000  1.0
  Cu  Cu7  1  0.75059000  0.24900000  0.09779000  1.0
  Cu  Cu8  1  0.89804000  0.25285000  0.25199000  1.0
  Cu  Cu9  1  0.25071000  0.89995000  0.25094000  1.0
  Cu  Cu10  1  0.25195000  0.74744000  0.10186000  1.0
  Cu  Cu11  1  0.09836000  0.75099000  0.24992000  1.0
  H  H12  1  0.59097000  0.02283000  0.81884000  1.0
  H  H13  1  0.59222000  0.81808000  0.02435000  1.0
  H  H14  1  0.02719000  0.82273000  0.59429000  1.0
  H  H15  1  0.81786000  0.02359000  0.59044000  1.0
  H  H16  1  0.81700000  0.58748000  0.02119000  1.0
  H  H17  1  0.02888000  0.59665000  0.82329000  1.0
  H  H18  1  0.40885000  0.97542000  0.81887000  1.0
  H  H19  1  0.40707000  0.17817000  0.02635000  1.0
  H  H20  1  0.97635000  0.18249000  0.59193000  1.0
  H  H21  1  0.18050000  0.97631000  0.59178000  1.0
  H  H22  1  0.17733000  0.40327000  0.02894000  1.0
  H  H23  1  0.97973000  0.41298000  0.81687000  1.0
  H  H24  1  0.59073000  0.97601000  0.18145000  1.0
  H  H25  1  0.59413000  0.17759000  0.97285000  1.0
  H  H26  1  0.02305000  0.18303000  0.40916000  1.0
  H  H27  1  0.81980000  0.97600000  0.40789000  1.0
  H  H28  1  0.82363000  0.40313000  0.97117000  1.0
  H  H29  1  0.02033000  0.41325000  0.18405000  1.0
  H  H30  1  0.40829000  0.02403000  0.18010000  1.0
  H  H31  1  0.40884000  0.81727000  0.97665000  1.0
  H  H32  1  0.97375000  0.82188000  0.40690000  1.0
  H  H33  1  0.18097000  0.02488000  0.40868000  1.0
  H  H34  1  0.18380000  0.58741000  0.97955000  1.0
  H  H35  1  0.97181000  0.59641000  0.17736000  1.0
  C  C36  1  0.60176000  0.96440000  0.86078000  1.0
  C  C37  1  0.56133000  0.94099000  0.94218000  1.0
  C  C38  1  0.60237000  0.85992000  0.96572000  1.0
  C  C39  1  0.96779000  0.86360000  0.60392000  1.0
  C  C40  1  0.94282000  0.94376000  0.56196000  1.0
  C  C41  1  0.86096000  0.96615000  0.60201000  1.0
  C  C42  1  0.86063000  0.60036000  0.96442000  1.0
  C  C43  1  0.94327000  0.56165000  0.94257000  1.0
  C  C44  1  0.96870000  0.60488000  0.86329000  1.0
  C  C45  1  0.39770000  0.03333000  0.86144000  1.0
  C  C46  1  0.43835000  0.05625000  0.94284000  1.0
  C  C47  1  0.39690000  0.13681000  0.96737000  1.0
  C  C48  1  0.03463000  0.14022000  0.60234000  1.0
  C  C49  1  0.05776000  0.05895000  0.56148000  1.0
  C  C50  1  0.13884000  0.03501000  0.60227000  1.0
  C  C51  1  0.13740000  0.39520000  0.96869000  1.0
  C  C52  1  0.05815000  0.43850000  0.94324000  1.0
  C  C53  1  0.03644000  0.39998000  0.86050000  1.0
  C  C54  1  0.60227000  0.03362000  0.13857000  1.0
  C  C55  1  0.56203000  0.05628000  0.05692000  1.0
  C  C56  1  0.60390000  0.13652000  0.03208000  1.0
  C  C57  1  0.96497000  0.14057000  0.39843000  1.0
  C  C58  1  0.94207000  0.05900000  0.43886000  1.0
  C  C59  1  0.86120000  0.03492000  0.39775000  1.0
  C  C60  1  0.86332000  0.39516000  0.03159000  1.0
  C  C61  1  0.94241000  0.43856000  0.05734000  1.0
  C  C62  1  0.96381000  0.40012000  0.14019000  1.0
  C  C63  1  0.39787000  0.96519000  0.13866000  1.0
  C  C64  1  0.43883000  0.94115000  0.05773000  1.0
  C  C65  1  0.39822000  0.85970000  0.03476000  1.0
  C  C66  1  0.03266000  0.86333000  0.39672000  1.0
  C  C67  1  0.05709000  0.94388000  0.43825000  1.0
  C  C68  1  0.13847000  0.96692000  0.39757000  1.0
  C  C69  1  0.14016000  0.60017000  0.03633000  1.0
  C  C70  1  0.05749000  0.56151000  0.05812000  1.0
  C  C71  1  0.03203000  0.60470000  0.13740000  1.0
  C  C72  1  0.00036000  0.50004000  0.00033000  1.0
  C  C73  1  0.50014000  0.99862000  0.99993000  1.0
  C  C74  1  0.99992000  0.00147000  0.50014000  1.0
  N  N75  1  0.66294000  0.83655000  0.90247000  1.0
  N  N76  1  0.66262000  0.90144000  0.83733000  1.0
  N  N77  1  0.83859000  0.90345000  0.66356000  1.0
  N  N78  1  0.90496000  0.83983000  0.66473000  1.0
  N  N79  1  0.90535000  0.66512000  0.83942000  1.0
  N  N80  1  0.83824000  0.66235000  0.90220000  1.0
  N  N81  1  0.33582000  0.16029000  0.90472000  1.0
  N  N82  1  0.33631000  0.09608000  0.83893000  1.0
  N  N83  1  0.16248000  0.09788000  0.66313000  1.0
  N  N84  1  0.09780000  0.16325000  0.66314000  1.0
  N  N85  1  0.09870000  0.33802000  0.83805000  1.0
  N  N86  1  0.16138000  0.33513000  0.90524000  1.0
  N  N87  1  0.66485000  0.16010000  0.09484000  1.0
  N  N88  1  0.66386000  0.09625000  0.16100000  1.0
  N  N89  1  0.83745000  0.09800000  0.33713000  1.0
  N  N90  1  0.90187000  0.16363000  0.33758000  1.0
  N  N91  1  0.90153000  0.33810000  0.16243000  1.0
  N  N92  1  0.83916000  0.33509000  0.09497000  1.0
  N  N93  1  0.33741000  0.83670000  0.09792000  1.0
  N  N94  1  0.33714000  0.90223000  0.16241000  1.0
  N  N95  1  0.16106000  0.90427000  0.33609000  1.0
  N  N96  1  0.09533000  0.83998000  0.33557000  1.0
  N  N97  1  0.09540000  0.66485000  0.16138000  1.0
  N  N98  1  0.16255000  0.66210000  0.09863000  1.0
