# generated using pymatgen
data_LiH12C12SN
_symmetry_space_group_name_H-M   'P 1'
_cell_length_a   8.05172000
_cell_length_b   11.84920000
_cell_length_c   12.13170000
_cell_angle_alpha   92.21950000
_cell_angle_beta   100.28200000
_cell_angle_gamma   99.91390000
_symmetry_Int_Tables_number   1
_chemical_formula_structural   LiH12C12SN
_chemical_formula_sum   'Li4 H48 C48 S4 N4'
_cell_volume   1118.96494254
_cell_formula_units_Z   4
loop_
 _symmetry_equiv_pos_site_id
 _symmetry_equiv_pos_as_xyz
  1  'x, y, z'
loop_
 _atom_site_type_symbol
 _atom_site_label
 _atom_site_symmetry_multiplicity
 _atom_site_fract_x
 _atom_site_fract_y
 _atom_site_fract_z
 _atom_site_occupancy
  Li  Li0  1  0.50480000  0.44689000  0.54751000  1.0
  Li  Li1  1  0.00566000  0.54863000  0.44953000  1.0
  Li  Li2  1  0.26756000  0.45474000  0.32351000  1.0
  Li  Li3  1  0.76858000  0.32565000  0.45301000  1.0
  H  H4  1  0.64242000  0.33882000  0.75859000  1.0
  H  H5  1  0.14301000  0.76006000  0.34085000  1.0
  H  H6  1  0.52128000  0.22102000  0.90229000  1.0
  H  H7  1  0.02131000  0.90396000  0.21964000  1.0
  H  H8  1  0.20095000  0.16700000  0.88043000  1.0
  H  H9  1  0.70107000  0.88121000  0.16408000  1.0
  H  H10  1  0.01602000  0.23169000  0.71199000  1.0
  H  H11  1  0.51660000  0.71180000  0.23064000  1.0
  H  H12  1  0.15816000  0.35192000  0.57977000  1.0
  H  H13  1  0.65891000  0.58074000  0.35477000  1.0
  H  H14  1  0.43340000  0.38634000  0.14374000  1.0
  H  H15  1  0.93243000  0.14050000  0.38924000  1.0
  H  H16  1  0.47568000  0.44491000  0.95212000  1.0
  H  H17  1  0.97388000  0.94468000  0.44898000  1.0
  H  H18  1  0.34052000  0.60791000  0.87230000  1.0
  H  H19  1  0.84183000  0.86706000  0.60993000  1.0
  H  H20  1  0.16800000  0.70426000  0.98821000  1.0
  H  H21  1  0.67159000  0.98871000  0.70285000  1.0
  H  H22  1  0.14406000  0.63762000  0.17841000  1.0
  H  H23  1  0.64628000  0.18218000  0.63409000  1.0
  H  H24  1  0.21717000  0.21766000  0.40794000  1.0
  H  H25  1  0.71673000  0.40993000  0.21689000  1.0
  H  H26  1  0.40006000  0.16126000  0.47056000  1.0
  H  H27  1  0.90070000  0.47376000  0.16422000  1.0
  H  H28  1  0.47572000  0.00158000  0.37733000  1.0
  H  H29  1  0.97608000  0.38152000  0.00735000  1.0
  H  H30  1  0.43050000  0.86382000  0.21087000  1.0
  H  H31  1  0.92997000  0.21450000  0.86859000  1.0
  H  H32  1  0.24446000  0.89596000  0.03182000  1.0
  H  H33  1  0.74176000  0.03105000  0.89508000  1.0
  H  H34  1  0.09378000  0.06383000  0.02381000  1.0
  H  H35  1  0.59194000  0.01937000  0.05866000  1.0
  H  H36  1  0.13609000  0.20005000  0.19113000  1.0
  H  H37  1  0.63634000  0.18698000  0.19645000  1.0
  H  H38  1  0.42471000  0.76522000  0.43479000  1.0
  H  H39  1  0.91818000  0.43023000  0.75993000  1.0
  H  H40  1  0.58104000  0.70915000  0.52833000  1.0
  H  H41  1  0.07878000  0.52552000  0.70994000  1.0
  H  H42  1  0.55291000  0.70463000  0.73625000  1.0
  H  H43  1  0.05108000  0.74009000  0.70780000  1.0
  H  H44  1  0.50800000  0.82706000  0.89501000  1.0
  H  H45  1  0.00762000  0.90112000  0.83014000  1.0
  H  H46  1  0.34688000  0.98759000  0.85832000  1.0
  H  H47  1  0.84873000  0.86158000  0.98706000  1.0
  H  H48  1  0.22487000  0.02177000  0.66094000  1.0
  H  H49  1  0.72789000  0.65925000  0.01795000  1.0
  H  H50  1  0.26960000  0.89855000  0.50281000  1.0
  H  H51  1  0.77030000  0.49890000  0.89450000  1.0
  C  C52  1  0.50386000  0.31318000  0.75189000  1.0
  C  C53  1  0.00444000  0.75339000  0.31460000  1.0
  C  C54  1  0.43617000  0.24769000  0.83188000  1.0
  C  C55  1  0.93650000  0.83319000  0.24706000  1.0
  C  C56  1  0.25806000  0.21757000  0.81892000  1.0
  C  C57  1  0.75843000  0.81970000  0.21603000  1.0
  C  C58  1  0.15553000  0.25378000  0.72681000  1.0
  C  C59  1  0.65604000  0.72729000  0.25338000  1.0
  C  C60  1  0.23458000  0.32003000  0.65162000  1.0
  C  C61  1  0.73519000  0.65269000  0.32196000  1.0
  C  C62  1  0.37886000  0.45727000  0.10572000  1.0
  C  C63  1  0.87868000  0.10313000  0.45914000  1.0
  C  C64  1  0.40140000  0.49019000  0.99947000  1.0
  C  C65  1  0.90085000  0.99464000  0.49273000  1.0
  C  C66  1  0.32640000  0.58052000  0.95544000  1.0
  C  C67  1  0.82746000  0.95180000  0.58196000  1.0
  C  C68  1  0.23170000  0.63488000  0.01978000  1.0
  C  C69  1  0.73408000  0.01938000  0.63435000  1.0
  C  C70  1  0.21706000  0.59710000  0.12563000  1.0
  C  C71  1  0.71889000  0.12701000  0.59557000  1.0
  C  C72  1  0.33971000  0.19629000  0.39417000  1.0
  C  C73  1  0.83963000  0.39538000  0.19716000  1.0
  C  C74  1  0.30988000  0.11062000  0.29519000  1.0
  C  C75  1  0.81031000  0.29540000  0.11183000  1.0
  C  C76  1  0.39189000  0.01522000  0.29958000  1.0
  C  C77  1  0.89200000  0.30182000  0.01875000  1.0
  C  C78  1  0.36784000  0.93827000  0.20543000  1.0
  C  C79  1  0.86730000  0.20736000  0.94113000  1.0
  C  C80  1  0.26334000  0.95607000  0.10518000  1.0
  C  C81  1  0.76184000  0.10468000  0.95571000  1.0
  C  C82  1  0.17992000  0.05053000  0.10039000  1.0
  C  C83  1  0.67880000  0.09781000  0.04786000  1.0
  C  C84  1  0.20214000  0.12674000  0.19455000  1.0
  C  C85  1  0.70208000  0.19221000  0.12493000  1.0
  C  C86  1  0.44664000  0.72140000  0.51295000  1.0
  C  C87  1  0.94369000  0.51145000  0.71978000  1.0
  C  C88  1  0.41359000  0.79294000  0.60859000  1.0
  C  C89  1  0.91247000  0.60838000  0.79215000  1.0
  C  C90  1  0.47909000  0.77336000  0.72000000  1.0
  C  C91  1  0.97818000  0.72267000  0.77495000  1.0
  C  C92  1  0.45407000  0.84254000  0.80905000  1.0
  C  C93  1  0.95401000  0.81295000  0.84411000  1.0
  C  C94  1  0.36325000  0.93249000  0.78849000  1.0
  C  C95  1  0.86435000  0.79080000  0.93200000  1.0
  C  C96  1  0.29533000  0.95166000  0.67812000  1.0
  C  C97  1  0.79694000  0.67761000  0.94921000  1.0
  C  C98  1  0.32006000  0.88194000  0.58912000  1.0
  C  C99  1  0.82049000  0.58739000  0.87934000  1.0
  S  S100  1  0.47636000  0.33048000  0.36935000  1.0
  S  S101  1  0.97463000  0.36873000  0.32925000  1.0
  S  S102  1  0.31078000  0.57855000  0.49484000  1.0
  S  S103  1  0.81109000  0.49901000  0.57875000  1.0
  N  N104  1  0.40602000  0.34954000  0.66331000  1.0
  N  N105  1  0.90660000  0.66493000  0.35237000  1.0
  N  N106  1  0.28914000  0.51009000  0.16883000  1.0
  N  N107  1  0.79006000  0.16926000  0.50990000  1.0
