# generated using pymatgen
data_AgH13C13S2N3(OF)3
_symmetry_space_group_name_H-M   'P 1'
_cell_length_a   8.14256000
_cell_length_b   8.59034000
_cell_length_c   12.89590000
_cell_angle_alpha   87.33660000
_cell_angle_beta   75.79110000
_cell_angle_gamma   70.54000000
_symmetry_Int_Tables_number   1
_chemical_formula_structural   AgH13C13S2N3(OF)3
_chemical_formula_sum   'Ag2 H26 C26 S4 N6 O6 F6'
_cell_volume   823.87022558
_cell_formula_units_Z   2
loop_
 _symmetry_equiv_pos_site_id
 _symmetry_equiv_pos_as_xyz
  1  'x, y, z'
loop_
 _atom_site_type_symbol
 _atom_site_label
 _atom_site_symmetry_multiplicity
 _atom_site_fract_x
 _atom_site_fract_y
 _atom_site_fract_z
 _atom_site_occupancy
  Ag  Ag0  1  0.78646000  0.39041000  0.37166000  1.0
  Ag  Ag1  1  0.21354000  0.60959000  0.62834000  1.0
  H  H2  1  0.89777000  0.46114000  0.13942000  1.0
  H  H3  1  0.10223000  0.53886000  0.86058000  1.0
  H  H4  1  0.82969000  0.68438000  0.00845000  1.0
  H  H5  1  0.17030000  0.31563000  0.99155000  1.0
  H  H6  1  0.59279000  0.95519000  0.07470000  1.0
  H  H7  1  0.40721000  0.04482000  0.92530000  1.0
  H  H8  1  0.43119000  0.99124000  0.26935000  1.0
  H  H9  1  0.56881000  0.00877000  0.73065000  1.0
  H  H10  1  0.54185000  0.83358000  0.46540000  1.0
  H  H11  1  0.45815000  0.16642000  0.53460000  1.0
  H  H12  1  0.51628000  0.63977000  0.45754000  1.0
  H  H13  1  0.48372000  0.36024000  0.54246000  1.0
  H  H14  1  0.75281000  0.02803000  0.58331000  1.0
  H  H15  1  0.24719000  0.97197000  0.41669000  1.0
  H  H16  1  0.76984000  0.22824000  0.59890000  1.0
  H  H17  1  0.23016000  0.77176000  0.40110000  1.0
  H  H18  1  0.86807000  0.90124000  0.43277000  1.0
  H  H19  1  0.13193000  0.09876000  0.56723000  1.0
  H  H20  1  0.02861000  0.72924000  0.24942000  1.0
  H  H21  1  0.97139000  0.27075000  0.75058000  1.0
  H  H22  1  0.37496000  0.69378000  0.01829000  1.0
  H  H23  1  0.62504000  0.30621000  0.98171000  1.0
  H  H24  1  0.18379000  0.62898000  0.04603000  1.0
  H  H25  1  0.81622000  0.37101000  0.95397000  1.0
  H  H26  1  0.20258000  0.78329000  0.95030000  1.0
  H  H27  1  0.79742000  0.21671000  0.04969000  1.0
  C  C28  1  0.79444000  0.58072000  0.16446000  1.0
  C  C29  1  0.20555000  0.41928000  0.83554000  1.0
  C  C30  1  0.75626000  0.70432000  0.09211000  1.0
  C  C31  1  0.24374000  0.29569000  0.90789000  1.0
  C  C32  1  0.62340000  0.85501000  0.12932000  1.0
  C  C33  1  0.37660000  0.14500000  0.87068000  1.0
  C  C34  1  0.53447000  0.87484000  0.23714000  1.0
  C  C35  1  0.46553000  0.12517000  0.76286000  1.0
  C  C36  1  0.57857000  0.74477000  0.30610000  1.0
  C  C37  1  0.42142000  0.25524000  0.69390000  1.0
  C  C38  1  0.48603000  0.76238000  0.42302000  1.0
  C  C39  1  0.51396000  0.23762000  0.57698000  1.0
  C  C40  1  0.71769000  0.15519000  0.55604000  1.0
  C  C41  1  0.28230000  0.84481000  0.44396000  1.0
  C  C42  1  0.87498000  0.01415000  0.39058000  1.0
  C  C43  1  0.12502000  0.98585000  0.60941000  1.0
  C  C44  1  0.97093000  0.99262000  0.27961000  1.0
  C  C45  1  0.02907000  0.00738000  0.72039000  1.0
  C  C46  1  0.04180000  0.84590000  0.21864000  1.0
  C  C47  1  0.95821000  0.15410000  0.78136000  1.0
  C  C48  1  0.13576000  0.86803000  0.11376000  1.0
  C  C49  1  0.86424000  0.13197000  0.88624000  1.0
  C  C50  1  0.22893000  0.73606000  0.02713000  1.0
  C  C51  1  0.77107000  0.26394000  0.97287000  1.0
  C  C52  1  0.60020000  0.64154000  0.76759000  1.0
  C  C53  1  0.39979000  0.35846000  0.23241000  1.0
  S  S54  1  0.03000000  0.14375000  0.20267000  1.0
  S  S55  1  0.97000000  0.85625000  0.79733000  1.0
  S  S56  1  0.76938000  0.60397000  0.63561000  1.0
  S  S57  1  0.23062000  0.39602000  0.36439000  1.0
  N  N58  1  0.70785000  0.59914000  0.26901000  1.0
  N  N59  1  0.29215000  0.40086000  0.73099000  1.0
  N  N60  1  0.80214000  0.15550000  0.44209000  1.0
  N  N61  1  0.19786000  0.84449000  0.55791000  1.0
  N  N62  1  0.14004000  0.02131000  0.09500000  1.0
  N  N63  1  0.85996000  0.97869000  0.90500000  1.0
  O  O64  1  0.70197000  0.51158000  0.57400000  1.0
  O  O65  1  0.29803000  0.48842000  0.42599000  1.0
  O  O66  1  0.06363000  0.49235000  0.33554000  1.0
  O  O67  1  0.93637000  0.50765000  0.66446000  1.0
  O  O68  1  0.75976000  0.76953000  0.59995000  1.0
  O  O69  1  0.24025000  0.23047000  0.40005000  1.0
  F  F70  1  0.58242000  0.49755000  0.80794000  1.0
  F  F71  1  0.41758000  0.50245000  0.19205000  1.0
  F  F72  1  0.64914000  0.71441000  0.84140000  1.0
  F  F73  1  0.35085000  0.28559000  0.15860000  1.0
  F  F74  1  0.43625000  0.74277000  0.75839000  1.0
  F  F75  1  0.56375000  0.25723000  0.24160000  1.0
