# generated using pymatgen
data_Zn2H22C20O13
_symmetry_space_group_name_H-M   'P 1'
_cell_length_a   7.47258000
_cell_length_b   11.36910000
_cell_length_c   13.52940000
_cell_angle_alpha   77.25940000
_cell_angle_beta   85.51840000
_cell_angle_gamma   73.68970000
_symmetry_Int_Tables_number   1
_chemical_formula_structural   Zn2H22C20O13
_chemical_formula_sum   'Zn4 H44 C40 O26'
_cell_volume   1075.82991626
_cell_formula_units_Z   2
loop_
 _symmetry_equiv_pos_site_id
 _symmetry_equiv_pos_as_xyz
  1  'x, y, z'
loop_
 _atom_site_type_symbol
 _atom_site_label
 _atom_site_symmetry_multiplicity
 _atom_site_fract_x
 _atom_site_fract_y
 _atom_site_fract_z
 _atom_site_occupancy
  Zn  Zn0  1  0.64089000  0.83981000  0.07081000  1.0
  Zn  Zn1  1  0.35911000  0.16019000  0.92919000  1.0
  Zn  Zn2  1  0.26038000  0.61131000  0.92220000  1.0
  Zn  Zn3  1  0.73962000  0.38869000  0.07779000  1.0
  H  H4  1  0.98631000  0.85712000  0.01469000  1.0
  H  H5  1  0.01369000  0.14288000  0.98531000  1.0
  H  H6  1  0.90435000  0.94823000  0.08913000  1.0
  H  H7  1  0.09565000  0.05177000  0.91087000  1.0
  H  H8  1  0.30680000  0.87594000  0.99990000  1.0
  H  H9  1  0.69320000  0.12406000  0.00010000  1.0
  H  H10  1  0.34106000  0.74899000  0.07601000  1.0
  H  H11  1  0.65894000  0.25101000  0.92399000  1.0
  H  H12  1  0.87419000  0.71741000  0.91821000  1.0
  H  H13  1  0.12581000  0.28259000  0.08179000  1.0
  H  H14  1  0.90784000  0.59726000  0.00262000  1.0
  H  H15  1  0.09216000  0.40274000  0.99738000  1.0
  H  H16  1  0.18878000  0.26471000  0.23372000  1.0
  H  H17  1  0.81122000  0.73530000  0.76628000  1.0
  H  H18  1  0.08859000  0.25153000  0.41474000  1.0
  H  H19  1  0.91140000  0.74848000  0.58526000  1.0
  H  H20  1  0.38574000  0.85888000  0.48110000  1.0
  H  H21  1  0.61424000  0.14113000  0.51891000  1.0
  H  H22  1  0.49164000  0.87412000  0.30142000  1.0
  H  H23  1  0.50836000  0.12588000  0.69859000  1.0
  H  H24  1  0.36640000  0.91068000  0.63746000  1.0
  H  H25  1  0.63360000  0.08933000  0.36254000  1.0
  H  H26  1  0.16335000  0.87043000  0.60952000  1.0
  H  H27  1  0.83666000  0.12958000  0.39048000  1.0
  H  H28  1  0.16951000  0.05417000  0.74492000  1.0
  H  H29  1  0.83048000  0.94583000  0.25508000  1.0
  H  H30  1  0.96963000  0.01408000  0.71768000  1.0
  H  H31  1  0.03036000  0.98592000  0.28232000  1.0
  H  H32  1  0.53414000  0.65599000  0.69956000  1.0
  H  H33  1  0.46586000  0.34400000  0.30044000  1.0
  H  H34  1  0.60753000  0.64376000  0.51913000  1.0
  H  H35  1  0.39247000  0.35623000  0.48087000  1.0
  H  H36  1  0.94070000  0.26182000  0.61360000  1.0
  H  H37  1  0.05931000  0.73818000  0.38640000  1.0
  H  H38  1  0.87589000  0.27828000  0.79456000  1.0
  H  H39  1  0.12412000  0.72172000  0.20544000  1.0
  H  H40  1  0.80304000  0.61715000  0.38155000  1.0
  H  H41  1  0.19696000  0.38285000  0.61845000  1.0
  H  H42  1  0.59749000  0.56513000  0.38336000  1.0
  H  H43  1  0.40252000  0.43486000  0.61664000  1.0
  H  H44  1  0.96828000  0.46615000  0.27464000  1.0
  H  H45  1  0.03173000  0.53385000  0.72536000  1.0
  H  H46  1  0.77325000  0.40600000  0.28010000  1.0
  H  H47  1  0.22675000  0.59400000  0.71990000  1.0
  C  C48  1  0.40471000  0.07371000  0.14823000  1.0
  C  C49  1  0.59530000  0.92628000  0.85178000  1.0
  C  C50  1  0.34540000  0.06955000  0.25555000  1.0
  C  C51  1  0.65459000  0.93045000  0.74445000  1.0
  C  C52  1  0.23113000  0.17592000  0.28783000  1.0
  C  C53  1  0.76886000  0.82409000  0.71217000  1.0
  C  C54  1  0.17556000  0.16949000  0.38850000  1.0
  C  C55  1  0.82444000  0.83052000  0.61150000  1.0
  C  C56  1  0.22977000  0.05502000  0.45865000  1.0
  C  C57  1  0.77022000  0.94498000  0.54136000  1.0
  C  C58  1  0.34361000  0.94791000  0.42740000  1.0
  C  C59  1  0.65638000  0.05210000  0.57260000  1.0
  C  C60  1  0.40239000  0.95637000  0.32651000  1.0
  C  C61  1  0.59761000  0.04363000  0.67350000  1.0
  C  C62  1  0.21379000  0.94336000  0.63071000  1.0
  C  C63  1  0.78621000  0.05665000  0.36928000  1.0
  C  C64  1  0.12157000  0.97813000  0.72768000  1.0
  C  C65  1  0.87843000  0.02187000  0.27232000  1.0
  C  C66  1  0.15358000  0.87174000  0.81935000  1.0
  C  C67  1  0.84642000  0.12826000  0.18064000  1.0
  C  C68  1  0.65154000  0.47936000  0.86532000  1.0
  C  C69  1  0.34847000  0.52064000  0.13468000  1.0
  C  C70  1  0.69650000  0.46806000  0.75835000  1.0
  C  C71  1  0.30351000  0.53193000  0.24165000  1.0
  C  C72  1  0.62344000  0.57022000  0.67990000  1.0
  C  C73  1  0.37657000  0.42977000  0.32010000  1.0
  C  C74  1  0.66412000  0.56302000  0.57892000  1.0
  C  C75  1  0.33588000  0.43697000  0.42108000  1.0
  C  C76  1  0.77782000  0.45080000  0.55564000  1.0
  C  C77  1  0.22218000  0.54920000  0.44436000  1.0
  C  C78  1  0.85190000  0.34760000  0.63373000  1.0
  C  C79  1  0.14810000  0.65239000  0.36627000  1.0
  C  C80  1  0.81311000  0.35676000  0.73402000  1.0
  C  C81  1  0.18690000  0.64324000  0.26598000  1.0
  C  C82  1  0.75074000  0.53704000  0.37774000  1.0
  C  C83  1  0.24926000  0.46295000  0.62226000  1.0
  C  C84  1  0.81473000  0.49111000  0.28070000  1.0
  C  C85  1  0.18527000  0.50889000  0.71930000  1.0
  C  C86  1  0.74389000  0.59072000  0.18814000  1.0
  C  C87  1  0.25611000  0.40928000  0.81187000  1.0
  O  O88  1  0.55363000  0.99564000  0.12783000  1.0
  O  O89  1  0.44637000  0.00436000  0.87217000  1.0
  O  O90  1  0.30378000  0.15745000  0.07955000  1.0
  O  O91  1  0.69622000  0.84255000  0.92045000  1.0
  O  O92  1  0.16381000  0.05748000  0.55469000  1.0
  O  O93  1  0.83618000  0.94254000  0.44531000  1.0
  O  O94  1  0.11709000  0.89981000  0.90609000  1.0
  O  O95  1  0.88291000  0.10018000  0.09391000  1.0
  O  O96  1  0.21283000  0.75979000  0.80523000  1.0
  O  O97  1  0.78717000  0.24021000  0.19476000  1.0
  O  O98  1  0.54930000  0.58045000  0.88569000  1.0
  O  O99  1  0.45070000  0.41955000  0.11431000  1.0
  O  O100  1  0.72400000  0.38058000  0.93369000  1.0
  O  O101  1  0.27600000  0.61942000  0.06631000  1.0
  O  O102  1  0.82421000  0.43350000  0.45970000  1.0
  O  O103  1  0.17580000  0.56649000  0.54031000  1.0
  O  O104  1  0.73472000  0.56032000  0.10325000  1.0
  O  O105  1  0.26528000  0.43967000  0.89675000  1.0
  O  O106  1  0.69986000  0.70419000  0.19699000  1.0
  O  O107  1  0.30014000  0.29581000  0.80302000  1.0
  O  O108  1  0.91098000  0.86296000  0.07783000  1.0
  O  O109  1  0.08903000  0.13704000  0.92217000  1.0
  O  O110  1  0.36588000  0.83267000  0.06542000  1.0
  O  O111  1  0.63412000  0.16733000  0.93458000  1.0
  O  O112  1  0.96360000  0.63308000  0.93872000  1.0
  O  O113  1  0.03640000  0.36692000  0.06128000  1.0
