# generated using pymatgen
data_ZnH10C17Br2N3O4
_symmetry_space_group_name_H-M   'P 1'
_cell_length_a   11.00350000
_cell_length_b   15.97760000
_cell_length_c   17.34390000
_cell_angle_alpha   95.95360000
_cell_angle_beta   90.39610000
_cell_angle_gamma   94.18260000
_symmetry_Int_Tables_number   1
_chemical_formula_structural   ZnH10C17Br2N3O4
_chemical_formula_sum   'Zn2 H20 C34 Br4 N6 O8'
_cell_volume   3024.37645185
_cell_formula_units_Z   2
loop_
 _symmetry_equiv_pos_site_id
 _symmetry_equiv_pos_as_xyz
  1  'x, y, z'
loop_
 _atom_site_type_symbol
 _atom_site_label
 _atom_site_symmetry_multiplicity
 _atom_site_fract_x
 _atom_site_fract_y
 _atom_site_fract_z
 _atom_site_occupancy
  Zn  Zn0  1  0.48594000  0.41139000  0.49752000  1.0
  Zn  Zn1  1  0.51415000  0.58861000  0.50247000  1.0
  H  H2  1  0.38924000  0.71007000  0.43557000  1.0
  H  H3  1  0.38046000  0.86729000  0.43238000  1.0
  H  H4  1  0.67933000  0.90162000  0.59792000  1.0
  H  H5  1  0.32063000  0.09840000  0.40204000  1.0
  H  H6  1  0.61925000  0.13267000  0.56778000  1.0
  H  H7  1  0.61063000  0.28988000  0.56450000  1.0
  H  H8  1  0.44491000  0.61014000  0.25779000  1.0
  H  H9  1  0.44302000  0.60406000  0.11240000  1.0
  H  H10  1  0.58294000  0.35892000  0.10074000  1.0
  H  H11  1  0.41725000  0.64122000  0.89931000  1.0
  H  H12  1  0.55678000  0.39596000  0.88755000  1.0
  H  H13  1  0.55487000  0.38993000  0.74216000  1.0
  H  H14  1  0.88033000  0.62426000  0.51280000  1.0
  H  H15  1  0.11975000  0.37555000  0.48692000  1.0
  H  H16  1  0.16666000  0.68867000  0.46933000  1.0
  H  H17  1  0.18408000  0.68139000  0.56926000  1.0
  H  H18  1  0.04542000  0.71559000  0.53283000  1.0
  H  H19  1  0.95457000  0.28424000  0.46664000  1.0
  H  H20  1  0.81551000  0.31848000  0.43082000  1.0
  H  H21  1  0.83396000  0.31104000  0.53066000  1.0
  C  C22  1  0.50408000  0.49869000  0.34864000  1.0
  C  C23  1  0.26488000  0.51218000  0.50243000  1.0
  C  C24  1  0.49598000  0.50148000  0.65136000  1.0
  C  C25  1  0.73518000  0.48770000  0.49745000  1.0
  C  C26  1  0.45131000  0.75565000  0.47016000  1.0
  C  C27  1  0.44663000  0.84174000  0.46862000  1.0
  C  C28  1  0.53048000  0.89553000  0.51534000  1.0
  C  C29  1  0.61395000  0.86084000  0.56147000  1.0
  C  C30  1  0.61083000  0.77303000  0.55952000  1.0
  C  C31  1  0.38601000  0.13917000  0.43853000  1.0
  C  C32  1  0.46935000  0.10447000  0.48473000  1.0
  C  C33  1  0.55319000  0.15824000  0.53147000  1.0
  C  C34  1  0.54860000  0.24433000  0.52989000  1.0
  C  C35  1  0.38925000  0.22697000  0.44041000  1.0
  C  C36  1  0.51113000  0.48824000  0.26153000  1.0
  C  C37  1  0.47358000  0.55513000  0.22207000  1.0
  C  C38  1  0.47281000  0.55223000  0.14212000  1.0
  C  C39  1  0.51216000  0.48040000  0.09830000  1.0
  C  C40  1  0.55152000  0.41347000  0.13586000  1.0
  C  C41  1  0.55087000  0.41723000  0.21652000  1.0
  C  C42  1  0.44862000  0.58667000  0.86418000  1.0
  C  C43  1  0.48787000  0.51968000  0.90170000  1.0
  C  C44  1  0.52710000  0.44783000  0.85787000  1.0
  C  C45  1  0.52632000  0.44498000  0.77793000  1.0
  C  C46  1  0.48894000  0.51193000  0.73849000  1.0
  C  C47  1  0.44927000  0.58295000  0.78351000  1.0
  C  C48  1  0.12827000  0.50997000  0.50192000  1.0
  C  C49  1  0.87180000  0.48988000  0.49787000  1.0
  C  C50  1  0.06176000  0.58269000  0.50982000  1.0
  C  C51  1  0.93832000  0.41714000  0.48998000  1.0
  C  C52  1  0.93489000  0.56979000  0.50728000  1.0
  C  C53  1  0.06521000  0.43004000  0.49247000  1.0
  C  C54  1  0.11744000  0.67204000  0.52117000  1.0
  C  C55  1  0.88261000  0.32779000  0.47864000  1.0
  Br  Br56  1  0.72253000  0.72695000  0.62315000  1.0
  Br  Br57  1  0.27782000  0.27306000  0.37660000  1.0
  Br  Br58  1  0.61284000  0.32306000  0.25915000  1.0
  Br  Br59  1  0.38758000  0.67725000  0.74098000  1.0
  N  N60  1  0.53222000  0.72133000  0.51476000  1.0
  N  N61  1  0.53938000  0.98505000  0.52023000  1.0
  N  N62  1  0.46040000  0.01494000  0.47985000  1.0
  N  N63  1  0.46782000  0.27867000  0.48520000  1.0
  N  N64  1  0.51676000  0.46913000  0.01652000  1.0
  N  N65  1  0.48325000  0.53093000  0.98348000  1.0
  O  O66  1  0.49393000  0.43187000  0.38257000  1.0
  O  O67  1  0.50647000  0.57400000  0.38106000  1.0
  O  O68  1  0.32611000  0.58232000  0.49764000  1.0
  O  O69  1  0.31101000  0.44186000  0.50718000  1.0
  O  O70  1  0.50627000  0.56829000  0.61743000  1.0
  O  O71  1  0.49345000  0.42616000  0.61894000  1.0
  O  O72  1  0.67394000  0.41759000  0.50239000  1.0
  O  O73  1  0.68905000  0.55799000  0.49262000  1.0
