# generated using pymatgen
data_CdFeH30C31N4O5
_symmetry_space_group_name_H-M   'P 1'
_cell_length_a   11.73740000
_cell_length_b   12.04470000
_cell_length_c   13.61140000
_cell_angle_alpha   68.55990000
_cell_angle_beta   77.14330000
_cell_angle_gamma   62.28760000
_symmetry_Int_Tables_number   1
_chemical_formula_structural   CdFeH30C31N4O5
_chemical_formula_sum   'Cd2 Fe2 H60 C62 N8 O10'
_cell_volume   1582.44983774
_cell_formula_units_Z   2
loop_
 _symmetry_equiv_pos_site_id
 _symmetry_equiv_pos_as_xyz
  1  'x, y, z'
loop_
 _atom_site_type_symbol
 _atom_site_label
 _atom_site_symmetry_multiplicity
 _atom_site_fract_x
 _atom_site_fract_y
 _atom_site_fract_z
 _atom_site_occupancy
  Cd  Cd0  1  0.87512000  0.64508000  0.62364000  1.0
  Cd  Cd1  1  0.12488000  0.35492000  0.37635000  1.0
  Fe  Fe2  1  0.11067000  0.87082000  0.25474000  1.0
  Fe  Fe3  1  0.88932000  0.12918000  0.74526000  1.0
  H  H4  1  0.29702000  0.64353000  0.37889000  1.0
  H  H5  1  0.70298000  0.35647000  0.62111000  1.0
  H  H6  1  0.37039000  0.82759000  0.23389000  1.0
  H  H7  1  0.62961000  0.17241000  0.76611000  1.0
  H  H8  1  0.18146000  0.06867000  0.23723000  1.0
  H  H9  1  0.81854000  0.93133000  0.76277000  1.0
  H  H10  1  0.99624000  0.03274000  0.38580000  1.0
  H  H11  1  0.00376000  0.96727000  0.61420000  1.0
  H  H12  1  0.76540000  0.22736000  0.91561000  1.0
  H  H13  1  0.23460000  0.77265000  0.08439000  1.0
  H  H14  1  0.90525000  0.96240000  0.95487000  1.0
  H  H15  1  0.09475000  0.03760000  0.04513000  1.0
  H  H16  1  0.12179000  0.92114000  0.82571000  1.0
  H  H17  1  0.87821000  0.07886000  0.17429000  1.0
  H  H18  1  0.11815000  0.16000000  0.70777000  1.0
  H  H19  1  0.88185000  0.84000000  0.29223000  1.0
  H  H20  1  0.69022000  0.94092000  0.66052000  1.0
  H  H21  1  0.30978000  0.05909000  0.33948000  1.0
  H  H22  1  0.61570000  0.59965000  0.59337000  1.0
  H  H23  1  0.38430000  0.40035000  0.40663000  1.0
  H  H24  1  0.39359000  0.65304000  0.55293000  1.0
  H  H25  1  0.60642000  0.34695000  0.44707000  1.0
  H  H26  1  0.21300000  0.86852000  0.55172000  1.0
  H  H27  1  0.78701000  0.13147000  0.44828000  1.0
  H  H28  1  0.23987000  0.03559000  0.59534000  1.0
  H  H29  1  0.76013000  0.96440000  0.40466000  1.0
  H  H30  1  0.34536000  0.16990000  0.61380000  1.0
  H  H31  1  0.65464000  0.83010000  0.38620000  1.0
  H  H32  1  0.49317000  0.15546000  0.63926000  1.0
  H  H33  1  0.50683000  0.84454000  0.36073000  1.0
  H  H34  1  0.31845000  0.04030000  0.80422000  1.0
  H  H35  1  0.68154000  0.95970000  0.19577000  1.0
  H  H36  1  0.46842000  0.02300000  0.82892000  1.0
  H  H37  1  0.53157000  0.97700000  0.17107000  1.0
  H  H38  1  0.23508000  0.28853000  0.75436000  1.0
  H  H39  1  0.76491000  0.71147000  0.24564000  1.0
  H  H40  1  0.38318000  0.26733000  0.78567000  1.0
  H  H41  1  0.61682000  0.73267000  0.21433000  1.0
  H  H42  1  0.19241000  0.16593000  0.93818000  1.0
  H  H43  1  0.80759000  0.83407000  0.06183000  1.0
  H  H44  1  0.34363000  0.13192000  0.97456000  1.0
  H  H45  1  0.65637000  0.86808000  0.02544000  1.0
  H  H46  1  0.27934000  0.37126000  0.93764000  1.0
  H  H47  1  0.72066000  0.62874000  0.06237000  1.0
  H  H48  1  0.13540000  0.41122000  0.88603000  1.0
  H  H49  1  0.86460000  0.58879000  0.11397000  1.0
  H  H50  1  0.27053000  0.34106000  0.13211000  1.0
  H  H51  1  0.72946000  0.65894000  0.86789000  1.0
  H  H52  1  0.94913000  0.33966000  0.93937000  1.0
  H  H53  1  0.05087000  0.66034000  0.06063000  1.0
  H  H54  1  0.73954000  0.35007000  0.03356000  1.0
  H  H55  1  0.26046000  0.64992000  0.96645000  1.0
  H  H56  1  0.69302000  0.34529000  0.22187000  1.0
  H  H57  1  0.30698000  0.65471000  0.77813000  1.0
  H  H58  1  0.85316000  0.33955000  0.32014000  1.0
  H  H59  1  0.14684000  0.66045000  0.67986000  1.0
  H  H60  1  0.84312000  0.53310000  0.48116000  1.0
  H  H61  1  0.15688000  0.46690000  0.51883000  1.0
  H  H62  1  0.90541000  0.62515000  0.41055000  1.0
  H  H63  1  0.09460000  0.37485000  0.58945000  1.0
  C  C64  1  0.04600000  0.75047000  0.49126000  1.0
  C  C65  1  0.95400000  0.24952000  0.50874000  1.0
  C  C66  1  0.12300000  0.81611000  0.41303000  1.0
  C  C67  1  0.87699000  0.18389000  0.58698000  1.0
  C  C68  1  0.24607000  0.74946000  0.36318000  1.0
  C  C69  1  0.75392000  0.25055000  0.63683000  1.0
  C  C70  1  0.28391000  0.84680000  0.28682000  1.0
  C  C71  1  0.71609000  0.15320000  0.71318000  1.0
  C  C72  1  0.18453000  0.97419000  0.28886000  1.0
  C  C73  1  0.81546000  0.02581000  0.71114000  1.0
  C  C74  1  0.08516000  0.95579000  0.36644000  1.0
  C  C75  1  0.91484000  0.04421000  0.63357000  1.0
  C  C76  1  0.93015000  0.24239000  0.79892000  1.0
  C  C77  1  0.06986000  0.75761000  0.20108000  1.0
  C  C78  1  0.85929000  0.17743000  0.87947000  1.0
  C  C79  1  0.14071000  0.82257000  0.12054000  1.0
  C  C80  1  0.93281000  0.03858000  0.89947000  1.0
  C  C81  1  0.06719000  0.96143000  0.10053000  1.0
  C  C82  1  0.04876000  0.01635000  0.83166000  1.0
  C  C83  1  0.95124000  0.98365000  0.16834000  1.0
  C  C84  1  0.04719000  0.14163000  0.76976000  1.0
  C  C85  1  0.95281000  0.85837000  0.23024000  1.0
  C  C86  1  0.88818000  0.38650000  0.74988000  1.0
  C  C87  1  0.11182000  0.61350000  0.25011000  1.0
  C  C88  1  0.62583000  0.90579000  0.64870000  1.0
  C  C89  1  0.37416000  0.09422000  0.35130000  1.0
  C  C90  1  0.55120000  0.78848000  0.61734000  1.0
  C  C91  1  0.44881000  0.21152000  0.38265000  1.0
  C  C92  1  0.53414000  0.69287000  0.59487000  1.0
  C  C93  1  0.46587000  0.30712000  0.40513000  1.0
  C  C94  1  0.41071000  0.72370000  0.57279000  1.0
  C  C95  1  0.58929000  0.27630000  0.42720000  1.0
  C  C96  1  0.30685000  0.84596000  0.57360000  1.0
  C  C97  1  0.69316000  0.15404000  0.42640000  1.0
  C  C98  1  0.32119000  0.94061000  0.59898000  1.0
  C  C99  1  0.67881000  0.05938000  0.40101000  1.0
  C  C100  1  0.44505000  0.90941000  0.62116000  1.0
  C  C101  1  0.55495000  0.09059000  0.37883000  1.0
  C  C102  1  0.42750000  0.10704000  0.66410000  1.0
  C  C103  1  0.57250000  0.89296000  0.33589000  1.0
  C  C104  1  0.38368000  0.08943000  0.78123000  1.0
  C  C105  1  0.61631000  0.91057000  0.21877000  1.0
  C  C106  1  0.31608000  0.22044000  0.80561000  1.0
  C  C107  1  0.68391000  0.77956000  0.19439000  1.0
  C  C108  1  0.26561000  0.20450000  0.92129000  1.0
  C  C109  1  0.73439000  0.79550000  0.07870000  1.0
  C  C110  1  0.20600000  0.33600000  0.94446000  1.0
  C  C111  1  0.79400000  0.66400000  0.05555000  1.0
  C  C112  1  0.18071000  0.33443000  0.13449000  1.0
  C  C113  1  0.81929000  0.66558000  0.86551000  1.0
  C  C114  1  0.01905000  0.33148000  0.07867000  1.0
  C  C115  1  0.98094000  0.66852000  0.92133000  1.0
  C  C116  1  0.92991000  0.33749000  0.02184000  1.0
  C  C117  1  0.07008000  0.66250000  0.97817000  1.0
  C  C118  1  0.81243000  0.34331000  0.07572000  1.0
  C  C119  1  0.18756000  0.65669000  0.92428000  1.0
  C  C120  1  0.78573000  0.34180000  0.18243000  1.0
  C  C121  1  0.21426000  0.65820000  0.81757000  1.0
  C  C122  1  0.87479000  0.33639000  0.23883000  1.0
  C  C123  1  0.12521000  0.66361000  0.76117000  1.0
  C  C124  1  0.99273000  0.33220000  0.18542000  1.0
  C  C125  1  0.00727000  0.66780000  0.81458000  1.0
  N  N126  1  0.66249000  0.79036000  0.63458000  1.0
  N  N127  1  0.33751000  0.20964000  0.36542000  1.0
  N  N128  1  0.49663000  0.98097000  0.64239000  1.0
  N  N129  1  0.50337000  0.01903000  0.35761000  1.0
  N  N130  1  0.14026000  0.33145000  0.04922000  1.0
  N  N131  1  0.85974000  0.66855000  0.95078000  1.0
  N  N132  1  0.09635000  0.33386000  0.21749000  1.0
  N  N133  1  0.90364000  0.66614000  0.78251000  1.0
  O  O134  1  0.92949000  0.82123000  0.51601000  1.0
  O  O135  1  0.07052000  0.17876000  0.48400000  1.0
  O  O136  1  0.09953000  0.62542000  0.53191000  1.0
  O  O137  1  0.90047000  0.37459000  0.46809000  1.0
  O  O138  1  0.97223000  0.42175000  0.68259000  1.0
  O  O139  1  0.02778000  0.57825000  0.31741000  1.0
  O  O140  1  0.77960000  0.46660000  0.77482000  1.0
  O  O141  1  0.22040000  0.53340000  0.22517000  1.0
  O  O142  1  0.83536000  0.62307000  0.46722000  1.0
  O  O143  1  0.16465000  0.37692000  0.53278000  1.0
