# generated using pymatgen
data_CuH7C8N5O3
_symmetry_space_group_name_H-M   'P 1'
_cell_length_a   7.50378000
_cell_length_b   10.09240000
_cell_length_c   12.88780000
_cell_angle_alpha   90.00000000
_cell_angle_beta   90.00000000
_cell_angle_gamma   97.86290000
_symmetry_Int_Tables_number   1
_chemical_formula_structural   CuH7C8N5O3
_chemical_formula_sum   'Cu4 H28 C32 N20 O12'
_cell_volume   966.83172647
_cell_formula_units_Z   4
loop_
 _symmetry_equiv_pos_site_id
 _symmetry_equiv_pos_as_xyz
  1  'x, y, z'
loop_
 _atom_site_type_symbol
 _atom_site_label
 _atom_site_symmetry_multiplicity
 _atom_site_fract_x
 _atom_site_fract_y
 _atom_site_fract_z
 _atom_site_occupancy
  Cu  Cu0  1  0.79855000  0.36702000  0.44751000  1.0
  Cu  Cu1  1  0.20145000  0.13298000  0.94751000  1.0
  Cu  Cu2  1  0.20145000  0.63298000  0.55249000  1.0
  Cu  Cu3  1  0.79855000  0.86702000  0.05249000  1.0
  H  H4  1  0.05947000  0.95830000  0.60866000  1.0
  H  H5  1  0.94053000  0.54170000  0.10866000  1.0
  H  H6  1  0.94053000  0.04170000  0.39134000  1.0
  H  H7  1  0.05947000  0.45830000  0.89134000  1.0
  H  H8  1  0.64575000  0.19453000  0.63076000  1.0
  H  H9  1  0.35425000  0.30547000  0.13076000  1.0
  H  H10  1  0.35425000  0.80547000  0.36924000  1.0
  H  H11  1  0.64575000  0.69454000  0.86924000  1.0
  H  H12  1  0.35440000  0.05239000  0.66563000  1.0
  H  H13  1  0.64560000  0.44761000  0.16563000  1.0
  H  H14  1  0.64560000  0.94761000  0.33437000  1.0
  H  H15  1  0.35440000  0.55239000  0.83437000  1.0
  H  H16  1  0.19194000  0.14395000  0.35403000  1.0
  H  H17  1  0.80806000  0.35604000  0.85403000  1.0
  H  H18  1  0.80806000  0.85605000  0.64597000  1.0
  H  H19  1  0.19194000  0.64395000  0.14597000  1.0
  H  H20  1  0.48647000  0.28351000  0.33315000  1.0
  H  H21  1  0.51353000  0.21649000  0.83315000  1.0
  H  H22  1  0.51353000  0.71649000  0.66685000  1.0
  H  H23  1  0.48647000  0.78351000  0.16685000  1.0
  H  H24  1  0.56894000  0.54988000  0.35364000  1.0
  H  H25  1  0.43106000  0.95012000  0.85364000  1.0
  H  H26  1  0.43106000  0.45012000  0.64636000  1.0
  H  H27  1  0.56894000  0.04988000  0.14636000  1.0
  H  H28  1  0.77981000  0.60433000  0.34105000  1.0
  H  H29  1  0.22019000  0.89567000  0.84105000  1.0
  H  H30  1  0.22019000  0.39566000  0.65895000  1.0
  H  H31  1  0.77981000  0.10434000  0.15895000  1.0
  C  C32  1  0.94942000  0.28083000  0.26144000  1.0
  C  C33  1  0.05058000  0.21916000  0.76143000  1.0
  C  C34  1  0.05058000  0.71917000  0.73857000  1.0
  C  C35  1  0.94942000  0.78084000  0.23857000  1.0
  C  C36  1  0.08402000  0.38792000  0.30571000  1.0
  C  C37  1  0.91599000  0.11208000  0.80571000  1.0
  C  C38  1  0.91599000  0.61208000  0.69429000  1.0
  C  C39  1  0.08401000  0.88792000  0.19429000  1.0
  C  C40  1  0.07027000  0.00817000  0.53335000  1.0
  C  C41  1  0.92974000  0.49182000  0.03335000  1.0
  C  C42  1  0.92973000  0.99183000  0.46665000  1.0
  C  C43  1  0.07027000  0.50817000  0.96665000  1.0
  C  C44  1  0.53957000  0.18320000  0.57256000  1.0
  C  C45  1  0.46043000  0.31680000  0.07256000  1.0
  C  C46  1  0.46043000  0.81680000  0.42744000  1.0
  C  C47  1  0.53957000  0.68320000  0.92744000  1.0
  C  C48  1  0.37664000  0.10324000  0.59100000  1.0
  C  C49  1  0.62336000  0.39676000  0.09100000  1.0
  C  C50  1  0.62336000  0.89676000  0.40900000  1.0
  C  C51  1  0.37664000  0.60324000  0.90900000  1.0
  C  C52  1  0.24271000  0.08897000  0.51374000  1.0
  C  C53  1  0.75729000  0.41103000  0.01374000  1.0
  C  C54  1  0.75729000  0.91103000  0.48626000  1.0
  C  C55  1  0.24271000  0.58897000  0.98626000  1.0
  C  C56  1  0.28502000  0.15468000  0.41890000  1.0
  C  C57  1  0.71498000  0.34532000  0.91890000  1.0
  C  C58  1  0.71498000  0.84533000  0.58110000  1.0
  C  C59  1  0.28502000  0.65468000  0.08110000  1.0
  C  C60  1  0.44976000  0.23232000  0.40586000  1.0
  C  C61  1  0.55024000  0.26768000  0.90586000  1.0
  C  C62  1  0.55024000  0.76768000  0.59414000  1.0
  C  C63  1  0.44976000  0.73232000  0.09414000  1.0
  N  N64  1  0.04579000  0.43863000  0.39821000  1.0
  N  N65  1  0.95421000  0.06137000  0.89821000  1.0
  N  N66  1  0.95421000  0.56137000  0.60179000  1.0
  N  N67  1  0.04579000  0.93863000  0.10180000  1.0
  N  N68  1  0.18792000  0.52664000  0.42245000  1.0
  N  N69  1  0.81208000  0.97336000  0.92245000  1.0
  N  N70  1  0.81209000  0.47336000  0.57755000  1.0
  N  N71  1  0.18792000  0.02664000  0.07755000  1.0
  N  N72  1  0.31013000  0.52872000  0.34755000  1.0
  N  N73  1  0.68987000  0.97128000  0.84755000  1.0
  N  N74  1  0.68986000  0.47128000  0.65245000  1.0
  N  N75  1  0.31013000  0.02872000  0.15245000  1.0
  N  N76  1  0.24725000  0.44230000  0.27305000  1.0
  N  N77  1  0.75276000  0.05770000  0.77305000  1.0
  N  N78  1  0.75276000  0.55770000  0.72695000  1.0
  N  N79  1  0.24724000  0.94230000  0.22695000  1.0
  N  N80  1  0.57440000  0.24830000  0.48200000  1.0
  N  N81  1  0.42560000  0.25170000  0.98200000  1.0
  N  N82  1  0.42560000  0.75170000  0.51800000  1.0
  N  N83  1  0.57439000  0.74830000  0.01800000  1.0
  O  O84  1  0.81104000  0.25022000  0.32088000  1.0
  O  O85  1  0.18896000  0.24978000  0.82088000  1.0
  O  O86  1  0.18896000  0.74978000  0.67912000  1.0
  O  O87  1  0.81104000  0.75022000  0.17912000  1.0
  O  O88  1  0.97349000  0.22550000  0.17688000  1.0
  O  O89  1  0.02651000  0.27450000  0.67688000  1.0
  O  O90  1  0.02651000  0.77450000  0.82312000  1.0
  O  O91  1  0.97349000  0.72550000  0.32312000  1.0
  O  O92  1  0.69006000  0.52289000  0.34929000  1.0
  O  O93  1  0.30994000  0.97712000  0.84929000  1.0
  O  O94  1  0.30994000  0.47711000  0.65071000  1.0
  O  O95  1  0.69006000  0.02289000  0.15071000  1.0
