# generated using pymatgen
data_Gd2H22C20N2O15
_symmetry_space_group_name_H-M   'P 1'
_cell_length_a   9.48813000
_cell_length_b   10.98540000
_cell_length_c   12.42050000
_cell_angle_alpha   89.99970000
_cell_angle_beta   68.98000000
_cell_angle_gamma   89.99980000
_symmetry_Int_Tables_number   1
_chemical_formula_structural   Gd2H22C20N2O15
_chemical_formula_sum   'Gd4 H44 C40 N4 O30'
_cell_volume   1208.45113861
_cell_formula_units_Z   2
loop_
 _symmetry_equiv_pos_site_id
 _symmetry_equiv_pos_as_xyz
  1  'x, y, z'
loop_
 _atom_site_type_symbol
 _atom_site_label
 _atom_site_symmetry_multiplicity
 _atom_site_fract_x
 _atom_site_fract_y
 _atom_site_fract_z
 _atom_site_occupancy
  Gd  Gd0  1  0.70331000  0.96189000  0.61634000  1.0
  Gd  Gd1  1  0.20331000  0.03811000  0.61634000  1.0
  Gd  Gd2  1  0.30668000  0.51647000  0.38587000  1.0
  Gd  Gd3  1  0.80668000  0.48353000  0.38587000  1.0
  H  H4  1  0.92957000  0.18043000  0.96070000  1.0
  H  H5  1  0.42957000  0.81957000  0.96070000  1.0
  H  H6  1  0.53920000  0.00987000  0.92993000  1.0
  H  H7  1  0.03920000  0.99014000  0.92993000  1.0
  H  H8  1  0.75700000  0.28091000  0.14474000  1.0
  H  H9  1  0.25700000  0.71909000  0.14474000  1.0
  H  H10  1  0.38041000  0.12033000  0.11152000  1.0
  H  H11  1  0.88041000  0.87967000  0.11152000  1.0
  H  H12  1  0.52762000  0.75317000  0.33199000  1.0
  H  H13  1  0.02761000  0.24683000  0.33199000  1.0
  H  H14  1  0.64581000  0.95507000  0.25412000  1.0
  H  H15  1  0.14582000  0.04493000  0.25411000  1.0
  H  H16  1  0.46508000  0.02488000  0.31061000  1.0
  H  H17  1  0.96508000  0.97512000  0.31061000  1.0
  H  H18  1  0.50242000  0.91185000  0.20023000  1.0
  H  H19  1  0.00242000  0.08816000  0.20023000  1.0
  H  H20  1  0.55117000  0.47841000  0.65813000  1.0
  H  H21  1  0.05118000  0.52158000  0.65813000  1.0
  H  H22  1  0.02560000  0.85235000  0.49441000  1.0
  H  H23  1  0.52561000  0.14765000  0.49441000  1.0
  H  H24  1  0.89366000  0.75076000  0.51313000  1.0
  H  H25  1  0.39366000  0.24924000  0.51313000  1.0
  H  H26  1  0.55123000  0.20876000  0.74790000  1.0
  H  H27  1  0.05123000  0.79124000  0.74790000  1.0
  H  H28  1  0.70844000  0.23980000  0.64900000  1.0
  H  H29  1  0.20844000  0.76020000  0.64900000  1.0
  H  H30  1  0.43172000  0.60083000  0.84020000  1.0
  H  H31  1  0.93172000  0.39917000  0.84020000  1.0
  H  H32  1  0.29410000  0.53714000  0.79005000  1.0
  H  H33  1  0.79409000  0.46286000  0.79005000  1.0
  H  H34  1  0.34262000  0.69506000  0.76789000  1.0
  H  H35  1  0.84263000  0.30494000  0.76789000  1.0
  H  H36  1  0.28846000  0.25324000  0.35907000  1.0
  H  H37  1  0.78845000  0.74676000  0.35907000  1.0
  H  H38  1  0.43793000  0.27761000  0.24414000  1.0
  H  H39  1  0.93793000  0.72239000  0.24414000  1.0
  H  H40  1  0.46054000  0.46743000  0.07145000  1.0
  H  H41  1  0.96054000  0.53257000  0.07145000  1.0
  H  H42  1  0.05609000  0.32464000  0.03949000  1.0
  H  H43  1  0.55609000  0.67536000  0.03948000  1.0
  H  H44  1  0.21832000  0.23105000  0.84918000  1.0
  H  H45  1  0.71832000  0.76895000  0.84918000  1.0
  H  H46  1  0.60773000  0.36056000  0.88568000  1.0
  H  H47  1  0.10773000  0.63944000  0.88568000  1.0
  C  C48  1  0.84322000  0.02610000  0.82187000  1.0
  C  C49  1  0.34321000  0.97391000  0.82187000  1.0
  C  C50  1  0.74598000  0.08593000  0.93368000  1.0
  C  C51  1  0.24598000  0.91407000  0.93368000  1.0
  C  C52  1  0.80844000  0.16347000  0.99410000  1.0
  C  C53  1  0.30844000  0.83653000  0.99410000  1.0
  C  C54  1  0.58987000  0.06798000  0.97709000  1.0
  C  C55  1  0.08987000  0.93202000  0.97709000  1.0
  C  C56  1  0.71361000  0.21973000  0.09462000  1.0
  C  C57  1  0.21361000  0.78027000  0.09462000  1.0
  C  C58  1  0.50327000  0.12951000  0.07672000  1.0
  C  C59  1  0.00327000  0.87049000  0.07672000  1.0
  C  C60  1  0.52466000  0.87073000  0.46844000  1.0
  C  C61  1  0.02466000  0.12927000  0.46843000  1.0
  C  C62  1  0.30157000  0.82004000  0.40661000  1.0
  C  C63  1  0.80156000  0.17996000  0.40661000  1.0
  C  C64  1  0.47161000  0.83848000  0.36992000  1.0
  C  C65  1  0.97161000  0.16152000  0.36992000  1.0
  C  C66  1  0.64724000  0.65594000  0.62418000  1.0
  C  C67  1  0.14724000  0.34405000  0.62418000  1.0
  C  C68  1  0.52418000  0.93926000  0.27779000  1.0
  C  C69  1  0.02419000  0.06074000  0.27779000  1.0
  C  C70  1  0.50847000  0.57144000  0.65616000  1.0
  C  C71  1  0.00847000  0.42856000  0.65616000  1.0
  C  C72  1  0.45265000  0.57305000  0.55541000  1.0
  C  C73  1  0.95265000  0.42695000  0.55541000  1.0
  C  C74  1  0.38652000  0.60333000  0.77049000  1.0
  C  C75  1  0.88652000  0.39667000  0.77049000  1.0
  C  C76  1  0.15707000  0.45916000  0.18350000  1.0
  C  C77  1  0.65707000  0.54084000  0.18350000  1.0
  C  C78  1  0.24748000  0.40339000  0.06867000  1.0
  C  C79  1  0.74748000  0.59661000  0.06868000  1.0
  C  C80  1  0.40426000  0.41572000  0.02387000  1.0
  C  C81  1  0.90426000  0.58428000  0.02387000  1.0
  C  C82  1  0.17827000  0.33596000  0.00585000  1.0
  C  C83  1  0.67827000  0.66404000  0.00585000  1.0
  C  C84  1  0.26752000  0.28353000  0.90139000  1.0
  C  C85  1  0.76752000  0.71647000  0.90139000  1.0
  C  C86  1  0.48483000  0.35725000  0.92078000  1.0
  C  C87  1  0.98483000  0.64275000  0.92078000  1.0
  N  N88  1  0.56292000  0.20410000  0.13477000  1.0
  N  N89  1  0.06292000  0.79590000  0.13477000  1.0
  N  N90  1  0.41918000  0.29223000  0.86002000  1.0
  N  N91  1  0.91918000  0.70777000  0.86002000  1.0
  O  O92  1  0.77877000  0.95616000  0.77244000  1.0
  O  O93  1  0.27877000  0.04384000  0.77243000  1.0
  O  O94  1  0.98242000  0.04958000  0.78641000  1.0
  O  O95  1  0.48242000  0.95042000  0.78641000  1.0
  O  O96  1  0.44100000  0.92649000  0.55864000  1.0
  O  O97  1  0.94100000  0.07351000  0.55864000  1.0
  O  O98  1  0.66026000  0.84390000  0.45559000  1.0
  O  O99  1  0.16026000  0.15610000  0.45559000  1.0
  O  O100  1  0.21336000  0.90535000  0.46003000  1.0
  O  O101  1  0.71336000  0.09464000  0.46002000  1.0
  O  O102  1  0.25345000  0.72109000  0.37972000  1.0
  O  O103  1  0.75345000  0.27891000  0.37972000  1.0
  O  O104  1  0.76469000  0.62287000  0.53947000  1.0
  O  O105  1  0.26470000  0.37713000  0.53946000  1.0
  O  O106  1  0.53552000  0.52291000  0.45960000  1.0
  O  O107  1  0.03552000  0.47710000  0.45960000  1.0
  O  O108  1  0.63700000  0.75239000  0.68059000  1.0
  O  O109  1  0.13701000  0.24761000  0.68059000  1.0
  O  O110  1  0.22431000  0.52972000  0.22971000  1.0
  O  O111  1  0.72431000  0.47028000  0.22971000  1.0
  O  O112  1  0.32743000  0.62101000  0.56470000  1.0
  O  O113  1  0.82743000  0.37900000  0.56470000  1.0
  O  O114  1  0.01789000  0.43120000  0.22577000  1.0
  O  O115  1  0.51788000  0.56879000  0.22577000  1.0
  O  O116  1  0.91589000  0.83849000  0.51439000  1.0
  O  O117  1  0.41589000  0.16151000  0.51439000  1.0
  O  O118  1  0.64451000  0.17152000  0.68946000  1.0
  O  O119  1  0.14451000  0.82848000  0.68946000  1.0
  O  O120  1  0.35072000  0.31848000  0.30823000  1.0
  O  O121  1  0.85072000  0.68152000  0.30823000  1.0
