# generated using pymatgen
data_FeH24Pd(C19N3)2
_symmetry_space_group_name_H-M   'P 1'
_cell_length_a   7.26779000
_cell_length_b   14.08160000
_cell_length_c   16.08020000
_cell_angle_alpha   101.76700000
_cell_angle_beta   95.39960000
_cell_angle_gamma   90.00560000
_symmetry_Int_Tables_number   1
_chemical_formula_structural   FeH24Pd(C19N3)2
_chemical_formula_sum   'Fe2 H48 Pd2 C76 N12'
_cell_volume   1603.63447150
_cell_formula_units_Z   2
loop_
 _symmetry_equiv_pos_site_id
 _symmetry_equiv_pos_as_xyz
  1  'x, y, z'
loop_
 _atom_site_type_symbol
 _atom_site_label
 _atom_site_symmetry_multiplicity
 _atom_site_fract_x
 _atom_site_fract_y
 _atom_site_fract_z
 _atom_site_occupancy
  Fe  Fe0  1  0.50104000  0.99992000  0.50095000  1.0
  Fe  Fe1  1  0.49896000  0.49874000  0.48754000  1.0
  H  H2  1  0.55845000  0.99036000  0.68522000  1.0
  H  H3  1  0.44225000  0.01020000  0.31622000  1.0
  H  H4  1  0.56579000  0.09463000  0.82993000  1.0
  H  H5  1  0.43366000  0.90568000  0.17148000  1.0
  H  H6  1  0.48468000  0.34077000  0.70802000  1.0
  H  H7  1  0.51541000  0.65962000  0.29343000  1.0
  H  H8  1  0.48305000  0.22572000  0.56820000  1.0
  H  H9  1  0.51785000  0.77473000  0.43328000  1.0
  H  H10  1  0.77005000  0.52251000  0.36626000  1.0
  H  H11  1  0.23146000  0.47576000  0.63572000  1.0
  H  H12  1  0.78054000  0.49332000  0.20908000  1.0
  H  H13  1  0.22076000  0.50606000  0.79438000  1.0
  H  H14  1  0.20527000  0.40327000  0.18218000  1.0
  H  H15  1  0.79371000  0.59888000  0.82091000  1.0
  H  H16  1  0.21651000  0.44010000  0.34076000  1.0
  H  H17  1  0.78083000  0.56337000  0.66086000  1.0
  H  H18  1  0.47268000  0.20385000  0.32240000  1.0
  H  H19  1  0.52732000  0.79626000  0.67767000  1.0
  H  H20  1  0.19154000  0.11140000  0.24979000  1.0
  H  H21  1  0.80831000  0.88871000  0.75035000  1.0
  H  H22  1  0.16150000  0.05101000  0.09272000  1.0
  H  H23  1  0.83824000  0.94906000  0.90745000  1.0
  H  H24  1  0.41078000  0.08455000  0.00605000  1.0
  H  H25  1  0.58885000  0.91540000  0.99402000  1.0
  H  H26  1  0.78397000  0.27060000  0.31492000  1.0
  H  H27  1  0.21607000  0.72915000  0.68498000  1.0
  H  H28  1  0.03948000  0.29679000  0.23056000  1.0
  H  H29  1  0.96052000  0.70299000  0.76943000  1.0
  H  H30  1  0.00525000  0.24347000  0.07196000  1.0
  H  H31  1  0.99456000  0.75648000  0.92797000  1.0
  H  H32  1  0.71893000  0.15755000  0.99829000  1.0
  H  H33  1  0.28087000  0.84234000  0.00172000  1.0
  H  H34  1  0.11730000  0.15454000  0.95066000  1.0
  H  H35  1  0.88248000  0.84552000  0.04946000  1.0
  H  H36  1  0.16513000  0.98535000  0.87517000  1.0
  H  H37  1  0.83460000  0.01471000  0.12495000  1.0
  H  H38  1  0.12509000  0.94157000  0.71658000  1.0
  H  H39  1  0.87462000  0.05850000  0.28354000  1.0
  H  H40  1  0.03678000  0.06604000  0.63220000  1.0
  H  H41  1  0.96298000  0.93404000  0.36795000  1.0
  H  H42  1  0.96316000  0.23657000  0.62691000  1.0
  H  H43  1  0.03655000  0.76355000  0.37322000  1.0
  H  H44  1  0.91389000  0.40490000  0.70082000  1.0
  H  H45  1  0.08568000  0.59526000  0.29944000  1.0
  H  H46  1  0.94816000  0.44927000  0.86089000  1.0
  H  H47  1  0.05110000  0.55074000  0.13929000  1.0
  H  H48  1  0.03574000  0.32500000  0.94508000  1.0
  H  H49  1  0.96385000  0.67501000  0.05509000  1.0
  Pd  Pd50  1  0.99547000  0.24525000  0.46576000  1.0
  Pd  Pd51  1  0.00628000  0.75402000  0.53322000  1.0
  C  C52  1  0.54325000  0.06847000  0.69317000  1.0
  C  C53  1  0.45723000  0.93209000  0.30836000  1.0
  C  C54  1  0.54727000  0.12688000  0.77376000  1.0
  C  C55  1  0.45254000  0.87360000  0.22777000  1.0
  C  C56  1  0.52378000  0.22757000  0.78136000  1.0
  C  C57  1  0.47597000  0.77290000  0.22026000  1.0
  C  C58  1  0.50163000  0.26364000  0.70562000  1.0
  C  C59  1  0.49851000  0.73682000  0.29599000  1.0
  C  C60  1  0.50019000  0.19962000  0.62772000  1.0
  C  C61  1  0.50050000  0.80090000  0.37383000  1.0
  C  C62  1  0.51985000  0.28832000  0.86233000  1.0
  C  C63  1  0.47957000  0.71193000  0.13944000  1.0
  C  C64  1  0.51188000  0.33580000  0.93486000  1.0
  C  C65  1  0.48795000  0.66384000  0.06721000  1.0
  C  C66  1  0.79960000  0.14691000  0.45839000  1.0
  C  C67  1  0.20251000  0.85271000  0.54308000  1.0
  C  C68  1  0.19730000  0.34195000  0.47384000  1.0
  C  C69  1  0.80319000  0.65684000  0.51914000  1.0
  C  C70  1  0.80746000  0.34814000  0.48032000  1.0
  C  C71  1  0.19244000  0.65089000  0.51083000  1.0
  C  C72  1  0.17628000  0.14094000  0.45483000  1.0
  C  C73  1  0.82564000  0.85849000  0.54739000  1.0
  C  C74  1  0.64828000  0.49646000  0.32301000  1.0
  C  C75  1  0.35262000  0.50286000  0.67939000  1.0
  C  C76  1  0.65312000  0.47954000  0.23549000  1.0
  C  C77  1  0.34700000  0.51984000  0.76717000  1.0
  C  C78  1  0.49382000  0.44339000  0.18137000  1.0
  C  C79  1  0.50669000  0.55643000  0.82075000  1.0
  C  C80  1  0.33273000  0.43070000  0.22067000  1.0
  C  C81  1  0.66738000  0.57087000  0.78184000  1.0
  C  C82  1  0.33779000  0.45077000  0.30868000  1.0
  C  C83  1  0.66067000  0.55139000  0.69353000  1.0
  C  C84  1  0.49726000  0.41557000  0.09258000  1.0
  C  C85  1  0.50365000  0.58366000  0.90975000  1.0
  C  C86  1  0.50301000  0.38112000  0.01638000  1.0
  C  C87  1  0.49729000  0.61820000  0.98584000  1.0
  C  C88  1  0.45844000  0.17788000  0.25326000  1.0
  C  C89  1  0.54151000  0.82211000  0.74682000  1.0
  C  C90  1  0.30230000  0.12658000  0.21285000  1.0
  C  C91  1  0.69757000  0.87345000  0.78728000  1.0
  C  C92  1  0.28549000  0.09217000  0.12324000  1.0
  C  C93  1  0.71437000  0.90782000  0.87689000  1.0
  C  C94  1  0.42392000  0.11050000  0.07515000  1.0
  C  C95  1  0.57591000  0.88940000  0.92492000  1.0
  C  C96  1  0.60482000  0.19643000  0.20575000  1.0
  C  C97  1  0.39514000  0.80340000  0.79426000  1.0
  C  C98  1  0.76995000  0.24585000  0.24572000  1.0
  C  C99  1  0.23012000  0.75389000  0.75422000  1.0
  C  C100  1  0.91130000  0.26149000  0.19839000  1.0
  C  C101  1  0.08871000  0.73832000  0.80157000  1.0
  C  C102  1  0.89247000  0.23019000  0.10858000  1.0
  C  C103  1  0.10743000  0.76968000  0.89138000  1.0
  C  C104  1  0.73362000  0.18189000  0.06757000  1.0
  C  C105  1  0.26624000  0.81796000  0.93243000  1.0
  C  C106  1  0.58687000  0.16284000  0.11469000  1.0
  C  C107  1  0.41303000  0.83700000  0.88533000  1.0
  C  C108  1  0.04807000  0.20820000  0.83469000  1.0
  C  C109  1  0.95157000  0.79187000  0.16546000  1.0
  C  C110  1  0.09819000  0.13496000  0.88109000  1.0
  C  C111  1  0.90157000  0.86511000  0.11905000  1.0
  C  C112  1  0.12474000  0.04099000  0.83913000  1.0
  C  C113  1  0.87503000  0.95908000  0.16100000  1.0
  C  C114  1  0.10187000  0.01588000  0.74883000  1.0
  C  C115  1  0.89785000  0.98418000  0.25130000  1.0
  C  C116  1  0.05374000  0.08521000  0.70176000  1.0
  C  C117  1  0.94596000  0.91487000  0.29837000  1.0
  C  C118  1  0.02667000  0.18268000  0.74304000  1.0
  C  C119  1  0.97294000  0.81739000  0.25707000  1.0
  C  C120  1  0.97940000  0.25605000  0.69657000  1.0
  C  C121  1  0.02015000  0.74404000  0.30355000  1.0
  C  C122  1  0.95281000  0.35008000  0.73801000  1.0
  C  C123  1  0.04658000  0.64998000  0.26218000  1.0
  C  C124  1  0.97209000  0.37504000  0.82830000  1.0
  C  C125  1  0.02723000  0.62497000  0.17190000  1.0
  C  C126  1  0.01960000  0.30566000  0.87547000  1.0
  C  C127  1  0.97990000  0.69437000  0.12471000  1.0
  N  N128  1  0.51893000  0.10313000  0.62085000  1.0
  N  N129  1  0.48211000  0.89740000  0.38065000  1.0
  N  N130  1  0.68625000  0.08749000  0.45712000  1.0
  N  N131  1  0.31578000  0.91231000  0.54480000  1.0
  N  N132  1  0.31633000  0.39935000  0.47801000  1.0
  N  N133  1  0.68240000  0.59905000  0.50681000  1.0
  N  N134  1  0.69052000  0.40568000  0.48600000  1.0
  N  N135  1  0.30732000  0.59297000  0.49714000  1.0
  N  N136  1  0.49356000  0.48189000  0.36034000  1.0
  N  N137  1  0.50614000  0.51877000  0.64345000  1.0
  N  N138  1  0.28428000  0.07924000  0.45449000  1.0
  N  N139  1  0.71741000  0.92011000  0.54773000  1.0
