# generated using pymatgen
data_NaH18C7S2NO3
_symmetry_space_group_name_H-M   'P 1'
_cell_length_a   5.66126000
_cell_length_b   14.62300000
_cell_length_c   15.71000000
_cell_angle_alpha   102.40900000
_cell_angle_beta   89.99810000
_cell_angle_gamma   90.00000000
_symmetry_Int_Tables_number   1
_chemical_formula_structural   NaH18C7S2NO3
_chemical_formula_sum   'Na4 H72 C28 S8 N4 O12'
_cell_volume   1270.16348123
_cell_formula_units_Z   4
loop_
 _symmetry_equiv_pos_site_id
 _symmetry_equiv_pos_as_xyz
  1  'x, y, z'
loop_
 _atom_site_type_symbol
 _atom_site_label
 _atom_site_symmetry_multiplicity
 _atom_site_fract_x
 _atom_site_fract_y
 _atom_site_fract_z
 _atom_site_occupancy
  Na  Na0  1  0.26783000  0.45749000  0.44801000  1.0
  Na  Na1  1  0.76781000  0.04250000  0.55199000  1.0
  Na  Na2  1  0.73220000  0.54250000  0.55199000  1.0
  Na  Na3  1  0.23221000  0.95749000  0.44802000  1.0
  H  H4  1  0.12304000  0.53392000  0.64284000  1.0
  H  H5  1  0.62306000  0.96606000  0.35716000  1.0
  H  H6  1  0.87700000  0.46607000  0.35715000  1.0
  H  H7  1  0.37698000  0.03393000  0.64284000  1.0
  H  H8  1  0.54819000  0.34241000  0.54056000  1.0
  H  H9  1  0.04818000  0.15758000  0.45944000  1.0
  H  H10  1  0.45184000  0.65758000  0.45944000  1.0
  H  H11  1  0.95182000  0.84241000  0.54056000  1.0
  H  H12  1  0.71402000  0.34985000  0.46290000  1.0
  H  H13  1  0.21401000  0.15014000  0.53711000  1.0
  H  H14  1  0.28600000  0.65014000  0.53710000  1.0
  H  H15  1  0.78600000  0.84985000  0.46289000  1.0
  H  H16  1  0.21458000  0.40865000  0.27415000  1.0
  H  H17  1  0.71455000  0.09133000  0.72584000  1.0
  H  H18  1  0.78544000  0.59133000  0.72585000  1.0
  H  H19  1  0.28546000  0.90866000  0.27416000  1.0
  H  H20  1  0.49428000  0.41107000  0.27487000  1.0
  H  H21  1  0.99426000  0.08893000  0.72513000  1.0
  H  H22  1  0.50573000  0.58892000  0.72512000  1.0
  H  H23  1  0.00575000  0.91107000  0.27487000  1.0
  H  H24  1  0.42999000  0.40133000  0.67536000  1.0
  H  H25  1  0.93001000  0.09865000  0.32463000  1.0
  H  H26  1  0.57006000  0.59865000  0.32462000  1.0
  H  H27  1  0.06997000  0.90134000  0.67536000  1.0
  H  H28  1  0.22962000  0.45784000  0.75561000  1.0
  H  H29  1  0.72965000  0.04214000  0.24438000  1.0
  H  H30  1  0.77044000  0.54215000  0.24438000  1.0
  H  H31  1  0.27031000  0.95785000  0.75561000  1.0
  H  H32  1  0.08182000  0.33578000  0.57926000  1.0
  H  H33  1  0.58184000  0.16420000  0.42075000  1.0
  H  H34  1  0.91820000  0.66421000  0.42074000  1.0
  H  H35  1  0.41818000  0.83579000  0.57927000  1.0
  H  H36  1  0.88710000  0.39961000  0.65962000  1.0
  H  H37  1  0.38714000  0.10037000  0.34038000  1.0
  H  H38  1  0.11292000  0.60038000  0.34038000  1.0
  H  H39  1  0.61287000  0.89962000  0.65964000  1.0
  H  H40  1  0.03851000  0.25700000  0.82757000  1.0
  H  H41  1  0.53851000  0.24299000  0.17245000  1.0
  H  H42  1  0.96153000  0.74301000  0.17244000  1.0
  H  H43  1  0.46139000  0.75700000  0.82757000  1.0
  H  H44  1  0.94676000  0.36953000  0.81461000  1.0
  H  H45  1  0.44676000  0.13045000  0.18540000  1.0
  H  H46  1  0.05327000  0.63046000  0.18538000  1.0
  H  H47  1  0.55316000  0.86954000  0.81460000  1.0
  H  H48  1  0.42818000  0.33633000  0.89144000  1.0
  H  H49  1  0.92818000  0.16365000  0.10856000  1.0
  H  H50  1  0.57186000  0.66368000  0.10855000  1.0
  H  H51  1  0.07177000  0.83635000  0.89146000  1.0
  H  H52  1  0.28365000  0.44507000  0.89917000  1.0
  H  H53  1  0.78358000  0.05492000  0.10081000  1.0
  H  H54  1  0.71639000  0.55493000  0.10081000  1.0
  H  H55  1  0.21628000  0.94509000  0.89918000  1.0
  H  H56  1  0.12687000  0.28599000  0.98581000  1.0
  H  H57  1  0.62685000  0.21404000  0.01421000  1.0
  H  H58  1  0.87317000  0.71402000  0.01418000  1.0
  H  H59  1  0.37308000  0.78600000  0.98581000  1.0
  H  H60  1  0.96776000  0.39100000  0.99341000  1.0
  H  H61  1  0.46775000  0.10903000  0.00659000  1.0
  H  H62  1  0.03229000  0.60901000  0.00657000  1.0
  H  H63  1  0.53223000  0.89101000  0.99340000  1.0
  H  H64  1  0.22735000  0.39617000  0.12498000  1.0
  H  H65  1  0.72739000  0.10389000  0.87503000  1.0
  H  H66  1  0.77262000  0.60384000  0.87501000  1.0
  H  H67  1  0.27268000  0.89619000  0.12499000  1.0
  H  H68  1  0.31106000  0.48381000  0.06815000  1.0
  H  H69  1  0.81105000  0.01624000  0.93184000  1.0
  H  H70  1  0.68895000  0.51621000  0.93185000  1.0
  H  H71  1  0.18893000  0.98382000  0.06816000  1.0
  H  H72  1  0.48127000  0.38011000  0.05707000  1.0
  H  H73  1  0.98128000  0.11993000  0.94294000  1.0
  H  H74  1  0.51875000  0.61990000  0.94294000  1.0
  H  H75  1  0.01874000  0.88012000  0.05710000  1.0
  C  C76  1  0.35689000  0.23464000  0.70567000  1.0
  C  C77  1  0.85692000  0.26534000  0.29433000  1.0
  C  C78  1  0.64313000  0.76535000  0.29432000  1.0
  C  C79  1  0.14304000  0.73465000  0.70567000  1.0
  C  C80  1  0.25246000  0.39667000  0.70183000  1.0
  C  C81  1  0.75247000  0.10331000  0.29817000  1.0
  C  C82  1  0.74757000  0.60332000  0.29816000  1.0
  C  C83  1  0.24749000  0.89668000  0.70183000  1.0
  C  C84  1  0.06620000  0.39837000  0.63195000  1.0
  C  C85  1  0.56623000  0.10161000  0.36806000  1.0
  C  C86  1  0.93380000  0.60162000  0.36806000  1.0
  C  C87  1  0.43377000  0.89838000  0.63195000  1.0
  C  C88  1  0.10162000  0.32587000  0.82062000  1.0
  C  C89  1  0.60161000  0.17412000  0.17939000  1.0
  C  C90  1  0.89841000  0.67413000  0.17938000  1.0
  C  C91  1  0.39829000  0.82588000  0.82062000  1.0
  C  C92  1  0.25373000  0.37059000  0.89912000  1.0
  C  C93  1  0.75371000  0.12941000  0.10088000  1.0
  C  C94  1  0.74629000  0.62941000  0.10086000  1.0
  C  C95  1  0.24620000  0.87061000  0.89913000  1.0
  C  C96  1  0.14734000  0.36100000  0.98604000  1.0
  C  C97  1  0.64733000  0.13903000  0.01397000  1.0
  C  C98  1  0.85270000  0.63901000  0.01395000  1.0
  C  C99  1  0.35262000  0.86101000  0.98605000  1.0
  C  C100  1  0.29959000  0.40776000  0.06335000  1.0
  C  C101  1  0.79960000  0.09229000  0.93665000  1.0
  C  C102  1  0.70043000  0.59226000  0.93664000  1.0
  C  C103  1  0.20040000  0.90777000  0.06337000  1.0
  S  S104  1  0.35573000  0.14479000  0.76129000  1.0
  S  S105  1  0.85577000  0.35519000  0.23870000  1.0
  S  S106  1  0.64429000  0.85520000  0.23871000  1.0
  S  S107  1  0.14420000  0.64479000  0.76129000  1.0
  S  S108  1  0.51513000  0.22450000  0.61050000  1.0
  S  S109  1  0.01517000  0.27548000  0.38948000  1.0
  S  S110  1  0.48486000  0.77548000  0.38949000  1.0
  S  S111  1  0.98483000  0.72451000  0.61050000  1.0
  N  N112  1  0.23520000  0.31351000  0.73882000  1.0
  N  N113  1  0.73522000  0.18647000  0.26118000  1.0
  N  N114  1  0.76482000  0.68648000  0.26117000  1.0
  N  N115  1  0.26471000  0.81352000  0.73883000  1.0
  O  O116  1  0.10284000  0.47828000  0.59362000  1.0
  O  O117  1  0.60288000  0.02170000  0.40638000  1.0
  O  O118  1  0.89717000  0.52172000  0.40637000  1.0
  O  O119  1  0.39715000  0.97828000  0.59363000  1.0
  O  O120  1  0.58786000  0.38433000  0.50056000  1.0
  O  O121  1  0.08784000  0.11566000  0.49944000  1.0
  O  O122  1  0.41217000  0.61566000  0.49943000  1.0
  O  O123  1  0.91215000  0.88433000  0.50056000  1.0
  O  O124  1  0.35273000  0.44562000  0.30077000  1.0
  O  O125  1  0.85272000  0.05437000  0.69923000  1.0
  O  O126  1  0.64728000  0.55437000  0.69922000  1.0
  O  O127  1  0.14730000  0.94562000  0.30078000  1.0
