# generated using pymatgen
data_CuH20C16(N4Cl)2
_symmetry_space_group_name_H-M   'P 1'
_cell_length_a   7.25063000
_cell_length_b   11.47350000
_cell_length_c   12.73040000
_cell_angle_alpha   109.94600000
_cell_angle_beta   89.99990000
_cell_angle_gamma   90.00000000
_symmetry_Int_Tables_number   1
_chemical_formula_structural   CuH20C16(N4Cl)2
_chemical_formula_sum   'Cu2 H40 C32 N16 Cl4'
_cell_volume   995.51610249
_cell_formula_units_Z   2
loop_
 _symmetry_equiv_pos_site_id
 _symmetry_equiv_pos_as_xyz
  1  'x, y, z'
loop_
 _atom_site_type_symbol
 _atom_site_label
 _atom_site_symmetry_multiplicity
 _atom_site_fract_x
 _atom_site_fract_y
 _atom_site_fract_z
 _atom_site_occupancy
  Cu  Cu0  1  0.25392000  0.82861000  0.41673000  1.0
  Cu  Cu1  1  0.75392000  0.17139000  0.58327000  1.0
  H  H2  1  0.18666000  0.93916000  0.61492000  1.0
  H  H3  1  0.68666000  0.06084000  0.38508000  1.0
  H  H4  1  0.98389000  0.89283000  0.55551000  1.0
  H  H5  1  0.48389000  0.10717000  0.44449000  1.0
  H  H6  1  0.52328000  0.83492000  0.29035000  1.0
  H  H7  1  0.02329000  0.16508000  0.70965000  1.0
  H  H8  1  0.32076000  0.84100000  0.23047000  1.0
  H  H9  1  0.82077000  0.15899000  0.76953000  1.0
  H  H10  1  0.99138000  0.63292000  0.45445000  1.0
  H  H11  1  0.49137000  0.36707000  0.54555000  1.0
  H  H12  1  0.83105000  0.70417000  0.56370000  1.0
  H  H13  1  0.33105000  0.29583000  0.43631000  1.0
  H  H14  1  0.97730000  0.58383000  0.57320000  1.0
  H  H15  1  0.47729000  0.41617000  0.42680000  1.0
  H  H16  1  0.25385000  0.71617000  0.58689000  1.0
  H  H17  1  0.75386000  0.28383000  0.41311000  1.0
  H  H18  1  0.90802000  0.95504000  0.74487000  1.0
  H  H19  1  0.40803000  0.04496000  0.25513000  1.0
  H  H20  1  0.88418000  0.02337000  0.95171000  1.0
  H  H21  1  0.38420000  0.97664000  0.04829000  1.0
  H  H22  1  0.23304000  0.72057000  0.95367000  1.0
  H  H23  1  0.73305000  0.27946000  0.04635000  1.0
  H  H24  1  0.27122000  0.65970000  0.74804000  1.0
  H  H25  1  0.77123000  0.34031000  0.25198000  1.0
  H  H26  1  0.54858000  0.49626000  0.20486000  1.0
  H  H27  1  0.04859000  0.50374000  0.79514000  1.0
  H  H28  1  0.48370000  0.60030000  0.33912000  1.0
  H  H29  1  0.98371000  0.39970000  0.66088000  1.0
  H  H30  1  0.67791000  0.63410000  0.26947000  1.0
  H  H31  1  0.17792000  0.36589000  0.73053000  1.0
  H  H32  1  0.27398000  0.62254000  0.19394000  1.0
  H  H33  1  0.77398000  0.37746000  0.80606000  1.0
  H  H34  1  0.62695000  0.82053000  0.12418000  1.0
  H  H35  1  0.12693000  0.17946000  0.87581000  1.0
  H  H36  1  0.71580000  0.79003000  0.92948000  1.0
  H  H37  1  0.21578000  0.20995000  0.07051000  1.0
  H  H38  1  0.44809000  0.43399000  0.81812000  1.0
  H  H39  1  0.94807000  0.56600000  0.18188000  1.0
  H  H40  1  0.34793000  0.46671000  0.01275000  1.0
  H  H41  1  0.84791000  0.53328000  0.98725000  1.0
  C  C42  1  0.97021000  0.66425000  0.54521000  1.0
  C  C43  1  0.47020000  0.33575000  0.45480000  1.0
  C  C44  1  0.11674000  0.75961000  0.60562000  1.0
  C  C45  1  0.61673000  0.24039000  0.39438000  1.0
  C  C46  1  0.09378000  0.80327000  0.73173000  1.0
  C  C47  1  0.59378000  0.19673000  0.26828000  1.0
  C  C48  1  0.98406000  0.90516000  0.79022000  1.0
  C  C49  1  0.48406000  0.09485000  0.20978000  1.0
  C  C50  1  0.96764000  0.94324000  0.90624000  1.0
  C  C51  1  0.46765000  0.05677000  0.09376000  1.0
  C  C52  1  0.05766000  0.87630000  0.96416000  1.0
  C  C53  1  0.55767000  0.12372000  0.03585000  1.0
  C  C54  1  0.16473000  0.77282000  0.90780000  1.0
  C  C55  1  0.66476000  0.22719000  0.09222000  1.0
  C  C56  1  0.18367000  0.73851000  0.79217000  1.0
  C  C57  1  0.68367000  0.26150000  0.20784000  1.0
  C  C58  1  0.53856000  0.59427000  0.25715000  1.0
  C  C59  1  0.03857000  0.40572000  0.74285000  1.0
  C  C60  1  0.41317000  0.66248000  0.20076000  1.0
  C  C61  1  0.91317000  0.33752000  0.79924000  1.0
  C  C62  1  0.47737000  0.64668000  0.08302000  1.0
  C  C63  1  0.97736000  0.35332000  0.91697000  1.0
  C  C64  1  0.58342000  0.73601000  0.05824000  1.0
  C  C65  1  0.08341000  0.26398000  0.94175000  1.0
  C  C66  1  0.63645000  0.71928000  0.94854000  1.0
  C  C67  1  0.13644000  0.28071000  0.05145000  1.0
  C  C68  1  0.58530000  0.61106000  0.86308000  1.0
  C  C69  1  0.08529000  0.38892000  0.13691000  1.0
  C  C70  1  0.48351000  0.51904000  0.88572000  1.0
  C  C71  1  0.98351000  0.48096000  0.11428000  1.0
  C  C72  1  0.42972000  0.53792000  0.99542000  1.0
  C  C73  1  0.92971000  0.46208000  0.00457000  1.0
  N  N74  1  0.11715000  0.86373000  0.56139000  1.0
  N  N75  1  0.61715000  0.13627000  0.43862000  1.0
  N  N76  1  0.39437000  0.79432000  0.27229000  1.0
  N  N77  1  0.89438000  0.20568000  0.72770000  1.0
  N  N78  1  0.48857000  0.81921000  0.50112000  1.0
  N  N79  1  0.98859000  0.18078000  0.49887000  1.0
  N  N80  1  0.02400000  0.76241000  0.32389000  1.0
  N  N81  1  0.52400000  0.23760000  0.67611000  1.0
  N  N82  1  0.60382000  0.89554000  0.53975000  1.0
  N  N83  1  0.10384000  0.10446000  0.46024000  1.0
  N  N84  1  0.72391000  0.96680000  0.57981000  1.0
  N  N85  1  0.22393000  0.03320000  0.42018000  1.0
  N  N86  1  0.90289000  0.83040000  0.31783000  1.0
  N  N87  1  0.40289000  0.16961000  0.68217000  1.0
  N  N88  1  0.78090000  0.89363000  0.30819000  1.0
  N  N89  1  0.28090000  0.10637000  0.69180000  1.0
  Cl  Cl90  1  0.03022000  0.92132000  0.10821000  1.0
  Cl  Cl91  1  0.53023000  0.07872000  0.89180000  1.0
  Cl  Cl92  1  0.64717000  0.59138000  0.72628000  1.0
  Cl  Cl93  1  0.14717000  0.40860000  0.27370000  1.0
