# generated using pymatgen
data_AlH9C27(BrO)6
_symmetry_space_group_name_H-M   'P 1'
_cell_length_a   4.04788000
_cell_length_b   16.03893240
_cell_length_c   16.20340000
_cell_angle_alpha   60.33437918
_cell_angle_beta   89.51760000
_cell_angle_gamma   89.04760594
_symmetry_Int_Tables_number   1
_chemical_formula_structural   AlH9C27(BrO)6
_chemical_formula_sum   'Al1 H9 C27 Br6 O6'
_cell_volume   913.97295154
_cell_formula_units_Z   1
loop_
 _symmetry_equiv_pos_site_id
 _symmetry_equiv_pos_as_xyz
  1  'x, y, z'
loop_
 _atom_site_type_symbol
 _atom_site_label
 _atom_site_symmetry_multiplicity
 _atom_site_fract_x
 _atom_site_fract_y
 _atom_site_fract_z
 _atom_site_occupancy
  Al  Al0  1  0.00006000  0.50116000  0.99777000  1.0
  H  H1  1  0.49999000  0.92043000  0.15921000  1.0
  H  H2  1  0.52822000  0.92198000  0.42340000  1.0
  H  H3  1  0.47169000  0.65467000  0.42341000  1.0
  H  H4  1  0.26362000  0.84324000  0.10491000  1.0
  H  H5  1  0.72601000  0.59861000  0.34342000  1.0
  H  H6  1  0.73625000  0.05192000  0.10489000  1.0
  H  H7  1  0.27385000  0.05803000  0.34345000  1.0
  H  H8  1  0.23768000  0.84072000  0.55463000  1.0
  H  H9  1  0.76247000  0.60480000  0.55461000  1.0
  C  C10  1  0.50353000  0.35314000  0.07276000  1.0
  C  C11  1  0.50011000  0.57450000  0.85119000  1.0
  C  C12  1  0.49647000  0.57416000  0.07279000  1.0
  C  C13  1  0.50379000  0.93392000  0.28491000  1.0
  C  C14  1  0.49996000  0.88179000  0.23650000  1.0
  C  C15  1  0.49614000  0.78123000  0.28493000  1.0
  C  C16  1  0.49141000  0.73257000  0.38448000  1.0
  C  C17  1  0.49993000  0.78248000  0.43508000  1.0
  C  C18  1  0.50851000  0.88303000  0.38448000  1.0
  C  C19  1  0.37866000  0.72185000  0.08835000  1.0
  C  C20  1  0.37126000  0.77130000  0.13871000  1.0
  C  C21  1  0.49461000  0.72828000  0.23168000  1.0
  C  C22  1  0.61924000  0.63398000  0.27249000  1.0
  C  C23  1  0.61438000  0.58458000  0.22201000  1.0
  C  C24  1  0.49713000  0.62701000  0.12841000  1.0
  C  C25  1  0.62863000  0.09008000  0.13868000  1.0
  C  C26  1  0.62120000  0.18988000  0.08831000  1.0
  C  C27  1  0.50274000  0.24467000  0.12837000  1.0
  C  C28  1  0.38546000  0.19348000  0.22201000  1.0
  C  C29  1  0.38064000  0.09361000  0.27248000  1.0
  C  C30  1  0.50529000  0.04012000  0.23169000  1.0
  C  C31  1  0.35713000  0.77034000  0.59143000  1.0
  C  C32  1  0.35540000  0.72058000  0.69030000  1.0
  C  C33  1  0.50023000  0.62789000  0.74442000  1.0
  C  C34  1  0.64502000  0.58932000  0.69030000  1.0
  C  C35  1  0.64311000  0.63837000  0.59143000  1.0
  C  C36  1  0.50002000  0.73004000  0.54004000  1.0
  Br  Br37  1  0.77385000  0.45589000  0.28394000  1.0
  Br  Br38  1  0.21881000  0.78617000  0.96182000  1.0
  Br  Br39  1  0.78108000  0.25209000  0.96177000  1.0
  Br  Br40  1  0.22597000  0.26027000  0.28391000  1.0
  Br  Br41  1  0.15284000  0.79058000  0.74415000  1.0
  Br  Br42  1  0.84782000  0.46550000  0.74415000  1.0
  O  O43  1  0.73219000  0.59098000  0.01467000  1.0
  O  O44  1  0.73994000  0.39471000  0.08783000  1.0
  O  O45  1  0.73887000  0.51660000  0.89344000  1.0
  O  O46  1  0.26004000  0.51750000  0.08786000  1.0
  O  O47  1  0.26136000  0.59012000  0.89347000  1.0
  O  O48  1  0.26788000  0.39446000  0.01462000  1.0
