# generated using pymatgen
data_CuH11C12(NO3)2
_symmetry_space_group_name_H-M   'P 1'
_cell_length_a   8.60047000
_cell_length_b   13.21280000
_cell_length_c   15.25950000
_cell_angle_alpha   115.64500000
_cell_angle_beta   95.83170000
_cell_angle_gamma   90.00170000
_symmetry_Int_Tables_number   1
_chemical_formula_structural   CuH11C12(NO3)2
_chemical_formula_sum   'Cu4 H44 C48 N8 O24'
_cell_volume   1553.25502707
_cell_formula_units_Z   4
loop_
 _symmetry_equiv_pos_site_id
 _symmetry_equiv_pos_as_xyz
  1  'x, y, z'
loop_
 _atom_site_type_symbol
 _atom_site_label
 _atom_site_symmetry_multiplicity
 _atom_site_fract_x
 _atom_site_fract_y
 _atom_site_fract_z
 _atom_site_occupancy
  Cu  Cu0  1  0.46252000  0.99531000  0.57886000  1.0
  Cu  Cu1  1  0.03745000  0.41647000  0.42112000  1.0
  Cu  Cu2  1  0.53748000  0.00469000  0.42114000  1.0
  Cu  Cu3  1  0.96256000  0.58352000  0.57888000  1.0
  H  H4  1  0.05273000  0.86173000  0.28983000  1.0
  H  H5  1  0.44711000  0.57174000  0.71018000  1.0
  H  H6  1  0.94726000  0.13828000  0.71018000  1.0
  H  H7  1  0.55288000  0.42826000  0.28982000  1.0
  H  H8  1  0.97450000  0.96940000  0.38953000  1.0
  H  H9  1  0.52548000  0.57990000  0.61057000  1.0
  H  H10  1  0.02551000  0.03060000  0.61048000  1.0
  H  H11  1  0.47452000  0.42011000  0.38944000  1.0
  H  H12  1  0.17259000  0.13212000  0.89491000  1.0
  H  H13  1  0.32744000  0.23741000  0.10499000  1.0
  H  H14  1  0.82741000  0.86787000  0.10508000  1.0
  H  H15  1  0.67256000  0.76259000  0.89500000  1.0
  H  H16  1  0.21466000  0.74594000  0.41285000  1.0
  H  H17  1  0.28532000  0.33308000  0.58717000  1.0
  H  H18  1  0.78535000  0.25406000  0.58716000  1.0
  H  H19  1  0.71467000  0.66693000  0.41283000  1.0
  H  H20  1  0.09695000  0.66484000  0.30160000  1.0
  H  H21  1  0.40301000  0.36318000  0.69841000  1.0
  H  H22  1  0.90305000  0.33516000  0.69840000  1.0
  H  H23  1  0.59698000  0.63681000  0.30159000  1.0
  H  H24  1  0.98011000  0.85529000  0.48145000  1.0
  H  H25  1  0.51986000  0.37384000  0.51856000  1.0
  H  H26  1  0.01990000  0.14472000  0.51856000  1.0
  H  H27  1  0.48015000  0.62616000  0.48145000  1.0
  H  H28  1  0.86988000  0.78445000  0.36575000  1.0
  H  H29  1  0.63011000  0.41863000  0.63424000  1.0
  H  H30  1  0.13012000  0.21556000  0.63425000  1.0
  H  H31  1  0.36988000  0.58137000  0.36577000  1.0
  H  H32  1  0.32810000  0.14828000  0.76970000  1.0
  H  H33  1  0.17184000  0.37872000  0.23016000  1.0
  H  H34  1  0.67190000  0.85171000  0.23029000  1.0
  H  H35  1  0.82816000  0.62128000  0.76983000  1.0
  H  H36  1  0.37496000  0.80499000  0.63236000  1.0
  H  H37  1  0.12475000  0.17268000  0.36746000  1.0
  H  H38  1  0.62505000  0.19500000  0.36763000  1.0
  H  H39  1  0.87527000  0.82732000  0.63254000  1.0
  H  H40  1  0.22103000  0.77286000  0.74884000  1.0
  H  H41  1  0.27887000  0.02418000  0.25106000  1.0
  H  H42  1  0.77898000  0.22714000  0.25116000  1.0
  H  H43  1  0.72114000  0.97581000  0.74893000  1.0
  H  H44  1  0.08643000  0.84854000  0.89672000  1.0
  H  H45  1  0.41333000  0.95199000  0.10330000  1.0
  H  H46  1  0.91357000  0.15145000  0.10328000  1.0
  H  H47  1  0.58668000  0.04801000  0.89670000  1.0
  C  C48  1  0.05383000  0.63428000  0.42342000  1.0
  C  C49  1  0.44613000  0.21082000  0.57660000  1.0
  C  C50  1  0.94618000  0.36572000  0.57658000  1.0
  C  C51  1  0.55385000  0.78918000  0.42340000  1.0
  C  C52  1  0.05172000  0.89820000  0.36955000  1.0
  C  C53  1  0.44824000  0.52856000  0.63047000  1.0
  C  C54  1  0.94828000  0.10180000  0.63045000  1.0
  C  C55  1  0.55177000  0.47144000  0.36954000  1.0
  C  C56  1  0.21562000  0.05808000  0.83747000  1.0
  C  C57  1  0.28434000  0.22079000  0.16243000  1.0
  C  C58  1  0.78438000  0.94191000  0.16253000  1.0
  C  C59  1  0.71567000  0.77921000  0.83757000  1.0
  C  C60  1  0.21641000  0.94389000  0.41774000  1.0
  C  C61  1  0.28357000  0.52608000  0.58224000  1.0
  C  C62  1  0.78358000  0.05612000  0.58226000  1.0
  C  C63  1  0.71643000  0.47392000  0.41776000  1.0
  C  C64  1  0.09388000  0.71406000  0.38051000  1.0
  C  C65  1  0.40608000  0.33349000  0.61950000  1.0
  C  C66  1  0.90612000  0.28594000  0.61949000  1.0
  C  C67  1  0.59390000  0.66651000  0.38050000  1.0
  C  C68  1  0.98878000  0.81339000  0.40257000  1.0
  C  C69  1  0.51119000  0.41079000  0.59744000  1.0
  C  C70  1  0.01122000  0.18661000  0.59744000  1.0
  C  C71  1  0.48880000  0.58921000  0.40256000  1.0
  C  C72  1  0.30249000  0.06716000  0.76922000  1.0
  C  C73  1  0.19744000  0.29808000  0.23066000  1.0
  C  C74  1  0.69751000  0.93283000  0.23077000  1.0
  C  C75  1  0.80257000  0.70192000  0.76934000  1.0
  C  C76  1  0.32878000  0.87523000  0.69203000  1.0
  C  C77  1  0.17106000  0.18333000  0.30786000  1.0
  C  C78  1  0.67122000  0.12476000  0.30797000  1.0
  C  C79  1  0.82894000  0.81667000  0.69214000  1.0
  C  C80  1  0.24305000  0.85808000  0.75745000  1.0
  C  C81  1  0.25683000  0.10079000  0.24245000  1.0
  C  C82  1  0.75695000  0.14192000  0.24255000  1.0
  C  C83  1  0.74317000  0.89920000  0.75754000  1.0
  C  C84  1  0.18525000  0.95109000  0.83249000  1.0
  C  C85  1  0.31466000  0.11878000  0.16743000  1.0
  C  C86  1  0.81475000  0.04891000  0.16751000  1.0
  C  C87  1  0.68535000  0.88122000  0.83257000  1.0
  C  C88  1  0.09863000  0.93399000  0.90253000  1.0
  C  C89  1  0.40131000  0.03161000  0.09746000  1.0
  C  C90  1  0.90137000  0.06600000  0.09746000  1.0
  C  C91  1  0.59869000  0.96839000  0.90254000  1.0
  C  C92  1  0.66300000  0.27446000  0.83032000  1.0
  C  C93  1  0.83684000  0.44448000  0.16985000  1.0
  C  C94  1  0.33698000  0.72554000  0.16969000  1.0
  C  C95  1  0.16314000  0.55553000  0.83014000  1.0
  N  N96  1  0.35998000  0.97779000  0.69787000  1.0
  N  N97  1  0.13986000  0.28003000  0.30199000  1.0
  N  N98  1  0.64003000  0.02221000  0.30214000  1.0
  N  N99  1  0.86015000  0.71997000  0.69801000  1.0
  N  N100  1  0.03786000  0.01711000  0.97025000  1.0
  N  N101  1  0.46219000  0.04690000  0.02971000  1.0
  N  N102  1  0.96213000  0.98289000  0.02975000  1.0
  N  N103  1  0.53783000  0.95310000  0.97030000  1.0
  O  O104  1  0.01028000  0.67649000  0.50891000  1.0
  O  O105  1  0.48983000  0.16761000  0.49115000  1.0
  O  O106  1  0.98976000  0.32351000  0.49110000  1.0
  O  O107  1  0.51016000  0.83240000  0.50884000  1.0
  O  O108  1  0.24649000  0.96069000  0.50641000  1.0
  O  O109  1  0.25350000  0.45424000  0.49356000  1.0
  O  O110  1  0.75352000  0.03932000  0.49359000  1.0
  O  O111  1  0.74651000  0.54577000  0.50643000  1.0
  O  O112  1  0.07231000  0.53025000  0.37059000  1.0
  O  O113  1  0.42752000  0.15958000  0.62940000  1.0
  O  O114  1  0.92766000  0.46974000  0.62940000  1.0
  O  O115  1  0.57247000  0.84042000  0.37060000  1.0
  O  O116  1  0.31214000  0.95984000  0.36577000  1.0
  O  O117  1  0.18783000  0.59397000  0.63422000  1.0
  O  O118  1  0.68785000  0.04015000  0.63422000  1.0
  O  O119  1  0.81217000  0.40602000  0.36579000  1.0
  O  O120  1  0.67543000  0.34404000  0.80247000  1.0
  O  O121  1  0.82426000  0.54189000  0.19780000  1.0
  O  O122  1  0.32455000  0.65596000  0.19754000  1.0
  O  O123  1  0.17569000  0.45812000  0.80218000  1.0
  O  O124  1  0.65200000  0.20717000  0.86073000  1.0
  O  O125  1  0.84793000  0.34678000  0.13930000  1.0
  O  O126  1  0.34799000  0.79282000  0.13928000  1.0
  O  O127  1  0.15208000  0.65324000  0.86070000  1.0
