# generated using pymatgen
data_Cu3H8(C10N11)2
_symmetry_space_group_name_H-M   'P 1'
_cell_length_a   7.77127000
_cell_length_b   9.29285000
_cell_length_c   10.22880000
_cell_angle_alpha   84.77280000
_cell_angle_beta   87.70270000
_cell_angle_gamma   71.37000000
_symmetry_Int_Tables_number   1
_chemical_formula_structural   Cu3H8(C10N11)2
_chemical_formula_sum   'Cu3 H8 C20 N22'
_cell_volume   697.03078630
_cell_formula_units_Z   1
loop_
 _symmetry_equiv_pos_site_id
 _symmetry_equiv_pos_as_xyz
  1  'x, y, z'
loop_
 _atom_site_type_symbol
 _atom_site_label
 _atom_site_symmetry_multiplicity
 _atom_site_fract_x
 _atom_site_fract_y
 _atom_site_fract_z
 _atom_site_occupancy
  Cu  Cu0  1  0.00005000  0.99983000  0.50012000  1.0
  Cu  Cu1  1  0.32691000  0.27905000  0.07401000  1.0
  Cu  Cu2  1  0.67410000  0.72068000  0.92658000  1.0
  H  H3  1  0.64487000  0.74732000  0.31767000  1.0
  H  H4  1  0.35457000  0.25162000  0.68205000  1.0
  H  H5  1  0.62525000  0.97472000  0.15642000  1.0
  H  H6  1  0.37443000  0.02412000  0.84332000  1.0
  H  H7  1  0.10356000  0.19335000  0.29115000  1.0
  H  H8  1  0.89651000  0.80628000  0.70893000  1.0
  H  H9  1  0.36875000  0.76264000  0.46597000  1.0
  H  H10  1  0.63096000  0.23689000  0.53415000  1.0
  C  C11  1  0.52441000  0.84763000  0.31383000  1.0
  C  C12  1  0.47526000  0.15151000  0.68607000  1.0
  C  C13  1  0.51491000  0.97256000  0.22458000  1.0
  C  C14  1  0.48483000  0.02651000  0.77525000  1.0
  C  C15  1  0.22489000  0.09443000  0.29760000  1.0
  C  C16  1  0.77510000  0.90504000  0.70244000  1.0
  C  C17  1  0.70452000  0.18903000  0.95567000  1.0
  C  C18  1  0.29567000  0.81104000  0.04443000  1.0
  C  C19  1  0.00250000  0.30008000  0.59734000  1.0
  C  C20  1  0.99693000  0.70056000  0.40172000  1.0
  C  C21  1  0.37448000  0.85494000  0.39410000  1.0
  C  C22  1  0.62527000  0.14449000  0.60599000  1.0
  C  C23  1  0.32223000  0.53453000  0.85507000  1.0
  C  C24  1  0.67907000  0.46611000  0.14626000  1.0
  C  C25  1  0.92488000  0.49474000  0.73512000  1.0
  C  C26  1  0.07469000  0.50556000  0.26428000  1.0
  C  C27  1  0.26714000  0.76050000  0.72485000  1.0
  C  C28  1  0.73214000  0.23941000  0.27511000  1.0
  C  C29  1  0.99856000  0.19274000  0.94282000  1.0
  C  C30  1  0.00134000  0.80885000  0.05681000  1.0
  N  N31  1  0.36487000  0.09516000  0.21734000  1.0
  N  N32  1  0.63512000  0.90413000  0.78257000  1.0
  N  N33  1  0.56821000  0.17676000  0.00336000  1.0
  N  N34  1  0.43226000  0.82220000  0.99643000  1.0
  N  N35  1  0.30578000  0.45034000  0.94419000  1.0
  N  N36  1  0.69804000  0.55131000  0.05877000  1.0
  N  N37  1  0.98853000  0.20856000  0.52928000  1.0
  N  N38  1  0.01098000  0.79138000  0.47051000  1.0
  N  N39  1  0.22563000  0.97927000  0.38558000  1.0
  N  N40  1  0.77429000  0.02031000  0.61461000  1.0
  N  N41  1  0.84772000  0.19436000  0.89177000  1.0
  N  N42  1  0.15207000  0.80684000  0.10834000  1.0
  N  N43  1  0.34897000  0.61626000  0.75251000  1.0
  N  N44  1  0.65050000  0.38386000  0.24785000  1.0
  N  N45  1  0.03658000  0.39950000  0.66241000  1.0
  N  N46  1  0.96245000  0.60213000  0.33565000  1.0
  N  N47  1  0.83585000  0.58858000  0.80111000  1.0
  N  N48  1  0.16414000  0.41049000  0.19953000  1.0
  N  N49  1  0.20214000  0.89072000  0.68831000  1.0
  N  N50  1  0.79700000  0.10904000  0.31127000  1.0
  N  N51  1  0.14168000  0.19179000  0.97723000  1.0
  N  N52  1  0.85839000  0.81028000  0.02167000  1.0
