# generated using pymatgen
data_CuH10C7N8
_symmetry_space_group_name_H-M   'P 1'
_cell_length_a   7.45901000
_cell_length_b   7.47247000
_cell_length_c   20.74700000
_cell_angle_alpha   84.46030000
_cell_angle_beta   84.45030000
_cell_angle_gamma   67.99850000
_symmetry_Int_Tables_number   1
_chemical_formula_structural   CuH10C7N8
_chemical_formula_sum   'Cu4 H40 C28 N32'
_cell_volume   1064.85921143
_cell_formula_units_Z   4
loop_
 _symmetry_equiv_pos_site_id
 _symmetry_equiv_pos_as_xyz
  1  'x, y, z'
loop_
 _atom_site_type_symbol
 _atom_site_label
 _atom_site_symmetry_multiplicity
 _atom_site_fract_x
 _atom_site_fract_y
 _atom_site_fract_z
 _atom_site_occupancy
  Cu  Cu0  1  0.44505000  0.17405000  0.31836000  1.0
  Cu  Cu1  1  0.17446000  0.44505000  0.81845000  1.0
  Cu  Cu2  1  0.55497000  0.82594000  0.68164000  1.0
  Cu  Cu3  1  0.82554000  0.55496000  0.18156000  1.0
  H  H4  1  0.19275000  0.51764000  0.32460000  1.0
  H  H5  1  0.51828000  0.19227000  0.82443000  1.0
  H  H6  1  0.80726000  0.48235000  0.67540000  1.0
  H  H7  1  0.48172000  0.80777000  0.17558000  1.0
  H  H8  1  0.10511000  0.39450000  0.28409000  1.0
  H  H9  1  0.39394000  0.10568000  0.78404000  1.0
  H  H10  1  0.89490000  0.60548000  0.71590000  1.0
  H  H11  1  0.60607000  0.89435000  0.21596000  1.0
  H  H12  1  0.40758000  0.01051000  0.42910000  1.0
  H  H13  1  0.01036000  0.40766000  0.92918000  1.0
  H  H14  1  0.59241000  0.98948000  0.57089000  1.0
  H  H15  1  0.98964000  0.59234000  0.07082000  1.0
  H  H16  1  0.50644000  0.16955000  0.44011000  1.0
  H  H17  1  0.16987000  0.50612000  0.94019000  1.0
  H  H18  1  0.49356000  0.83043000  0.55989000  1.0
  H  H19  1  0.83012000  0.49388000  0.05982000  1.0
  H  H20  1  0.94386000  0.47489000  0.39617000  1.0
  H  H21  1  0.47508000  0.94441000  0.89609000  1.0
  H  H22  1  0.05614000  0.52511000  0.60382000  1.0
  H  H23  1  0.52492000  0.05560000  0.10391000  1.0
  H  H24  1  0.02661000  0.22914000  0.37743000  1.0
  H  H25  1  0.22883000  0.02731000  0.87746000  1.0
  H  H26  1  0.97339000  0.77087000  0.62256000  1.0
  H  H27  1  0.77118000  0.97270000  0.12254000  1.0
  H  H28  1  0.23693000  0.42090000  0.45032000  1.0
  H  H29  1  0.42151000  0.23682000  0.95029000  1.0
  H  H30  1  0.76307000  0.57910000  0.54968000  1.0
  H  H31  1  0.57848000  0.76318000  0.04972000  1.0
  H  H32  1  0.97697000  0.31240000  0.51426000  1.0
  H  H33  1  0.31238000  0.97765000  0.01422000  1.0
  H  H34  1  0.02301000  0.68760000  0.48573000  1.0
  H  H35  1  0.68761000  0.02235000  0.98577000  1.0
  H  H36  1  0.21479000  0.19244000  0.54141000  1.0
  H  H37  1  0.19259000  0.21509000  0.04140000  1.0
  H  H38  1  0.78519000  0.80755000  0.45858000  1.0
  H  H39  1  0.80740000  0.78490000  0.95860000  1.0
  H  H40  1  0.11667000  0.07381000  0.49233000  1.0
  H  H41  1  0.07345000  0.11745000  0.99234000  1.0
  H  H42  1  0.88332000  0.92618000  0.50767000  1.0
  H  H43  1  0.92656000  0.88254000  0.00766000  1.0
  C  C44  1  0.07402000  0.34795000  0.38456000  1.0
  C  C45  1  0.34799000  0.07445000  0.88454000  1.0
  C  C46  1  0.92598000  0.65205000  0.61543000  1.0
  C  C47  1  0.65202000  0.92556000  0.11546000  1.0
  C  C48  1  0.20919000  0.29239000  0.43982000  1.0
  C  C49  1  0.29263000  0.20940000  0.93980000  1.0
  C  C50  1  0.79081000  0.70760000  0.56018000  1.0
  C  C51  1  0.70737000  0.79061000  0.06020000  1.0
  C  C52  1  0.12427000  0.21379000  0.50062000  1.0
  C  C53  1  0.21378000  0.12476000  0.00061000  1.0
  C  C54  1  0.87572000  0.78621000  0.49937000  1.0
  C  C55  1  0.78622000  0.87523000  0.99938000  1.0
  C  C56  1  0.47640000  0.35198000  0.17765000  1.0
  C  C57  1  0.35270000  0.47580000  0.67768000  1.0
  C  C58  1  0.52360000  0.64802000  0.82235000  1.0
  C  C59  1  0.64729000  0.52420000  0.32232000  1.0
  C  C60  1  0.36401000  0.50285000  0.07914000  1.0
  C  C61  1  0.50345000  0.36341000  0.57913000  1.0
  C  C62  1  0.63598000  0.49715000  0.92086000  1.0
  C  C63  1  0.49652000  0.63658000  0.42087000  1.0
  C  C64  1  0.87844000  0.92165000  0.33193000  1.0
  C  C65  1  0.92294000  0.87802000  0.83196000  1.0
  C  C66  1  0.12156000  0.07833000  0.66807000  1.0
  C  C67  1  0.07707000  0.12200000  0.16805000  1.0
  C  C68  1  0.19207000  0.90061000  0.31964000  1.0
  C  C69  1  0.90110000  0.19163000  0.81967000  1.0
  C  C70  1  0.80793000  0.09938000  0.68036000  1.0
  C  C71  1  0.09892000  0.80839000  0.18033000  1.0
  N  N72  1  0.17879000  0.38617000  0.32421000  1.0
  N  N73  1  0.38627000  0.17894000  0.82416000  1.0
  N  N74  1  0.82122000  0.61381000  0.67579000  1.0
  N  N75  1  0.61373000  0.82108000  0.17584000  1.0
  N  N76  1  0.40006000  0.15052000  0.41680000  1.0
  N  N77  1  0.15065000  0.40005000  0.91685000  1.0
  N  N78  1  0.59994000  0.84947000  0.58319000  1.0
  N  N79  1  0.84935000  0.59996000  0.08315000  1.0
  N  N80  1  0.48821000  0.25728000  0.22709000  1.0
  N  N81  1  0.25773000  0.48787000  0.72712000  1.0
  N  N82  1  0.51180000  0.74271000  0.77290000  1.0
  N  N83  1  0.74226000  0.51216000  0.27288000  1.0
  N  N84  1  0.48736000  0.45089000  0.12402000  1.0
  N  N85  1  0.45197000  0.48642000  0.62406000  1.0
  N  N86  1  0.51264000  0.54910000  0.87598000  1.0
  N  N87  1  0.54802000  0.51358000  0.37595000  1.0
  N  N88  1  0.26136000  0.55886000  0.03561000  1.0
  N  N89  1  0.55921000  0.26095000  0.53558000  1.0
  N  N90  1  0.73862000  0.44114000  0.96439000  1.0
  N  N91  1  0.44077000  0.73904000  0.46442000  1.0
  N  N92  1  0.71196000  0.98536000  0.32314000  1.0
  N  N93  1  0.98636000  0.71173000  0.82327000  1.0
  N  N94  1  0.28805000  0.01462000  0.67687000  1.0
  N  N95  1  0.01367000  0.28827000  0.17673000  1.0
  N  N96  1  0.05833000  0.83739000  0.34480000  1.0
  N  N97  1  0.83861000  0.05757000  0.84483000  1.0
  N  N98  1  0.94167000  0.16260000  0.65521000  1.0
  N  N99  1  0.16141000  0.94245000  0.15518000  1.0
  N  N100  1  0.32306000  0.94653000  0.29947000  1.0
  N  N101  1  0.94600000  0.32314000  0.79959000  1.0
  N  N102  1  0.67694000  0.05346000  0.70052000  1.0
  N  N103  1  0.05401000  0.67688000  0.20041000  1.0
