# generated using pymatgen
data_ZnH23C32N5O4
_symmetry_space_group_name_H-M   'P 1'
_cell_length_a   9.80599000
_cell_length_b   10.08640000
_cell_length_c   14.97610000
_cell_angle_alpha   72.88940000
_cell_angle_beta   84.23010000
_cell_angle_gamma   63.62070000
_symmetry_Int_Tables_number   1
_chemical_formula_structural   ZnH23C32N5O4
_chemical_formula_sum   'Zn2 H46 C64 N10 O8'
_cell_volume   1267.48105500
_cell_formula_units_Z   2
loop_
 _symmetry_equiv_pos_site_id
 _symmetry_equiv_pos_as_xyz
  1  'x, y, z'
loop_
 _atom_site_type_symbol
 _atom_site_label
 _atom_site_symmetry_multiplicity
 _atom_site_fract_x
 _atom_site_fract_y
 _atom_site_fract_z
 _atom_site_occupancy
  Zn  Zn0  1  0.26842000  0.27337000  0.34639000  1.0
  Zn  Zn1  1  0.73157000  0.72663000  0.65362000  1.0
  H  H2  1  0.54452000  0.35277000  0.54249000  1.0
  H  H3  1  0.45548000  0.64723000  0.45751000  1.0
  H  H4  1  0.58511000  0.41829000  0.68220000  1.0
  H  H5  1  0.41490000  0.58171000  0.31781000  1.0
  H  H6  1  0.10982000  0.54925000  0.74564000  1.0
  H  H7  1  0.89018000  0.45075000  0.25436000  1.0
  H  H8  1  0.06960000  0.50096000  0.60111000  1.0
  H  H9  1  0.93040000  0.49903000  0.39889000  1.0
  H  H10  1  0.20039000  0.38507000  0.88773000  1.0
  H  H11  1  0.79961000  0.61493000  0.11227000  1.0
  H  H12  1  0.13055000  0.36451000  0.05222000  1.0
  H  H13  1  0.86945000  0.63549000  0.94778000  1.0
  H  H14  1  0.33134000  0.65993000  0.06613000  1.0
  H  H15  1  0.66866000  0.34006000  0.93387000  1.0
  H  H16  1  0.39600000  0.68771000  0.90004000  1.0
  H  H17  1  0.60401000  0.31228000  0.09996000  1.0
  H  H18  1  0.57473000  0.92719000  0.41699000  1.0
  H  H19  1  0.42526000  0.07281000  0.58300000  1.0
  H  H20  1  0.39282000  0.21503000  0.14818000  1.0
  H  H21  1  0.60717000  0.78498000  0.85182000  1.0
  H  H22  1  0.76987000  0.80458000  0.28562000  1.0
  H  H23  1  0.23012000  0.19542000  0.71439000  1.0
  H  H24  1  0.46108000  0.17542000  0.02116000  1.0
  H  H25  1  0.53892000  0.82458000  0.97884000  1.0
  H  H26  1  0.58013000  0.18039000  0.86949000  1.0
  H  H27  1  0.41988000  0.81961000  0.13051000  1.0
  H  H28  1  0.00570000  0.82171000  0.00504000  1.0
  H  H29  1  0.99430000  0.17829000  0.99496000  1.0
  H  H30  1  0.88954000  0.81984000  0.15815000  1.0
  H  H31  1  0.11046000  0.18016000  0.84185000  1.0
  H  H32  1  0.77170000  0.26374000  0.78965000  1.0
  H  H33  1  0.22830000  0.73626000  0.21035000  1.0
  H  H34  1  0.89626000  0.28534000  0.64035000  1.0
  H  H35  1  0.10375000  0.71466000  0.35965000  1.0
  H  H36  1  0.13813000  0.78739000  0.71033000  1.0
  H  H37  1  0.86187000  0.21261000  0.28967000  1.0
  H  H38  1  0.00778000  0.76739000  0.85827000  1.0
  H  H39  1  0.99222000  0.23260000  0.14173000  1.0
  H  H40  1  0.03852000  0.29098000  0.52539000  1.0
  H  H41  1  0.96149000  0.70902000  0.47461000  1.0
  H  H42  1  0.30269000  0.92801000  0.40557000  1.0
  H  H43  1  0.69731000  0.07199000  0.59443000  1.0
  H  H44  1  0.20585000  0.80610000  0.57575000  1.0
  H  H45  1  0.79414000  0.19390000  0.42425000  1.0
  H  H46  1  0.48195000  0.53921000  0.79404000  1.0
  H  H47  1  0.51805000  0.46079000  0.20596000  1.0
  C  C48  1  0.27651000  0.39731000  0.47433000  1.0
  C  C49  1  0.72350000  0.60269000  0.52567000  1.0
  C  C50  1  0.30375000  0.42652000  0.56102000  1.0
  C  C51  1  0.69625000  0.57348000  0.43898000  1.0
  C  C52  1  0.45011000  0.39750000  0.58689000  1.0
  C  C53  1  0.54989000  0.60250000  0.41311000  1.0
  C  C54  1  0.47358000  0.43113000  0.66561000  1.0
  C  C55  1  0.52642000  0.56888000  0.33439000  1.0
  C  C56  1  0.35211000  0.48662000  0.72437000  1.0
  C  C57  1  0.64790000  0.51338000  0.27563000  1.0
  C  C58  1  0.20640000  0.50764000  0.70175000  1.0
  C  C59  1  0.79360000  0.49235000  0.29825000  1.0
  C  C60  1  0.18308000  0.48149000  0.61949000  1.0
  C  C61  1  0.81692000  0.51851000  0.38051000  1.0
  C  C62  1  0.31196000  0.53153000  0.88328000  1.0
  C  C63  1  0.68804000  0.46848000  0.11672000  1.0
  C  C64  1  0.22746000  0.44805000  0.92548000  1.0
  C  C65  1  0.77254000  0.55194000  0.07452000  1.0
  C  C66  1  0.18820000  0.43624000  0.01866000  1.0
  C  C67  1  0.81180000  0.56375000  0.98134000  1.0
  C  C68  1  0.23030000  0.50659000  0.07223000  1.0
  C  C69  1  0.76970000  0.49341000  0.92777000  1.0
  C  C70  1  0.30102000  0.60152000  0.02661000  1.0
  C  C71  1  0.69898000  0.39848000  0.97339000  1.0
  C  C72  1  0.33822000  0.61637000  0.93401000  1.0
  C  C73  1  0.66178000  0.38363000  0.06599000  1.0
  C  C74  1  0.23061000  0.46075000  0.17624000  1.0
  C  C75  1  0.76939000  0.53925000  0.82376000  1.0
  C  C76  1  0.56701000  0.97123000  0.34134000  1.0
  C  C77  1  0.43298000  0.02877000  0.65866000  1.0
  C  C78  1  0.46775000  0.12208000  0.20400000  1.0
  C  C79  1  0.53225000  0.87793000  0.79600000  1.0
  C  C80  1  0.66516000  0.90917000  0.27695000  1.0
  C  C81  1  0.33485000  0.09083000  0.72304000  1.0
  C  C82  1  0.66736000  0.99859000  0.10088000  1.0
  C  C83  1  0.33263000  0.00142000  0.89912000  1.0
  C  C84  1  0.58093000  0.09805000  0.01888000  1.0
  C  C85  1  0.41907000  0.90196000  0.98112000  1.0
  C  C86  1  0.64868000  0.10093000  0.93265000  1.0
  C  C87  1  0.35131000  0.89907000  0.06736000  1.0
  C  C88  1  0.80287000  0.00300000  0.92571000  1.0
  C  C89  1  0.19713000  0.99699000  0.07429000  1.0
  C  C90  1  0.88571000  0.89869000  0.00832000  1.0
  C  C91  1  0.11428000  0.10131000  0.99168000  1.0
  C  C92  1  0.81975000  0.89671000  0.09522000  1.0
  C  C93  1  0.18024000  0.10329000  0.90478000  1.0
  C  C94  1  0.87775000  0.01365000  0.83520000  1.0
  C  C95  1  0.12225000  0.98635000  0.16480000  1.0
  C  C96  1  0.84891000  0.15802000  0.77193000  1.0
  C  C97  1  0.15109000  0.84198000  0.22807000  1.0
  C  C98  1  0.92136000  0.17071000  0.68708000  1.0
  C  C99  1  0.07864000  0.82929000  0.31292000  1.0
  C  C100  1  0.02542000  0.03672000  0.66428000  1.0
  C  C101  1  0.97458000  0.96328000  0.33572000  1.0
  C  C102  1  0.05697000  0.89221000  0.72691000  1.0
  C  C103  1  0.94303000  0.10779000  0.27309000  1.0
  C  C104  1  0.98349000  0.88121000  0.81124000  1.0
  C  C105  1  0.01651000  0.11878000  0.18876000  1.0
  C  C106  1  0.09657000  0.17683000  0.51487000  1.0
  C  C107  1  0.90343000  0.82317000  0.48513000  1.0
  C  C108  1  0.23288000  0.98537000  0.45590000  1.0
  C  C109  1  0.76711000  0.01464000  0.54410000  1.0
  C  C110  1  0.18608000  0.92360000  0.54032000  1.0
  C  C111  1  0.81392000  0.07640000  0.45968000  1.0
  N  N112  1  0.44445000  0.10447000  0.29474000  1.0
  N  N113  1  0.55554000  0.89554000  0.70525000  1.0
  N  N114  1  0.60154000  0.00637000  0.18949000  1.0
  N  N115  1  0.39846000  0.99364000  0.81051000  1.0
  N  N116  1  0.09917000  0.04602000  0.57736000  1.0
  N  N117  1  0.90083000  0.95398000  0.42264000  1.0
  N  N118  1  0.17690000  0.14288000  0.44077000  1.0
  N  N119  1  0.82309000  0.85712000  0.55923000  1.0
  N  N120  1  0.38170000  0.52779000  0.79842000  1.0
  N  N121  1  0.61830000  0.47221000  0.20158000  1.0
  O  O122  1  0.38616000  0.28977000  0.44531000  1.0
  O  O123  1  0.61384000  0.71023000  0.55469000  1.0
  O  O124  1  0.14681000  0.47404000  0.43229000  1.0
  O  O125  1  0.85320000  0.52595000  0.56771000  1.0
  O  O126  1  0.15265000  0.38718000  0.21926000  1.0
  O  O127  1  0.84736000  0.61282000  0.78074000  1.0
  O  O128  1  0.32076000  0.48042000  0.22063000  1.0
  O  O129  1  0.67924000  0.51957000  0.77937000  1.0
