# generated using pymatgen
data_Zn4H52C69N22O
_symmetry_space_group_name_H-M   'P 1'
_cell_length_a   19.51410000
_cell_length_b   19.78530000
_cell_length_c   20.20050000
_cell_angle_alpha   107.07500000
_cell_angle_beta   109.19400000
_cell_angle_gamma   110.46900000
_symmetry_Int_Tables_number   1
_chemical_formula_structural   Zn4H52C69N22O
_chemical_formula_sum   'Zn4 H52 C69 N22 O1'
_cell_volume   6120.75707224
_cell_formula_units_Z   1
loop_
 _symmetry_equiv_pos_site_id
 _symmetry_equiv_pos_as_xyz
  1  'x, y, z'
loop_
 _atom_site_type_symbol
 _atom_site_label
 _atom_site_symmetry_multiplicity
 _atom_site_fract_x
 _atom_site_fract_y
 _atom_site_fract_z
 _atom_site_occupancy
  Zn  Zn0  1  0.87555000  0.88852000  0.50043000  1.0
  Zn  Zn1  1  0.11662000  0.08222000  0.49642000  1.0
  Zn  Zn2  1  0.09163000  0.98950000  0.61090000  1.0
  Zn  Zn3  1  0.90729000  0.99786000  0.40029000  1.0
  H  H4  1  0.82814000  0.90347000  0.65030000  1.0
  H  H5  1  0.23467000  0.02776000  0.44072000  1.0
  H  H6  1  0.12841000  0.86150000  0.50584000  1.0
  H  H7  1  0.89717000  0.03071000  0.24941000  1.0
  H  H8  1  0.15048000  0.07392000  0.34980000  1.0
  H  H9  1  0.86100000  0.71555000  0.40737000  1.0
  H  H10  1  0.87621000  0.84600000  0.25974000  1.0
  H  H11  1  0.28585000  0.98254000  0.64421000  1.0
  H  H12  1  0.13563000  0.48451000  0.45832000  1.0
  H  H13  1  0.86563000  0.47288000  0.32032000  1.0
  H  H14  1  0.86647000  0.35122000  0.33213000  1.0
  H  H15  1  0.60372000  0.46997000  0.11104000  1.0
  H  H16  1  0.47276000  0.35547000  0.99076000  1.0
  H  H17  1  0.51616000  0.48592000  0.85805000  1.0
  H  H18  1  0.85279000  0.02922000  0.92585000  1.0
  H  H19  1  0.88645000  0.06075000  0.06549000  1.0
  H  H20  1  0.22560000  0.14897000  0.78866000  1.0
  H  H21  1  0.22710000  0.25633000  0.62999000  1.0
  H  H22  1  0.80655000  0.97791000  0.58932000  1.0
  H  H23  1  0.89967000  0.15963000  0.44706000  1.0
  H  H24  1  0.09561000  0.06083000  0.77438000  1.0
  H  H25  1  0.14398000  0.66887000  0.44698000  1.0
  H  H26  1  0.27875000  0.69417000  0.51070000  1.0
  H  H27  1  0.24525000  0.58889000  0.46216000  1.0
  H  H28  1  0.23829000  0.62922000  0.54970000  1.0
  H  H29  1  0.19245000  0.23460000  0.46118000  1.0
  H  H30  1  0.26364000  0.37549000  0.50142000  1.0
  H  H31  1  0.18347000  0.38591000  0.51890000  1.0
  H  H32  1  0.16436000  0.33907000  0.41999000  1.0
  H  H33  1  0.71044000  0.66020000  0.03119000  1.0
  H  H34  1  0.69383000  0.68403000  0.92347000  1.0
  H  H35  1  0.58455000  0.63069000  0.89057000  1.0
  H  H36  1  0.63454000  0.57768000  0.85925000  1.0
  H  H37  1  0.24232000  0.31692000  0.27139000  1.0
  H  H38  1  0.13658000  0.26923000  0.25045000  1.0
  H  H39  1  0.21551000  0.39887000  0.20365000  1.0
  H  H40  1  0.10842000  0.34853000  0.17661000  1.0
  H  H41  1  0.14380000  0.40589000  0.31974000  1.0
  H  H42  1  0.18736000  0.48556000  0.29760000  1.0
  H  H43  1  0.25212000  0.45375000  0.34904000  1.0
  H  H44  1  0.09490000  0.18109000  0.93780000  1.0
  H  H45  1  0.17640000  0.32995000  0.06346000  1.0
  H  H46  1  0.21932000  0.29471000  0.00460000  1.0
  H  H47  1  0.24112000  0.28843000  0.09475000  1.0
  H  H48  1  0.75796000  0.03685000  0.34386000  1.0
  H  H49  1  0.65766000  0.07912000  0.32878000  1.0
  H  H50  1  0.73273000  0.14335000  0.43131000  1.0
  H  H51  1  0.64020000  0.05378000  0.40132000  1.0
  H  H52  1  0.68170000  0.71633000  0.36853000  1.0
  H  H53  1  0.61856000  0.57550000  0.29938000  1.0
  H  H54  1  0.68795000  0.58376000  0.25935000  1.0
  H  H55  1  0.60361000  0.60124000  0.21981000  1.0
  C  C56  1  0.89416000  0.93610000  0.66850000  1.0
  C  C57  1  0.02155000  0.23782000  0.45573000  1.0
  C  C58  1  0.25976000  0.23377000  0.73679000  1.0
  C  C59  1  0.74246000  0.00583000  0.49496000  1.0
  C  C60  1  0.75824000  0.75198000  0.32439000  1.0
  C  C61  1  0.23679000  0.01986000  0.49217000  1.0
  C  C62  1  0.06269000  0.83771000  0.48844000  1.0
  C  C63  1  0.95648000  0.03541000  0.28298000  1.0
  C  C64  1  0.08612000  0.05796000  0.33449000  1.0
  C  C65  1  0.92566000  0.76332000  0.43826000  1.0
  C  C66  1  0.84244000  0.82378000  0.28888000  1.0
  C  C67  1  0.09136000  0.22454000  0.47279000  1.0
  C  C68  1  0.26282000  0.99694000  0.59645000  1.0
  C  C69  1  0.78034000  0.74404000  0.26284000  1.0
  C  C70  1  0.28862000  0.99864000  0.53870000  1.0
  C  C71  1  0.99627000  0.75752000  0.43958000  1.0
  C  C72  1  0.03148000  0.07119000  0.28054000  1.0
  C  C73  1  0.67401000  0.00429000  0.50363000  1.0
  C  C74  1  0.61148000  0.99730000  0.51008000  1.0
  C  C75  1  0.54303000  0.99008000  0.51566000  1.0
  C  C76  1  0.47978000  0.98469000  0.52029000  1.0
  C  C77  1  0.41294000  0.98385000  0.52580000  1.0
  C  C78  1  0.21312000  0.16257000  0.73907000  1.0
  C  C79  1  0.35334000  0.98767000  0.53156000  1.0
  C  C80  1  0.07740000  0.55037000  0.41879000  1.0
  C  C81  1  0.99914000  0.54769000  0.38264000  1.0
  C  C82  1  0.92452000  0.47441000  0.34943000  1.0
  C  C83  1  0.92475000  0.40675000  0.35625000  1.0
  C  C84  1  0.00153000  0.41128000  0.39804000  1.0
  C  C85  1  0.07697000  0.48218000  0.42675000  1.0
  C  C86  1  0.99804000  0.62036000  0.38989000  1.0
  C  C87  1  0.00427000  0.34751000  0.41486000  1.0
  C  C88  1  0.01158000  0.29695000  0.43531000  1.0
  C  C89  1  0.76452000  0.01412000  0.43571000  1.0
  C  C90  1  0.99936000  0.68572000  0.40829000  1.0
  C  C91  1  0.51134000  0.40906000  0.98852000  1.0
  C  C92  1  0.48521000  0.41506000  0.91744000  1.0
  C  C93  1  0.53667000  0.48285000  0.91360000  1.0
  C  C94  1  0.61145000  0.54707000  0.98057000  1.0
  C  C95  1  0.63359000  0.54385000  0.05416000  1.0
  C  C96  1  0.58436000  0.47288000  0.05528000  1.0
  C  C97  1  0.40642000  0.35405000  0.85194000  1.0
  C  C98  1  0.69732000  0.61367000  0.12578000  1.0
  C  C99  1  0.74138000  0.67543000  0.18947000  1.0
  C  C100  1  0.21472000  0.21747000  0.65792000  1.0
  C  C101  1  0.33676000  0.30086000  0.79823000  1.0
  C  C102  1  0.93424000  0.09034000  0.05136000  1.0
  C  C103  1  0.01800000  0.14145000  0.11297000  1.0
  C  C104  1  0.08016000  0.18571000  0.09761000  1.0
  C  C105  1  0.06223000  0.16799000  0.01850000  1.0
  C  C106  1  0.97992000  0.10588000  0.95633000  1.0
  C  C107  1  0.91596000  0.07251000  0.97424000  1.0
  C  C108  1  0.03626000  0.13379000  0.18337000  1.0
  C  C109  1  0.96629000  0.07302000  0.87798000  1.0
  C  C110  1  0.96062000  0.03803000  0.81371000  1.0
  C  C111  1  0.80068000  0.98798000  0.53829000  1.0
  C  C112  1  0.04079000  0.10759000  0.23161000  1.0
  C  C113  1  0.96194000  0.17254000  0.45652000  1.0
  C  C114  1  0.03095000  0.01593000  0.73167000  1.0
  C  C115  1  0.96053000  0.99905000  0.74315000  1.0
  C  C116  1  0.23161000  0.63334000  0.49471000  1.0
  C  C117  1  0.19604000  0.34598000  0.47985000  1.0
  C  C118  1  0.64244000  0.62683000  0.90962000  1.0
  C  C119  1  0.17826000  0.29765000  0.22921000  1.0
  C  C120  1  0.17158000  0.37013000  0.22274000  1.0
  C  C121  1  0.18970000  0.43213000  0.30156000  1.0
  C  C122  1  0.19308000  0.28287000  0.04303000  1.0
  C  C123  1  0.68815000  0.07974000  0.38540000  1.0
  C  C124  1  0.65061000  0.60957000  0.27468000  1.0
  N  N125  1  0.92305000  0.91809000  0.61733000  1.0
  N  N126  1  0.18627000  0.03061000  0.52120000  1.0
  N  N127  1  0.03325000  0.88640000  0.51502000  1.0
  N  N128  1  0.96660000  0.00489000  0.33432000  1.0
  N  N129  1  0.04707000  0.01888000  0.36737000  1.0
  N  N130  1  0.94921000  0.84041000  0.48403000  1.0
  N  N131  1  0.85502000  0.87473000  0.35785000  1.0
  N  N132  1  0.20209000  0.01619000  0.58559000  1.0
  N  N133  1  0.07159000  0.15641000  0.48121000  1.0
  N  N134  1  0.14721000  0.10866000  0.66697000  1.0
  N  N135  1  0.82921000  0.00065000  0.44455000  1.0
  N  N136  1  0.14818000  0.14184000  0.61677000  1.0
  N  N137  1  0.85141000  0.98368000  0.50765000  1.0
  N  N138  1  0.99188000  0.12358000  0.47085000  1.0
  N  N139  1  0.00847000  0.96778000  0.65702000  1.0
  N  N140  1  0.80265000  0.83045000  0.38023000  1.0
  N  N141  1  0.15005000  0.61991000  0.44660000  1.0
  N  N142  1  0.16994000  0.26941000  0.48374000  1.0
  N  N143  1  0.66265000  0.61347000  0.97833000  1.0
  N  N144  1  0.12125000  0.20111000  0.99720000  1.0
  N  N145  1  0.72788000  0.02997000  0.37598000  1.0
  N  N146  1  0.70510000  0.69409000  0.33498000  1.0
  O  O147  1  0.16195000  0.23756000  0.15589000  1.0
