# generated using pymatgen
data_MnH8C19(NO3)2
_symmetry_space_group_name_H-M   'P 1'
_cell_length_a   4.96709000
_cell_length_b   20.40620000
_cell_length_c   24.82690000
_cell_angle_alpha   89.99990000
_cell_angle_beta   89.99990000
_cell_angle_gamma   95.58590000
_symmetry_Int_Tables_number   1
_chemical_formula_structural   MnH8C19(NO3)2
_chemical_formula_sum   'Mn4 H32 C76 N8 O24'
_cell_volume   2504.49087214
_cell_formula_units_Z   4
loop_
 _symmetry_equiv_pos_site_id
 _symmetry_equiv_pos_as_xyz
  1  'x, y, z'
loop_
 _atom_site_type_symbol
 _atom_site_label
 _atom_site_symmetry_multiplicity
 _atom_site_fract_x
 _atom_site_fract_y
 _atom_site_fract_z
 _atom_site_occupancy
  Mn  Mn0  1  0.17379000  0.06077000  0.96137000  1.0
  Mn  Mn1  1  0.32620000  0.43923000  0.46136000  1.0
  Mn  Mn2  1  0.82620000  0.93923000  0.03863000  1.0
  Mn  Mn3  1  0.67379000  0.56077000  0.53863000  1.0
  H  H4  1  0.68858000  0.34175000  0.40879000  1.0
  H  H5  1  0.71121000  0.27349000  0.32431000  1.0
  H  H6  1  0.06637000  0.37694000  0.25945000  1.0
  H  H7  1  0.07226000  0.44119000  0.34591000  1.0
  H  H8  1  0.95123000  0.31796000  0.12131000  1.0
  H  H9  1  0.00915000  0.24241000  0.04314000  1.0
  H  H10  1  0.98752000  0.03148000  0.14171000  1.0
  H  H11  1  0.91410000  0.11256000  0.21442000  1.0
  H  H12  1  0.81143000  0.15825000  0.90879000  1.0
  H  H13  1  0.78879000  0.22651000  0.82431000  1.0
  H  H14  1  0.43363000  0.12306000  0.75945000  1.0
  H  H15  1  0.42774000  0.05881000  0.84591000  1.0
  H  H16  1  0.54877000  0.18205000  0.62132000  1.0
  H  H17  1  0.49084000  0.25759000  0.54314000  1.0
  H  H18  1  0.51247000  0.46852000  0.64171000  1.0
  H  H19  1  0.58591000  0.38744000  0.71442000  1.0
  H  H20  1  0.31142000  0.65824000  0.59121000  1.0
  H  H21  1  0.28879000  0.72650000  0.67568000  1.0
  H  H22  1  0.93363000  0.62306000  0.74054000  1.0
  H  H23  1  0.92774000  0.55881000  0.65409000  1.0
  H  H24  1  0.04878000  0.68204000  0.87869000  1.0
  H  H25  1  0.99084000  0.75759000  0.95686000  1.0
  H  H26  1  0.01247000  0.96852000  0.85829000  1.0
  H  H27  1  0.08590000  0.88744000  0.78558000  1.0
  H  H28  1  0.18858000  0.84176000  0.09121000  1.0
  H  H29  1  0.21121000  0.77350000  0.17569000  1.0
  H  H30  1  0.56637000  0.87694000  0.24055000  1.0
  H  H31  1  0.57226000  0.94119000  0.15409000  1.0
  H  H32  1  0.45123000  0.81796000  0.37869000  1.0
  H  H33  1  0.50916000  0.74241000  0.45686000  1.0
  H  H34  1  0.48753000  0.53148000  0.35829000  1.0
  H  H35  1  0.41410000  0.61256000  0.28558000  1.0
  C  C36  1  0.55395000  0.34765000  0.37482000  1.0
  C  C37  1  0.56553000  0.30989000  0.32834000  1.0
  C  C38  1  0.38853000  0.32057000  0.28640000  1.0
  C  C39  1  0.20891000  0.36844000  0.29148000  1.0
  C  C40  1  0.21072000  0.40360000  0.33950000  1.0
  C  C41  1  0.59491000  0.30093000  0.20012000  1.0
  C  C42  1  0.61973000  0.25615000  0.15437000  1.0
  C  C43  1  0.44996000  0.19630000  0.15005000  1.0
  C  C44  1  0.24313000  0.18087000  0.18887000  1.0
  C  C45  1  0.20453000  0.22557000  0.23421000  1.0
  C  C46  1  0.82097000  0.27216000  0.11655000  1.0
  C  C47  1  0.85294000  0.22992000  0.07321000  1.0
  C  C48  1  0.68756000  0.17134000  0.06693000  1.0
  C  C49  1  0.48711000  0.15161000  0.10656000  1.0
  C  C50  1  0.32284000  0.09000000  0.10642000  1.0
  C  C51  1  0.11655000  0.07761000  0.14393000  1.0
  C  C52  1  0.07448000  0.12280000  0.18476000  1.0
  C  C53  1  0.38087000  0.03334000  0.07118000  1.0
  C  C54  1  0.72705000  0.13572000  0.01474000  1.0
  C  C55  1  0.94605000  0.15235000  0.87482000  1.0
  C  C56  1  0.93447000  0.19011000  0.82834000  1.0
  C  C57  1  0.11148000  0.17943000  0.78640000  1.0
  C  C58  1  0.29109000  0.13156000  0.79148000  1.0
  C  C59  1  0.28928000  0.09640000  0.83950000  1.0
  C  C60  1  0.90509000  0.19907000  0.70012000  1.0
  C  C61  1  0.88027000  0.24385000  0.65437000  1.0
  C  C62  1  0.05005000  0.30370000  0.65005000  1.0
  C  C63  1  0.25687000  0.31913000  0.68887000  1.0
  C  C64  1  0.29548000  0.27443000  0.73421000  1.0
  C  C65  1  0.67903000  0.22784000  0.61655000  1.0
  C  C66  1  0.64706000  0.27008000  0.57321000  1.0
  C  C67  1  0.81244000  0.32866000  0.56693000  1.0
  C  C68  1  0.01289000  0.34839000  0.60656000  1.0
  C  C69  1  0.17715000  0.41000000  0.60642000  1.0
  C  C70  1  0.38345000  0.42239000  0.64393000  1.0
  C  C71  1  0.42552000  0.37720000  0.68476000  1.0
  C  C72  1  0.11913000  0.46666000  0.57118000  1.0
  C  C73  1  0.77295000  0.36428000  0.51474000  1.0
  C  C74  1  0.44605000  0.65235000  0.62518000  1.0
  C  C75  1  0.43447000  0.69011000  0.67166000  1.0
  C  C76  1  0.61148000  0.67943000  0.71360000  1.0
  C  C77  1  0.79109000  0.63156000  0.70852000  1.0
  C  C78  1  0.78928000  0.59640000  0.66050000  1.0
  C  C79  1  0.40510000  0.69908000  0.79988000  1.0
  C  C80  1  0.38028000  0.74385000  0.84563000  1.0
  C  C81  1  0.55005000  0.80370000  0.84995000  1.0
  C  C82  1  0.75687000  0.81913000  0.81113000  1.0
  C  C83  1  0.79548000  0.77443000  0.76579000  1.0
  C  C84  1  0.17904000  0.72783000  0.88345000  1.0
  C  C85  1  0.14707000  0.77008000  0.92679000  1.0
  C  C86  1  0.31245000  0.82866000  0.93307000  1.0
  C  C87  1  0.51289000  0.84839000  0.89344000  1.0
  C  C88  1  0.67715000  0.91000000  0.89358000  1.0
  C  C89  1  0.88345000  0.92239000  0.85607000  1.0
  C  C90  1  0.92552000  0.87720000  0.81524000  1.0
  C  C91  1  0.61913000  0.96666000  0.92882000  1.0
  C  C92  1  0.27295000  0.86428000  0.98526000  1.0
  C  C93  1  0.05395000  0.84765000  0.12518000  1.0
  C  C94  1  0.06554000  0.80989000  0.17166000  1.0
  C  C95  1  0.88853000  0.82057000  0.21360000  1.0
  C  C96  1  0.70891000  0.86844000  0.20852000  1.0
  C  C97  1  0.71072000  0.90360000  0.16050000  1.0
  C  C98  1  0.09491000  0.80093000  0.29988000  1.0
  C  C99  1  0.11972000  0.75615000  0.34563000  1.0
  C  C100  1  0.94995000  0.69630000  0.34996000  1.0
  C  C101  1  0.74312000  0.68087000  0.31113000  1.0
  C  C102  1  0.70452000  0.72557000  0.26579000  1.0
  C  C103  1  0.32096000  0.77217000  0.38345000  1.0
  C  C104  1  0.35294000  0.72992000  0.42679000  1.0
  C  C105  1  0.18756000  0.67134000  0.43307000  1.0
  C  C106  1  0.98710000  0.65161000  0.39345000  1.0
  C  C107  1  0.82284000  0.59000000  0.39358000  1.0
  C  C108  1  0.61655000  0.57761000  0.35607000  1.0
  C  C109  1  0.57447000  0.62280000  0.31524000  1.0
  C  C110  1  0.88087000  0.53334000  0.42882000  1.0
  C  C111  1  0.22705000  0.63572000  0.48526000  1.0
  N  N112  1  0.37852000  0.39361000  0.38074000  1.0
  N  N113  1  0.39461000  0.28126000  0.23833000  1.0
  N  N114  1  0.12148000  0.10639000  0.88074000  1.0
  N  N115  1  0.10539000  0.21873000  0.73833000  1.0
  N  N116  1  0.62148000  0.60639000  0.61926000  1.0
  N  N117  1  0.60539000  0.71874000  0.76167000  1.0
  N  N118  1  0.87852000  0.89361000  0.11926000  1.0
  N  N119  1  0.89461000  0.78127000  0.26167000  1.0
  O  O120  1  0.19511000  0.00804000  0.03939000  1.0
  O  O121  1  0.61076000  0.01254000  0.07719000  1.0
  O  O122  1  0.52322000  0.11878000  0.98541000  1.0
  O  O123  1  0.97101000  0.13112000  0.00152000  1.0
  O  O124  1  0.73985000  0.35310000  0.20629000  1.0
  O  O125  1  0.02164000  0.21624000  0.26784000  1.0
  O  O126  1  0.30488000  0.49196000  0.53939000  1.0
  O  O127  1  0.88924000  0.48746000  0.57719000  1.0
  O  O128  1  0.97677000  0.38122000  0.48541000  1.0
  O  O129  1  0.52899000  0.36889000  0.50152000  1.0
  O  O130  1  0.76015000  0.14690000  0.70629000  1.0
  O  O131  1  0.47836000  0.28375000  0.76784000  1.0
  O  O132  1  0.80488000  0.99196000  0.96061000  1.0
  O  O133  1  0.38924000  0.98746000  0.92281000  1.0
  O  O134  1  0.47678000  0.88122000  0.01459000  1.0
  O  O135  1  0.02898000  0.86889000  0.99848000  1.0
  O  O136  1  0.26016000  0.64690000  0.79371000  1.0
  O  O137  1  0.97836000  0.78376000  0.73215000  1.0
  O  O138  1  0.69511000  0.50804000  0.46061000  1.0
  O  O139  1  0.11076000  0.51254000  0.42281000  1.0
  O  O140  1  0.02322000  0.61878000  0.51459000  1.0
  O  O141  1  0.47101000  0.63111000  0.49848000  1.0
  O  O142  1  0.23985000  0.85310000  0.29371000  1.0
  O  O143  1  0.52164000  0.71625000  0.23216000  1.0
