# generated using pymatgen
data_Mg3H30C32(NO5)4
_symmetry_space_group_name_H-M   'P 1'
_cell_length_a   15.13170000
_cell_length_b   19.55450000
_cell_length_c   19.76060000
_cell_angle_alpha   90.00000000
_cell_angle_beta   89.99990000
_cell_angle_gamma   90.00000000
_symmetry_Int_Tables_number   1
_chemical_formula_structural   Mg3H30C32(NO5)4
_chemical_formula_sum   'Mg12 H120 C128 N16 O80'
_cell_volume   5847.01981005
_cell_formula_units_Z   4
loop_
 _symmetry_equiv_pos_site_id
 _symmetry_equiv_pos_as_xyz
  1  'x, y, z'
loop_
 _atom_site_type_symbol
 _atom_site_label
 _atom_site_symmetry_multiplicity
 _atom_site_fract_x
 _atom_site_fract_y
 _atom_site_fract_z
 _atom_site_occupancy
  Mg  Mg0  1  0.50000000  0.50000000  0.00000000  1.0
  Mg  Mg1  1  0.50000000  0.00000000  0.50000000  1.0
  Mg  Mg2  1  0.00000000  0.00000000  0.00000000  1.0
  Mg  Mg3  1  0.00000000  0.50000000  0.50000000  1.0
  Mg  Mg4  1  0.73103000  0.52968000  0.97310000  1.0
  Mg  Mg5  1  0.26897000  0.97032000  0.47310000  1.0
  Mg  Mg6  1  0.76896000  0.02968000  0.02690000  1.0
  Mg  Mg7  1  0.23103000  0.47032000  0.52690000  1.0
  Mg  Mg8  1  0.26897000  0.47032000  0.02690000  1.0
  Mg  Mg9  1  0.73104000  0.02968000  0.52690000  1.0
  Mg  Mg10  1  0.23103000  0.97032000  0.97310000  1.0
  Mg  Mg11  1  0.76897000  0.52968000  0.47310000  1.0
  H  H12  1  0.79892000  0.58207000  0.60280000  1.0
  H  H13  1  0.20108000  0.91793000  0.10280000  1.0
  H  H14  1  0.70108000  0.08207000  0.39720000  1.0
  H  H15  1  0.29892000  0.41793000  0.89720000  1.0
  H  H16  1  0.20108000  0.41793000  0.39720000  1.0
  H  H17  1  0.79892000  0.08207000  0.89720000  1.0
  H  H18  1  0.29892000  0.91793000  0.60280000  1.0
  H  H19  1  0.70108000  0.58207000  0.10280000  1.0
  H  H20  1  0.35045000  0.79532000  0.03006000  1.0
  H  H21  1  0.64955000  0.70468000  0.53007000  1.0
  H  H22  1  0.14955000  0.29533000  0.96993000  1.0
  H  H23  1  0.85045000  0.20468000  0.46994000  1.0
  H  H24  1  0.64956000  0.20468000  0.96993000  1.0
  H  H25  1  0.35045000  0.29532000  0.46994000  1.0
  H  H26  1  0.85045000  0.70468000  0.03006000  1.0
  H  H27  1  0.14955000  0.79532000  0.53007000  1.0
  H  H28  1  0.38474000  0.87550000  0.04600000  1.0
  H  H29  1  0.61525000  0.62450000  0.54601000  1.0
  H  H30  1  0.11526000  0.37550000  0.95399000  1.0
  H  H31  1  0.88474000  0.12450000  0.45400000  1.0
  H  H32  1  0.61526000  0.12450000  0.95399000  1.0
  H  H33  1  0.38474000  0.37549000  0.45400000  1.0
  H  H34  1  0.88474000  0.62450000  0.04600000  1.0
  H  H35  1  0.11525000  0.87550000  0.54601000  1.0
  H  H36  1  0.32906000  0.50906000  0.70634000  1.0
  H  H37  1  0.67094000  0.99095000  0.20634000  1.0
  H  H38  1  0.17094000  0.00905000  0.29366000  1.0
  H  H39  1  0.82906000  0.49095000  0.79366000  1.0
  H  H40  1  0.67094000  0.49095000  0.29366000  1.0
  H  H41  1  0.32906000  0.00906000  0.79366000  1.0
  H  H42  1  0.82906000  0.99094000  0.70634000  1.0
  H  H43  1  0.17094000  0.50905000  0.20634000  1.0
  H  H44  1  0.35974000  0.53246000  0.62797000  1.0
  H  H45  1  0.64026000  0.96755000  0.12796000  1.0
  H  H46  1  0.14026000  0.03245000  0.37203000  1.0
  H  H47  1  0.85974000  0.46754000  0.87203000  1.0
  H  H48  1  0.64026000  0.46755000  0.37203000  1.0
  H  H49  1  0.35974000  0.03246000  0.87203000  1.0
  H  H50  1  0.85974000  0.96754000  0.62797000  1.0
  H  H51  1  0.14026000  0.53246000  0.12797000  1.0
  H  H52  1  0.44526000  0.70053000  0.02024000  1.0
  H  H53  1  0.55473000  0.79947000  0.52025000  1.0
  H  H54  1  0.05474000  0.20053000  0.97975000  1.0
  H  H55  1  0.94526000  0.29947000  0.47976000  1.0
  H  H56  1  0.55474000  0.29947000  0.97975000  1.0
  H  H57  1  0.44526000  0.20053000  0.47976000  1.0
  H  H58  1  0.94526000  0.79947000  0.02024000  1.0
  H  H59  1  0.05474000  0.70053000  0.52025000  1.0
  H  H60  1  0.72505000  0.73788000  0.02954000  1.0
  H  H61  1  0.27495000  0.76212000  0.52953000  1.0
  H  H62  1  0.77495000  0.23788000  0.97047000  1.0
  H  H63  1  0.22505000  0.26212000  0.47047000  1.0
  H  H64  1  0.27496000  0.26212000  0.97047000  1.0
  H  H65  1  0.72505000  0.23788000  0.47047000  1.0
  H  H66  1  0.22505000  0.76212000  0.02954000  1.0
  H  H67  1  0.77495000  0.73787000  0.52953000  1.0
  H  H68  1  0.54453000  0.90739000  0.02965000  1.0
  H  H69  1  0.45547000  0.59262000  0.52965000  1.0
  H  H70  1  0.95547000  0.40738000  0.97035000  1.0
  H  H71  1  0.04453000  0.09262000  0.47035000  1.0
  H  H72  1  0.45547000  0.09262000  0.97035000  1.0
  H  H73  1  0.54453000  0.40738000  0.47036000  1.0
  H  H74  1  0.04453000  0.59262000  0.02964000  1.0
  H  H75  1  0.95547000  0.90738000  0.52964000  1.0
  H  H76  1  0.52203000  0.51602000  0.59411000  1.0
  H  H77  1  0.47797000  0.98398000  0.09411000  1.0
  H  H78  1  0.97797000  0.01602000  0.40589000  1.0
  H  H79  1  0.02203000  0.48398000  0.90589000  1.0
  H  H80  1  0.47797000  0.48398000  0.40589000  1.0
  H  H81  1  0.52203000  0.01602000  0.90589000  1.0
  H  H82  1  0.02203000  0.98398000  0.59411000  1.0
  H  H83  1  0.97797000  0.51602000  0.09411000  1.0
  H  H84  1  0.70204000  0.54225000  0.76186000  1.0
  H  H85  1  0.29796000  0.95774000  0.26186000  1.0
  H  H86  1  0.79795000  0.04226000  0.23814000  1.0
  H  H87  1  0.20204000  0.45775000  0.73814000  1.0
  H  H88  1  0.29795000  0.45774000  0.23815000  1.0
  H  H89  1  0.70205000  0.04226000  0.73814000  1.0
  H  H90  1  0.20204000  0.95775000  0.76186000  1.0
  H  H91  1  0.79795000  0.54226000  0.26185000  1.0
  H  H92  1  0.42771000  0.50222000  0.79960000  1.0
  H  H93  1  0.57229000  0.99779000  0.29960000  1.0
  H  H94  1  0.07229000  0.00221000  0.20040000  1.0
  H  H95  1  0.92771000  0.49779000  0.70040000  1.0
  H  H96  1  0.57229000  0.49779000  0.20040000  1.0
  H  H97  1  0.42771000  0.00222000  0.70040000  1.0
  H  H98  1  0.92771000  0.99778000  0.79960000  1.0
  H  H99  1  0.07229000  0.50221000  0.29960000  1.0
  H  H100  1  0.62614000  0.46370000  0.07121000  1.0
  H  H101  1  0.37386000  0.03630000  0.57121000  1.0
  H  H102  1  0.87386000  0.96370000  0.92879000  1.0
  H  H103  1  0.12614000  0.53630000  0.42879000  1.0
  H  H104  1  0.37386000  0.53631000  0.92879000  1.0
  H  H105  1  0.62614000  0.96370000  0.42879000  1.0
  H  H106  1  0.12614000  0.03631000  0.07121000  1.0
  H  H107  1  0.87386000  0.46369000  0.57121000  1.0
  H  H108  1  0.65649000  0.41633000  0.00644000  1.0
  H  H109  1  0.34351000  0.08367000  0.50644000  1.0
  H  H110  1  0.84351000  0.91633000  0.99356000  1.0
  H  H111  1  0.15649000  0.58367000  0.49356000  1.0
  H  H112  1  0.34351000  0.58367000  0.99357000  1.0
  H  H113  1  0.65649000  0.91633000  0.49356000  1.0
  H  H114  1  0.15649000  0.08367000  0.00644000  1.0
  H  H115  1  0.84351000  0.41633000  0.50643000  1.0
  H  H116  1  0.84584000  0.57140000  0.88280000  1.0
  H  H117  1  0.15415000  0.92860000  0.38280000  1.0
  H  H118  1  0.65416000  0.07140000  0.11720000  1.0
  H  H119  1  0.34585000  0.42860000  0.61720000  1.0
  H  H120  1  0.15416000  0.42860000  0.11720000  1.0
  H  H121  1  0.84585000  0.07140000  0.61720000  1.0
  H  H122  1  0.34584000  0.92860000  0.88280000  1.0
  H  H123  1  0.65416000  0.57140000  0.38280000  1.0
  H  H124  1  0.85485000  0.62491000  0.94620000  1.0
  H  H125  1  0.14515000  0.87509000  0.44621000  1.0
  H  H126  1  0.64515000  0.12491000  0.05379000  1.0
  H  H127  1  0.35485000  0.37509000  0.55380000  1.0
  H  H128  1  0.14515000  0.37509000  0.05379000  1.0
  H  H129  1  0.85485000  0.12491000  0.55380000  1.0
  H  H130  1  0.35485000  0.87509000  0.94620000  1.0
  H  H131  1  0.64515000  0.62491000  0.44621000  1.0
  C  C132  1  0.56677000  0.51962000  0.78755000  1.0
  C  C133  1  0.43323000  0.98038000  0.28755000  1.0
  C  C134  1  0.93323000  0.01961000  0.21245000  1.0
  C  C135  1  0.06677000  0.48038000  0.71245000  1.0
  C  C136  1  0.43323000  0.48038000  0.21245000  1.0
  C  C137  1  0.56677000  0.01962000  0.71245000  1.0
  C  C138  1  0.06677000  0.98038000  0.78755000  1.0
  C  C139  1  0.93323000  0.51962000  0.28755000  1.0
  C  C140  1  0.58669000  0.71196000  0.02559000  1.0
  C  C141  1  0.41330000  0.78804000  0.52560000  1.0
  C  C142  1  0.91331000  0.21196000  0.97441000  1.0
  C  C143  1  0.08669000  0.28804000  0.47441000  1.0
  C  C144  1  0.41331000  0.28804000  0.97440000  1.0
  C  C145  1  0.58669000  0.21196000  0.47441000  1.0
  C  C146  1  0.08669000  0.78804000  0.02559000  1.0
  C  C147  1  0.91331000  0.71196000  0.52559000  1.0
  C  C148  1  0.48390000  0.80699000  0.02567000  1.0
  C  C149  1  0.51610000  0.69301000  0.52567000  1.0
  C  C150  1  0.01610000  0.30699000  0.97433000  1.0
  C  C151  1  0.98390000  0.19301000  0.47434000  1.0
  C  C152  1  0.51611000  0.19301000  0.97433000  1.0
  C  C153  1  0.48390000  0.30699000  0.47434000  1.0
  C  C154  1  0.98390000  0.69301000  0.02566000  1.0
  C  C155  1  0.01610000  0.80699000  0.52566000  1.0
  C  C156  1  0.50001000  0.73668000  0.02369000  1.0
  C  C157  1  0.50000000  0.76332000  0.52369000  1.0
  C  C158  1  0.00000000  0.23668000  0.97631000  1.0
  C  C159  1  0.00001000  0.26332000  0.47632000  1.0
  C  C160  1  0.50000000  0.26332000  0.97631000  1.0
  C  C161  1  0.50001000  0.23668000  0.47632000  1.0
  C  C162  1  0.00001000  0.76332000  0.02369000  1.0
  C  C163  1  0.00000000  0.73668000  0.52369000  1.0
  C  C164  1  0.61915000  0.52939000  0.67272000  1.0
  C  C165  1  0.38085000  0.97061000  0.17272000  1.0
  C  C166  1  0.88085000  0.02939000  0.32728000  1.0
  C  C167  1  0.11915000  0.47061000  0.82728000  1.0
  C  C168  1  0.38085000  0.47061000  0.32728000  1.0
  C  C169  1  0.61915000  0.02939000  0.82728000  1.0
  C  C170  1  0.11915000  0.97061000  0.67272000  1.0
  C  C171  1  0.88085000  0.52939000  0.17272000  1.0
  C  C172  1  0.68930000  0.54032000  0.62182000  1.0
  C  C173  1  0.31070000  0.95967000  0.12182000  1.0
  C  C174  1  0.81070000  0.04033000  0.37818000  1.0
  C  C175  1  0.18930000  0.45968000  0.87818000  1.0
  C  C176  1  0.31070000  0.45967000  0.37819000  1.0
  C  C177  1  0.68930000  0.04033000  0.87818000  1.0
  C  C178  1  0.18930000  0.95967000  0.62182000  1.0
  C  C179  1  0.81070000  0.54033000  0.12182000  1.0
  C  C180  1  0.64228000  0.82778000  0.03180000  1.0
  C  C181  1  0.35771000  0.67222000  0.53180000  1.0
  C  C182  1  0.85772000  0.32778000  0.96820000  1.0
  C  C183  1  0.14228000  0.17222000  0.46820000  1.0
  C  C184  1  0.35772000  0.17222000  0.96820000  1.0
  C  C185  1  0.64228000  0.32778000  0.46820000  1.0
  C  C186  1  0.14228000  0.67222000  0.03180000  1.0
  C  C187  1  0.85772000  0.82778000  0.53180000  1.0
  C  C188  1  0.46236000  0.51172000  0.69370000  1.0
  C  C189  1  0.53764000  0.98829000  0.19370000  1.0
  C  C190  1  0.03764000  0.01171000  0.30630000  1.0
  C  C191  1  0.96236000  0.48828000  0.80630000  1.0
  C  C192  1  0.53764000  0.48829000  0.30630000  1.0
  C  C193  1  0.46236000  0.01172000  0.80630000  1.0
  C  C194  1  0.96236000  0.98828000  0.69370000  1.0
  C  C195  1  0.03764000  0.51172000  0.19370000  1.0
  C  C196  1  0.59986000  0.63644000  0.02115000  1.0
  C  C197  1  0.40014000  0.86356000  0.52115000  1.0
  C  C198  1  0.90014000  0.13644000  0.97885000  1.0
  C  C199  1  0.09985000  0.36356000  0.47886000  1.0
  C  C200  1  0.40015000  0.36356000  0.97885000  1.0
  C  C201  1  0.59985000  0.13644000  0.47886000  1.0
  C  C202  1  0.09986000  0.86356000  0.02115000  1.0
  C  C203  1  0.90015000  0.63644000  0.52115000  1.0
  C  C204  1  0.65789000  0.75731000  0.02946000  1.0
  C  C205  1  0.34211000  0.74269000  0.52946000  1.0
  C  C206  1  0.84211000  0.25731000  0.97054000  1.0
  C  C207  1  0.15789000  0.24269000  0.47054000  1.0
  C  C208  1  0.34211000  0.24269000  0.97054000  1.0
  C  C209  1  0.65789000  0.25731000  0.47054000  1.0
  C  C210  1  0.15789000  0.74269000  0.02946000  1.0
  C  C211  1  0.84211000  0.75731000  0.52946000  1.0
  C  C212  1  0.55548000  0.85234000  0.02983000  1.0
  C  C213  1  0.44452000  0.64766000  0.52983000  1.0
  C  C214  1  0.94452000  0.35234000  0.97016000  1.0
  C  C215  1  0.05548000  0.14766000  0.47017000  1.0
  C  C216  1  0.44453000  0.14766000  0.97016000  1.0
  C  C217  1  0.55548000  0.35234000  0.47017000  1.0
  C  C218  1  0.05548000  0.64766000  0.02983000  1.0
  C  C219  1  0.94452000  0.85234000  0.52983000  1.0
  C  C220  1  0.53313000  0.51853000  0.64851000  1.0
  C  C221  1  0.46687000  0.98147000  0.14851000  1.0
  C  C222  1  0.96686000  0.01853000  0.35149000  1.0
  C  C223  1  0.03313000  0.48146000  0.85149000  1.0
  C  C224  1  0.46687000  0.48146000  0.35149000  1.0
  C  C225  1  0.53313000  0.01854000  0.85149000  1.0
  C  C226  1  0.03313000  0.98146000  0.64851000  1.0
  C  C227  1  0.96687000  0.51854000  0.14851000  1.0
  C  C228  1  0.63630000  0.53135000  0.74243000  1.0
  C  C229  1  0.36370000  0.96865000  0.24243000  1.0
  C  C230  1  0.86370000  0.03135000  0.25757000  1.0
  C  C231  1  0.13629000  0.46865000  0.75757000  1.0
  C  C232  1  0.36370000  0.46865000  0.25757000  1.0
  C  C233  1  0.63629000  0.03135000  0.75757000  1.0
  C  C234  1  0.13630000  0.96865000  0.74243000  1.0
  C  C235  1  0.86370000  0.53135000  0.24243000  1.0
  C  C236  1  0.48088000  0.51031000  0.76319000  1.0
  C  C237  1  0.51912000  0.98969000  0.26319000  1.0
  C  C238  1  0.01911000  0.01030000  0.23681000  1.0
  C  C239  1  0.98088000  0.48969000  0.73681000  1.0
  C  C240  1  0.51911000  0.48970000  0.23681000  1.0
  C  C241  1  0.48088000  0.01031000  0.73681000  1.0
  C  C242  1  0.98088000  0.98969000  0.76319000  1.0
  C  C243  1  0.01911000  0.51031000  0.26319000  1.0
  C  C244  1  0.58166000  0.51742000  0.86288000  1.0
  C  C245  1  0.41834000  0.98258000  0.36288000  1.0
  C  C246  1  0.91833000  0.01742000  0.13713000  1.0
  C  C247  1  0.08167000  0.48258000  0.63713000  1.0
  C  C248  1  0.41834000  0.48258000  0.13712000  1.0
  C  C249  1  0.58166000  0.01742000  0.63712000  1.0
  C  C250  1  0.08167000  0.98258000  0.86287000  1.0
  C  C251  1  0.91834000  0.51742000  0.36287000  1.0
  C  C252  1  0.71751000  0.87776000  0.03187000  1.0
  C  C253  1  0.28248000  0.62224000  0.53187000  1.0
  C  C254  1  0.78248000  0.37776000  0.96813000  1.0
  C  C255  1  0.21751000  0.12224000  0.46812000  1.0
  C  C256  1  0.28248000  0.12224000  0.96813000  1.0
  C  C257  1  0.71751000  0.37776000  0.46813000  1.0
  C  C258  1  0.21751000  0.62224000  0.03188000  1.0
  C  C259  1  0.78248000  0.87776000  0.53187000  1.0
  N  N260  1  0.39702000  0.83150000  0.01998000  1.0
  N  N261  1  0.60298000  0.66850000  0.51999000  1.0
  N  N262  1  0.10298000  0.33151000  0.98002000  1.0
  N  N263  1  0.89702000  0.16850000  0.48002000  1.0
  N  N264  1  0.60298000  0.16850000  0.98001000  1.0
  N  N265  1  0.39702000  0.33150000  0.48003000  1.0
  N  N266  1  0.89702000  0.66850000  0.01998000  1.0
  N  N267  1  0.10298000  0.83150000  0.51998000  1.0
  N  N268  1  0.37601000  0.50362000  0.66987000  1.0
  N  N269  1  0.62399000  0.99638000  0.16987000  1.0
  N  N270  1  0.12399000  0.00362000  0.33013000  1.0
  N  N271  1  0.87601000  0.49638000  0.83013000  1.0
  N  N272  1  0.62399000  0.49638000  0.33013000  1.0
  N  N273  1  0.37601000  0.00362000  0.83013000  1.0
  N  N274  1  0.87601000  0.99637000  0.66987000  1.0
  N  N275  1  0.12399000  0.50362000  0.16987000  1.0
  O  O276  1  0.53335000  0.59994000  0.00966000  1.0
  O  O277  1  0.46665000  0.90006000  0.50965000  1.0
  O  O278  1  0.96665000  0.09994000  0.99034000  1.0
  O  O279  1  0.03335000  0.40006000  0.49035000  1.0
  O  O280  1  0.46665000  0.40006000  0.99034000  1.0
  O  O281  1  0.53335000  0.09994000  0.49035000  1.0
  O  O282  1  0.03335000  0.90006000  0.00966000  1.0
  O  O283  1  0.96665000  0.59994000  0.50965000  1.0
  O  O284  1  0.81454000  0.59357000  0.92116000  1.0
  O  O285  1  0.18546000  0.90643000  0.42116000  1.0
  O  O286  1  0.68546000  0.09357000  0.07884000  1.0
  O  O287  1  0.31454000  0.40643000  0.57884000  1.0
  O  O288  1  0.18546000  0.40643000  0.07884000  1.0
  O  O289  1  0.81454000  0.09357000  0.57884000  1.0
  O  O290  1  0.31453000  0.90643000  0.92116000  1.0
  O  O291  1  0.68546000  0.59357000  0.42116000  1.0
  O  O292  1  0.67917000  0.61217000  0.02899000  1.0
  O  O293  1  0.32083000  0.88783000  0.52899000  1.0
  O  O294  1  0.82083000  0.11216000  0.97101000  1.0
  O  O295  1  0.17917000  0.38783000  0.47101000  1.0
  O  O296  1  0.32083000  0.38784000  0.97101000  1.0
  O  O297  1  0.67917000  0.11217000  0.47101000  1.0
  O  O298  1  0.17917000  0.88783000  0.02899000  1.0
  O  O299  1  0.82084000  0.61216000  0.52899000  1.0
  O  O300  1  0.51339000  0.50696000  0.89904000  1.0
  O  O301  1  0.48661000  0.99304000  0.39904000  1.0
  O  O302  1  0.98661000  0.00696000  0.10096000  1.0
  O  O303  1  0.01339000  0.49304000  0.60096000  1.0
  O  O304  1  0.48661000  0.49304000  0.10096000  1.0
  O  O305  1  0.51339000  0.00696000  0.60096000  1.0
  O  O306  1  0.01339000  0.99304000  0.89904000  1.0
  O  O307  1  0.98661000  0.50696000  0.39904000  1.0
  O  O308  1  0.65961000  0.52543000  0.88508000  1.0
  O  O309  1  0.34039000  0.97457000  0.38508000  1.0
  O  O310  1  0.84039000  0.02543000  0.11492000  1.0
  O  O311  1  0.15961000  0.47457000  0.61492000  1.0
  O  O312  1  0.34039000  0.47457000  0.11492000  1.0
  O  O313  1  0.65960000  0.02542000  0.61492000  1.0
  O  O314  1  0.15961000  0.97457000  0.88508000  1.0
  O  O315  1  0.84039000  0.52543000  0.38508000  1.0
  O  O316  1  0.70080000  0.93979000  0.04863000  1.0
  O  O317  1  0.29920000  0.56021000  0.54863000  1.0
  O  O318  1  0.79920000  0.43979000  0.95137000  1.0
  O  O319  1  0.20080000  0.06021000  0.45137000  1.0
  O  O320  1  0.29919000  0.06021000  0.95137000  1.0
  O  O321  1  0.70080000  0.43979000  0.45138000  1.0
  O  O322  1  0.20080000  0.56021000  0.04863000  1.0
  O  O323  1  0.79920000  0.93979000  0.54863000  1.0
  O  O324  1  0.79333000  0.85663000  0.01310000  1.0
  O  O325  1  0.20668000  0.64337000  0.51309000  1.0
  O  O326  1  0.70668000  0.35663000  0.98690000  1.0
  O  O327  1  0.29333000  0.14337000  0.48690000  1.0
  O  O328  1  0.20668000  0.14337000  0.98690000  1.0
  O  O329  1  0.79333000  0.35663000  0.48690000  1.0
  O  O330  1  0.29333000  0.64337000  0.01311000  1.0
  O  O331  1  0.70667000  0.85663000  0.51309000  1.0
  O  O332  1  0.76620000  0.56412000  0.64466000  1.0
  O  O333  1  0.23380000  0.93587000  0.14466000  1.0
  O  O334  1  0.73380000  0.06413000  0.35534000  1.0
  O  O335  1  0.26620000  0.43588000  0.85534000  1.0
  O  O336  1  0.23380000  0.43588000  0.35534000  1.0
  O  O337  1  0.76620000  0.06413000  0.85534000  1.0
  O  O338  1  0.26620000  0.93588000  0.64466000  1.0
  O  O339  1  0.73380000  0.56413000  0.14466000  1.0
  O  O340  1  0.67633000  0.53019000  0.56012000  1.0
  O  O341  1  0.32367000  0.96981000  0.06012000  1.0
  O  O342  1  0.82367000  0.03019000  0.43988000  1.0
  O  O343  1  0.17633000  0.46981000  0.93987000  1.0
  O  O344  1  0.32367000  0.46981000  0.43988000  1.0
  O  O345  1  0.67633000  0.03019000  0.93987000  1.0
  O  O346  1  0.17633000  0.96981000  0.56012000  1.0
  O  O347  1  0.82367000  0.53019000  0.06012000  1.0
  O  O348  1  0.63385000  0.46566000  0.02220000  1.0
  O  O349  1  0.36615000  0.03434000  0.52219000  1.0
  O  O350  1  0.86615000  0.96566000  0.97780000  1.0
  O  O351  1  0.13385000  0.53434000  0.47780000  1.0
  O  O352  1  0.36615000  0.53434000  0.97781000  1.0
  O  O353  1  0.63385000  0.96566000  0.47780000  1.0
  O  O354  1  0.13385000  0.03434000  0.02220000  1.0
  O  O355  1  0.86614000  0.46566000  0.52219000  1.0
