# generated using pymatgen
data_ZnPH5C3NO3
_symmetry_space_group_name_H-M   'P 1'
_cell_length_a   8.66526000
_cell_length_b   9.31752000
_cell_length_c   15.00500000
_cell_angle_alpha   90.00000000
_cell_angle_beta   90.00000000
_cell_angle_gamma   109.13400000
_symmetry_Int_Tables_number   1
_chemical_formula_structural   ZnPH5C3NO3
_chemical_formula_sum   'Zn8 P8 H40 C24 N8 O24'
_cell_volume   1144.55570208
_cell_formula_units_Z   8
loop_
 _symmetry_equiv_pos_site_id
 _symmetry_equiv_pos_as_xyz
  1  'x, y, z'
loop_
 _atom_site_type_symbol
 _atom_site_label
 _atom_site_symmetry_multiplicity
 _atom_site_fract_x
 _atom_site_fract_y
 _atom_site_fract_z
 _atom_site_occupancy
  Zn  Zn0  1  0.40365000  0.03656000  0.35689000  1.0
  Zn  Zn1  1  0.09635000  0.96344000  0.85689000  1.0
  Zn  Zn2  1  0.59635000  0.96344000  0.64311000  1.0
  Zn  Zn3  1  0.90365000  0.03656000  0.14311000  1.0
  Zn  Zn4  1  0.07460000  0.53243000  0.25280000  1.0
  Zn  Zn5  1  0.42540000  0.46757000  0.75280000  1.0
  Zn  Zn6  1  0.92540000  0.46757000  0.74720000  1.0
  Zn  Zn7  1  0.57460000  0.53243000  0.24720000  1.0
  P  P8  1  0.39710000  0.69655000  0.37265000  1.0
  P  P9  1  0.10290000  0.30345000  0.87265000  1.0
  P  P10  1  0.60290000  0.30345000  0.62735000  1.0
  P  P11  1  0.89710000  0.69655000  0.12735000  1.0
  P  P12  1  0.74260000  0.33153000  0.35250000  1.0
  P  P13  1  0.75740000  0.66847000  0.85250000  1.0
  P  P14  1  0.25740000  0.66847000  0.64750000  1.0
  P  P15  1  0.24260000  0.33153000  0.14750000  1.0
  H  H16  1  0.44737000  0.61434000  0.43919000  1.0
  H  H17  1  0.05263000  0.38566000  0.93919000  1.0
  H  H18  1  0.55263000  0.38566000  0.56081000  1.0
  H  H19  1  0.94737000  0.61434000  0.06081000  1.0
  H  H20  1  0.80022000  0.33575000  0.44097000  1.0
  H  H21  1  0.69977000  0.66425000  0.94097000  1.0
  H  H22  1  0.19977000  0.66425000  0.55903000  1.0
  H  H23  1  0.30022000  0.33575000  0.05903000  1.0
  H  H24  1  0.30535000  0.31228000  0.36474000  1.0
  H  H25  1  0.19465000  0.68772000  0.86474000  1.0
  H  H26  1  0.69465000  0.68772000  0.63526000  1.0
  H  H27  1  0.80535000  0.31228000  0.13526000  1.0
  H  H28  1  0.14892000  0.42107000  0.46947000  1.0
  H  H29  1  0.35109000  0.57893000  0.96947000  1.0
  H  H30  1  0.85109000  0.57893000  0.53053000  1.0
  H  H31  1  0.64892000  0.42107000  0.03053000  1.0
  H  H32  1  0.03945000  0.27875000  0.61170000  1.0
  H  H33  1  0.46055000  0.72125000  0.11171000  1.0
  H  H34  1  0.96055000  0.72125000  0.38830000  1.0
  H  H35  1  0.53945000  0.27875000  0.88830000  1.0
  H  H36  1  0.25608000  0.94344000  0.52990000  1.0
  H  H37  1  0.24392000  0.05655000  0.02990000  1.0
  H  H38  1  0.74392000  0.05656000  0.47010000  1.0
  H  H39  1  0.75608000  0.94344000  0.97010000  1.0
  H  H40  1  0.98200000  0.05535000  0.69444000  1.0
  H  H41  1  0.51800000  0.94465000  0.19444000  1.0
  H  H42  1  0.01800000  0.94465000  0.30556000  1.0
  H  H43  1  0.48200000  0.05535000  0.80556000  1.0
  H  H44  1  0.01393000  0.89013000  0.65118000  1.0
  H  H45  1  0.48607000  0.10987000  0.15118000  1.0
  H  H46  1  0.98607000  0.10987000  0.34882000  1.0
  H  H47  1  0.51393000  0.89013000  0.84882000  1.0
  H  H48  1  0.28686000  0.12632000  0.73369000  1.0
  H  H49  1  0.21314000  0.87367000  0.23369000  1.0
  H  H50  1  0.71314000  0.87367000  0.26631000  1.0
  H  H51  1  0.78686000  0.12633000  0.76631000  1.0
  H  H52  1  0.26160000  0.94614000  0.71522000  1.0
  H  H53  1  0.23840000  0.05386000  0.21522000  1.0
  H  H54  1  0.73840000  0.05386000  0.28478000  1.0
  H  H55  1  0.76160000  0.94614000  0.78478000  1.0
  C  C56  1  0.25690000  0.25635000  0.42748000  1.0
  C  C57  1  0.24310000  0.74365000  0.92748000  1.0
  C  C58  1  0.74310000  0.74365000  0.57252000  1.0
  C  C59  1  0.75690000  0.25635000  0.07252000  1.0
  C  C60  1  0.16944000  0.31520000  0.48629000  1.0
  C  C61  1  0.33056000  0.68480000  0.98629000  1.0
  C  C62  1  0.83056000  0.68480000  0.51371000  1.0
  C  C63  1  0.66945000  0.31520000  0.01371000  1.0
  C  C64  1  0.10972000  0.23589000  0.56460000  1.0
  C  C65  1  0.39028000  0.76411000  0.06460000  1.0
  C  C66  1  0.89028000  0.76411000  0.43540000  1.0
  C  C67  1  0.60972000  0.23589000  0.93540000  1.0
  C  C68  1  0.22825000  0.04827000  0.52017000  1.0
  C  C69  1  0.27175000  0.95173000  0.02017000  1.0
  C  C70  1  0.77175000  0.95173000  0.47983000  1.0
  C  C71  1  0.72825000  0.04827000  0.97983000  1.0
  C  C72  1  0.13921000  0.09994000  0.58254000  1.0
  C  C73  1  0.36079000  0.90006000  0.08254000  1.0
  C  C74  1  0.86079000  0.90006000  0.41746000  1.0
  C  C75  1  0.63921000  0.09994000  0.91746000  1.0
  C  C76  1  0.07356000  0.01100000  0.66593000  1.0
  C  C77  1  0.42644000  0.98900000  0.16593000  1.0
  C  C78  1  0.92644000  0.98900000  0.33407000  1.0
  C  C79  1  0.57356000  0.01101000  0.83407000  1.0
  N  N80  1  0.28435000  0.12429000  0.44422000  1.0
  N  N81  1  0.21565000  0.87571000  0.94422000  1.0
  N  N82  1  0.71565000  0.87571000  0.55578000  1.0
  N  N83  1  0.78435000  0.12429000  0.05578000  1.0
  N  N84  1  0.19982000  0.01956000  0.73467000  1.0
  N  N85  1  0.30018000  0.98044000  0.23467000  1.0
  N  N86  1  0.80018000  0.98044000  0.26533000  1.0
  N  N87  1  0.69982000  0.01956000  0.76533000  1.0
  O  O88  1  0.21574000  0.60888000  0.35499000  1.0
  O  O89  1  0.28426000  0.39112000  0.85499000  1.0
  O  O90  1  0.78426000  0.39112000  0.64501000  1.0
  O  O91  1  0.71574000  0.60888000  0.14501000  1.0
  O  O92  1  0.50708000  0.70443000  0.28992000  1.0
  O  O93  1  0.99292000  0.29557000  0.78992000  1.0
  O  O94  1  0.49292000  0.29556000  0.71008000  1.0
  O  O95  1  0.00708000  0.70443000  0.21008000  1.0
  O  O96  1  0.42377000  0.85407000  0.41302000  1.0
  O  O97  1  0.07623000  0.14593000  0.91302000  1.0
  O  O98  1  0.57623000  0.14593000  0.58698000  1.0
  O  O99  1  0.92377000  0.85407000  0.08698000  1.0
  O  O100  1  0.62777000  0.16781000  0.33592000  1.0
  O  O101  1  0.87224000  0.83219000  0.83592000  1.0
  O  O102  1  0.37224000  0.83219000  0.66408000  1.0
  O  O103  1  0.12776000  0.16781000  0.16408000  1.0
  O  O104  1  0.65900000  0.45291000  0.34980000  1.0
  O  O105  1  0.84100000  0.54709000  0.84980000  1.0
  O  O106  1  0.34100000  0.54709000  0.65020000  1.0
  O  O107  1  0.15900000  0.45291000  0.15020000  1.0
  O  O108  1  0.88927000  0.35811000  0.28978000  1.0
  O  O109  1  0.61074000  0.64189000  0.78978000  1.0
  O  O110  1  0.11074000  0.64189000  0.71022000  1.0
  O  O111  1  0.38926000  0.35811000  0.21022000  1.0
