# generated using pymatgen
data_Zn2H28C40BrN11O8
_symmetry_space_group_name_H-M   'P 1'
_cell_length_a   13.56470000
_cell_length_b   15.93320000
_cell_length_c   17.14870000
_cell_angle_alpha   85.73470000
_cell_angle_beta   86.87620000
_cell_angle_gamma   70.21890000
_symmetry_Int_Tables_number   1
_chemical_formula_structural   Zn2H28C40BrN11O8
_chemical_formula_sum   'Zn2 H28 C40 Br1 N11 O8'
_cell_volume   3476.27317355
_cell_formula_units_Z   1
loop_
 _symmetry_equiv_pos_site_id
 _symmetry_equiv_pos_as_xyz
  1  'x, y, z'
loop_
 _atom_site_type_symbol
 _atom_site_label
 _atom_site_symmetry_multiplicity
 _atom_site_fract_x
 _atom_site_fract_y
 _atom_site_fract_z
 _atom_site_occupancy
  Zn  Zn0  1  0.51016000  0.41356000  0.50279000  1.0
  Zn  Zn1  1  0.49395000  0.59359000  0.50033000  1.0
  H  H2  1  0.15221000  0.70823000  0.54659000  1.0
  H  H3  1  0.57785000  0.68547000  0.60679000  1.0
  H  H4  1  0.38880000  0.33869000  0.41714000  1.0
  H  H5  1  0.42395000  0.92289000  0.40389000  1.0
  H  H6  1  0.42013000  0.76674000  0.40003000  1.0
  H  H7  1  0.96262000  0.73689000  0.58350000  1.0
  H  H8  1  0.12825000  0.34760000  0.48628000  1.0
  H  H9  1  0.03989000  0.24961000  0.44478000  1.0
  H  H10  1  0.73264000  0.57142000  0.57921000  1.0
  H  H11  1  0.59003000  0.36780000  0.26411000  1.0
  H  H12  1  0.40071000  0.72072000  0.21224000  1.0
  H  H13  1  0.60087000  0.36124000  0.11765000  1.0
  H  H14  1  0.44301000  0.67198000  0.30338000  1.0
  H  H15  1  0.49280000  0.65805000  0.02877000  1.0
  H  H16  1  0.49566000  0.71779000  0.10714000  1.0
  H  H17  1  0.65533000  0.28254000  0.58089000  1.0
  H  H18  1  0.68469000  0.17387000  0.61779000  1.0
  H  H19  1  0.31180000  0.24082000  0.35341000  1.0
  H  H20  1  0.34013000  0.13009000  0.38598000  1.0
  H  H21  1  0.19125000  0.36395000  0.58379000  1.0
  H  H22  1  0.29326000  0.40151000  0.55143000  1.0
  H  H23  1  0.51379000  0.33482000  0.89482000  1.0
  H  H24  1  0.48893000  0.35709000  0.74886000  1.0
  H  H25  1  0.60459000  0.56882000  0.88891000  1.0
  H  H26  1  0.58136000  0.58972000  0.74371000  1.0
  H  H27  1  0.59911000  0.07299000  0.57337000  1.0
  H  H28  1  0.59145000  0.83883000  0.61842000  1.0
  H  H29  1  0.81499000  0.68308000  0.60174000  1.0
  C  C30  1  0.51129000  0.49074000  0.65279000  1.0
  C  C31  1  0.82445000  0.41675000  0.50797000  1.0
  C  C32  1  0.53068000  0.47607000  0.73844000  1.0
  C  C33  1  0.70675000  0.44755000  0.50636000  1.0
  C  C34  1  0.56550000  0.53479000  0.77757000  1.0
  C  C35  1  0.57839000  0.52343000  0.85780000  1.0
  C  C36  1  0.55651000  0.45235000  0.90035000  1.0
  C  C37  1  0.52801000  0.39037000  0.86069000  1.0
  C  C38  1  0.51395000  0.40286000  0.78046000  1.0
  C  C39  1  0.57239000  0.42446000  0.14576000  1.0
  C  C40  1  0.56592000  0.42846000  0.22589000  1.0
  C  C41  1  0.98799000  0.44919000  0.52959000  1.0
  C  C42  1  0.54282000  0.50474000  0.09799000  1.0
  C  C43  1  0.52681000  0.51116000  0.26212000  1.0
  C  C44  1  0.49665000  0.59174000  0.21518000  1.0
  C  C45  1  0.51553000  0.50942000  0.34911000  1.0
  C  C46  1  0.50723000  0.58815000  0.13222000  1.0
  C  C47  1  0.45680000  0.78594000  0.44750000  1.0
  C  C48  1  0.45883000  0.87210000  0.44973000  1.0
  C  C49  1  0.50766000  0.89246000  0.51252000  1.0
  C  C50  1  0.55274000  0.82437000  0.56963000  1.0
  C  C51  1  0.54626000  0.74016000  0.56317000  1.0
  C  C52  1  0.87590000  0.47331000  0.53586000  1.0
  C  C53  1  0.55138000  0.13147000  0.53915000  1.0
  C  C54  1  0.56313000  0.21467000  0.54398000  1.0
  C  C55  1  0.47900000  0.12146000  0.48866000  1.0
  C  C56  1  0.43358000  0.27799000  0.45057000  1.0
  C  C57  1  0.29955000  0.55425000  0.51608000  1.0
  C  C58  1  0.41599000  0.19690000  0.44273000  1.0
  C  C59  1  0.01444000  0.67049000  0.56926000  1.0
  C  C60  1  0.18759000  0.56783000  0.53674000  1.0
  C  C61  1  0.88492000  0.33613000  0.47730000  1.0
  C  C62  1  0.99433000  0.31161000  0.47123000  1.0
  C  C63  1  0.03715000  0.51320000  0.54862000  1.0
  C  C64  1  0.04401000  0.36693000  0.49626000  1.0
  C  C65  1  0.97182000  0.60102000  0.56660000  1.0
  C  C66  1  0.86225000  0.61799000  0.58102000  1.0
  C  C67  1  0.81625000  0.55651000  0.56814000  1.0
  C  C68  1  0.14880000  0.49506000  0.54518000  1.0
  C  C69  1  0.11886000  0.65468000  0.55011000  1.0
  Br  Br70  1  0.82700000  0.25649000  0.43403000  1.0
  N  N71  1  0.55801000  0.43966000  0.98258000  1.0
  N  N72  1  0.33965000  0.19216000  0.39597000  1.0
  N  N73  1  0.21608000  0.40837000  0.55023000  1.0
  N  N74  1  0.54497000  0.51122000  0.01656000  1.0
  N  N75  1  0.49923000  0.72095000  0.50304000  1.0
  N  N76  1  0.51751000  0.97571000  0.52386000  1.0
  N  N77  1  0.46505000  0.04012000  0.47795000  1.0
  N  N78  1  0.50327000  0.28651000  0.49894000  1.0
  N  N79  1  0.45831000  0.67587000  0.24439000  1.0
  N  N80  1  0.47554000  0.66762000  0.08676000  1.0
  N  N81  1  0.63065000  0.22885000  0.59347000  1.0
  O  O82  1  0.47905000  0.43530000  0.62131000  1.0
  O  O83  1  0.52839000  0.55797000  0.61667000  1.0
  O  O84  1  0.66301000  0.39058000  0.53108000  1.0
  O  O85  1  0.65879000  0.52633000  0.47993000  1.0
  O  O86  1  0.54017000  0.43318000  0.38609000  1.0
  O  O87  1  0.48110000  0.58425000  0.38253000  1.0
  O  O88  1  0.35413000  0.47852000  0.48930000  1.0
  O  O89  1  0.33582000  0.61714000  0.52411000  1.0
