# generated using pymatgen
data_Zn2P2H10C5O6
_symmetry_space_group_name_H-M   'P 1'
_cell_length_a   4.80152000
_cell_length_b   9.57594000
_cell_length_c   11.08585247
_cell_angle_alpha   96.32157623
_cell_angle_beta   102.47963372
_cell_angle_gamma   90.01150000
_symmetry_Int_Tables_number   1
_chemical_formula_structural   Zn2P2H10C5O6
_chemical_formula_sum   'Zn4 P4 H20 C10 O12'
_cell_volume   494.49671111
_cell_formula_units_Z   2
loop_
 _symmetry_equiv_pos_site_id
 _symmetry_equiv_pos_as_xyz
  1  'x, y, z'
loop_
 _atom_site_type_symbol
 _atom_site_label
 _atom_site_symmetry_multiplicity
 _atom_site_fract_x
 _atom_site_fract_y
 _atom_site_fract_z
 _atom_site_occupancy
  Zn  Zn0  1  0.82083000  0.39116000  0.40468000  1.0
  Zn  Zn1  1  0.41608000  0.10887000  0.59523000  1.0
  Zn  Zn2  1  0.17917000  0.60884000  0.59532000  1.0
  Zn  Zn3  1  0.58392000  0.89113000  0.40477000  1.0
  P  P4  1  0.32942000  0.57178000  0.32528000  1.0
  P  P5  1  0.00395000  0.92820000  0.67471000  1.0
  P  P6  1  0.67059000  0.42823000  0.67472000  1.0
  P  P7  1  0.99604000  0.07180000  0.32528000  1.0
  H  H8  1  0.37868000  0.76852000  0.14384000  1.0
  H  H9  1  0.23423000  0.73138000  0.85598000  1.0
  H  H10  1  0.62132000  0.23148000  0.85616000  1.0
  H  H11  1  0.76577000  0.26862000  0.14402000  1.0
  H  H12  1  0.33255000  0.60424000  0.05302000  1.0
  H  H13  1  0.27891000  0.89563000  0.94679000  1.0
  H  H14  1  0.66745000  0.39576000  0.94698000  1.0
  H  H15  1  0.72109000  0.10437000  0.05321000  1.0
  H  H16  1  0.93502000  0.53744000  0.15219000  1.0
  H  H17  1  0.78244000  0.96247000  0.84790000  1.0
  H  H18  1  0.06498000  0.46256000  0.84781000  1.0
  H  H19  1  0.21755000  0.03753000  0.15209000  1.0
  H  H20  1  0.95023000  0.70734000  0.23373000  1.0
  H  H21  1  0.71591000  0.79259000  0.76627000  1.0
  H  H22  1  0.04977000  0.29266000  0.76627000  1.0
  H  H23  1  0.28409000  0.20741000  0.23373000  1.0
  H  H24  1  0.87841000  0.83093000  0.04731000  1.0
  H  H25  1  0.83119000  0.66872000  0.95298000  1.0
  H  H26  1  0.12159000  0.16907000  0.95269000  1.0
  H  H27  1  0.16881000  0.33128000  0.04702000  1.0
  C  C28  1  0.21692000  0.68692000  0.09782000  1.0
  C  C29  1  0.11852000  0.81295000  0.90208000  1.0
  C  C30  1  0.78308000  0.31308000  0.90218000  1.0
  C  C31  1  0.88148000  0.18705000  0.09792000  1.0
  C  C32  1  0.08013000  0.62708000  0.19444000  1.0
  C  C33  1  0.88516000  0.87281000  0.80557000  1.0
  C  C34  1  0.91987000  0.37292000  0.80556000  1.0
  C  C35  1  0.11484000  0.12719000  0.19443000  1.0
  C  C36  1  0.99304000  0.74988000  0.00006000  1.0
  C  C37  1  0.00696000  0.25012000  0.99994000  1.0
  O  O38  1  0.49679000  0.44581000  0.28127000  1.0
  O  O39  1  0.21554000  0.05408000  0.71874000  1.0
  O  O40  1  0.50322000  0.55419000  0.71873000  1.0
  O  O41  1  0.78446000  0.94592000  0.28126000  1.0
  O  O42  1  0.14976000  0.52570000  0.41741000  1.0
  O  O43  1  0.73250000  0.97446000  0.58259000  1.0
  O  O44  1  0.85023000  0.47430000  0.58258000  1.0
  O  O45  1  0.26750000  0.02553000  0.41741000  1.0
  O  O46  1  0.52932000  0.69346000  0.39344000  1.0
  O  O47  1  0.13539000  0.80645000  0.60650000  1.0
  O  O48  1  0.47067000  0.30654000  0.60655000  1.0
  O  O49  1  0.86461000  0.19356000  0.39350000  1.0
