# generated using pymatgen
data_AgH4(C3N)2
_symmetry_space_group_name_H-M   'P 1'
_cell_length_a   8.84124000
_cell_length_b   9.07045000
_cell_length_c   16.00630000
_cell_angle_alpha   90.00000000
_cell_angle_beta   90.00000000
_cell_angle_gamma   111.26700000
_symmetry_Int_Tables_number   1
_chemical_formula_structural   AgH4(C3N)2
_chemical_formula_sum   'Ag8 H32 C48 N16'
_cell_volume   1196.19618560
_cell_formula_units_Z   8
loop_
 _symmetry_equiv_pos_site_id
 _symmetry_equiv_pos_as_xyz
  1  'x, y, z'
loop_
 _atom_site_type_symbol
 _atom_site_label
 _atom_site_symmetry_multiplicity
 _atom_site_fract_x
 _atom_site_fract_y
 _atom_site_fract_z
 _atom_site_occupancy
  Ag  Ag0  1  0.22305000  0.44487000  0.85896000  1.0
  Ag  Ag1  1  0.27695000  0.55512000  0.35896000  1.0
  Ag  Ag2  1  0.77694000  0.55512000  0.14104000  1.0
  Ag  Ag3  1  0.72305000  0.44487000  0.64104000  1.0
  Ag  Ag4  1  0.03301000  0.75486000  0.60893000  1.0
  Ag  Ag5  1  0.46699000  0.24515000  0.10893000  1.0
  Ag  Ag6  1  0.96699000  0.24515000  0.39107000  1.0
  Ag  Ag7  1  0.53301000  0.75485000  0.89107000  1.0
  H  H8  1  0.76139000  0.32912000  0.80781000  1.0
  H  H9  1  0.73861000  0.67088000  0.30781000  1.0
  H  H10  1  0.23860000  0.67088000  0.19219000  1.0
  H  H11  1  0.26139000  0.32912000  0.69219000  1.0
  H  H12  1  0.93188000  0.06539000  0.61256000  1.0
  H  H13  1  0.56812000  0.93461000  0.11256000  1.0
  H  H14  1  0.06812000  0.93461000  0.38744000  1.0
  H  H15  1  0.43188000  0.06539000  0.88744000  1.0
  H  H16  1  0.91393000  0.06252000  0.99264000  1.0
  H  H17  1  0.58607000  0.93748000  0.49264000  1.0
  H  H18  1  0.08607000  0.93748000  0.00736000  1.0
  H  H19  1  0.41393000  0.06252000  0.50736000  1.0
  H  H20  1  0.87191000  0.23422000  0.71722000  1.0
  H  H21  1  0.62809000  0.76578000  0.21722000  1.0
  H  H22  1  0.12809000  0.76578000  0.28278000  1.0
  H  H23  1  0.37192000  0.23423000  0.78278000  1.0
  H  H24  1  0.89479000  0.89906000  0.90559000  1.0
  H  H25  1  0.60521000  0.10094000  0.40559000  1.0
  H  H26  1  0.10521000  0.10094000  0.09441000  1.0
  H  H27  1  0.39479000  0.89906000  0.59441000  1.0
  H  H28  1  0.70650000  0.48100000  0.92428000  1.0
  H  H29  1  0.79350000  0.51901000  0.42428000  1.0
  H  H30  1  0.29350000  0.51901000  0.07573000  1.0
  H  H31  1  0.20650000  0.48099000  0.57572000  1.0
  H  H32  1  0.85704000  0.23011000  0.10075000  1.0
  H  H33  1  0.64296000  0.76989000  0.60076000  1.0
  H  H34  1  0.14296000  0.76989000  0.89924000  1.0
  H  H35  1  0.35704000  0.23011000  0.39924000  1.0
  H  H36  1  0.96156000  0.74799000  0.79241000  1.0
  H  H37  1  0.53844000  0.25201000  0.29241000  1.0
  H  H38  1  0.03844000  0.25201000  0.20759000  1.0
  H  H39  1  0.46155000  0.74799000  0.70759000  1.0
  C  C40  1  0.30566000  0.31455000  0.93953000  1.0
  C  C41  1  0.19433000  0.68545000  0.43953000  1.0
  C  C42  1  0.69435000  0.68546000  0.06047000  1.0
  C  C43  1  0.80567000  0.31455000  0.56047000  1.0
  C  C44  1  0.78568000  0.30172000  0.87159000  1.0
  C  C45  1  0.71432000  0.69828000  0.37159000  1.0
  C  C46  1  0.21431000  0.69828000  0.12841000  1.0
  C  C47  1  0.28568000  0.30172000  0.62841000  1.0
  C  C48  1  0.84424000  0.18036000  0.88915000  1.0
  C  C49  1  0.65575000  0.81964000  0.38915000  1.0
  C  C50  1  0.15575000  0.81964000  0.11085000  1.0
  C  C51  1  0.34425000  0.18036000  0.61085000  1.0
  C  C52  1  0.12852000  0.53307000  0.76263000  1.0
  C  C53  1  0.37148000  0.46694000  0.26263000  1.0
  C  C54  1  0.87147000  0.46692000  0.23737000  1.0
  C  C55  1  0.62852000  0.53307000  0.73737000  1.0
  C  C56  1  0.92473000  0.03291000  0.67843000  1.0
  C  C57  1  0.57526000  0.96709000  0.17843000  1.0
  C  C58  1  0.07527000  0.96709000  0.32157000  1.0
  C  C59  1  0.42473000  0.03291000  0.82157000  1.0
  C  C60  1  0.86924000  0.15440000  0.97370000  1.0
  C  C61  1  0.63076000  0.84560000  0.47370000  1.0
  C  C62  1  0.13076000  0.84560000  0.02630000  1.0
  C  C63  1  0.36924000  0.15440000  0.52630000  1.0
  C  C64  1  0.87968000  0.08424000  0.82279000  1.0
  C  C65  1  0.62032000  0.91576000  0.32279000  1.0
  C  C66  1  0.12032000  0.91576000  0.17721000  1.0
  C  C67  1  0.37968000  0.08424000  0.67721000  1.0
  C  C68  1  0.88949000  0.12723000  0.73808000  1.0
  C  C69  1  0.61051000  0.87277000  0.23808000  1.0
  C  C70  1  0.11051000  0.87277000  0.26192000  1.0
  C  C71  1  0.38949000  0.12723000  0.76192000  1.0
  C  C72  1  0.90567000  0.94419000  0.84204000  1.0
  C  C73  1  0.59433000  0.05581000  0.34204000  1.0
  C  C74  1  0.09433000  0.05581000  0.15796000  1.0
  C  C75  1  0.40567000  0.94419000  0.65796000  1.0
  C  C76  1  0.75523000  0.38855000  0.93694000  1.0
  C  C77  1  0.74477000  0.61145000  0.43694000  1.0
  C  C78  1  0.24477000  0.61145000  0.06306000  1.0
  C  C79  1  0.25523000  0.38855000  0.56306000  1.0
  C  C80  1  0.83743000  0.24785000  0.03478000  1.0
  C  C81  1  0.66257000  0.75215000  0.53478000  1.0
  C  C82  1  0.16257000  0.75215000  0.96522000  1.0
  C  C83  1  0.33743000  0.24785000  0.46522000  1.0
  C  C84  1  0.94186000  0.85744000  0.77898000  1.0
  C  C85  1  0.55813000  0.14256000  0.27898000  1.0
  C  C86  1  0.05813000  0.14256000  0.22102000  1.0
  C  C87  1  0.44186000  0.85744000  0.72102000  1.0
  N  N88  1  0.78063000  0.36316000  0.01756000  1.0
  N  N89  1  0.71937000  0.63684000  0.51756000  1.0
  N  N90  1  0.21937000  0.63684000  0.98244000  1.0
  N  N91  1  0.28062000  0.36316000  0.48244000  1.0
  N  N92  1  0.07501000  0.58695000  0.70858000  1.0
  N  N93  1  0.42499000  0.41305000  0.20858000  1.0
  N  N94  1  0.92499000  0.41305000  0.29142000  1.0
  N  N95  1  0.57501000  0.58695000  0.79142000  1.0
  N  N96  1  0.95230000  0.90010000  0.69800000  1.0
  N  N97  1  0.54770000  0.09990000  0.19800000  1.0
  N  N98  1  0.04771000  0.09990000  0.30200000  1.0
  N  N99  1  0.45230000  0.90010000  0.80200000  1.0
  N  N100  1  0.35837000  0.25966000  0.99343000  1.0
  N  N101  1  0.14163000  0.74034000  0.49343000  1.0
  N  N102  1  0.64163000  0.74034000  0.00657000  1.0
  N  N103  1  0.85837000  0.25965000  0.50658000  1.0
