# generated using pymatgen
data_CuH11C15SN3(OF)3
_symmetry_space_group_name_H-M   'P 1'
_cell_length_a   7.90294000
_cell_length_b   13.22850000
_cell_length_c   15.24810000
_cell_angle_alpha   103.67500000
_cell_angle_beta   89.99980000
_cell_angle_gamma   89.99970000
_symmetry_Int_Tables_number   1
_chemical_formula_structural   CuH11C15SN3(OF)3
_chemical_formula_sum   'Cu4 H44 C60 S4 N12 O12 F12'
_cell_volume   1548.90909944
_cell_formula_units_Z   4
loop_
 _symmetry_equiv_pos_site_id
 _symmetry_equiv_pos_as_xyz
  1  'x, y, z'
loop_
 _atom_site_type_symbol
 _atom_site_label
 _atom_site_symmetry_multiplicity
 _atom_site_fract_x
 _atom_site_fract_y
 _atom_site_fract_z
 _atom_site_occupancy
  Cu  Cu0  1  0.09904000  0.26642000  0.12884000  1.0
  Cu  Cu1  1  0.40096000  0.26641000  0.62883000  1.0
  Cu  Cu2  1  0.90096000  0.73358000  0.87116000  1.0
  Cu  Cu3  1  0.59904000  0.73359000  0.37117000  1.0
  H  H4  1  0.04010000  0.29886000  0.94794000  1.0
  H  H5  1  0.45989000  0.29884000  0.44794000  1.0
  H  H6  1  0.95989000  0.70115000  0.05206000  1.0
  H  H7  1  0.54010000  0.70115000  0.55206000  1.0
  H  H8  1  0.11106000  0.42319000  0.85801000  1.0
  H  H9  1  0.38893000  0.42317000  0.35801000  1.0
  H  H10  1  0.88892000  0.57682000  0.14199000  1.0
  H  H11  1  0.61107000  0.57682000  0.64199000  1.0
  H  H12  1  0.28441000  0.58225000  0.92665000  1.0
  H  H13  1  0.21560000  0.58224000  0.42665000  1.0
  H  H14  1  0.71558000  0.41776000  0.07335000  1.0
  H  H15  1  0.78442000  0.41776000  0.57335000  1.0
  H  H16  1  0.27128000  0.41392000  0.22807000  1.0
  H  H17  1  0.22871000  0.41392000  0.72807000  1.0
  H  H18  1  0.72870000  0.58608000  0.77193000  1.0
  H  H19  1  0.77131000  0.58609000  0.27194000  1.0
  H  H20  1  0.43837000  0.56865000  0.30891000  1.0
  H  H21  1  0.06163000  0.56865000  0.80891000  1.0
  H  H22  1  0.56163000  0.43134000  0.69109000  1.0
  H  H23  1  0.93838000  0.43135000  0.19109000  1.0
  H  H24  1  0.43073000  0.70440000  0.99054000  1.0
  H  H25  1  0.06927000  0.70440000  0.49053000  1.0
  H  H26  1  0.56926000  0.29560000  0.00946000  1.0
  H  H27  1  0.93074000  0.29560000  0.50946000  1.0
  H  H28  1  0.61919000  0.84230000  0.07545000  1.0
  H  H29  1  0.88082000  0.84229000  0.57545000  1.0
  H  H30  1  0.38081000  0.15771000  0.92455000  1.0
  H  H31  1  0.11919000  0.15770000  0.42455000  1.0
  H  H32  1  0.69304000  0.84626000  0.23617000  1.0
  H  H33  1  0.80697000  0.84626000  0.73617000  1.0
  H  H34  1  0.30697000  0.15374000  0.76383000  1.0
  H  H35  1  0.19303000  0.15374000  0.26383000  1.0
  H  H36  1  0.92678000  0.01371000  0.84606000  1.0
  H  H37  1  0.57322000  0.01370000  0.34605000  1.0
  H  H38  1  0.07322000  0.98630000  0.15394000  1.0
  H  H39  1  0.42678000  0.98629000  0.65395000  1.0
  H  H40  1  0.74937000  0.09847000  0.87515000  1.0
  H  H41  1  0.75063000  0.09846000  0.37514000  1.0
  H  H42  1  0.25064000  0.90153000  0.12485000  1.0
  H  H43  1  0.24936000  0.90153000  0.62486000  1.0
  H  H44  1  0.76786000  0.98490000  0.91947000  1.0
  H  H45  1  0.73215000  0.98489000  0.41946000  1.0
  H  H46  1  0.23214000  0.01510000  0.08052000  1.0
  H  H47  1  0.26785000  0.01510000  0.58054000  1.0
  C  C48  1  0.11486000  0.36737000  0.97822000  1.0
  C  C49  1  0.38514000  0.36736000  0.47822000  1.0
  C  C50  1  0.88513000  0.63263000  0.02178000  1.0
  C  C51  1  0.61486000  0.63263000  0.52178000  1.0
  C  C52  1  0.15651000  0.43890000  0.92720000  1.0
  C  C53  1  0.34349000  0.43889000  0.42719000  1.0
  C  C54  1  0.84348000  0.56110000  0.07281000  1.0
  C  C55  1  0.65652000  0.56111000  0.57281000  1.0
  C  C56  1  0.25159000  0.52579000  0.96574000  1.0
  C  C57  1  0.24842000  0.52578000  0.46574000  1.0
  C  C58  1  0.74840000  0.47421000  0.03426000  1.0
  C  C59  1  0.75160000  0.47422000  0.53426000  1.0
  C  C60  1  0.30425000  0.54058000  0.05638000  1.0
  C  C61  1  0.19575000  0.54057000  0.55637000  1.0
  C  C62  1  0.69574000  0.45943000  0.94362000  1.0
  C  C63  1  0.80426000  0.45943000  0.44362000  1.0
  C  C64  1  0.25756000  0.46375000  0.10348000  1.0
  C  C65  1  0.24244000  0.46374000  0.60348000  1.0
  C  C66  1  0.74243000  0.53626000  0.89652000  1.0
  C  C67  1  0.75757000  0.53626000  0.39652000  1.0
  C  C68  1  0.30849000  0.47499000  0.19492000  1.0
  C  C69  1  0.19151000  0.47499000  0.69492000  1.0
  C  C70  1  0.69151000  0.52501000  0.80508000  1.0
  C  C71  1  0.80850000  0.52501000  0.30508000  1.0
  C  C72  1  0.40066000  0.55876000  0.23867000  1.0
  C  C73  1  0.09934000  0.55876000  0.73867000  1.0
  C  C74  1  0.59934000  0.44124000  0.76133000  1.0
  C  C75  1  0.90067000  0.44124000  0.26133000  1.0
  C  C76  1  0.45291000  0.63658000  0.19397000  1.0
  C  C77  1  0.04709000  0.63658000  0.69397000  1.0
  C  C78  1  0.54709000  0.36342000  0.80603000  1.0
  C  C79  1  0.95292000  0.36342000  0.30603000  1.0
  C  C80  1  0.40563000  0.62852000  0.10248000  1.0
  C  C81  1  0.09438000  0.62852000  0.60248000  1.0
  C  C82  1  0.59437000  0.37148000  0.89752000  1.0
  C  C83  1  0.90563000  0.37148000  0.39752000  1.0
  C  C84  1  0.46409000  0.70574000  0.06016000  1.0
  C  C85  1  0.03591000  0.70574000  0.56015000  1.0
  C  C86  1  0.53590000  0.29426000  0.93984000  1.0
  C  C87  1  0.96410000  0.29426000  0.43984000  1.0
  C  C88  1  0.56831000  0.78374000  0.10777000  1.0
  C  C89  1  0.93170000  0.78373000  0.60777000  1.0
  C  C90  1  0.43169000  0.21627000  0.89223000  1.0
  C  C91  1  0.06831000  0.21626000  0.39223000  1.0
  C  C92  1  0.60984000  0.78634000  0.19756000  1.0
  C  C93  1  0.89016000  0.78634000  0.69755000  1.0
  C  C94  1  0.39016000  0.21366000  0.80244000  1.0
  C  C95  1  0.10984000  0.21366000  0.30244000  1.0
  C  C96  1  0.93066000  0.10846000  0.97610000  1.0
  C  C97  1  0.56934000  0.10846000  0.47610000  1.0
  C  C98  1  0.06934000  0.89153000  0.02391000  1.0
  C  C99  1  0.43065000  0.89154000  0.52391000  1.0
  C  C100  1  0.83809000  0.04793000  0.90024000  1.0
  C  C101  1  0.66191000  0.04792000  0.40024000  1.0
  C  C102  1  0.16191000  0.95207000  0.09976000  1.0
  C  C103  1  0.33808000  0.95207000  0.59977000  1.0
  C  C104  1  0.62137000  0.08808000  0.16304000  1.0
  C  C105  1  0.87861000  0.08808000  0.66305000  1.0
  C  C106  1  0.37862000  0.91192000  0.83695000  1.0
  C  C107  1  0.12139000  0.91192000  0.33695000  1.0
  S  S108  1  0.53876000  0.22346000  0.17978000  1.0
  S  S109  1  0.96124000  0.22346000  0.67979000  1.0
  S  S110  1  0.46124000  0.77654000  0.82021000  1.0
  S  S111  1  0.03877000  0.77655000  0.32021000  1.0
  N  N112  1  0.16305000  0.37809000  0.06393000  1.0
  N  N113  1  0.33695000  0.37808000  0.56392000  1.0
  N  N114  1  0.83694000  0.62192000  0.93607000  1.0
  N  N115  1  0.66306000  0.62192000  0.43608000  1.0
  N  N116  1  0.55236000  0.71631000  0.24110000  1.0
  N  N117  1  0.94764000  0.71631000  0.74109000  1.0
  N  N118  1  0.44764000  0.28368000  0.75890000  1.0
  N  N119  1  0.05236000  0.28369000  0.25890000  1.0
  N  N120  1  0.00526000  0.15828000  0.03721000  1.0
  N  N121  1  0.49475000  0.15827000  0.53720000  1.0
  N  N122  1  0.99474000  0.84171000  0.96280000  1.0
  N  N123  1  0.50525000  0.84172000  0.46280000  1.0
  O  O124  1  0.66593000  0.27620000  0.13781000  1.0
  O  O125  1  0.83407000  0.27621000  0.63782000  1.0
  O  O126  1  0.33407000  0.72379000  0.86218000  1.0
  O  O127  1  0.16594000  0.72380000  0.36219000  1.0
  O  O128  1  0.37824000  0.20337000  0.13020000  1.0
  O  O129  1  0.12175000  0.20336000  0.63020000  1.0
  O  O130  1  0.62175000  0.79663000  0.86980000  1.0
  O  O131  1  0.87825000  0.79664000  0.36980000  1.0
  O  O132  1  0.52371000  0.25813000  0.27740000  1.0
  O  O133  1  0.97630000  0.25814000  0.77740000  1.0
  O  O134  1  0.47631000  0.74187000  0.72259000  1.0
  O  O135  1  0.02371000  0.74187000  0.22260000  1.0
  F  F136  1  0.51294000  0.02957000  0.20065000  1.0
  F  F137  1  0.98704000  0.02957000  0.70066000  1.0
  F  F138  1  0.48705000  0.97043000  0.79935000  1.0
  F  F139  1  0.01295000  0.97043000  0.29934000  1.0
  F  F140  1  0.77583000  0.08451000  0.20160000  1.0
  F  F141  1  0.72415000  0.08452000  0.70162000  1.0
  F  F142  1  0.22416000  0.91549000  0.79839000  1.0
  F  F143  1  0.27584000  0.91549000  0.29839000  1.0
  F  F144  1  0.63528000  0.03998000  0.07402000  1.0
  F  F145  1  0.86470000  0.03998000  0.57403000  1.0
  F  F146  1  0.36470000  0.96002000  0.92597000  1.0
  F  F147  1  0.13530000  0.96003000  0.42597000  1.0
