# generated using pymatgen
data_LaH11C14N2O11
_symmetry_space_group_name_H-M   'P 1'
_cell_length_a   6.97682000
_cell_length_b   11.19230000
_cell_length_c   11.22530000
_cell_angle_alpha   79.65740000
_cell_angle_beta   75.23040000
_cell_angle_gamma   75.64370000
_symmetry_Int_Tables_number   1
_chemical_formula_structural   LaH11C14N2O11
_chemical_formula_sum   'La2 H22 C28 N4 O22'
_cell_volume   814.76098285
_cell_formula_units_Z   2
loop_
 _symmetry_equiv_pos_site_id
 _symmetry_equiv_pos_as_xyz
  1  'x, y, z'
loop_
 _atom_site_type_symbol
 _atom_site_label
 _atom_site_symmetry_multiplicity
 _atom_site_fract_x
 _atom_site_fract_y
 _atom_site_fract_z
 _atom_site_occupancy
  La  La0  1  0.33305000  0.76016000  0.54006000  1.0
  La  La1  1  0.66694000  0.23984000  0.45994000  1.0
  H  H2  1  0.80206000  0.16006000  0.78128000  1.0
  H  H3  1  0.19794000  0.83994000  0.21872000  1.0
  H  H4  1  0.86953000  0.82850000  0.04329000  1.0
  H  H5  1  0.13048000  0.17150000  0.95672000  1.0
  H  H6  1  0.05212000  0.65308000  0.07656000  1.0
  H  H7  1  0.94788000  0.34691000  0.92345000  1.0
  H  H8  1  0.45679000  0.34702000  0.89866000  1.0
  H  H9  1  0.54321000  0.65299000  0.10134000  1.0
  H  H10  1  0.47720000  0.22961000  0.06233000  1.0
  H  H11  1  0.52279000  0.77040000  0.93766000  1.0
  H  H12  1  0.63584000  0.77492000  0.70356000  1.0
  H  H13  1  0.36416000  0.22508000  0.29644000  1.0
  H  H14  1  0.65626000  0.88597000  0.58927000  1.0
  H  H15  1  0.34373000  0.11403000  0.41072000  1.0
  H  H16  1  0.57505000  0.90993000  0.27834000  1.0
  H  H17  1  0.42496000  0.09007000  0.72166000  1.0
  H  H18  1  0.56521000  0.76885000  0.29288000  1.0
  H  H19  1  0.43480000  0.23115000  0.70712000  1.0
  H  H20  1  0.02917000  0.56695000  0.64555000  1.0
  H  H21  1  0.97083000  0.43305000  0.35444000  1.0
  H  H22  1  0.20866000  0.52213000  0.52652000  1.0
  H  H23  1  0.79133000  0.47787000  0.47348000  1.0
  C  C24  1  0.00979000  0.99592000  0.71579000  1.0
  C  C25  1  0.99021000  0.00408000  0.28420000  1.0
  C  C26  1  0.86827000  0.06267000  0.80570000  1.0
  C  C27  1  0.13173000  0.93733000  0.19429000  1.0
  C  C28  1  0.81542000  0.00042000  0.92476000  1.0
  C  C29  1  0.18458000  0.99958000  0.07524000  1.0
  C  C30  1  0.90917000  0.87613000  0.94993000  1.0
  C  C31  1  0.09084000  0.12387000  0.05007000  1.0
  C  C32  1  0.05167000  0.81607000  0.85512000  1.0
  C  C33  1  0.94834000  0.18393000  0.14488000  1.0
  C  C34  1  0.16417000  0.68612000  0.87586000  1.0
  C  C35  1  0.83583000  0.31388000  0.12414000  1.0
  C  C36  1  0.14624000  0.61541000  0.99280000  1.0
  C  C37  1  0.85376000  0.38459000  0.00720000  1.0
  C  C38  1  0.25241000  0.49195000  0.00480000  1.0
  C  C39  1  0.74759000  0.50805000  0.99520000  1.0
  C  C40  1  0.37245000  0.44265000  0.89766000  1.0
  C  C41  1  0.62754000  0.55735000  0.10234000  1.0
  C  C42  1  0.38977000  0.52061000  0.78534000  1.0
  C  C43  1  0.61023000  0.47940000  0.21466000  1.0
  C  C44  1  0.52532000  0.47543000  0.66693000  1.0
  C  C45  1  0.47469000  0.52456000  0.33306000  1.0
  C  C46  1  0.22851000  0.41887000  0.13388000  1.0
  C  C47  1  0.77149000  0.58113000  0.86612000  1.0
  C  C48  1  0.66067000  0.06331000  0.02679000  1.0
  C  C49  1  0.33934000  0.93669000  0.97321000  1.0
  C  C50  1  0.07494000  0.05787000  0.58522000  1.0
  C  C51  1  0.92505000  0.94213000  0.41478000  1.0
  N  N52  1  0.09641000  0.87545000  0.73904000  1.0
  N  N53  1  0.90359000  0.12455000  0.26096000  1.0
  N  N54  1  0.29050000  0.63952000  0.77465000  1.0
  N  N55  1  0.70950000  0.36048000  0.22535000  1.0
  O  O56  1  0.58285000  0.55867000  0.58109000  1.0
  O  O57  1  0.41715000  0.44132000  0.41890000  1.0
  O  O58  1  0.57000000  0.35965000  0.66039000  1.0
  O  O59  1  0.43000000  0.64034000  0.33960000  1.0
  O  O60  1  0.32323000  0.30438000  0.14723000  1.0
  O  O61  1  0.67678000  0.69562000  0.85278000  1.0
  O  O62  1  0.11460000  0.47682000  0.22020000  1.0
  O  O63  1  0.88539000  0.52318000  0.77980000  1.0
  O  O64  1  0.60632000  0.00618000  0.12990000  1.0
  O  O65  1  0.39368000  0.99383000  0.87010000  1.0
  O  O66  1  0.59102000  0.18202000  0.99358000  1.0
  O  O67  1  0.40899000  0.81798000  0.00642000  1.0
  O  O68  1  0.96833000  0.16105000  0.55210000  1.0
  O  O69  1  0.03166000  0.83895000  0.44790000  1.0
  O  O70  1  0.23437000  0.00025000  0.51652000  1.0
  O  O71  1  0.76562000  0.99974000  0.48348000  1.0
  O  O72  1  0.57725000  0.82209000  0.63291000  1.0
  O  O73  1  0.42275000  0.17791000  0.36709000  1.0
  O  O74  1  0.57135000  0.83460000  0.33862000  1.0
  O  O75  1  0.42866000  0.16540000  0.66138000  1.0
  O  O76  1  0.13562000  0.59249000  0.57401000  1.0
  O  O77  1  0.86439000  0.40751000  0.42600000  1.0
