# generated using pymatgen
data_CuH13C11N5O4
_symmetry_space_group_name_H-M   'P 1'
_cell_length_a   7.81170000
_cell_length_b   8.18827000
_cell_length_c   11.69400000
_cell_angle_alpha   101.07600000
_cell_angle_beta   96.29330000
_cell_angle_gamma   103.92900000
_symmetry_Int_Tables_number   1
_chemical_formula_structural   CuH13C11N5O4
_chemical_formula_sum   'Cu2 H26 C22 N10 O8'
_cell_volume   702.87713688
_cell_formula_units_Z   2
loop_
 _symmetry_equiv_pos_site_id
 _symmetry_equiv_pos_as_xyz
  1  'x, y, z'
loop_
 _atom_site_type_symbol
 _atom_site_label
 _atom_site_symmetry_multiplicity
 _atom_site_fract_x
 _atom_site_fract_y
 _atom_site_fract_z
 _atom_site_occupancy
  Cu  Cu0  1  0.02275000  0.04982000  0.39907000  1.0
  Cu  Cu1  1  0.97724000  0.95019000  0.60092000  1.0
  H  H2  1  0.81009000  0.23172000  0.83770000  1.0
  H  H3  1  0.18993000  0.76828000  0.16230000  1.0
  H  H4  1  0.08987000  0.34301000  0.81034000  1.0
  H  H5  1  0.91014000  0.65700000  0.18966000  1.0
  H  H6  1  0.27078000  0.30870000  0.90220000  1.0
  H  H7  1  0.72923000  0.69130000  0.09780000  1.0
  H  H8  1  0.20486000  0.50250000  0.94262000  1.0
  H  H9  1  0.79515000  0.49752000  0.05738000  1.0
  H  H10  1  0.52352000  0.97040000  0.09556000  1.0
  H  H11  1  0.47649000  0.02958000  0.90442000  1.0
  H  H12  1  0.68771000  0.98034000  0.21657000  1.0
  H  H13  1  0.31229000  0.01964000  0.78341000  1.0
  H  H14  1  0.34902000  0.22656000  0.29328000  1.0
  H  H15  1  0.65099000  0.77344000  0.70672000  1.0
  H  H16  1  0.14534000  0.53541000  0.28600000  1.0
  H  H17  1  0.85465000  0.46459000  0.71401000  1.0
  H  H18  1  0.10978000  0.46908000  0.41996000  1.0
  H  H19  1  0.89019000  0.53092000  0.58005000  1.0
  H  H20  1  0.40544000  0.68257000  0.52066000  1.0
  H  H21  1  0.59455000  0.31743000  0.47935000  1.0
  H  H22  1  0.42556000  0.51245000  0.40969000  1.0
  H  H23  1  0.57441000  0.48753000  0.59033000  1.0
  H  H24  1  0.46560000  0.70055000  0.26728000  1.0
  H  H25  1  0.53440000  0.29940000  0.73273000  1.0
  H  H26  1  0.41677000  0.86869000  0.36557000  1.0
  H  H27  1  0.58323000  0.13128000  0.63442000  1.0
  C  C28  1  0.85201000  0.21400000  0.92545000  1.0
  C  C29  1  0.14800000  0.78601000  0.07455000  1.0
  C  C30  1  0.15648000  0.36423000  0.90120000  1.0
  C  C31  1  0.84353000  0.63578000  0.09879000  1.0
  C  C32  1  0.08756000  0.24652000  0.07476000  1.0
  C  C33  1  0.91245000  0.75350000  0.92524000  1.0
  C  C34  1  0.96674000  0.15484000  0.13684000  1.0
  C  C35  1  0.03327000  0.84517000  0.86315000  1.0
  C  C36  1  0.78226000  0.09861000  0.08822000  1.0
  C  C37  1  0.21776000  0.90139000  0.91177000  1.0
  C  C38  1  0.23655000  0.21856000  0.22694000  1.0
  C  C39  1  0.76346000  0.78145000  0.77306000  1.0
  C  C40  1  0.10237000  0.72961000  0.42365000  1.0
  C  C41  1  0.89762000  0.27039000  0.57635000  1.0
  C  C42  1  0.17457000  0.57648000  0.38283000  1.0
  C  C43  1  0.82542000  0.42352000  0.61718000  1.0
  C  C44  1  0.37735000  0.62884000  0.42483000  1.0
  C  C45  1  0.62263000  0.37115000  0.57519000  1.0
  C  C46  1  0.47682000  0.75909000  0.36167000  1.0
  C  C47  1  0.52317000  0.24088000  0.63833000  1.0
  C  C48  1  0.67253000  0.83875000  0.41260000  1.0
  C  C49  1  0.32746000  0.16124000  0.58740000  1.0
  N  N50  1  0.73201000  0.13234000  0.98057000  1.0
  N  N51  1  0.26801000  0.86766000  0.01942000  1.0
  N  N52  1  0.02925000  0.27660000  0.96751000  1.0
  N  N53  1  0.97077000  0.72341000  0.03249000  1.0
  N  N54  1  0.65430000  0.01360000  0.13837000  1.0
  N  N55  1  0.34571000  0.98639000  0.86161000  1.0
  N  N56  1  0.06770000  0.13788000  0.23640000  1.0
  N  N57  1  0.93231000  0.86213000  0.76359000  1.0
  N  N58  1  0.25742000  0.28854000  0.13121000  1.0
  N  N59  1  0.74259000  0.71146000  0.86880000  1.0
  O  O60  1  0.09745000  0.83166000  0.35381000  1.0
  O  O61  1  0.90257000  0.16837000  0.64619000  1.0
  O  O62  1  0.06040000  0.74924000  0.52651000  1.0
  O  O63  1  0.93955000  0.25076000  0.47349000  1.0
  O  O64  1  0.76766000  0.91421000  0.34569000  1.0
  O  O65  1  0.23233000  0.08576000  0.65430000  1.0
  O  O66  1  0.72695000  0.83043000  0.51693000  1.0
  O  O67  1  0.27304000  0.16960000  0.48308000  1.0
