# generated using pymatgen
data_ZnH22C16N3O8
_symmetry_space_group_name_H-M   'P 1'
_cell_length_a   6.79898000
_cell_length_b   9.74063000
_cell_length_c   15.07750000
_cell_angle_alpha   96.29850000
_cell_angle_beta   93.61070000
_cell_angle_gamma   105.15300000
_symmetry_Int_Tables_number   1
_chemical_formula_structural   ZnH22C16N3O8
_chemical_formula_sum   'Zn2 H44 C32 N6 O16'
_cell_volume   953.61091755
_cell_formula_units_Z   2
loop_
 _symmetry_equiv_pos_site_id
 _symmetry_equiv_pos_as_xyz
  1  'x, y, z'
loop_
 _atom_site_type_symbol
 _atom_site_label
 _atom_site_symmetry_multiplicity
 _atom_site_fract_x
 _atom_site_fract_y
 _atom_site_fract_z
 _atom_site_occupancy
  Zn  Zn0  1  0.87151000  0.29730000  0.12671000  1.0
  Zn  Zn1  1  0.12849000  0.70269000  0.87329000  1.0
  H  H2  1  0.64413000  0.20860000  0.97809000  1.0
  H  H3  1  0.35587000  0.79139000  0.02191000  1.0
  H  H4  1  0.66800000  0.38089000  0.00909000  1.0
  H  H5  1  0.33201000  0.61911000  0.99092000  1.0
  H  H6  1  0.23112000  0.36936000  0.08234000  1.0
  H  H7  1  0.76888000  0.63063000  0.91766000  1.0
  H  H8  1  0.18710000  0.22653000  0.13618000  1.0
  H  H9  1  0.81291000  0.77346000  0.86382000  1.0
  H  H10  1  0.71916000  0.81189000  0.03465000  1.0
  H  H11  1  0.28085000  0.18810000  0.96535000  1.0
  H  H12  1  0.09827000  0.79180000  0.15088000  1.0
  H  H13  1  0.90175000  0.20819000  0.84912000  1.0
  H  H14  1  0.46915000  0.15828000  0.19016000  1.0
  H  H15  1  0.53085000  0.84172000  0.80984000  1.0
  H  H16  1  0.31729000  0.13779000  0.33516000  1.0
  H  H17  1  0.68269000  0.86221000  0.66483000  1.0
  H  H18  1  0.90744000  0.38662000  0.46660000  1.0
  H  H19  1  0.09256000  0.61337000  0.53340000  1.0
  H  H20  1  0.03647000  0.39694000  0.31670000  1.0
  H  H21  1  0.96352000  0.60305000  0.68330000  1.0
  H  H22  1  0.07015000  0.98361000  0.61585000  1.0
  H  H23  1  0.92985000  0.01639000  0.38416000  1.0
  H  H24  1  0.15900000  0.09152000  0.72074000  1.0
  H  H25  1  0.84100000  0.90849000  0.27927000  1.0
  H  H26  1  0.31788000  0.99470000  0.66770000  1.0
  H  H27  1  0.68213000  0.00532000  0.33231000  1.0
  H  H28  1  0.18362000  0.34791000  0.54767000  1.0
  H  H29  1  0.81637000  0.65209000  0.45233000  1.0
  H  H30  1  0.06032000  0.29214000  0.64351000  1.0
  H  H31  1  0.93967000  0.70787000  0.35650000  1.0
  H  H32  1  0.99857000  0.17673000  0.54009000  1.0
  H  H33  1  0.00142000  0.82327000  0.45991000  1.0
  H  H34  1  0.66785000  0.13684000  0.65671000  1.0
  H  H35  1  0.33214000  0.86317000  0.34330000  1.0
  H  H36  1  0.57120000  0.17947000  0.76043000  1.0
  H  H37  1  0.42880000  0.82055000  0.23958000  1.0
  H  H38  1  0.78060000  0.30584000  0.72492000  1.0
  H  H39  1  0.21940000  0.69418000  0.27508000  1.0
  H  H40  1  0.59761000  0.48886000  0.74882000  1.0
  H  H41  1  0.40240000  0.51116000  0.25118000  1.0
  H  H42  1  0.36518000  0.37113000  0.77214000  1.0
  H  H43  1  0.63482000  0.62889000  0.22787000  1.0
  H  H44  1  0.36458000  0.47711000  0.68377000  1.0
  H  H45  1  0.63542000  0.52291000  0.31622000  1.0
  C  C46  1  0.94393000  0.00588000  0.10452000  1.0
  C  C47  1  0.05608000  0.99411000  0.89549000  1.0
  C  C48  1  0.86330000  0.84805000  0.07748000  1.0
  C  C49  1  0.13673000  0.15193000  0.92252000  1.0
  C  C50  1  0.95787000  0.75382000  0.10558000  1.0
  C  C51  1  0.04214000  0.24617000  0.89442000  1.0
  C  C52  1  0.87363000  0.59589000  0.08313000  1.0
  C  C53  1  0.12639000  0.40409000  0.91687000  1.0
  C  C54  1  0.56077000  0.20798000  0.25296000  1.0
  C  C55  1  0.43924000  0.79202000  0.74704000  1.0
  C  C56  1  0.47664000  0.19654000  0.33427000  1.0
  C  C57  1  0.52334000  0.80347000  0.66572000  1.0
  C  C58  1  0.60131000  0.26040000  0.41383000  1.0
  C  C59  1  0.39870000  0.73960000  0.58615000  1.0
  C  C60  1  0.80568000  0.33449000  0.40728000  1.0
  C  C61  1  0.19432000  0.66551000  0.59272000  1.0
  C  C62  1  0.87807000  0.34056000  0.32345000  1.0
  C  C63  1  0.12192000  0.65943000  0.67654000  1.0
  C  C64  1  0.52205000  0.25012000  0.50075000  1.0
  C  C65  1  0.47793000  0.74988000  0.49925000  1.0
  C  C66  1  0.29083000  0.18353000  0.60825000  1.0
  C  C67  1  0.70916000  0.81648000  0.39174000  1.0
  C  C68  1  0.48834000  0.29401000  0.65544000  1.0
  C  C69  1  0.51167000  0.70600000  0.34455000  1.0
  C  C70  1  0.20586000  0.05487000  0.65597000  1.0
  C  C71  1  0.79413000  0.94515000  0.34404000  1.0
  C  C72  1  0.12296000  0.25525000  0.58291000  1.0
  C  C73  1  0.87702000  0.74476000  0.41709000  1.0
  C  C74  1  0.63691000  0.22374000  0.70161000  1.0
  C  C75  1  0.36309000  0.77627000  0.29840000  1.0
  C  C76  1  0.45211000  0.41575000  0.71818000  1.0
  C  C77  1  0.54789000  0.58426000  0.28182000  1.0
  N  N78  1  0.75767000  0.27856000  0.24765000  1.0
  N  N79  1  0.24233000  0.72143000  0.75234000  1.0
  N  N80  1  0.36869000  0.13942000  0.52052000  1.0
  N  N81  1  0.63131000  0.86061000  0.47948000  1.0
  N  N82  1  0.58604000  0.34933000  0.57409000  1.0
  N  N83  1  0.41395000  0.65066000  0.42590000  1.0
  O  O84  1  0.81527000  0.07791000  0.08835000  1.0
  O  O85  1  0.18473000  0.92207000  0.91166000  1.0
  O  O86  1  0.12659000  0.05733000  0.13977000  1.0
  O  O87  1  0.87342000  0.94266000  0.86023000  1.0
  O  O88  1  0.93064000  0.52109000  0.13881000  1.0
  O  O89  1  0.06936000  0.47890000  0.86120000  1.0
  O  O90  1  0.75075000  0.54543000  0.01223000  1.0
  O  O91  1  0.24926000  0.45456000  0.98778000  1.0
  O  O92  1  0.27853000  0.02442000  0.46853000  1.0
  O  O93  1  0.72142000  0.97559000  0.53147000  1.0
  O  O94  1  0.71984000  0.47064000  0.57873000  1.0
  O  O95  1  0.28017000  0.52936000  0.42127000  1.0
  O  O96  1  0.63660000  0.27935000  0.02770000  1.0
  O  O97  1  0.36340000  0.72064000  0.97230000  1.0
  O  O98  1  0.18202000  0.33027000  0.13800000  1.0
  O  O99  1  0.81799000  0.66972000  0.86200000  1.0
