# generated using pymatgen
data_CdH18C24S2N2O5
_symmetry_space_group_name_H-M   'P 1'
_cell_length_a   9.61169000
_cell_length_b   12.05720000
_cell_length_c   26.59760000
_cell_angle_alpha   90.00190000
_cell_angle_beta   90.00150000
_cell_angle_gamma   111.78600000
_symmetry_Int_Tables_number   1
_chemical_formula_structural   CdH18C24S2N2O5
_chemical_formula_sum   'Cd4 H72 C96 S8 N8 O20'
_cell_volume   2862.24218267
_cell_formula_units_Z   4
loop_
 _symmetry_equiv_pos_site_id
 _symmetry_equiv_pos_as_xyz
  1  'x, y, z'
loop_
 _atom_site_type_symbol
 _atom_site_label
 _atom_site_symmetry_multiplicity
 _atom_site_fract_x
 _atom_site_fract_y
 _atom_site_fract_z
 _atom_site_occupancy
  Cd  Cd0  1  0.74604000  0.64807000  0.08871000  1.0
  Cd  Cd1  1  0.75397000  0.35193000  0.58871000  1.0
  Cd  Cd2  1  0.25398000  0.35193000  0.91129000  1.0
  Cd  Cd3  1  0.24599000  0.64804000  0.41129000  1.0
  H  H4  1  0.46782000  0.69394000  0.22423000  1.0
  H  H5  1  0.03223000  0.30610000  0.72424000  1.0
  H  H6  1  0.53220000  0.30606000  0.77576000  1.0
  H  H7  1  0.96781000  0.69391000  0.27578000  1.0
  H  H8  1  0.38662000  0.78670000  0.29666000  1.0
  H  H9  1  0.11343000  0.21335000  0.79667000  1.0
  H  H10  1  0.61343000  0.21331000  0.70334000  1.0
  H  H11  1  0.88661000  0.78665000  0.20334000  1.0
  H  H12  1  0.45426000  0.00905000  0.29752000  1.0
  H  H13  1  0.04578000  0.99099000  0.79753000  1.0
  H  H14  1  0.54580000  0.99095000  0.70248000  1.0
  H  H15  1  0.95424000  0.00901000  0.20248000  1.0
  H  H16  1  0.60308000  0.13309000  0.22829000  1.0
  H  H17  1  0.89696000  0.86695000  0.72829000  1.0
  H  H18  1  0.39697000  0.86691000  0.77171000  1.0
  H  H19  1  0.10305000  0.13305000  0.27172000  1.0
  H  H20  1  0.87131000  0.17045000  0.22551000  1.0
  H  H21  1  0.62874000  0.82957000  0.72552000  1.0
  H  H22  1  0.12871000  0.82954000  0.77448000  1.0
  H  H23  1  0.37128000  0.17043000  0.27448000  1.0
  H  H24  1  0.04822000  0.28921000  0.29044000  1.0
  H  H25  1  0.45183000  0.71081000  0.79045000  1.0
  H  H26  1  0.95180000  0.71076000  0.70954000  1.0
  H  H27  1  0.54819000  0.28919000  0.20955000  1.0
  H  H28  1  0.14776000  0.51160000  0.28723000  1.0
  H  H29  1  0.35229000  0.48841000  0.78723000  1.0
  H  H30  1  0.85222000  0.48837000  0.71277000  1.0
  H  H31  1  0.64775000  0.51159000  0.21278000  1.0
  H  H32  1  0.06459000  0.61328000  0.21807000  1.0
  H  H33  1  0.43545000  0.38674000  0.71805000  1.0
  H  H34  1  0.93537000  0.38671000  0.78195000  1.0
  H  H35  1  0.56459000  0.61326000  0.28196000  1.0
  H  H36  1  0.60973000  0.39959000  0.02710000  1.0
  H  H37  1  0.89031000  0.60038000  0.52709000  1.0
  H  H38  1  0.39029000  0.60042000  0.97291000  1.0
  H  H39  1  0.10968000  0.39959000  0.47290000  1.0
  H  H40  1  0.65962000  0.30063000  0.95089000  1.0
  H  H41  1  0.84037000  0.69936000  0.45090000  1.0
  H  H42  1  0.34034000  0.69941000  0.04910000  1.0
  H  H43  1  0.15956000  0.30066000  0.54912000  1.0
  H  H44  1  0.88200000  0.41603000  0.89636000  1.0
  H  H45  1  0.61794000  0.58398000  0.39638000  1.0
  H  H46  1  0.11794000  0.58401000  0.10362000  1.0
  H  H47  1  0.38198000  0.41606000  0.60363000  1.0
  H  H48  1  0.03872000  0.62445000  0.92010000  1.0
  H  H49  1  0.46123000  0.37556000  0.42012000  1.0
  H  H50  1  0.96126000  0.37557000  0.07989000  1.0
  H  H51  1  0.53873000  0.62446000  0.57988000  1.0
  H  H52  1  0.16708000  0.78578000  0.94516000  1.0
  H  H53  1  0.33287000  0.21424000  0.44517000  1.0
  H  H54  1  0.83296000  0.21423000  0.05485000  1.0
  H  H55  1  0.66712000  0.78574000  0.55482000  1.0
  H  H56  1  0.31194000  0.98818000  0.97739000  1.0
  H  H57  1  0.18801000  0.01184000  0.47739000  1.0
  H  H58  1  0.68808000  0.01183000  0.02262000  1.0
  H  H59  1  0.81196000  0.98815000  0.52260000  1.0
  H  H60  1  0.22296000  0.05969000  0.05626000  1.0
  H  H61  1  0.27699000  0.94031000  0.55625000  1.0
  H  H62  1  0.77702000  0.94032000  0.94375000  1.0
  H  H63  1  0.72298000  0.05967000  0.44373000  1.0
  H  H64  1  0.98216000  0.92390000  0.09572000  1.0
  H  H65  1  0.51781000  0.07609000  0.59572000  1.0
  H  H66  1  0.01781000  0.07610000  0.90428000  1.0
  H  H67  1  0.48215000  0.92389000  0.40427000  1.0
  H  H68  1  0.65757000  0.81247000  0.05437000  1.0
  H  H69  1  0.84243000  0.18753000  0.55437000  1.0
  H  H70  1  0.34242000  0.18753000  0.94562000  1.0
  H  H71  1  0.15756000  0.81246000  0.44563000  1.0
  H  H72  1  0.69595000  0.78042000  0.00064000  1.0
  H  H73  1  0.80401000  0.21957000  0.50064000  1.0
  H  H74  1  0.30404000  0.21959000  0.99936000  1.0
  H  H75  1  0.19596000  0.78043000  0.49936000  1.0
  C  C76  1  0.63707000  0.80033000  0.14616000  1.0
  C  C77  1  0.86296000  0.19970000  0.64617000  1.0
  C  C78  1  0.36294000  0.19967000  0.85383000  1.0
  C  C79  1  0.13706000  0.80031000  0.35385000  1.0
  C  C80  1  0.58386000  0.85950000  0.18674000  1.0
  C  C81  1  0.91618000  0.14054000  0.68675000  1.0
  C  C82  1  0.41617000  0.14051000  0.81326000  1.0
  C  C83  1  0.08385000  0.85948000  0.31327000  1.0
  C  C84  1  0.49676000  0.79021000  0.22601000  1.0
  C  C85  1  0.00328000  0.20983000  0.72602000  1.0
  C  C86  1  0.50327000  0.20979000  0.77399000  1.0
  C  C87  1  0.99675000  0.79018000  0.27400000  1.0
  C  C88  1  0.45020000  0.84231000  0.26595000  1.0
  C  C89  1  0.04985000  0.15773000  0.76596000  1.0
  C  C90  1  0.54985000  0.15769000  0.73405000  1.0
  C  C91  1  0.95019000  0.84227000  0.23405000  1.0
  C  C92  1  0.48916000  0.96621000  0.26641000  1.0
  C  C93  1  0.01089000  0.03383000  0.76641000  1.0
  C  C94  1  0.51090000  0.03379000  0.73359000  1.0
  C  C95  1  0.98914000  0.96617000  0.23360000  1.0
  C  C96  1  0.57349000  0.03669000  0.22743000  1.0
  C  C97  1  0.92656000  0.96335000  0.72743000  1.0
  C  C98  1  0.42656000  0.96332000  0.77257000  1.0
  C  C99  1  0.07346000  0.03665000  0.27258000  1.0
  C  C100  1  0.62258000  0.98510000  0.18731000  1.0
  C  C101  1  0.87745000  0.01493000  0.68731000  1.0
  C  C102  1  0.37745000  0.01490000  0.81269000  1.0
  C  C103  1  0.12258000  0.98508000  0.31269000  1.0
  C  C104  1  0.85841000  0.32432000  0.18721000  1.0
  C  C105  1  0.64161000  0.67571000  0.68721000  1.0
  C  C106  1  0.14158000  0.67567000  0.81278000  1.0
  C  C107  1  0.35841000  0.32430000  0.31279000  1.0
  C  C108  1  0.91201000  0.26766000  0.22425000  1.0
  C  C109  1  0.58802000  0.73236000  0.72426000  1.0
  C  C110  1  0.08800000  0.73233000  0.77575000  1.0
  C  C111  1  0.41199000  0.26764000  0.27575000  1.0
  C  C112  1  0.01388000  0.33471000  0.26027000  1.0
  C  C113  1  0.48616000  0.66530000  0.76027000  1.0
  C  C114  1  0.98614000  0.66526000  0.73972000  1.0
  C  C115  1  0.51386000  0.33470000  0.23973000  1.0
  C  C116  1  0.07020000  0.45943000  0.25865000  1.0
  C  C117  1  0.42984000  0.54058000  0.75864000  1.0
  C  C118  1  0.92979000  0.54054000  0.74135000  1.0
  C  C119  1  0.57019000  0.45942000  0.24137000  1.0
  C  C120  1  0.02209000  0.51621000  0.22091000  1.0
  C  C121  1  0.47794000  0.48381000  0.72090000  1.0
  C  C122  1  0.97789000  0.48377000  0.77910000  1.0
  C  C123  1  0.52208000  0.51619000  0.27911000  1.0
  C  C124  1  0.91334000  0.45066000  0.18593000  1.0
  C  C125  1  0.58668000  0.54937000  0.68592000  1.0
  C  C126  1  0.08665000  0.54933000  0.81408000  1.0
  C  C127  1  0.41333000  0.45064000  0.31409000  1.0
  C  C128  1  0.85374000  0.51769000  0.15059000  1.0
  C  C129  1  0.64628000  0.48234000  0.65058000  1.0
  C  C130  1  0.14624000  0.48230000  0.84941000  1.0
  C  C131  1  0.35371000  0.51766000  0.34942000  1.0
  C  C132  1  0.70277000  0.44716000  0.00219000  1.0
  C  C133  1  0.79724000  0.55283000  0.50219000  1.0
  C  C134  1  0.29723000  0.55286000  0.99781000  1.0
  C  C135  1  0.20273000  0.44716000  0.49781000  1.0
  C  C136  1  0.73234000  0.39189000  0.95973000  1.0
  C  C137  1  0.76765000  0.60810000  0.45974000  1.0
  C  C138  1  0.26763000  0.60814000  0.04026000  1.0
  C  C139  1  0.23229000  0.39191000  0.54027000  1.0
  C  C140  1  0.85428000  0.45646000  0.92967000  1.0
  C  C141  1  0.64569000  0.54355000  0.42969000  1.0
  C  C142  1  0.14569000  0.54357000  0.07032000  1.0
  C  C143  1  0.35425000  0.45648000  0.57033000  1.0
  C  C144  1  0.94240000  0.57338000  0.94310000  1.0
  C  C145  1  0.55757000  0.42663000  0.44312000  1.0
  C  C146  1  0.05760000  0.42665000  0.05689000  1.0
  C  C147  1  0.44239000  0.57338000  0.55688000  1.0
  C  C148  1  0.90604000  0.62351000  0.98632000  1.0
  C  C149  1  0.59395000  0.37649000  0.48633000  1.0
  C  C150  1  0.09397000  0.37650000  0.01367000  1.0
  C  C151  1  0.40602000  0.62350000  0.51366000  1.0
  C  C152  1  0.99742000  0.74688000  0.00341000  1.0
  C  C153  1  0.50256000  0.25312000  0.50342000  1.0
  C  C154  1  0.00259000  0.25312000  0.99658000  1.0
  C  C155  1  0.49742000  0.74686000  0.49657000  1.0
  C  C156  1  0.12842000  0.81831000  0.97849000  1.0
  C  C157  1  0.37154000  0.18170000  0.47849000  1.0
  C  C158  1  0.87160000  0.18169000  0.02152000  1.0
  C  C159  1  0.62845000  0.81828000  0.52149000  1.0
  C  C160  1  0.21065000  0.93198000  0.99694000  1.0
  C  C161  1  0.28931000  0.06803000  0.49694000  1.0
  C  C162  1  0.78935000  0.06802000  0.00306000  1.0
  C  C163  1  0.71068000  0.93196000  0.50304000  1.0
  C  C164  1  0.16091000  0.97224000  0.03995000  1.0
  C  C165  1  0.33905000  0.02776000  0.53995000  1.0
  C  C166  1  0.83908000  0.02777000  0.96005000  1.0
  C  C167  1  0.66092000  0.97222000  0.46003000  1.0
  C  C168  1  0.02892000  0.89705000  0.06261000  1.0
  C  C169  1  0.47105000  0.10294000  0.56261000  1.0
  C  C170  1  0.97107000  0.10295000  0.93739000  1.0
  C  C171  1  0.52892000  0.89703000  0.43738000  1.0
  S  S172  1  0.71891000  0.24041000  0.14305000  1.0
  S  S173  1  0.78110000  0.75962000  0.64305000  1.0
  S  S174  1  0.28109000  0.75959000  0.85694000  1.0
  S  S175  1  0.21890000  0.24038000  0.35695000  1.0
  S  S176  1  0.73694000  0.07428000  0.13831000  1.0
  S  S177  1  0.76308000  0.92575000  0.63831000  1.0
  S  S178  1  0.26308000  0.92572000  0.86168000  1.0
  S  S179  1  0.23695000  0.07427000  0.36169000  1.0
  N  N180  1  0.78647000  0.55993000  0.01485000  1.0
  N  N181  1  0.71354000  0.44005000  0.51485000  1.0
  N  N182  1  0.21354000  0.44008000  0.98515000  1.0
  N  N183  1  0.28644000  0.55992000  0.48514000  1.0
  N  N184  1  0.94998000  0.78771000  0.04472000  1.0
  N  N185  1  0.55000000  0.21228000  0.54472000  1.0
  N  N186  1  0.05002000  0.21229000  0.95528000  1.0
  N  N187  1  0.44998000  0.78769000  0.45527000  1.0
  O  O188  1  0.59730000  0.68633000  0.14597000  1.0
  O  O189  1  0.90272000  0.31369000  0.64597000  1.0
  O  O190  1  0.40271000  0.31366000  0.85403000  1.0
  O  O191  1  0.09725000  0.68631000  0.35405000  1.0
  O  O192  1  0.72438000  0.86702000  0.11267000  1.0
  O  O193  1  0.77565000  0.13300000  0.61267000  1.0
  O  O194  1  0.27564000  0.13297000  0.88732000  1.0
  O  O195  1  0.22438000  0.86701000  0.38733000  1.0
  O  O196  1  0.92304000  0.63059000  0.14585000  1.0
  O  O197  1  0.57697000  0.36945000  0.64583000  1.0
  O  O198  1  0.07695000  0.36940000  0.85416000  1.0
  O  O199  1  0.42301000  0.63056000  0.35416000  1.0
  O  O200  1  0.73258000  0.46042000  0.12664000  1.0
  O  O201  1  0.76746000  0.53961000  0.62664000  1.0
  O  O202  1  0.26743000  0.53956000  0.87336000  1.0
  O  O203  1  0.23252000  0.46039000  0.37335000  1.0
  O  O204  1  0.61496000  0.75848000  0.02506000  1.0
  O  O205  1  0.88502000  0.24151000  0.52505000  1.0
  O  O206  1  0.38503000  0.24153000  0.97494000  1.0
  O  O207  1  0.11496000  0.75848000  0.47495000  1.0
