# generated using pymatgen
data_KTbH10(C2O3)5
_symmetry_space_group_name_H-M   'P 1'
_cell_length_a   8.29606000
_cell_length_b   10.06700000
_cell_length_c   10.06710000
_cell_angle_alpha   105.65900000
_cell_angle_beta   89.99970000
_cell_angle_gamma   89.99990000
_symmetry_Int_Tables_number   1
_chemical_formula_structural   KTbH10(C2O3)5
_chemical_formula_sum   'K2 Tb2 H20 C20 O30'
_cell_volume   809.56331275
_cell_formula_units_Z   2
loop_
 _symmetry_equiv_pos_site_id
 _symmetry_equiv_pos_as_xyz
  1  'x, y, z'
loop_
 _atom_site_type_symbol
 _atom_site_label
 _atom_site_symmetry_multiplicity
 _atom_site_fract_x
 _atom_site_fract_y
 _atom_site_fract_z
 _atom_site_occupancy
  K  K0  1  0.53566000  0.98971000  0.98971000  1.0
  K  K1  1  0.03566000  0.01029000  0.01029000  1.0
  Tb  Tb2  1  0.65698000  0.31547000  0.31547000  1.0
  Tb  Tb3  1  0.15698000  0.68453000  0.68453000  1.0
  H  H4  1  0.35793000  0.25706000  0.16021000  1.0
  H  H5  1  0.85793000  0.74294000  0.83979000  1.0
  H  H6  1  0.35793000  0.16021000  0.25706000  1.0
  H  H7  1  0.85793000  0.83979000  0.74294000  1.0
  H  H8  1  0.99937000  0.21674000  0.31411000  1.0
  H  H9  1  0.49936000  0.78326000  0.68589000  1.0
  H  H10  1  0.99936000  0.31411000  0.21674000  1.0
  H  H11  1  0.49937000  0.68589000  0.78326000  1.0
  H  H12  1  0.61245000  0.29310000  0.00073000  1.0
  H  H13  1  0.11244000  0.70690000  0.99927000  1.0
  H  H14  1  0.61244000  0.00073000  0.29310000  1.0
  H  H15  1  0.11244000  0.99927000  0.70690000  1.0
  H  H16  1  0.79241000  0.26514000  0.02779000  1.0
  H  H17  1  0.29240000  0.73486000  0.97220000  1.0
  H  H18  1  0.79240000  0.02779000  0.26514000  1.0
  H  H19  1  0.29240000  0.97221000  0.73487000  1.0
  H  H20  1  0.50440000  0.47696000  0.57456000  1.0
  H  H21  1  0.00440000  0.52304000  0.42544000  1.0
  H  H22  1  0.50440000  0.57456000  0.47697000  1.0
  H  H23  1  0.00440000  0.42544000  0.52304000  1.0
  C  C24  1  0.62292000  0.56868000  0.18118000  1.0
  C  C25  1  0.12292000  0.43131000  0.81881000  1.0
  C  C26  1  0.62292000  0.18118000  0.56868000  1.0
  C  C27  1  0.12291000  0.81882000  0.43132000  1.0
  C  C28  1  0.79454000  0.56394000  0.21050000  1.0
  C  C29  1  0.29454000  0.43606000  0.78950000  1.0
  C  C30  1  0.79455000  0.21051000  0.56393000  1.0
  C  C31  1  0.29455000  0.78949000  0.43606000  1.0
  C  C32  1  0.88468000  0.64169000  0.13236000  1.0
  C  C33  1  0.38469000  0.35832000  0.86764000  1.0
  C  C34  1  0.88469000  0.13237000  0.64169000  1.0
  C  C35  1  0.38470000  0.86763000  0.35831000  1.0
  C  C36  1  0.76226000  0.71230000  0.06941000  1.0
  C  C37  1  0.26226000  0.28769000  0.93058000  1.0
  C  C38  1  0.76226000  0.06942000  0.71231000  1.0
  C  C39  1  0.26226000  0.93058000  0.28769000  1.0
  C  C40  1  0.59903000  0.66394000  0.09450000  1.0
  C  C41  1  0.09904000  0.33605000  0.90550000  1.0
  C  C42  1  0.59902000  0.09450000  0.66394000  1.0
  C  C43  1  0.09903000  0.90550000  0.33606000  1.0
  O  O44  1  0.52186000  0.49612000  0.22377000  1.0
  O  O45  1  0.02186000  0.50387000  0.77624000  1.0
  O  O46  1  0.52187000  0.22376000  0.49611000  1.0
  O  O47  1  0.02187000  0.77624000  0.50388000  1.0
  O  O48  1  0.84782000  0.49151000  0.28732000  1.0
  O  O49  1  0.34782000  0.50850000  0.71268000  1.0
  O  O50  1  0.84782000  0.28732000  0.49150000  1.0
  O  O51  1  0.34782000  0.71268000  0.50850000  1.0
  O  O52  1  0.03472000  0.64553000  0.11846000  1.0
  O  O53  1  0.53473000  0.35447000  0.88153000  1.0
  O  O54  1  0.03472000  0.11847000  0.64554000  1.0
  O  O55  1  0.53473000  0.88153000  0.35447000  1.0
  O  O56  1  0.79011000  0.79799000  0.00162000  1.0
  O  O57  1  0.29013000  0.20201000  0.99837000  1.0
  O  O58  1  0.79011000  0.00163000  0.79800000  1.0
  O  O59  1  0.29011000  0.99837000  0.20201000  1.0
  O  O60  1  0.47128000  0.69782000  0.04724000  1.0
  O  O61  1  0.97130000  0.30217000  0.95276000  1.0
  O  O62  1  0.47129000  0.04724000  0.69781000  1.0
  O  O63  1  0.97130000  0.95277000  0.30218000  1.0
  O  O64  1  0.39429000  0.25312000  0.25313000  1.0
  O  O65  1  0.89428000  0.74688000  0.74688000  1.0
  O  O66  1  0.95035000  0.23033000  0.23033000  1.0
  O  O67  1  0.45035000  0.76967000  0.76967000  1.0
  O  O68  1  0.68371000  0.25552000  0.06418000  1.0
  O  O69  1  0.18370000  0.74448000  0.93582000  1.0
  O  O70  1  0.68371000  0.06418000  0.25552000  1.0
  O  O71  1  0.18371000  0.93582000  0.74448000  1.0
  O  O72  1  0.56679000  0.50050000  0.50050000  1.0
  O  O73  1  0.06679000  0.49951000  0.49950000  1.0
