# generated using pymatgen
data_CaH28(C19O4)2
_symmetry_space_group_name_H-M   'P 1'
_cell_length_a   5.18830000
_cell_length_b   10.60220000
_cell_length_c   15.25640000
_cell_angle_alpha   82.44100000
_cell_angle_beta   85.13200000
_cell_angle_gamma   82.49430000
_symmetry_Int_Tables_number   1
_chemical_formula_structural   CaH28(C19O4)2
_chemical_formula_sum   'Ca1 H28 C38 O8'
_cell_volume   822.83614764
_cell_formula_units_Z   1
loop_
 _symmetry_equiv_pos_site_id
 _symmetry_equiv_pos_as_xyz
  1  'x, y, z'
loop_
 _atom_site_type_symbol
 _atom_site_label
 _atom_site_symmetry_multiplicity
 _atom_site_fract_x
 _atom_site_fract_y
 _atom_site_fract_z
 _atom_site_occupancy
  Ca  Ca0  1  0.00000000  0.00000000  0.00000000  1.0
  H  H1  1  0.96304000  0.73675000  0.47745000  1.0
  H  H2  1  0.03696000  0.26325000  0.52255000  1.0
  H  H3  1  0.52283000  0.25230000  0.59967000  1.0
  H  H4  1  0.47717000  0.74770000  0.40033000  1.0
  H  H5  1  0.68313000  0.14005000  0.74328000  1.0
  H  H6  1  0.31687000  0.85995000  0.25672000  1.0
  H  H7  1  0.01386000  0.32185000  0.88417000  1.0
  H  H8  1  0.98614000  0.67815000  0.11584000  1.0
  H  H9  1  0.86399000  0.44049000  0.74275000  1.0
  H  H10  1  0.13602000  0.55951000  0.25725000  1.0
  H  H11  1  0.51860000  0.51566000  0.65595000  1.0
  H  H12  1  0.48140000  0.48434000  0.34405000  1.0
  H  H13  1  0.63654000  0.62918000  0.77640000  1.0
  H  H14  1  0.36347000  0.37082000  0.22360000  1.0
  H  H15  1  0.95005000  0.89972000  0.74332000  1.0
  H  H16  1  0.04995000  0.10028000  0.25669000  1.0
  H  H17  1  0.82967000  0.78736000  0.62213000  1.0
  H  H18  1  0.17033000  0.21264000  0.37787000  1.0
  H  H19  1  0.60873000  0.82511000  0.93654000  1.0
  H  H20  1  0.39126000  0.17488000  0.06346000  1.0
  H  H21  1  0.38840000  0.01662000  0.59600000  1.0
  H  H22  1  0.61160000  0.98338000  0.40400000  1.0
  H  H23  1  0.33230000  0.88910000  0.53015000  1.0
  H  H24  1  0.66769000  0.11090000  0.46985000  1.0
  H  H25  1  0.73135000  0.43826000  0.05524000  1.0
  H  H26  1  0.26864000  0.56174000  0.94476000  1.0
  H  H27  1  0.73391000  0.57315000  0.96412000  1.0
  H  H28  1  0.26608000  0.42685000  0.03588000  1.0
  C  C29  1  0.97529000  0.63236000  0.48837000  1.0
  C  C30  1  0.02471000  0.36764000  0.51163000  1.0
  C  C31  1  0.07667000  0.56699000  0.56636000  1.0
  C  C32  1  0.92333000  0.43301000  0.43364000  1.0
  C  C33  1  0.09896000  0.43116000  0.57837000  1.0
  C  C34  1  0.90103000  0.56884000  0.42164000  1.0
  C  C35  1  0.18456000  0.35515000  0.66187000  1.0
  C  C36  1  0.81544000  0.64485000  0.33813000  1.0
  C  C37  1  0.41078000  0.26650000  0.66218000  1.0
  C  C38  1  0.58922000  0.73350000  0.33782000  1.0
  C  C39  1  0.50047000  0.20387000  0.74192000  1.0
  C  C40  1  0.49953000  0.79614000  0.25808000  1.0
  C  C41  1  0.35972000  0.22494000  0.82238000  1.0
  C  C42  1  0.64028000  0.77506000  0.17762000  1.0
  C  C43  1  0.12625000  0.30795000  0.82191000  1.0
  C  C44  1  0.87375000  0.69205000  0.17810000  1.0
  C  C45  1  0.04209000  0.37356000  0.74252000  1.0
  C  C46  1  0.95791000  0.62644000  0.25748000  1.0
  C  C47  1  0.46393000  0.16363000  0.90817000  1.0
  C  C48  1  0.53608000  0.83637000  0.09183000  1.0
  C  C49  1  0.16073000  0.64054000  0.63258000  1.0
  C  C50  1  0.83927000  0.35946000  0.36742000  1.0
  C  C51  1  0.39236000  0.59920000  0.67523000  1.0
  C  C52  1  0.60765000  0.40080000  0.32477000  1.0
  C  C53  1  0.45996000  0.66259000  0.74228000  1.0
  C  C54  1  0.54005000  0.33741000  0.25772000  1.0
  C  C55  1  0.29834000  0.77007000  0.76802000  1.0
  C  C56  1  0.70165000  0.22993000  0.23198000  1.0
  C  C57  1  0.07413000  0.81615000  0.72290000  1.0
  C  C58  1  0.92587000  0.18385000  0.27710000  1.0
  C  C59  1  0.00769000  0.75275000  0.65538000  1.0
  C  C60  1  0.99231000  0.24725000  0.34462000  1.0
  C  C61  1  0.35539000  0.83188000  0.84464000  1.0
  C  C62  1  0.64461000  0.16812000  0.15536000  1.0
  C  C63  1  0.42524000  0.97470000  0.53377000  1.0
  C  C64  1  0.57476000  0.02529000  0.46623000  1.0
  C  C65  1  0.62542000  0.50288000  0.00509000  1.0
  C  C66  1  0.37458000  0.49711000  0.99492000  1.0
  O  O67  1  0.29925000  0.15445000  0.97702000  1.0
  O  O68  1  0.70075000  0.84555000  0.02298000  1.0
  O  O69  1  0.70350000  0.12576000  0.91010000  1.0
  O  O70  1  0.29650000  0.87425000  0.08991000  1.0
  O  O71  1  0.19552000  0.91593000  0.87537000  1.0
  O  O72  1  0.80448000  0.08407000  0.12463000  1.0
  O  O73  1  0.58214000  0.78954000  0.87718000  1.0
  O  O74  1  0.41786000  0.21046000  0.12282000  1.0
