# generated using pymatgen
data_CdH9C13NO5
_symmetry_space_group_name_H-M   'P 1'
_cell_length_a   7.80262000
_cell_length_b   8.43999000
_cell_length_c   10.41990000
_cell_angle_alpha   111.76910000
_cell_angle_beta   97.20630000
_cell_angle_gamma   96.07370000
_symmetry_Int_Tables_number   1
_chemical_formula_structural   CdH9C13NO5
_chemical_formula_sum   'Cd2 H18 C26 N2 O10'
_cell_volume   623.52271888
_cell_formula_units_Z   2
loop_
 _symmetry_equiv_pos_site_id
 _symmetry_equiv_pos_as_xyz
  1  'x, y, z'
loop_
 _atom_site_type_symbol
 _atom_site_label
 _atom_site_symmetry_multiplicity
 _atom_site_fract_x
 _atom_site_fract_y
 _atom_site_fract_z
 _atom_site_occupancy
  Cd  Cd0  1  0.52372000  0.31334000  0.34395000  1.0
  Cd  Cd1  1  0.47628000  0.68667000  0.65607000  1.0
  H  H2  1  0.03010000  0.33910000  0.01104000  1.0
  H  H3  1  0.96993000  0.66091000  0.98898000  1.0
  H  H4  1  0.89272000  0.31113000  0.77347000  1.0
  H  H5  1  0.10726000  0.68882000  0.22655000  1.0
  H  H6  1  0.52788000  0.30568000  0.87882000  1.0
  H  H7  1  0.47211000  0.69429000  0.12115000  1.0
  H  H8  1  0.83917000  0.40887000  0.60409000  1.0
  H  H9  1  0.16084000  0.59115000  0.39592000  1.0
  H  H10  1  0.79925000  0.16249000  0.17298000  1.0
  H  H11  1  0.20075000  0.83752000  0.82701000  1.0
  H  H12  1  0.06760000  0.02656000  0.20215000  1.0
  H  H13  1  0.93240000  0.97344000  0.79785000  1.0
  H  H14  1  0.20703000  0.06948000  0.44157000  1.0
  H  H15  1  0.79296000  0.93051000  0.55843000  1.0
  H  H16  1  0.43493000  0.93811000  0.29747000  1.0
  H  H17  1  0.56508000  0.06190000  0.70255000  1.0
  H  H18  1  0.44219000  0.96065000  0.15219000  1.0
  H  H19  1  0.55777000  0.03936000  0.84782000  1.0
  C  C20  1  0.37232000  0.31258000  0.09299000  1.0
  C  C21  1  0.62770000  0.68743000  0.90701000  1.0
  C  C22  1  0.28698000  0.31642000  0.95777000  1.0
  C  C23  1  0.71303000  0.68358000  0.04223000  1.0
  C  C24  1  0.10919000  0.32655000  0.92972000  1.0
  C  C25  1  0.89083000  0.67343000  0.07029000  1.0
  C  C26  1  0.03338000  0.31285000  0.79680000  1.0
  C  C27  1  0.96661000  0.68711000  0.20320000  1.0
  C  C28  1  0.13211000  0.29052000  0.68904000  1.0
  C  C29  1  0.86786000  0.70946000  0.31096000  1.0
  C  C30  1  0.31440000  0.29170000  0.72111000  1.0
  C  C31  1  0.68556000  0.70827000  0.27886000  1.0
  C  C32  1  0.38773000  0.30344000  0.85386000  1.0
  C  C33  1  0.61227000  0.69653000  0.14614000  1.0
  C  C34  1  0.43834000  0.28112000  0.61996000  1.0
  C  C35  1  0.56165000  0.71889000  0.38003000  1.0
  C  C36  1  0.04288000  0.25221000  0.54465000  1.0
  C  C37  1  0.95710000  0.74778000  0.45535000  1.0
  C  C38  1  0.89356000  0.32200000  0.51835000  1.0
  C  C39  1  0.10644000  0.67800000  0.48165000  1.0
  C  C40  1  0.87194000  0.18407000  0.27617000  1.0
  C  C41  1  0.12807000  0.81595000  0.72382000  1.0
  C  C42  1  0.01862000  0.10891000  0.29266000  1.0
  C  C43  1  0.98138000  0.89110000  0.70733000  1.0
  C  C44  1  0.09991000  0.13778000  0.42759000  1.0
  C  C45  1  0.90008000  0.86221000  0.57241000  1.0
  N  N46  1  0.80857000  0.28486000  0.38751000  1.0
  N  N47  1  0.19144000  0.71516000  0.61248000  1.0
  O  O48  1  0.40937000  0.01399000  0.24422000  1.0
  O  O49  1  0.59063000  0.98603000  0.75580000  1.0
  O  O50  1  0.29972000  0.36835000  0.20109000  1.0
  O  O51  1  0.70032000  0.63166000  0.79891000  1.0
  O  O52  1  0.51577000  0.25184000  0.09435000  1.0
  O  O53  1  0.48425000  0.74817000  0.90564000  1.0
  O  O54  1  0.55347000  0.18648000  0.61199000  1.0
  O  O55  1  0.44654000  0.81356000  0.38801000  1.0
  O  O56  1  0.41857000  0.37428000  0.54601000  1.0
  O  O57  1  0.58139000  0.62575000  0.45400000  1.0
