# generated using pymatgen
data_ZnH12C19NO5
_symmetry_space_group_name_H-M   'P 1'
_cell_length_a   11.04740000
_cell_length_b   16.68980000
_cell_length_c   22.76160000
_cell_angle_alpha   90.00000000
_cell_angle_beta   90.00000000
_cell_angle_gamma   90.00000000
_symmetry_Int_Tables_number   1
_chemical_formula_structural   ZnH12C19NO5
_chemical_formula_sum   'Zn8 H96 C152 N8 O40'
_cell_volume   4196.75869103
_cell_formula_units_Z   8
loop_
 _symmetry_equiv_pos_site_id
 _symmetry_equiv_pos_as_xyz
  1  'x, y, z'
loop_
 _atom_site_type_symbol
 _atom_site_label
 _atom_site_symmetry_multiplicity
 _atom_site_fract_x
 _atom_site_fract_y
 _atom_site_fract_z
 _atom_site_occupancy
  Zn  Zn0  1  0.09076000  0.05811000  0.50846000  1.0
  Zn  Zn1  1  0.90924000  0.44189000  0.50846000  1.0
  Zn  Zn2  1  0.09076000  0.94188000  0.99154000  1.0
  Zn  Zn3  1  0.90923000  0.55812000  0.99154000  1.0
  Zn  Zn4  1  0.90924000  0.94188000  0.49154000  1.0
  Zn  Zn5  1  0.09076000  0.55812000  0.49154000  1.0
  Zn  Zn6  1  0.90924000  0.05811000  0.00846000  1.0
  Zn  Zn7  1  0.09076000  0.44189000  0.00846000  1.0
  H  H8  1  0.32461000  0.31309000  0.56569000  1.0
  H  H9  1  0.43970000  0.56533000  0.77781000  1.0
  H  H10  1  0.19801000  0.63985000  0.63798000  1.0
  H  H11  1  0.15608000  0.73917000  0.75276000  1.0
  H  H12  1  0.42257000  0.83344000  0.69947000  1.0
  H  H13  1  0.04294000  0.67995000  0.83733000  1.0
  H  H14  1  0.53676000  0.12246000  0.48795000  1.0
  H  H15  1  0.34446000  0.04161000  0.48220000  1.0
  H  H16  1  0.31654000  0.92775000  0.62956000  1.0
  H  H17  1  0.32415000  0.50592000  0.86205000  1.0
  H  H18  1  0.14318000  0.22433000  0.55666000  1.0
  H  H19  1  0.09208000  0.73298000  0.57057000  1.0
  H  H20  1  0.67539000  0.18691000  0.56569000  1.0
  H  H21  1  0.56030000  0.93467000  0.77781000  1.0
  H  H22  1  0.80199000  0.86015000  0.63798000  1.0
  H  H23  1  0.84391000  0.76083000  0.75275000  1.0
  H  H24  1  0.57742000  0.66656000  0.69947000  1.0
  H  H25  1  0.95706000  0.82005000  0.83733000  1.0
  H  H26  1  0.46324000  0.37754000  0.48795000  1.0
  H  H27  1  0.65554000  0.45839000  0.48220000  1.0
  H  H28  1  0.68346000  0.57225000  0.62955000  1.0
  H  H29  1  0.67585000  0.99408000  0.86205000  1.0
  H  H30  1  0.85682000  0.27567000  0.55666000  1.0
  H  H31  1  0.90793000  0.76702000  0.57057000  1.0
  H  H32  1  0.32461000  0.68691000  0.93431000  1.0
  H  H33  1  0.43970000  0.43467000  0.72220000  1.0
  H  H34  1  0.19801000  0.36015000  0.86202000  1.0
  H  H35  1  0.15609000  0.26083000  0.74724000  1.0
  H  H36  1  0.42258000  0.16656000  0.80053000  1.0
  H  H37  1  0.04295000  0.32006000  0.66267000  1.0
  H  H38  1  0.53676000  0.87754000  0.01205000  1.0
  H  H39  1  0.34445000  0.95839000  0.01780000  1.0
  H  H40  1  0.31654000  0.07224000  0.87044000  1.0
  H  H41  1  0.32416000  0.49408000  0.63795000  1.0
  H  H42  1  0.14318000  0.77567000  0.94335000  1.0
  H  H43  1  0.09208000  0.26701000  0.92943000  1.0
  H  H44  1  0.67539000  0.81309000  0.93431000  1.0
  H  H45  1  0.56030000  0.06533000  0.72220000  1.0
  H  H46  1  0.80199000  0.13985000  0.86202000  1.0
  H  H47  1  0.84391000  0.23917000  0.74725000  1.0
  H  H48  1  0.57742000  0.33344000  0.80053000  1.0
  H  H49  1  0.95705000  0.17994000  0.66267000  1.0
  H  H50  1  0.46324000  0.62246000  0.01205000  1.0
  H  H51  1  0.65554000  0.54161000  0.01780000  1.0
  H  H52  1  0.68346000  0.42775000  0.87044000  1.0
  H  H53  1  0.67584000  0.00592000  0.63795000  1.0
  H  H54  1  0.85682000  0.72433000  0.94335000  1.0
  H  H55  1  0.90792000  0.23298000  0.92943000  1.0
  H  H56  1  0.67539000  0.68691000  0.43431000  1.0
  H  H57  1  0.56029000  0.43467000  0.22220000  1.0
  H  H58  1  0.80199000  0.36015000  0.36201000  1.0
  H  H59  1  0.84391000  0.26083000  0.24724000  1.0
  H  H60  1  0.57742000  0.16656000  0.30053000  1.0
  H  H61  1  0.95705000  0.32006000  0.16267000  1.0
  H  H62  1  0.46324000  0.87754000  0.51205000  1.0
  H  H63  1  0.65555000  0.95839000  0.51780000  1.0
  H  H64  1  0.68346000  0.07224000  0.37044000  1.0
  H  H65  1  0.67584000  0.49408000  0.13795000  1.0
  H  H66  1  0.85682000  0.77567000  0.44335000  1.0
  H  H67  1  0.90793000  0.26702000  0.42942000  1.0
  H  H68  1  0.32461000  0.81309000  0.43431000  1.0
  H  H69  1  0.43970000  0.06533000  0.22220000  1.0
  H  H70  1  0.19801000  0.13985000  0.36202000  1.0
  H  H71  1  0.15609000  0.23917000  0.24724000  1.0
  H  H72  1  0.42258000  0.33344000  0.30053000  1.0
  H  H73  1  0.04295000  0.17994000  0.16267000  1.0
  H  H74  1  0.53676000  0.62246000  0.51205000  1.0
  H  H75  1  0.34446000  0.54161000  0.51780000  1.0
  H  H76  1  0.31654000  0.42776000  0.37045000  1.0
  H  H77  1  0.32416000  0.00592000  0.13795000  1.0
  H  H78  1  0.14318000  0.72433000  0.44335000  1.0
  H  H79  1  0.09207000  0.23299000  0.42943000  1.0
  H  H80  1  0.67539000  0.31309000  0.06569000  1.0
  H  H81  1  0.56030000  0.56533000  0.27781000  1.0
  H  H82  1  0.80199000  0.63985000  0.13798000  1.0
  H  H83  1  0.84391000  0.73917000  0.25275000  1.0
  H  H84  1  0.57742000  0.83344000  0.19947000  1.0
  H  H85  1  0.95706000  0.67995000  0.33733000  1.0
  H  H86  1  0.46324000  0.12246000  0.98795000  1.0
  H  H87  1  0.65555000  0.04161000  0.98220000  1.0
  H  H88  1  0.68346000  0.92776000  0.12956000  1.0
  H  H89  1  0.67585000  0.50592000  0.36205000  1.0
  H  H90  1  0.85682000  0.22433000  0.05665000  1.0
  H  H91  1  0.90793000  0.73298000  0.07057000  1.0
  H  H92  1  0.32461000  0.18691000  0.06569000  1.0
  H  H93  1  0.43970000  0.93467000  0.27781000  1.0
  H  H94  1  0.19801000  0.86015000  0.13798000  1.0
  H  H95  1  0.15608000  0.76083000  0.25276000  1.0
  H  H96  1  0.42258000  0.66656000  0.19947000  1.0
  H  H97  1  0.04294000  0.82005000  0.33733000  1.0
  H  H98  1  0.53676000  0.37754000  0.98795000  1.0
  H  H99  1  0.34446000  0.45839000  0.98220000  1.0
  H  H100  1  0.31654000  0.57225000  0.12956000  1.0
  H  H101  1  0.32415000  0.99408000  0.36205000  1.0
  H  H102  1  0.14318000  0.27567000  0.05665000  1.0
  H  H103  1  0.09207000  0.76701000  0.07057000  1.0
  C  C104  1  0.33342000  0.25344000  0.54664000  1.0
  C  C105  1  0.35267000  0.58989000  0.79138000  1.0
  C  C106  1  0.22311000  0.70302000  0.63654000  1.0
  C  C107  1  0.19273000  0.68818000  0.77673000  1.0
  C  C108  1  0.34990000  0.81296000  0.67090000  1.0
  C  C109  1  0.10556000  0.55370000  0.90432000  1.0
  C  C110  1  0.30355000  0.65431000  0.75997000  1.0
  C  C111  1  0.12995000  0.65521000  0.82384000  1.0
  C  C112  1  0.45156000  0.14648000  0.50455000  1.0
  C  C113  1  0.34607000  0.10173000  0.50088000  1.0
  C  C114  1  0.29164000  0.86461000  0.63194000  1.0
  C  C115  1  0.12742000  0.89394000  0.55882000  1.0
  C  C116  1  0.31328000  0.73310000  0.67341000  1.0
  C  C117  1  0.17587000  0.58916000  0.85470000  1.0
  C  C118  1  0.19664000  0.83669000  0.59661000  1.0
  C  C119  1  0.28856000  0.55740000  0.83816000  1.0
  C  C120  1  0.44553000  0.22456000  0.52709000  1.0
  C  C121  1  0.23227000  0.20437000  0.54212000  1.0
  C  C122  1  0.16427000  0.75550000  0.59859000  1.0
  C  C123  1  0.66658000  0.24656000  0.54664000  1.0
  C  C124  1  0.64732000  0.91011000  0.79138000  1.0
  C  C125  1  0.77689000  0.79698000  0.63654000  1.0
  C  C126  1  0.80726000  0.81182000  0.77672000  1.0
  C  C127  1  0.65010000  0.68704000  0.67090000  1.0
  C  C128  1  0.89443000  0.94629000  0.90432000  1.0
  C  C129  1  0.69645000  0.84569000  0.75997000  1.0
  C  C130  1  0.87005000  0.84479000  0.82384000  1.0
  C  C131  1  0.54844000  0.35353000  0.50455000  1.0
  C  C132  1  0.65393000  0.39828000  0.50088000  1.0
  C  C133  1  0.70836000  0.63539000  0.63194000  1.0
  C  C134  1  0.87259000  0.60606000  0.55882000  1.0
  C  C135  1  0.68671000  0.76690000  0.67341000  1.0
  C  C136  1  0.82412000  0.91084000  0.85470000  1.0
  C  C137  1  0.80336000  0.66331000  0.59661000  1.0
  C  C138  1  0.71143000  0.94260000  0.83816000  1.0
  C  C139  1  0.55447000  0.27545000  0.52710000  1.0
  C  C140  1  0.76773000  0.29564000  0.54213000  1.0
  C  C141  1  0.83573000  0.74450000  0.59859000  1.0
  C  C142  1  0.33342000  0.74656000  0.95336000  1.0
  C  C143  1  0.35268000  0.41011000  0.70863000  1.0
  C  C144  1  0.22311000  0.29697000  0.86346000  1.0
  C  C145  1  0.19274000  0.31182000  0.72327000  1.0
  C  C146  1  0.34990000  0.18703000  0.82910000  1.0
  C  C147  1  0.10556000  0.44629000  0.59568000  1.0
  C  C148  1  0.30355000  0.34569000  0.74003000  1.0
  C  C149  1  0.12996000  0.34479000  0.67616000  1.0
  C  C150  1  0.45155000  0.85353000  0.99545000  1.0
  C  C151  1  0.34607000  0.89827000  0.99912000  1.0
  C  C152  1  0.29164000  0.13539000  0.86806000  1.0
  C  C153  1  0.12741000  0.10606000  0.94118000  1.0
  C  C154  1  0.31329000  0.26690000  0.82659000  1.0
  C  C155  1  0.17589000  0.41084000  0.64530000  1.0
  C  C156  1  0.19665000  0.16330000  0.90339000  1.0
  C  C157  1  0.28857000  0.44260000  0.66184000  1.0
  C  C158  1  0.44553000  0.77545000  0.97291000  1.0
  C  C159  1  0.23227000  0.79563000  0.95788000  1.0
  C  C160  1  0.16427000  0.24449000  0.90141000  1.0
  C  C161  1  0.66658000  0.75344000  0.95336000  1.0
  C  C162  1  0.64732000  0.08989000  0.70862000  1.0
  C  C163  1  0.77689000  0.20303000  0.86346000  1.0
  C  C164  1  0.80726000  0.18817000  0.72328000  1.0
  C  C165  1  0.65010000  0.31296000  0.82910000  1.0
  C  C166  1  0.89444000  0.05371000  0.59568000  1.0
  C  C167  1  0.69645000  0.15431000  0.74003000  1.0
  C  C168  1  0.87004000  0.15521000  0.67616000  1.0
  C  C169  1  0.54845000  0.64648000  0.99545000  1.0
  C  C170  1  0.65393000  0.60173000  0.99912000  1.0
  C  C171  1  0.70836000  0.36460000  0.86806000  1.0
  C  C172  1  0.87260000  0.39394000  0.94118000  1.0
  C  C173  1  0.68671000  0.23310000  0.82660000  1.0
  C  C174  1  0.82411000  0.08916000  0.64530000  1.0
  C  C175  1  0.80335000  0.33670000  0.90339000  1.0
  C  C176  1  0.71143000  0.05739000  0.66184000  1.0
  C  C177  1  0.55447000  0.72455000  0.97291000  1.0
  C  C178  1  0.76773000  0.70437000  0.95788000  1.0
  C  C179  1  0.83573000  0.25550000  0.90141000  1.0
  C  C180  1  0.66658000  0.74656000  0.45336000  1.0
  C  C181  1  0.64732000  0.41011000  0.20862000  1.0
  C  C182  1  0.77690000  0.29697000  0.36346000  1.0
  C  C183  1  0.80726000  0.31182000  0.22327000  1.0
  C  C184  1  0.65010000  0.18703000  0.32910000  1.0
  C  C185  1  0.89444000  0.44629000  0.09568000  1.0
  C  C186  1  0.69645000  0.34569000  0.24003000  1.0
  C  C187  1  0.87004000  0.34479000  0.17615000  1.0
  C  C188  1  0.54845000  0.85352000  0.49545000  1.0
  C  C189  1  0.65393000  0.89827000  0.49912000  1.0
  C  C190  1  0.70836000  0.13539000  0.36806000  1.0
  C  C191  1  0.87260000  0.10606000  0.44118000  1.0
  C  C192  1  0.68672000  0.26690000  0.32659000  1.0
  C  C193  1  0.82411000  0.41084000  0.14530000  1.0
  C  C194  1  0.80335000  0.16330000  0.40339000  1.0
  C  C195  1  0.71143000  0.44261000  0.16184000  1.0
  C  C196  1  0.55447000  0.77545000  0.47291000  1.0
  C  C197  1  0.76773000  0.79563000  0.45788000  1.0
  C  C198  1  0.83573000  0.24449000  0.40140000  1.0
  C  C199  1  0.33342000  0.75344000  0.45336000  1.0
  C  C200  1  0.35268000  0.08989000  0.20862000  1.0
  C  C201  1  0.22311000  0.20303000  0.36346000  1.0
  C  C202  1  0.19274000  0.18818000  0.22327000  1.0
  C  C203  1  0.34990000  0.31297000  0.32910000  1.0
  C  C204  1  0.10556000  0.05371000  0.09568000  1.0
  C  C205  1  0.30355000  0.15431000  0.24003000  1.0
  C  C206  1  0.12996000  0.15521000  0.17615000  1.0
  C  C207  1  0.45156000  0.64648000  0.49545000  1.0
  C  C208  1  0.34607000  0.60173000  0.49912000  1.0
  C  C209  1  0.29164000  0.36461000  0.36806000  1.0
  C  C210  1  0.12741000  0.39394000  0.44118000  1.0
  C  C211  1  0.31328000  0.23310000  0.32659000  1.0
  C  C212  1  0.17589000  0.08916000  0.14530000  1.0
  C  C213  1  0.19665000  0.33670000  0.40339000  1.0
  C  C214  1  0.28857000  0.05739000  0.16184000  1.0
  C  C215  1  0.44553000  0.72455000  0.47291000  1.0
  C  C216  1  0.23227000  0.70437000  0.45788000  1.0
  C  C217  1  0.16427000  0.25550000  0.40141000  1.0
  C  C218  1  0.66658000  0.25344000  0.04664000  1.0
  C  C219  1  0.64732000  0.58989000  0.29138000  1.0
  C  C220  1  0.77689000  0.70302000  0.13654000  1.0
  C  C221  1  0.80726000  0.68818000  0.27672000  1.0
  C  C222  1  0.65010000  0.81296000  0.17090000  1.0
  C  C223  1  0.89443000  0.55371000  0.40432000  1.0
  C  C224  1  0.69645000  0.65431000  0.25997000  1.0
  C  C225  1  0.87005000  0.65521000  0.32384000  1.0
  C  C226  1  0.54845000  0.14647000  0.00455000  1.0
  C  C227  1  0.65393000  0.10173000  0.00088000  1.0
  C  C228  1  0.70836000  0.86461000  0.13194000  1.0
  C  C229  1  0.87259000  0.89394000  0.05882000  1.0
  C  C230  1  0.68671000  0.73310000  0.17340000  1.0
  C  C231  1  0.82412000  0.58917000  0.35470000  1.0
  C  C232  1  0.80336000  0.83669000  0.09661000  1.0
  C  C233  1  0.71143000  0.55740000  0.33816000  1.0
  C  C234  1  0.55447000  0.22455000  0.02709000  1.0
  C  C235  1  0.76773000  0.20437000  0.04212000  1.0
  C  C236  1  0.83573000  0.75550000  0.09859000  1.0
  C  C237  1  0.33342000  0.24656000  0.04664000  1.0
  C  C238  1  0.35268000  0.91011000  0.29138000  1.0
  C  C239  1  0.22311000  0.79697000  0.13654000  1.0
  C  C240  1  0.19273000  0.81182000  0.27672000  1.0
  C  C241  1  0.34989000  0.68703000  0.17090000  1.0
  C  C242  1  0.10557000  0.94629000  0.40432000  1.0
  C  C243  1  0.30355000  0.84569000  0.25997000  1.0
  C  C244  1  0.12995000  0.84478000  0.32384000  1.0
  C  C245  1  0.45155000  0.35352000  0.00455000  1.0
  C  C246  1  0.34607000  0.39827000  0.00088000  1.0
  C  C247  1  0.29164000  0.63539000  0.13194000  1.0
  C  C248  1  0.12742000  0.60605000  0.05882000  1.0
  C  C249  1  0.31329000  0.76690000  0.17341000  1.0
  C  C250  1  0.17588000  0.91083000  0.35470000  1.0
  C  C251  1  0.19664000  0.66330000  0.09661000  1.0
  C  C252  1  0.28857000  0.94260000  0.33816000  1.0
  C  C253  1  0.44553000  0.27544000  0.02709000  1.0
  C  C254  1  0.23227000  0.29563000  0.04212000  1.0
  C  C255  1  0.16427000  0.74450000  0.09859000  1.0
  N  N256  1  0.23849000  0.13036000  0.51904000  1.0
  N  N257  1  0.76152000  0.36964000  0.51904000  1.0
  N  N258  1  0.23848000  0.86964000  0.98096000  1.0
  N  N259  1  0.76152000  0.63037000  0.98096000  1.0
  N  N260  1  0.76152000  0.86964000  0.48096000  1.0
  N  N261  1  0.23849000  0.63036000  0.48096000  1.0
  N  N262  1  0.76152000  0.13036000  0.01904000  1.0
  N  N263  1  0.23848000  0.36964000  0.01904000  1.0
  O  O264  1  0.15059000  0.49252000  0.92994000  1.0
  O  O265  1  0.17295000  0.96327000  0.55129000  1.0
  O  O266  1  0.00582000  0.58758000  0.91770000  1.0
  O  O267  1  0.02709000  0.86949000  0.53759000  1.0
  O  O268  1  0.37080000  0.68219000  0.71335000  1.0
  O  O269  1  0.84941000  0.00748000  0.92993000  1.0
  O  O270  1  0.82706000  0.53673000  0.55129000  1.0
  O  O271  1  0.99416000  0.91241000  0.91770000  1.0
  O  O272  1  0.97291000  0.63051000  0.53759000  1.0
  O  O273  1  0.62919000  0.81781000  0.71335000  1.0
  O  O274  1  0.15061000  0.50750000  0.57006000  1.0
  O  O275  1  0.17297000  0.03671000  0.94871000  1.0
  O  O276  1  0.00585000  0.41243000  0.58230000  1.0
  O  O277  1  0.02710000  0.13050000  0.96241000  1.0
  O  O278  1  0.37081000  0.31780000  0.78665000  1.0
  O  O279  1  0.84939000  0.99250000  0.57006000  1.0
  O  O280  1  0.82704000  0.46329000  0.94871000  1.0
  O  O281  1  0.99415000  0.08757000  0.58230000  1.0
  O  O282  1  0.97290000  0.36950000  0.96241000  1.0
  O  O283  1  0.62919000  0.18219000  0.78665000  1.0
  O  O284  1  0.84939000  0.50750000  0.07007000  1.0
  O  O285  1  0.82704000  0.03671000  0.44871000  1.0
  O  O286  1  0.99415000  0.41243000  0.08230000  1.0
  O  O287  1  0.97290000  0.13049000  0.46240000  1.0
  O  O288  1  0.62919000  0.31781000  0.28665000  1.0
  O  O289  1  0.15061000  0.99250000  0.07007000  1.0
  O  O290  1  0.17297000  0.46329000  0.44872000  1.0
  O  O291  1  0.00585000  0.08758000  0.08230000  1.0
  O  O292  1  0.02711000  0.36951000  0.46241000  1.0
  O  O293  1  0.37081000  0.18220000  0.28665000  1.0
  O  O294  1  0.84941000  0.49252000  0.42994000  1.0
  O  O295  1  0.82705000  0.96328000  0.05129000  1.0
  O  O296  1  0.99417000  0.58759000  0.41770000  1.0
  O  O297  1  0.97291000  0.86949000  0.03759000  1.0
  O  O298  1  0.62919000  0.68219000  0.21335000  1.0
  O  O299  1  0.15060000  0.00748000  0.42994000  1.0
  O  O300  1  0.17295000  0.53672000  0.05129000  1.0
  O  O301  1  0.00584000  0.91241000  0.41770000  1.0
  O  O302  1  0.02709000  0.63051000  0.03759000  1.0
  O  O303  1  0.37081000  0.81781000  0.21335000  1.0
