# generated using pymatgen
data_MgH2(CO2)2
_symmetry_space_group_name_H-M   'P 1'
_cell_length_a   9.92346000
_cell_length_b   18.18120000
_cell_length_c   18.32620000
_cell_angle_alpha   90.00000000
_cell_angle_beta   89.99990000
_cell_angle_gamma   89.99990000
_symmetry_Int_Tables_number   1
_chemical_formula_structural   MgH2(CO2)2
_chemical_formula_sum   'Mg24 H48 C48 O96'
_cell_volume   3306.42053518
_cell_formula_units_Z   24
loop_
 _symmetry_equiv_pos_site_id
 _symmetry_equiv_pos_as_xyz
  1  'x, y, z'
loop_
 _atom_site_type_symbol
 _atom_site_label
 _atom_site_symmetry_multiplicity
 _atom_site_fract_x
 _atom_site_fract_y
 _atom_site_fract_z
 _atom_site_occupancy
  Mg  Mg0  1  0.42367000  0.93992000  0.81984000  1.0
  Mg  Mg1  1  0.61379000  0.03543000  0.71641000  1.0
  Mg  Mg2  1  0.07633000  0.43992000  0.68016000  1.0
  Mg  Mg3  1  0.88621000  0.53543000  0.78359000  1.0
  Mg  Mg4  1  0.57633000  0.56008000  0.81984000  1.0
  Mg  Mg5  1  0.38621000  0.46457000  0.71641000  1.0
  Mg  Mg6  1  0.92367000  0.06008000  0.68016000  1.0
  Mg  Mg7  1  0.11379000  0.96457000  0.78359000  1.0
  Mg  Mg8  1  0.57633000  0.06008000  0.18016000  1.0
  Mg  Mg9  1  0.38621000  0.96457000  0.28359000  1.0
  Mg  Mg10  1  0.92367000  0.56008000  0.31984000  1.0
  Mg  Mg11  1  0.11379000  0.46457000  0.21641000  1.0
  Mg  Mg12  1  0.42367000  0.43992000  0.18016000  1.0
  Mg  Mg13  1  0.61379000  0.53543000  0.28359000  1.0
  Mg  Mg14  1  0.07633000  0.93992000  0.31984000  1.0
  Mg  Mg15  1  0.88621000  0.03543000  0.21641000  1.0
  Mg  Mg16  1  0.50000000  0.00000000  0.00000000  1.0
  Mg  Mg17  1  0.00000000  0.50000000  0.50000000  1.0
  Mg  Mg18  1  0.50000000  0.50000000  0.00000000  1.0
  Mg  Mg19  1  0.00000000  0.00000000  0.50000000  1.0
  Mg  Mg20  1  0.50000000  0.75000000  0.81338000  1.0
  Mg  Mg21  1  0.00000000  0.25000000  0.68662000  1.0
  Mg  Mg22  1  0.50000000  0.25000000  0.18662000  1.0
  Mg  Mg23  1  0.00000000  0.75000000  0.31338000  1.0
  H  H24  1  0.25139000  0.00363000  0.62757000  1.0
  H  H25  1  0.10383000  0.99253000  0.94970000  1.0
  H  H26  1  0.20524000  0.75311000  0.81786000  1.0
  H  H27  1  0.71308000  0.87753000  0.67390000  1.0
  H  H28  1  0.54689000  0.15198000  0.84026000  1.0
  H  H29  1  0.66708000  0.86716000  0.97798000  1.0
  H  H30  1  0.24861000  0.50363000  0.87243000  1.0
  H  H31  1  0.39617000  0.49253000  0.55030000  1.0
  H  H32  1  0.29476000  0.25312000  0.68214000  1.0
  H  H33  1  0.78692000  0.37753000  0.82610000  1.0
  H  H34  1  0.95312000  0.65198000  0.65974000  1.0
  H  H35  1  0.83292000  0.36716000  0.52202000  1.0
  H  H36  1  0.74861000  0.49637000  0.62757000  1.0
  H  H37  1  0.89617000  0.50747000  0.94970000  1.0
  H  H38  1  0.79476000  0.74689000  0.81786000  1.0
  H  H39  1  0.28692000  0.62247000  0.67390000  1.0
  H  H40  1  0.45312000  0.34802000  0.84026000  1.0
  H  H41  1  0.33292000  0.63284000  0.97798000  1.0
  H  H42  1  0.75139000  0.99637000  0.87243000  1.0
  H  H43  1  0.60383000  0.00747000  0.55030000  1.0
  H  H44  1  0.70524000  0.24688000  0.68214000  1.0
  H  H45  1  0.21308000  0.12247000  0.82610000  1.0
  H  H46  1  0.04688000  0.84802000  0.65974000  1.0
  H  H47  1  0.16708000  0.13284000  0.52202000  1.0
  H  H48  1  0.74860000  0.99637000  0.37243000  1.0
  H  H49  1  0.89617000  0.00747000  0.05030000  1.0
  H  H50  1  0.79476000  0.24688000  0.18214000  1.0
  H  H51  1  0.28692000  0.12247000  0.32610000  1.0
  H  H52  1  0.45311000  0.84802000  0.15974000  1.0
  H  H53  1  0.33292000  0.13284000  0.02202000  1.0
  H  H54  1  0.75139000  0.49637000  0.12757000  1.0
  H  H55  1  0.60383000  0.50747000  0.44970000  1.0
  H  H56  1  0.70524000  0.74688000  0.31786000  1.0
  H  H57  1  0.21308000  0.62247000  0.17390000  1.0
  H  H58  1  0.04688000  0.34802000  0.34026000  1.0
  H  H59  1  0.16708000  0.63284000  0.47798000  1.0
  H  H60  1  0.25139000  0.50363000  0.37243000  1.0
  H  H61  1  0.10383000  0.49253000  0.05030000  1.0
  H  H62  1  0.20524000  0.25312000  0.18214000  1.0
  H  H63  1  0.71308000  0.37753000  0.32610000  1.0
  H  H64  1  0.54688000  0.65198000  0.15974000  1.0
  H  H65  1  0.66708000  0.36716000  0.02202000  1.0
  H  H66  1  0.24861000  0.00363000  0.12757000  1.0
  H  H67  1  0.39617000  0.99253000  0.44970000  1.0
  H  H68  1  0.29476000  0.75311000  0.31786000  1.0
  H  H69  1  0.78692000  0.87753000  0.17390000  1.0
  H  H70  1  0.95311000  0.15198000  0.34026000  1.0
  H  H71  1  0.83292000  0.86716000  0.47798000  1.0
  C  C72  1  0.33235000  0.99988000  0.66880000  1.0
  C  C73  1  0.21326000  0.98777000  0.93905000  1.0
  C  C74  1  0.22463000  0.81234000  0.80968000  1.0
  C  C75  1  0.63705000  0.86653000  0.71689000  1.0
  C  C76  1  0.51973000  0.09687000  0.86149000  1.0
  C  C77  1  0.60243000  0.86343000  0.92906000  1.0
  C  C78  1  0.16765000  0.49988000  0.83120000  1.0
  C  C79  1  0.28674000  0.48777000  0.56095000  1.0
  C  C80  1  0.27537000  0.31234000  0.69032000  1.0
  C  C81  1  0.86295000  0.36653000  0.78311000  1.0
  C  C82  1  0.98027000  0.59687000  0.63851000  1.0
  C  C83  1  0.89757000  0.36343000  0.57094000  1.0
  C  C84  1  0.66766000  0.50012000  0.66880000  1.0
  C  C85  1  0.78673000  0.51223000  0.93905000  1.0
  C  C86  1  0.77537000  0.68766000  0.80968000  1.0
  C  C87  1  0.36295000  0.63347000  0.71689000  1.0
  C  C88  1  0.48027000  0.40313000  0.86149000  1.0
  C  C89  1  0.39757000  0.63657000  0.92906000  1.0
  C  C90  1  0.83235000  0.00012000  0.83120000  1.0
  C  C91  1  0.71326000  0.01223000  0.56095000  1.0
  C  C92  1  0.72463000  0.18766000  0.69032000  1.0
  C  C93  1  0.13705000  0.13347000  0.78311000  1.0
  C  C94  1  0.01973000  0.90313000  0.63851000  1.0
  C  C95  1  0.10243000  0.13657000  0.57094000  1.0
  C  C96  1  0.66765000  0.00012000  0.33120000  1.0
  C  C97  1  0.78674000  0.01223000  0.06095000  1.0
  C  C98  1  0.77537000  0.18766000  0.19032000  1.0
  C  C99  1  0.36295000  0.13347000  0.28311000  1.0
  C  C100  1  0.48027000  0.90313000  0.13851000  1.0
  C  C101  1  0.39757000  0.13657000  0.07094000  1.0
  C  C102  1  0.83235000  0.50012000  0.16880000  1.0
  C  C103  1  0.71326000  0.51223000  0.43905000  1.0
  C  C104  1  0.72464000  0.68766000  0.30968000  1.0
  C  C105  1  0.13705000  0.63347000  0.21689000  1.0
  C  C106  1  0.01973000  0.40313000  0.36149000  1.0
  C  C107  1  0.10243000  0.63657000  0.42906000  1.0
  C  C108  1  0.33235000  0.49988000  0.33120000  1.0
  C  C109  1  0.21326000  0.48777000  0.06095000  1.0
  C  C110  1  0.22463000  0.31234000  0.19032000  1.0
  C  C111  1  0.63705000  0.36653000  0.28311000  1.0
  C  C112  1  0.51973000  0.59687000  0.13851000  1.0
  C  C113  1  0.60243000  0.36343000  0.07093000  1.0
  C  C114  1  0.16765000  0.99988000  0.16880000  1.0
  C  C115  1  0.28674000  0.98777000  0.43905000  1.0
  C  C116  1  0.27537000  0.81234000  0.30968000  1.0
  C  C117  1  0.86295000  0.86653000  0.21689000  1.0
  C  C118  1  0.98027000  0.09687000  0.36149000  1.0
  C  C119  1  0.89757000  0.86343000  0.42906000  1.0
  O  O120  1  0.30194000  0.96963000  0.73008000  1.0
  O  O121  1  0.44599000  0.02513000  0.65224000  1.0
  O  O122  1  0.34865000  0.83291000  0.81470000  1.0
  O  O123  1  0.12636000  0.85362000  0.79675000  1.0
  O  O124  1  0.50871000  0.04565000  0.81348000  1.0
  O  O125  1  0.58419000  0.92378000  0.74658000  1.0
  O  O126  1  0.52875000  0.92050000  0.91572000  1.0
  O  O127  1  0.24648000  0.97833000  0.87170000  1.0
  O  O128  1  0.61084000  0.80127000  0.73233000  1.0
  O  O129  1  0.60675000  0.80623000  0.89155000  1.0
  O  O130  1  0.29342000  0.99212000  0.99145000  1.0
  O  O131  1  0.50243000  0.08877000  0.92851000  1.0
  O  O132  1  0.19806000  0.46963000  0.76992000  1.0
  O  O133  1  0.05401000  0.52513000  0.84776000  1.0
  O  O134  1  0.15135000  0.33291000  0.68530000  1.0
  O  O135  1  0.37364000  0.35362000  0.70325000  1.0
  O  O136  1  0.99129000  0.54565000  0.68652000  1.0
  O  O137  1  0.91581000  0.42378000  0.75342000  1.0
  O  O138  1  0.97125000  0.42050000  0.58428000  1.0
  O  O139  1  0.25352000  0.47833000  0.62830000  1.0
  O  O140  1  0.88916000  0.30127000  0.76767000  1.0
  O  O141  1  0.89325000  0.30623000  0.60845000  1.0
  O  O142  1  0.20658000  0.49212000  0.50855000  1.0
  O  O143  1  0.99757000  0.58877000  0.57149000  1.0
  O  O144  1  0.69806000  0.53037000  0.73008000  1.0
  O  O145  1  0.55402000  0.47487000  0.65224000  1.0
  O  O146  1  0.65135000  0.66709000  0.81470000  1.0
  O  O147  1  0.87364000  0.64638000  0.79675000  1.0
  O  O148  1  0.49129000  0.45435000  0.81348000  1.0
  O  O149  1  0.41581000  0.57621000  0.74658000  1.0
  O  O150  1  0.47125000  0.57950000  0.91572000  1.0
  O  O151  1  0.75351000  0.52167000  0.87170000  1.0
  O  O152  1  0.38916000  0.69873000  0.73233000  1.0
  O  O153  1  0.39325000  0.69377000  0.89155000  1.0
  O  O154  1  0.70658000  0.50788000  0.99145000  1.0
  O  O155  1  0.49757000  0.41123000  0.92851000  1.0
  O  O156  1  0.80195000  0.03037000  0.76992000  1.0
  O  O157  1  0.94599000  0.97487000  0.84776000  1.0
  O  O158  1  0.84865000  0.16709000  0.68530000  1.0
  O  O159  1  0.62636000  0.14638000  0.70325000  1.0
  O  O160  1  0.00871000  0.95435000  0.68652000  1.0
  O  O161  1  0.08419000  0.07622000  0.75342000  1.0
  O  O162  1  0.02875000  0.07950000  0.58428000  1.0
  O  O163  1  0.74648000  0.02167000  0.62830000  1.0
  O  O164  1  0.11084000  0.19873000  0.76767000  1.0
  O  O165  1  0.10675000  0.19377000  0.60845000  1.0
  O  O166  1  0.79342000  0.00788000  0.50855000  1.0
  O  O167  1  0.00243000  0.91123000  0.57149000  1.0
  O  O168  1  0.69805000  0.03037000  0.26992000  1.0
  O  O169  1  0.55401000  0.97487000  0.34776000  1.0
  O  O170  1  0.65135000  0.16709000  0.18530000  1.0
  O  O171  1  0.87364000  0.14637000  0.20325000  1.0
  O  O172  1  0.49129000  0.95435000  0.18652000  1.0
  O  O173  1  0.41581000  0.07622000  0.25342000  1.0
  O  O174  1  0.47125000  0.07950000  0.08428000  1.0
  O  O175  1  0.75352000  0.02167000  0.12830000  1.0
  O  O176  1  0.38916000  0.19873000  0.26767000  1.0
  O  O177  1  0.39325000  0.19377000  0.10845000  1.0
  O  O178  1  0.70658000  0.00788000  0.00855000  1.0
  O  O179  1  0.49757000  0.91123000  0.07149000  1.0
  O  O180  1  0.80195000  0.53037000  0.23008000  1.0
  O  O181  1  0.94599000  0.47487000  0.15224000  1.0
  O  O182  1  0.84866000  0.66709000  0.31470000  1.0
  O  O183  1  0.62636000  0.64638000  0.29675000  1.0
  O  O184  1  0.00871000  0.45435000  0.31348000  1.0
  O  O185  1  0.08419000  0.57622000  0.24658000  1.0
  O  O186  1  0.02875000  0.57950000  0.41572000  1.0
  O  O187  1  0.74649000  0.52167000  0.37170000  1.0
  O  O188  1  0.11084000  0.69873000  0.23233000  1.0
  O  O189  1  0.10675000  0.69377000  0.39155000  1.0
  O  O190  1  0.79342000  0.50788000  0.49145000  1.0
  O  O191  1  0.00243000  0.41123000  0.42851000  1.0
  O  O192  1  0.30194000  0.46963000  0.26992000  1.0
  O  O193  1  0.44599000  0.52513000  0.34776000  1.0
  O  O194  1  0.34865000  0.33291000  0.18530000  1.0
  O  O195  1  0.12636000  0.35363000  0.20325000  1.0
  O  O196  1  0.50871000  0.54565000  0.18652000  1.0
  O  O197  1  0.58419000  0.42378000  0.25342000  1.0
  O  O198  1  0.52875000  0.42050000  0.08428000  1.0
  O  O199  1  0.24648000  0.47833000  0.12830000  1.0
  O  O200  1  0.61084000  0.30127000  0.26767000  1.0
  O  O201  1  0.60675000  0.30623000  0.10845000  1.0
  O  O202  1  0.29342000  0.49212000  0.00855000  1.0
  O  O203  1  0.50243000  0.58877000  0.07149000  1.0
  O  O204  1  0.19805000  0.96963000  0.23008000  1.0
  O  O205  1  0.05401000  0.02513000  0.15224000  1.0
  O  O206  1  0.15135000  0.83291000  0.31470000  1.0
  O  O207  1  0.37364000  0.85362000  0.29675000  1.0
  O  O208  1  0.99129000  0.04565000  0.31348000  1.0
  O  O209  1  0.91581000  0.92378000  0.24658000  1.0
  O  O210  1  0.97125000  0.92050000  0.41572000  1.0
  O  O211  1  0.25352000  0.97833000  0.37170000  1.0
  O  O212  1  0.88916000  0.80127000  0.23233000  1.0
  O  O213  1  0.89325000  0.80623000  0.39155000  1.0
  O  O214  1  0.20658000  0.99212000  0.49145000  1.0
  O  O215  1  0.99757000  0.08877000  0.42851000  1.0
