# generated using pymatgen
data_YH16C8Cl3O2
_symmetry_space_group_name_H-M   'P 1'
_cell_length_a   8.10207000
_cell_length_b   8.40429000
_cell_length_c   9.74830000
_cell_angle_alpha   81.14890000
_cell_angle_beta   69.29590000
_cell_angle_gamma   82.07660000
_symmetry_Int_Tables_number   1
_chemical_formula_structural   YH16C8Cl3O2
_chemical_formula_sum   'Y2 H32 C16 Cl6 O4'
_cell_volume   611.01484673
_cell_formula_units_Z   2
loop_
 _symmetry_equiv_pos_site_id
 _symmetry_equiv_pos_as_xyz
  1  'x, y, z'
loop_
 _atom_site_type_symbol
 _atom_site_label
 _atom_site_symmetry_multiplicity
 _atom_site_fract_x
 _atom_site_fract_y
 _atom_site_fract_z
 _atom_site_occupancy
  Y  Y0  1  0.99921000  0.76062000  0.92715000  1.0
  Y  Y1  1  0.00079000  0.23938000  0.07284000  1.0
  H  H2  1  0.66402000  0.76235000  0.77755000  1.0
  H  H3  1  0.33597000  0.23764000  0.22244000  1.0
  H  H4  1  0.70874000  0.97020000  0.74946000  1.0
  H  H5  1  0.29126000  0.02979000  0.25054000  1.0
  H  H6  1  0.80562000  0.96859000  0.47898000  1.0
  H  H7  1  0.19440000  0.03141000  0.52101000  1.0
  H  H8  1  0.63122000  0.83908000  0.54072000  1.0
  H  H9  1  0.36877000  0.16091000  0.45926000  1.0
  H  H10  1  0.84074000  0.59801000  0.53941000  1.0
  H  H11  1  0.15926000  0.40198000  0.46060000  1.0
  H  H12  1  0.96172000  0.71757000  0.37642000  1.0
  H  H13  1  0.03830000  0.28243000  0.62356000  1.0
  H  H14  1  0.10026000  0.61617000  0.60101000  1.0
  H  H15  1  0.89974000  0.38382000  0.39900000  1.0
  H  H16  1  0.13451000  0.81196000  0.50030000  1.0
  H  H17  1  0.86550000  0.18804000  0.49970000  1.0
  H  H18  1  0.77378000  0.83126000  0.24387000  1.0
  H  H19  1  0.22624000  0.16871000  0.75612000  1.0
  H  H20  1  0.57822000  0.93734000  0.21975000  1.0
  H  H21  1  0.42181000  0.06266000  0.78025000  1.0
  H  H22  1  0.45517000  0.73819000  0.43896000  1.0
  H  H23  1  0.54482000  0.26183000  0.56105000  1.0
  H  H24  1  0.62420000  0.58654000  0.35969000  1.0
  H  H25  1  0.37578000  0.41346000  0.64032000  1.0
  H  H26  1  0.39903000  0.51902000  0.27886000  1.0
  H  H27  1  0.60095000  0.48100000  0.72114000  1.0
  H  H28  1  0.30520000  0.72234000  0.26576000  1.0
  H  H29  1  0.69481000  0.27770000  0.73424000  1.0
  H  H30  1  0.47980000  0.75208000  0.01835000  1.0
  H  H31  1  0.52019000  0.24793000  0.98165000  1.0
  H  H32  1  0.60544000  0.56078000  0.03601000  1.0
  H  H33  1  0.39454000  0.43922000  0.96400000  1.0
  C  C34  1  0.75019000  0.85365000  0.70461000  1.0
  C  C35  1  0.24981000  0.14634000  0.29540000  1.0
  C  C36  1  0.76060000  0.85501000  0.54608000  1.0
  C  C37  1  0.23940000  0.14498000  0.45391000  1.0
  C  C38  1  0.90008000  0.71339000  0.49660000  1.0
  C  C39  1  0.09993000  0.28661000  0.50339000  1.0
  C  C40  1  0.03379000  0.73079000  0.56891000  1.0
  C  C41  1  0.96621000  0.26921000  0.43110000  1.0
  C  C42  1  0.65049000  0.81715000  0.22626000  1.0
  C  C43  1  0.34951000  0.18284000  0.77374000  1.0
  C  C44  1  0.53833000  0.69168000  0.33477000  1.0
  C  C45  1  0.46165000  0.30833000  0.66524000  1.0
  C  C46  1  0.42999000  0.64520000  0.24800000  1.0
  C  C47  1  0.57000000  0.35482000  0.75201000  1.0
  C  C48  1  0.54854000  0.67288000  0.08584000  1.0
  C  C49  1  0.45145000  0.32713000  0.91416000  1.0
  Cl  Cl50  1  0.88775000  0.08140000  0.89628000  1.0
  Cl  Cl51  1  0.11225000  0.91859000  0.10373000  1.0
  Cl  Cl52  1  0.93319000  0.47019000  0.86771000  1.0
  Cl  Cl53  1  0.06680000  0.52981000  0.13230000  1.0
  Cl  Cl54  1  0.31797000  0.74751000  0.75003000  1.0
  Cl  Cl55  1  0.68203000  0.25250000  0.24997000  1.0
  O  O56  1  0.93179000  0.80688000  0.70364000  1.0
  O  O57  1  0.06821000  0.19311000  0.29637000  1.0
  O  O58  1  0.69927000  0.75377000  0.08426000  1.0
  O  O59  1  0.30073000  0.24623000  0.91574000  1.0
