# generated using pymatgen
data_Pr2H17C24N5O18
_symmetry_space_group_name_H-M   'P 1'
_cell_length_a   8.64990000
_cell_length_b   11.00390000
_cell_length_c   33.74330000
_cell_angle_alpha   90.00140000
_cell_angle_beta   90.00020000
_cell_angle_gamma   89.99950000
_symmetry_Int_Tables_number   1
_chemical_formula_structural   Pr2H17C24N5O18
_chemical_formula_sum   'Pr8 H68 C96 N20 O72'
_cell_volume   3211.77619333
_cell_formula_units_Z   4
loop_
 _symmetry_equiv_pos_site_id
 _symmetry_equiv_pos_as_xyz
  1  'x, y, z'
loop_
 _atom_site_type_symbol
 _atom_site_label
 _atom_site_symmetry_multiplicity
 _atom_site_fract_x
 _atom_site_fract_y
 _atom_site_fract_z
 _atom_site_occupancy
  Pr  Pr0  1  0.11230000  0.81232000  0.88863000  1.0
  Pr  Pr1  1  0.38769000  0.31234000  0.11138000  1.0
  Pr  Pr2  1  0.88771000  0.18767000  0.38862000  1.0
  Pr  Pr3  1  0.61231000  0.68767000  0.61138000  1.0
  Pr  Pr4  1  0.88770000  0.18767000  0.11138000  1.0
  Pr  Pr5  1  0.61229000  0.68767000  0.88863000  1.0
  Pr  Pr6  1  0.11229000  0.81233000  0.61138000  1.0
  Pr  Pr7  1  0.38774000  0.31234000  0.38862000  1.0
  H  H8  1  0.16472000  0.56329000  0.81390000  1.0
  H  H9  1  0.57581000  0.04465000  0.88269000  1.0
  H  H10  1  0.39821000  0.24231000  0.98397000  1.0
  H  H11  1  0.80681000  0.02448000  0.99618000  1.0
  H  H12  1  0.39013000  0.50426000  0.77540000  1.0
  H  H13  1  0.41727000  0.25483000  0.88152000  1.0
  H  H14  1  0.28990000  0.14029000  0.89132000  1.0
  H  H15  1  0.29545000  0.26943000  0.91995000  1.0
  H  H16  1  0.33527000  0.06326000  0.18610000  1.0
  H  H17  1  0.92416000  0.54464000  0.11730000  1.0
  H  H18  1  0.10176000  0.74229000  0.01603000  1.0
  H  H19  1  0.69315000  0.52446000  0.00381000  1.0
  H  H20  1  0.10988000  0.00422000  0.22461000  1.0
  H  H21  1  0.08272000  0.75484000  0.11848000  1.0
  H  H22  1  0.21008000  0.64026000  0.10868000  1.0
  H  H23  1  0.20456000  0.76940000  0.08004000  1.0
  H  H24  1  0.83528000  0.43672000  0.31390000  1.0
  H  H25  1  0.42420000  0.95536000  0.38269000  1.0
  H  H26  1  0.60177000  0.75768000  0.48397000  1.0
  H  H27  1  0.19319000  0.97554000  0.49618000  1.0
  H  H28  1  0.60988000  0.49578000  0.27540000  1.0
  H  H29  1  0.58271000  0.74518000  0.38151000  1.0
  H  H30  1  0.71009000  0.85972000  0.39133000  1.0
  H  H31  1  0.70454000  0.73058000  0.41995000  1.0
  H  H32  1  0.66471000  0.93674000  0.68610000  1.0
  H  H33  1  0.07583000  0.45535000  0.61731000  1.0
  H  H34  1  0.89826000  0.25769000  0.51602000  1.0
  H  H35  1  0.30684000  0.47553000  0.50382000  1.0
  H  H36  1  0.89011000  0.99577000  0.72460000  1.0
  H  H37  1  0.91729000  0.24516000  0.61848000  1.0
  H  H38  1  0.78993000  0.35974000  0.60868000  1.0
  H  H39  1  0.79545000  0.23059000  0.58004000  1.0
  H  H40  1  0.83528000  0.43673000  0.18610000  1.0
  H  H41  1  0.42417000  0.95537000  0.11731000  1.0
  H  H42  1  0.60179000  0.75773000  0.01603000  1.0
  H  H43  1  0.19315000  0.97553000  0.00381000  1.0
  H  H44  1  0.60988000  0.49578000  0.22460000  1.0
  H  H45  1  0.58272000  0.74518000  0.11848000  1.0
  H  H46  1  0.71009000  0.85975000  0.10868000  1.0
  H  H47  1  0.70456000  0.73061000  0.08004000  1.0
  H  H48  1  0.66471000  0.93675000  0.81390000  1.0
  H  H49  1  0.07582000  0.45536000  0.88270000  1.0
  H  H50  1  0.89822000  0.25769000  0.98397000  1.0
  H  H51  1  0.30683000  0.47551000  0.99619000  1.0
  H  H52  1  0.89011000  0.99580000  0.77539000  1.0
  H  H53  1  0.91727000  0.24516000  0.88151000  1.0
  H  H54  1  0.78991000  0.35973000  0.89132000  1.0
  H  H55  1  0.79544000  0.23059000  0.91996000  1.0
  H  H56  1  0.16473000  0.56329000  0.68611000  1.0
  H  H57  1  0.57581000  0.04464000  0.61731000  1.0
  H  H58  1  0.39822000  0.24229000  0.51603000  1.0
  H  H59  1  0.80684000  0.02448000  0.50381000  1.0
  H  H60  1  0.39014000  0.50424000  0.72461000  1.0
  H  H61  1  0.41726000  0.25482000  0.61848000  1.0
  H  H62  1  0.28989000  0.14026000  0.60867000  1.0
  H  H63  1  0.29543000  0.26941000  0.58004000  1.0
  H  H64  1  0.33530000  0.06324000  0.31390000  1.0
  H  H65  1  0.92418000  0.54464000  0.38269000  1.0
  H  H66  1  0.10180000  0.74228000  0.48397000  1.0
  H  H67  1  0.69317000  0.52448000  0.49618000  1.0
  H  H68  1  0.10990000  0.00421000  0.27540000  1.0
  H  H69  1  0.08275000  0.75483000  0.38152000  1.0
  H  H70  1  0.21011000  0.64026000  0.39132000  1.0
  H  H71  1  0.20457000  0.76939000  0.41996000  1.0
  H  H72  1  0.76304000  0.68717000  0.75001000  1.0
  H  H73  1  0.73696000  0.18715000  0.25000000  1.0
  H  H74  1  0.23695000  0.31280000  0.25000000  1.0
  H  H75  1  0.26305000  0.81283000  0.75000000  1.0
  C  C76  1  0.88037000  0.65926000  0.82369000  1.0
  C  C77  1  0.95634000  0.62618000  0.78565000  1.0
  C  C78  1  0.10589000  0.57778000  0.78574000  1.0
  C  C79  1  0.83036000  0.95084000  0.91976000  1.0
  C  C80  1  0.70479000  0.02730000  0.93743000  1.0
  C  C81  1  0.58526000  0.07241000  0.91364000  1.0
  C  C82  1  0.47976000  0.15323000  0.93052000  1.0
  C  C83  1  0.48344000  0.18211000  0.97054000  1.0
  C  C84  1  0.59962000  0.13222000  0.99448000  1.0
  C  C85  1  0.71334000  0.05877000  0.97760000  1.0
  C  C86  1  0.59965000  0.15761000  0.03841000  1.0
  C  C87  1  0.61962000  0.15926000  0.17632000  1.0
  C  C88  1  0.54365000  0.12616000  0.21436000  1.0
  C  C89  1  0.39411000  0.07775000  0.21426000  1.0
  C  C90  1  0.66963000  0.45084000  0.08024000  1.0
  C  C91  1  0.79519000  0.52729000  0.06257000  1.0
  C  C92  1  0.91473000  0.57240000  0.08636000  1.0
  C  C93  1  0.02021000  0.65322000  0.06948000  1.0
  C  C94  1  0.01653000  0.68211000  0.02946000  1.0
  C  C95  1  0.90037000  0.63222000  0.00551000  1.0
  C  C96  1  0.78664000  0.55876000  0.02240000  1.0
  C  C97  1  0.90033000  0.65759000  0.96158000  1.0
  C  C98  1  0.11962000  0.34074000  0.32368000  1.0
  C  C99  1  0.04365000  0.37381000  0.28564000  1.0
  C  C100  1  0.89411000  0.42223000  0.28574000  1.0
  C  C101  1  0.16968000  0.04918000  0.41976000  1.0
  C  C102  1  0.29522000  0.97272000  0.43743000  1.0
  C  C103  1  0.41475000  0.92761000  0.41365000  1.0
  C  C104  1  0.52024000  0.84677000  0.43052000  1.0
  C  C105  1  0.51654000  0.81788000  0.47054000  1.0
  C  C106  1  0.40036000  0.86777000  0.49449000  1.0
  C  C107  1  0.28666000  0.94124000  0.47760000  1.0
  C  C108  1  0.40034000  0.84239000  0.53842000  1.0
  C  C109  1  0.38036000  0.84074000  0.67632000  1.0
  C  C110  1  0.45634000  0.87383000  0.71436000  1.0
  C  C111  1  0.60588000  0.92224000  0.71426000  1.0
  C  C112  1  0.33036000  0.54916000  0.58024000  1.0
  C  C113  1  0.20480000  0.47270000  0.56257000  1.0
  C  C114  1  0.08528000  0.42759000  0.58636000  1.0
  C  C115  1  0.97979000  0.34677000  0.56947000  1.0
  C  C116  1  0.98347000  0.31788000  0.52946000  1.0
  C  C117  1  0.09965000  0.36777000  0.50551000  1.0
  C  C118  1  0.21336000  0.44123000  0.52240000  1.0
  C  C119  1  0.09970000  0.34239000  0.46158000  1.0
  C  C120  1  0.11962000  0.34074000  0.17631000  1.0
  C  C121  1  0.04364000  0.37381000  0.21435000  1.0
  C  C122  1  0.89410000  0.42223000  0.21426000  1.0
  C  C123  1  0.16964000  0.04917000  0.08024000  1.0
  C  C124  1  0.29521000  0.97272000  0.06257000  1.0
  C  C125  1  0.41474000  0.92761000  0.08636000  1.0
  C  C126  1  0.52022000  0.84680000  0.06948000  1.0
  C  C127  1  0.51656000  0.81791000  0.02946000  1.0
  C  C128  1  0.40039000  0.86778000  0.00552000  1.0
  C  C129  1  0.28666000  0.94124000  0.02240000  1.0
  C  C130  1  0.40035000  0.84239000  0.96158000  1.0
  C  C131  1  0.38035000  0.84075000  0.82368000  1.0
  C  C132  1  0.45634000  0.87384000  0.78564000  1.0
  C  C133  1  0.60588000  0.92225000  0.78574000  1.0
  C  C134  1  0.33036000  0.54916000  0.91977000  1.0
  C  C135  1  0.20479000  0.47270000  0.93743000  1.0
  C  C136  1  0.08526000  0.42760000  0.91364000  1.0
  C  C137  1  0.97977000  0.34678000  0.93052000  1.0
  C  C138  1  0.98345000  0.31788000  0.97054000  1.0
  C  C139  1  0.09962000  0.36776000  0.99448000  1.0
  C  C140  1  0.21334000  0.44122000  0.97760000  1.0
  C  C141  1  0.09966000  0.34237000  0.03841000  1.0
  C  C142  1  0.88038000  0.65926000  0.67632000  1.0
  C  C143  1  0.95635000  0.62618000  0.71436000  1.0
  C  C144  1  0.10590000  0.57778000  0.71427000  1.0
  C  C145  1  0.83034000  0.95082000  0.58024000  1.0
  C  C146  1  0.70478000  0.02728000  0.56257000  1.0
  C  C147  1  0.58524000  0.07239000  0.58636000  1.0
  C  C148  1  0.47976000  0.15321000  0.56948000  1.0
  C  C149  1  0.48345000  0.18211000  0.52946000  1.0
  C  C150  1  0.59961000  0.13224000  0.50552000  1.0
  C  C151  1  0.71334000  0.05877000  0.52240000  1.0
  C  C152  1  0.59969000  0.15762000  0.46158000  1.0
  C  C153  1  0.61964000  0.15924000  0.32368000  1.0
  C  C154  1  0.54367000  0.12615000  0.28564000  1.0
  C  C155  1  0.39412000  0.07774000  0.28574000  1.0
  C  C156  1  0.66963000  0.45085000  0.41976000  1.0
  C  C157  1  0.79521000  0.52730000  0.43743000  1.0
  C  C158  1  0.91475000  0.57239000  0.41364000  1.0
  C  C159  1  0.02024000  0.65321000  0.43052000  1.0
  C  C160  1  0.01656000  0.68210000  0.47054000  1.0
  C  C161  1  0.90040000  0.63222000  0.49448000  1.0
  C  C162  1  0.78667000  0.55877000  0.47760000  1.0
  C  C163  1  0.90036000  0.65762000  0.53841000  1.0
  C  C164  1  0.87884000  0.64870000  0.75000000  1.0
  C  C165  1  0.18271000  0.55099000  0.75001000  1.0
  C  C166  1  0.62117000  0.14868000  0.25000000  1.0
  C  C167  1  0.31731000  0.05094000  0.25000000  1.0
  C  C168  1  0.12114000  0.35128000  0.25000000  1.0
  C  C169  1  0.81731000  0.44903000  0.25000000  1.0
  C  C170  1  0.37883000  0.85131000  0.75000000  1.0
  C  C171  1  0.68269000  0.94905000  0.75000000  1.0
  N  N172  1  0.07563000  0.07304000  0.85217000  1.0
  N  N173  1  0.36301000  0.20805000  0.90481000  1.0
  N  N174  1  0.42433000  0.57308000  0.14783000  1.0
  N  N175  1  0.13695000  0.70804000  0.09518000  1.0
  N  N176  1  0.92436000  0.92695000  0.35218000  1.0
  N  N177  1  0.63699000  0.79196000  0.40481000  1.0
  N  N178  1  0.57565000  0.42693000  0.64783000  1.0
  N  N179  1  0.86305000  0.29196000  0.59518000  1.0
  N  N180  1  0.92436000  0.92697000  0.14783000  1.0
  N  N181  1  0.63697000  0.79198000  0.09518000  1.0
  N  N182  1  0.57564000  0.42697000  0.85217000  1.0
  N  N183  1  0.86303000  0.29196000  0.90481000  1.0
  N  N184  1  0.07563000  0.07301000  0.64783000  1.0
  N  N185  1  0.36302000  0.20803000  0.59518000  1.0
  N  N186  1  0.42434000  0.57305000  0.35217000  1.0
  N  N187  1  0.13699000  0.70803000  0.40482000  1.0
  N  N188  1  0.32775000  0.49921000  0.75001000  1.0
  N  N189  1  0.17227000  0.99916000  0.25000000  1.0
  N  N190  1  0.67227000  0.50082000  0.25000000  1.0
  N  N191  1  0.82773000  0.00083000  0.75000000  1.0
  O  O192  1  0.79714000  0.85987000  0.89777000  1.0
  O  O193  1  0.96823000  0.98267000  0.92695000  1.0
  O  O194  1  0.96120000  0.65987000  0.85589000  1.0
  O  O195  1  0.73746000  0.68625000  0.82372000  1.0
  O  O196  1  0.48272000  0.21386000  0.05168000  1.0
  O  O197  1  0.71383000  0.11979000  0.05844000  1.0
  O  O198  1  0.19956000  0.03469000  0.86969000  1.0
  O  O199  1  0.98122000  0.99472000  0.84023000  1.0
  O  O200  1  0.05384000  0.18541000  0.84861000  1.0
  O  O201  1  0.70287000  0.35989000  0.10224000  1.0
  O  O202  1  0.53175000  0.48266000  0.07305000  1.0
  O  O203  1  0.53879000  0.15990000  0.14412000  1.0
  O  O204  1  0.76254000  0.18623000  0.17629000  1.0
  O  O205  1  0.01728000  0.71383000  0.94832000  1.0
  O  O206  1  0.78615000  0.61977000  0.94156000  1.0
  O  O207  1  0.30039000  0.53469000  0.13031000  1.0
  O  O208  1  0.51875000  0.49479000  0.15977000  1.0
  O  O209  1  0.44607000  0.68546000  0.15136000  1.0
  O  O210  1  0.20292000  0.14013000  0.39776000  1.0
  O  O211  1  0.03180000  0.01739000  0.42695000  1.0
  O  O212  1  0.03879000  0.34012000  0.35588000  1.0
  O  O213  1  0.26254000  0.31377000  0.32372000  1.0
  O  O214  1  0.51728000  0.78616000  0.55168000  1.0
  O  O215  1  0.28615000  0.88022000  0.55844000  1.0
  O  O216  1  0.80043000  0.96531000  0.36969000  1.0
  O  O217  1  0.01878000  0.00525000  0.34024000  1.0
  O  O218  1  0.94614000  0.81458000  0.34863000  1.0
  O  O219  1  0.29714000  0.64012000  0.60224000  1.0
  O  O220  1  0.46825000  0.51734000  0.57305000  1.0
  O  O221  1  0.46118000  0.84009000  0.64412000  1.0
  O  O222  1  0.23744000  0.81377000  0.67629000  1.0
  O  O223  1  0.98278000  0.28614000  0.44832000  1.0
  O  O224  1  0.21389000  0.38023000  0.44156000  1.0
  O  O225  1  0.69960000  0.46531000  0.63032000  1.0
  O  O226  1  0.48123000  0.50522000  0.65977000  1.0
  O  O227  1  0.55390000  0.31456000  0.65136000  1.0
  O  O228  1  0.20286000  0.14012000  0.10224000  1.0
  O  O229  1  0.03176000  0.01735000  0.07305000  1.0
  O  O230  1  0.03880000  0.34012000  0.14411000  1.0
  O  O231  1  0.26253000  0.31376000  0.17628000  1.0
  O  O232  1  0.51734000  0.78616000  0.94833000  1.0
  O  O233  1  0.28618000  0.88017000  0.94156000  1.0
  O  O234  1  0.80041000  0.96533000  0.13031000  1.0
  O  O235  1  0.01877000  0.00527000  0.15977000  1.0
  O  O236  1  0.94613000  0.81459000  0.15138000  1.0
  O  O237  1  0.29713000  0.64010000  0.89777000  1.0
  O  O238  1  0.46824000  0.51733000  0.92695000  1.0
  O  O239  1  0.46118000  0.84010000  0.85588000  1.0
  O  O240  1  0.23744000  0.81378000  0.82371000  1.0
  O  O241  1  0.98271000  0.28612000  0.05167000  1.0
  O  O242  1  0.21383000  0.38019000  0.05844000  1.0
  O  O243  1  0.69958000  0.46532000  0.86969000  1.0
  O  O244  1  0.48124000  0.50529000  0.84023000  1.0
  O  O245  1  0.55385000  0.31460000  0.84862000  1.0
  O  O246  1  0.79711000  0.85988000  0.60224000  1.0
  O  O247  1  0.96822000  0.98264000  0.57305000  1.0
  O  O248  1  0.96121000  0.65988000  0.64412000  1.0
  O  O249  1  0.73747000  0.68624000  0.67629000  1.0
  O  O250  1  0.48273000  0.21387000  0.44832000  1.0
  O  O251  1  0.71386000  0.11980000  0.44156000  1.0
  O  O252  1  0.19957000  0.03467000  0.63031000  1.0
  O  O253  1  0.98124000  0.99468000  0.65977000  1.0
  O  O254  1  0.05383000  0.18537000  0.65139000  1.0
  O  O255  1  0.70284000  0.35987000  0.39777000  1.0
  O  O256  1  0.53175000  0.48270000  0.42694000  1.0
  O  O257  1  0.53882000  0.15989000  0.35588000  1.0
  O  O258  1  0.76255000  0.18622000  0.32371000  1.0
  O  O259  1  0.01733000  0.71386000  0.55167000  1.0
  O  O260  1  0.78618000  0.61982000  0.55844000  1.0
  O  O261  1  0.30040000  0.53468000  0.36968000  1.0
  O  O262  1  0.51877000  0.49475000  0.34023000  1.0
  O  O263  1  0.44610000  0.68543000  0.34862000  1.0
