# generated using pymatgen
data_CdH20C16(SeN3)2
_symmetry_space_group_name_H-M   'P 1'
_cell_length_a   6.05475000
_cell_length_b   11.13010000
_cell_length_c   14.40290000
_cell_angle_alpha   89.99900000
_cell_angle_beta   80.09830000
_cell_angle_gamma   89.99950000
_symmetry_Int_Tables_number   1
_chemical_formula_structural   CdH20C16(SeN3)2
_chemical_formula_sum   'Cd2 H40 C32 Se4 N12'
_cell_volume   956.15303741
_cell_formula_units_Z   2
loop_
 _symmetry_equiv_pos_site_id
 _symmetry_equiv_pos_as_xyz
  1  'x, y, z'
loop_
 _atom_site_type_symbol
 _atom_site_label
 _atom_site_symmetry_multiplicity
 _atom_site_fract_x
 _atom_site_fract_y
 _atom_site_fract_z
 _atom_site_occupancy
  Cd  Cd0  1  0.00005000  0.00000000  0.00001000  1.0
  Cd  Cd1  1  0.99995000  0.50000000  0.50000000  1.0
  H  H2  1  0.35500000  0.22136000  0.99679000  1.0
  H  H3  1  0.35499000  0.27866000  0.49679000  1.0
  H  H4  1  0.64501000  0.77865000  0.00321000  1.0
  H  H5  1  0.64501000  0.72135000  0.50322000  1.0
  H  H6  1  0.38126000  0.42871000  0.04904000  1.0
  H  H7  1  0.38126000  0.07129000  0.54904000  1.0
  H  H8  1  0.61873000  0.57129000  0.95096000  1.0
  H  H9  1  0.61874000  0.92871000  0.45097000  1.0
  H  H10  1  0.67757000  0.40040000  0.17970000  1.0
  H  H11  1  0.67756000  0.09959000  0.67971000  1.0
  H  H12  1  0.32242000  0.59960000  0.82029000  1.0
  H  H13  1  0.32242000  0.90039000  0.32028000  1.0
  H  H14  1  0.68516000  0.19656000  0.11880000  1.0
  H  H15  1  0.68514000  0.30344000  0.61881000  1.0
  H  H16  1  0.31487000  0.80344000  0.88119000  1.0
  H  H17  1  0.31484000  0.69655000  0.38119000  1.0
  H  H18  1  0.39476000  0.57285000  0.13511000  1.0
  H  H19  1  0.39478000  0.92715000  0.63511000  1.0
  H  H20  1  0.60522000  0.42716000  0.86490000  1.0
  H  H21  1  0.60524000  0.07285000  0.36490000  1.0
  H  H22  1  0.25564000  0.66518000  0.06046000  1.0
  H  H23  1  0.25567000  0.83483000  0.56046000  1.0
  H  H24  1  0.74433000  0.33481000  0.93954000  1.0
  H  H25  1  0.74436000  0.16519000  0.43954000  1.0
  H  H26  1  0.23564000  0.69853000  0.18242000  1.0
  H  H27  1  0.23566000  0.80146000  0.68241000  1.0
  H  H28  1  0.76433000  0.30148000  0.81758000  1.0
  H  H29  1  0.76436000  0.19853000  0.31758000  1.0
  H  H30  1  0.70021000  0.56034000  0.21949000  1.0
  H  H31  1  0.70023000  0.93967000  0.71949000  1.0
  H  H32  1  0.29977000  0.43966000  0.78053000  1.0
  H  H33  1  0.29979000  0.06034000  0.28053000  1.0
  H  H34  1  0.88642000  0.64689000  0.27447000  1.0
  H  H35  1  0.88642000  0.85310000  0.77447000  1.0
  H  H36  1  0.11358000  0.35311000  0.72553000  1.0
  H  H37  1  0.11359000  0.14689000  0.22553000  1.0
  H  H38  1  0.81324000  0.69628000  0.16605000  1.0
  H  H39  1  0.81323000  0.80373000  0.66605000  1.0
  H  H40  1  0.18675000  0.30372000  0.83395000  1.0
  H  H41  1  0.18676000  0.19628000  0.33394000  1.0
  C  C42  1  0.20807000  0.26487000  0.03746000  1.0
  C  C43  1  0.20803000  0.23514000  0.53746000  1.0
  C  C44  1  0.79196000  0.73513000  0.96254000  1.0
  C  C45  1  0.79195000  0.76486000  0.46255000  1.0
  C  C46  1  0.22198000  0.38211000  0.06738000  1.0
  C  C47  1  0.22197000  0.11788000  0.56738000  1.0
  C  C48  1  0.77802000  0.61789000  0.93262000  1.0
  C  C49  1  0.77804000  0.88212000  0.43263000  1.0
  C  C50  1  0.03189000  0.43895000  0.12180000  1.0
  C  C51  1  0.03190000  0.06105000  0.62181000  1.0
  C  C52  1  0.96810000  0.56104000  0.87819000  1.0
  C  C53  1  0.96810000  0.93895000  0.37820000  1.0
  C  C54  1  0.83400000  0.36746000  0.13896000  1.0
  C  C55  1  0.83400000  0.13254000  0.63897000  1.0
  C  C56  1  0.16599000  0.63256000  0.86103000  1.0
  C  C57  1  0.16599000  0.86745000  0.36102000  1.0
  C  C58  1  0.83678000  0.25140000  0.10488000  1.0
  C  C59  1  0.83679000  0.24861000  0.60489000  1.0
  C  C60  1  0.16321000  0.74859000  0.89511000  1.0
  C  C61  1  0.16323000  0.75138000  0.39511000  1.0
  C  C62  1  0.24353000  0.62532000  0.13114000  1.0
  C  C63  1  0.24354000  0.87468000  0.63114000  1.0
  C  C64  1  0.75645000  0.37468000  0.86886000  1.0
  C  C65  1  0.75647000  0.12532000  0.36886000  1.0
  C  C66  1  0.84986000  0.61665000  0.20608000  1.0
  C  C67  1  0.84986000  0.88335000  0.70608000  1.0
  C  C68  1  0.15014000  0.38334000  0.79392000  1.0
  C  C69  1  0.15015000  0.11665000  0.29392000  1.0
  C  C70  1  0.55136000  0.05900000  0.88474000  1.0
  C  C71  1  0.55128000  0.44099000  0.38473000  1.0
  C  C72  1  0.44872000  0.94098000  0.11525000  1.0
  C  C73  1  0.44865000  0.55901000  0.61526000  1.0
  Se  Se74  1  0.30708000  0.05895000  0.82922000  1.0
  Se  Se75  1  0.30698000  0.44104000  0.32922000  1.0
  Se  Se76  1  0.69298000  0.94105000  0.17077000  1.0
  Se  Se77  1  0.69293000  0.55894000  0.67077000  1.0
  N  N78  1  0.01965000  0.19776000  0.05493000  1.0
  N  N79  1  0.01963000  0.30224000  0.55494000  1.0
  N  N80  1  0.98038000  0.80224000  0.94506000  1.0
  N  N81  1  0.98036000  0.69776000  0.44506000  1.0
  N  N82  1  0.04238000  0.55231000  0.15519000  1.0
  N  N83  1  0.04239000  0.94770000  0.65519000  1.0
  N  N84  1  0.95760000  0.44769000  0.84481000  1.0
  N  N85  1  0.95762000  0.05231000  0.34481000  1.0
  N  N86  1  0.71372000  0.06100000  0.91969000  1.0
  N  N87  1  0.71361000  0.43901000  0.41972000  1.0
  N  N88  1  0.28639000  0.93899000  0.08028000  1.0
  N  N89  1  0.28629000  0.56099000  0.58030000  1.0
