# generated using pymatgen
data_CdH10(C8N5)2
_symmetry_space_group_name_H-M   'P 1'
_cell_length_a   6.89270000
_cell_length_b   8.56388590
_cell_length_c   8.84878000
_cell_angle_alpha   95.50397751
_cell_angle_beta   112.88440000
_cell_angle_gamma   113.67618029
_symmetry_Int_Tables_number   1
_chemical_formula_structural   CdH10(C8N5)2
_chemical_formula_sum   'Cd1 H10 C16 N10'
_cell_volume   420.58500190
_cell_formula_units_Z   1
loop_
 _symmetry_equiv_pos_site_id
 _symmetry_equiv_pos_as_xyz
  1  'x, y, z'
loop_
 _atom_site_type_symbol
 _atom_site_label
 _atom_site_symmetry_multiplicity
 _atom_site_fract_x
 _atom_site_fract_y
 _atom_site_fract_z
 _atom_site_occupancy
  Cd  Cd0  1  0.11946000  0.00019000  0.00003000  1.0
  H  H1  1  0.80571000  0.69974000  0.63923000  1.0
  H  H2  1  0.46640000  0.30032000  0.36097000  1.0
  H  H3  1  0.63997000  0.65924000  0.32107000  1.0
  H  H4  1  0.65972000  0.34058000  0.67908000  1.0
  H  H5  1  0.72862000  0.93078000  0.21986000  1.0
  H  H6  1  0.57753000  0.06885000  0.78003000  1.0
  H  H7  1  0.12530000  0.25099000  0.75132000  1.0
  H  H8  1  0.12141000  0.74909000  0.24857000  1.0
  H  H9  1  0.91805000  0.25949000  0.28661000  1.0
  H  H10  1  0.37110000  0.74028000  0.71316000  1.0
  C  C11  1  0.83702000  0.81354000  0.58843000  1.0
  C  C12  1  0.43445000  0.18647000  0.41170000  1.0
  C  C13  1  0.74720000  0.79223000  0.41308000  1.0
  C  C14  1  0.54161000  0.20764000  0.58701000  1.0
  C  C15  1  0.79551000  0.94364000  0.35680000  1.0
  C  C16  1  0.49446000  0.05614000  0.64315000  1.0
  C  C17  1  0.93423000  0.11346000  0.47869000  1.0
  C  C18  1  0.34094000  0.88641000  0.52118000  1.0
  C  C19  1  0.01728000  0.12159000  0.65309000  1.0
  C  C20  1  0.24121000  0.87843000  0.34685000  1.0
  C  C21  1  0.98840000  0.27486000  0.42486000  1.0
  C  C22  1  0.28754000  0.72498000  0.57495000  1.0
  C  C23  1  0.13084000  0.37626000  0.03982000  1.0
  C  C24  1  0.71525000  0.62391000  0.96016000  1.0
  C  C25  1  0.22271000  0.65024000  0.98359000  1.0
  C  C26  1  0.58927000  0.35005000  0.01665000  1.0
  N  N27  1  0.96957000  0.97611000  0.70611000  1.0
  N  N28  1  0.28636000  0.02399000  0.29393000  1.0
  N  N29  1  0.11592000  0.43141000  0.53778000  1.0
  N  N30  1  0.14613000  0.56843000  0.46202000  1.0
  N  N31  1  0.02529000  0.23110000  0.04697000  1.0
  N  N32  1  0.74748000  0.76901000  0.95269000  1.0
  N  N33  1  0.27205000  0.53161000  0.04222000  1.0
  N  N34  1  0.69904000  0.46862000  0.95825000  1.0
  N  N35  1  0.20475000  0.77045000  0.93621000  1.0
  N  N36  1  0.49814000  0.22989000  0.06389000  1.0
