# generated using pymatgen
data_Gd2CuH4C10N4O9
_symmetry_space_group_name_H-M   'P 1'
_cell_length_a   6.80338000
_cell_length_b   16.27158331
_cell_length_c   16.29160000
_cell_angle_alpha   118.01395240
_cell_angle_beta   98.16200000
_cell_angle_gamma   97.91845396
_symmetry_Int_Tables_number   1
_chemical_formula_structural   Gd2CuH4C10N4O9
_chemical_formula_sum   'Gd6 Cu3 H12 C30 N12 O27'
_cell_volume   1532.33175976
_cell_formula_units_Z   3
loop_
 _symmetry_equiv_pos_site_id
 _symmetry_equiv_pos_as_xyz
  1  'x, y, z'
loop_
 _atom_site_type_symbol
 _atom_site_label
 _atom_site_symmetry_multiplicity
 _atom_site_fract_x
 _atom_site_fract_y
 _atom_site_fract_z
 _atom_site_occupancy
  Gd  Gd0  1  0.28926000  0.06477000  0.91019000  1.0
  Gd  Gd1  1  0.22431000  0.84529000  0.93429000  1.0
  Gd  Gd2  1  0.37753000  0.08959000  0.15472000  1.0
  Gd  Gd3  1  0.71074000  0.93523000  0.08982000  1.0
  Gd  Gd4  1  0.77567000  0.15471000  0.06571000  1.0
  Gd  Gd5  1  0.62246000  0.91040000  0.84527000  1.0
  Cu  Cu6  1  0.00001000  0.00001000  0.50000000  1.0
  Cu  Cu7  1  0.00001000  0.50001000  0.00001000  1.0
  Cu  Cu8  1  0.50000000  0.50000000  0.50000000  1.0
  H  H9  1  0.55754000  0.90526000  0.47529000  1.0
  H  H10  1  0.38847000  0.86485000  0.58734000  1.0
  H  H11  1  0.65356000  0.57055000  0.09468000  1.0
  H  H12  1  0.52657000  0.72402000  0.13602000  1.0
  H  H13  1  0.08044000  0.52463000  0.42959000  1.0
  H  H14  1  0.79786000  0.41202000  0.27735000  1.0
  H  H15  1  0.44247000  0.09476000  0.52472000  1.0
  H  H16  1  0.61155000  0.13515000  0.41265000  1.0
  H  H17  1  0.34643000  0.42945000  0.90532000  1.0
  H  H18  1  0.47340000  0.27598000  0.86398000  1.0
  H  H19  1  0.91957000  0.47537000  0.57041000  1.0
  H  H20  1  0.20215000  0.58798000  0.72266000  1.0
  C  C21  1  0.94824000  0.99328000  0.66190000  1.0
  C  C22  1  0.63818000  0.92375000  0.54648000  1.0
  C  C23  1  0.16829000  0.03846000  0.68142000  1.0
  C  C24  1  0.54823000  0.90312000  0.60886000  1.0
  C  C25  1  0.85422000  0.97417000  0.72659000  1.0
  C  C26  1  0.95552000  0.66883000  0.00657000  1.0
  C  C27  1  0.71556000  0.62331000  0.07626000  1.0
  C  C28  1  0.13021000  0.64292000  0.96152000  1.0
  C  C29  1  0.64710000  0.70676000  0.09730000  1.0
  C  C30  1  0.88105000  0.75293000  0.02578000  1.0
  C  C31  1  0.28476000  0.33821000  0.33145000  1.0
  C  C32  1  0.08986000  0.45343000  0.37713000  1.0
  C  C33  1  0.48549000  0.31865000  0.35703000  1.0
  C  C34  1  0.93682000  0.39084000  0.29422000  1.0
  C  C35  1  0.12583000  0.27348000  0.24759000  1.0
  C  C36  1  0.05178000  0.00673000  0.33811000  1.0
  C  C37  1  0.36183000  0.07626000  0.45352000  1.0
  C  C38  1  0.83172000  0.96155000  0.31859000  1.0
  C  C39  1  0.45178000  0.09688000  0.39113000  1.0
  C  C40  1  0.14579000  0.02583000  0.27341000  1.0
  C  C41  1  0.04449000  0.33118000  0.99345000  1.0
  C  C42  1  0.28443000  0.37669000  0.92374000  1.0
  C  C43  1  0.86980000  0.35709000  0.03850000  1.0
  C  C44  1  0.35289000  0.29324000  0.90270000  1.0
  C  C45  1  0.11895000  0.24708000  0.97423000  1.0
  C  C46  1  0.71525000  0.66179000  0.66855000  1.0
  C  C47  1  0.91015000  0.54657000  0.62288000  1.0
  C  C48  1  0.51451000  0.68134000  0.64296000  1.0
  C  C49  1  0.06318000  0.60916000  0.70579000  1.0
  C  C50  1  0.87417000  0.72652000  0.75241000  1.0
  N  N51  1  0.83654000  0.96781000  0.57511000  1.0
  N  N52  1  0.65174000  0.92711000  0.69515000  1.0
  N  N53  1  0.86925000  0.60756000  0.03199000  1.0
  N  N54  1  0.72654000  0.76896000  0.07326000  1.0
  N  N55  1  0.26002000  0.42496000  0.39269000  1.0
  N  N56  1  0.95405000  0.30463000  0.23204000  1.0
  N  N57  1  0.16347000  0.03220000  0.42489000  1.0
  N  N58  1  0.34827000  0.07288000  0.30484000  1.0
  N  N59  1  0.13075000  0.39245000  0.96803000  1.0
  N  N60  1  0.27345000  0.23104000  0.92674000  1.0
  N  N61  1  0.73998000  0.57504000  0.60732000  1.0
  N  N62  1  0.04595000  0.69536000  0.76795000  1.0
  O  O63  1  0.94366000  0.99549000  0.81046000  1.0
  O  O64  1  0.29139000  0.06317000  0.75798000  1.0
  O  O65  1  0.22261000  0.04938000  0.61289000  1.0
  O  O66  1  0.28937000  0.90737000  0.83852000  1.0
  O  O67  1  0.94883000  0.81531000  0.00428000  1.0
  O  O68  1  0.22896000  0.69486000  0.93712000  1.0
  O  O69  1  0.17303000  0.56315000  0.95033000  1.0
  O  O70  1  0.38008000  0.93130000  0.09214000  1.0
  O  O71  1  0.13164000  0.18977000  0.18494000  1.0
  O  O72  1  0.53167000  0.24218000  0.30506000  1.0
  O  O73  1  0.60895000  0.38704000  0.43650000  1.0
  O  O74  1  0.44853000  0.16097000  0.06832000  1.0
  O  O75  1  0.05635000  0.00450000  0.18954000  1.0
  O  O76  1  0.70862000  0.93682000  0.24201000  1.0
  O  O77  1  0.77740000  0.95064000  0.38712000  1.0
  O  O78  1  0.71063000  0.09263000  0.16148000  1.0
  O  O79  1  0.05117000  0.18469000  0.99573000  1.0
  O  O80  1  0.77103000  0.30514000  0.06288000  1.0
  O  O81  1  0.82698000  0.43686000  0.04968000  1.0
  O  O82  1  0.61993000  0.06870000  0.90787000  1.0
  O  O83  1  0.86837000  0.81023000  0.81506000  1.0
  O  O84  1  0.46832000  0.75782000  0.69494000  1.0
  O  O85  1  0.39105000  0.61295000  0.56349000  1.0
  O  O86  1  0.55146000  0.83902000  0.93167000  1.0
  O  O87  1  0.49998000  0.99999000  0.99999000  1.0
  O  O88  1  0.10195000  0.00075000  0.00138000  1.0
  O  O89  1  0.89804000  0.99924000  0.99861000  1.0
