# generated using pymatgen
data_CdH4C4(S2N3)2
_symmetry_space_group_name_H-M   'P 1'
_cell_length_a   7.94897000
_cell_length_b   8.12776000
_cell_length_c   8.12766000
_cell_angle_alpha   82.63990000
_cell_angle_beta   87.65680000
_cell_angle_gamma   87.65640000
_symmetry_Int_Tables_number   1
_chemical_formula_structural   CdH4C4(S2N3)2
_chemical_formula_sum   'Cd2 H8 C8 S8 N12'
_cell_volume   520.00739762
_cell_formula_units_Z   2
loop_
 _symmetry_equiv_pos_site_id
 _symmetry_equiv_pos_as_xyz
  1  'x, y, z'
loop_
 _atom_site_type_symbol
 _atom_site_label
 _atom_site_symmetry_multiplicity
 _atom_site_fract_x
 _atom_site_fract_y
 _atom_site_fract_z
 _atom_site_occupancy
  Cd  Cd0  1  0.25000000  0.08395000  0.91605000  1.0
  Cd  Cd1  1  0.75000000  0.91605000  0.08395000  1.0
  H  H2  1  0.12042000  0.37943000  0.50388000  1.0
  H  H3  1  0.37958000  0.49612000  0.62056000  1.0
  H  H4  1  0.87958000  0.62056000  0.49612000  1.0
  H  H5  1  0.62042000  0.50388000  0.37944000  1.0
  H  H6  1  0.28030000  0.31726000  0.36432000  1.0
  H  H7  1  0.21970000  0.63568000  0.68274000  1.0
  H  H8  1  0.71970000  0.68274000  0.63568000  1.0
  H  H9  1  0.78030000  0.36432000  0.31726000  1.0
  C  C10  1  0.08085000  0.71695000  0.03170000  1.0
  C  C11  1  0.41915000  0.96829000  0.28304000  1.0
  C  C12  1  0.91915000  0.28304000  0.96829000  1.0
  C  C13  1  0.58085000  0.03171000  0.71695000  1.0
  C  C14  1  0.12321000  0.50649000  0.26933000  1.0
  C  C15  1  0.37679000  0.73067000  0.49350000  1.0
  C  C16  1  0.87680000  0.49351000  0.73067000  1.0
  C  C17  1  0.62321000  0.26933000  0.50650000  1.0
  S  S18  1  0.07333000  0.84856000  0.84791000  1.0
  S  S19  1  0.42667000  0.15209000  0.15145000  1.0
  S  S20  1  0.92667000  0.15144000  0.15209000  1.0
  S  S21  1  0.57333000  0.84791000  0.84856000  1.0
  S  S22  1  0.23844000  0.56446000  0.08355000  1.0
  S  S23  1  0.26156000  0.91645000  0.43554000  1.0
  S  S24  1  0.76157000  0.43554000  0.91645000  1.0
  S  S25  1  0.73844000  0.08355000  0.56446000  1.0
  N  N26  1  0.96153000  0.71552000  0.14960000  1.0
  N  N27  1  0.53847000  0.85040000  0.28448000  1.0
  N  N28  1  0.03847000  0.28447000  0.85040000  1.0
  N  N29  1  0.46153000  0.14960000  0.71553000  1.0
  N  N30  1  0.98280000  0.59941000  0.28447000  1.0
  N  N31  1  0.51719000  0.71554000  0.40059000  1.0
  N  N32  1  0.01720000  0.40059000  0.71554000  1.0
  N  N33  1  0.48280000  0.28446000  0.59941000  1.0
  N  N34  1  0.17153000  0.38305000  0.38426000  1.0
  N  N35  1  0.32846000  0.61574000  0.61696000  1.0
  N  N36  1  0.82847000  0.61695000  0.61574000  1.0
  N  N37  1  0.67153000  0.38426000  0.38304000  1.0
