# generated using pymatgen
data_HgH12C8(SN3)2
_symmetry_space_group_name_H-M   'P 1'
_cell_length_a   6.44442000
_cell_length_b   8.96648000
_cell_length_c   10.52910000
_cell_angle_alpha   83.09080000
_cell_angle_beta   81.84090000
_cell_angle_gamma   86.70030000
_symmetry_Int_Tables_number   1
_chemical_formula_structural   HgH12C8(SN3)2
_chemical_formula_sum   'Hg2 H24 C16 S4 N12'
_cell_volume   597.37139321
_cell_formula_units_Z   2
loop_
 _symmetry_equiv_pos_site_id
 _symmetry_equiv_pos_as_xyz
  1  'x, y, z'
loop_
 _atom_site_type_symbol
 _atom_site_label
 _atom_site_symmetry_multiplicity
 _atom_site_fract_x
 _atom_site_fract_y
 _atom_site_fract_z
 _atom_site_occupancy
  Hg  Hg0  1  0.21696000  0.13370000  0.31629000  1.0
  Hg  Hg1  1  0.78303000  0.86630000  0.68371000  1.0
  H  H2  1  0.74869000  0.13577000  0.23291000  1.0
  H  H3  1  0.25129000  0.86422000  0.76709000  1.0
  H  H4  1  0.69565000  0.17585000  0.39754000  1.0
  H  H5  1  0.30433000  0.82415000  0.60245000  1.0
  H  H6  1  0.45037000  0.38161000  0.45493000  1.0
  H  H7  1  0.54963000  0.61841000  0.54507000  1.0
  H  H8  1  0.33047000  0.49357000  0.32963000  1.0
  H  H9  1  0.66952000  0.50645000  0.67038000  1.0
  H  H10  1  0.40029000  0.43627000  0.10980000  1.0
  H  H11  1  0.59970000  0.56373000  0.89020000  1.0
  H  H12  1  0.58224000  0.28551000  0.06915000  1.0
  H  H13  1  0.41775000  0.71447000  0.93086000  1.0
  H  H14  1  0.96930000  0.52720000  0.33994000  1.0
  H  H15  1  0.03071000  0.47280000  0.66007000  1.0
  H  H16  1  0.82324000  0.39882000  0.45939000  1.0
  H  H17  1  0.17676000  0.60118000  0.54062000  1.0
  H  H18  1  0.52496000  0.65982000  0.17606000  1.0
  H  H19  1  0.47504000  0.34017000  0.82393000  1.0
  H  H20  1  0.80162000  0.67499000  0.17795000  1.0
  H  H21  1  0.19839000  0.32500000  0.82205000  1.0
  H  H22  1  0.94740000  0.30812000  0.07296000  1.0
  H  H23  1  0.05259000  0.69186000  0.92705000  1.0
  H  H24  1  0.04024000  0.47493000  0.12101000  1.0
  H  H25  1  0.95976000  0.52506000  0.87899000  1.0
  C  C26  1  0.63803000  0.87309000  0.40437000  1.0
  C  C27  1  0.36198000  0.12692000  0.59563000  1.0
  C  C28  1  0.18781000  0.87056000  0.13424000  1.0
  C  C29  1  0.81224000  0.12945000  0.86575000  1.0
  C  C30  1  0.71470000  0.22538000  0.29634000  1.0
  C  C31  1  0.28529000  0.77462000  0.70367000  1.0
  C  C32  1  0.47390000  0.43057000  0.35341000  1.0
  C  C33  1  0.52609000  0.56945000  0.64657000  1.0
  C  C34  1  0.54619000  0.37577000  0.13174000  1.0
  C  C35  1  0.45383000  0.62423000  0.86826000  1.0
  C  C36  1  0.84035000  0.44925000  0.35813000  1.0
  C  C37  1  0.15965000  0.55075000  0.64187000  1.0
  C  C38  1  0.67144000  0.59819000  0.19527000  1.0
  C  C39  1  0.32855000  0.40181000  0.80472000  1.0
  C  C40  1  0.91162000  0.39703000  0.13696000  1.0
  C  C41  1  0.08842000  0.60299000  0.86304000  1.0
  S  S42  1  0.87636000  0.84209000  0.44471000  1.0
  S  S43  1  0.12364000  0.15791000  0.55530000  1.0
  S  S44  1  0.21074000  0.05396000  0.09659000  1.0
  S  S45  1  0.78928000  0.94604000  0.90341000  1.0
  N  N46  1  0.46869000  0.89485000  0.37371000  1.0
  N  N47  1  0.53131000  0.10515000  0.62631000  1.0
  N  N48  1  0.17192000  0.73910000  0.15481000  1.0
  N  N49  1  0.82807000  0.26089000  0.84519000  1.0
  N  N50  1  0.51563000  0.30660000  0.26907000  1.0
  N  N51  1  0.48435000  0.69341000  0.73092000  1.0
  N  N52  1  0.89136000  0.32698000  0.27346000  1.0
  N  N53  1  0.10863000  0.67302000  0.72655000  1.0
  N  N54  1  0.64643000  0.53304000  0.33190000  1.0
  N  N55  1  0.35357000  0.46696000  0.66810000  1.0
  N  N56  1  0.71785000  0.47960000  0.10815000  1.0
  N  N57  1  0.28214000  0.52040000  0.89184000  1.0
