# generated using pymatgen
data_CuH18C21N2O7
_symmetry_space_group_name_H-M   'P 1'
_cell_length_a   7.85503000
_cell_length_b   10.04910000
_cell_length_c   13.18650000
_cell_angle_alpha   86.71480000
_cell_angle_beta   86.97050000
_cell_angle_gamma   70.51700000
_symmetry_Int_Tables_number   1
_chemical_formula_structural   CuH18C21N2O7
_chemical_formula_sum   'Cu2 H36 C42 N4 O14'
_cell_volume   979.04634176
_cell_formula_units_Z   2
loop_
 _symmetry_equiv_pos_site_id
 _symmetry_equiv_pos_as_xyz
  1  'x, y, z'
loop_
 _atom_site_type_symbol
 _atom_site_label
 _atom_site_symmetry_multiplicity
 _atom_site_fract_x
 _atom_site_fract_y
 _atom_site_fract_z
 _atom_site_occupancy
  Cu  Cu0  1  0.73604000  0.31959000  0.76018000  1.0
  Cu  Cu1  1  0.26395000  0.68041000  0.23983000  1.0
  H  H2  1  0.47318000  0.95628000  0.63252000  1.0
  H  H3  1  0.52682000  0.04372000  0.36749000  1.0
  H  H4  1  0.19136000  0.90715000  0.77538000  1.0
  H  H5  1  0.80864000  0.09285000  0.22462000  1.0
  H  H6  1  0.30294000  0.68020000  0.87457000  1.0
  H  H7  1  0.69706000  0.31980000  0.12544000  1.0
  H  H8  1  0.10539000  0.53187000  0.90658000  1.0
  H  H9  1  0.89461000  0.46812000  0.09342000  1.0
  H  H10  1  0.10949000  0.30868000  0.71102000  1.0
  H  H11  1  0.89051000  0.69132000  0.28898000  1.0
  H  H12  1  0.40995000  0.20827000  0.79170000  1.0
  H  H13  1  0.59004000  0.79173000  0.20829000  1.0
  H  H14  1  0.13831000  0.07115000  0.04845000  1.0
  H  H15  1  0.86168000  0.92886000  0.95155000  1.0
  H  H16  1  0.85013000  0.17554000  0.95724000  1.0
  H  H17  1  0.14987000  0.82446000  0.04276000  1.0
  H  H18  1  0.58364000  0.08924000  0.92675000  1.0
  H  H19  1  0.41636000  0.91077000  0.07325000  1.0
  H  H20  1  0.46987000  0.14437000  0.04399000  1.0
  H  H21  1  0.53012000  0.85564000  0.95601000  1.0
  H  H22  1  0.60120000  0.19024000  0.60072000  1.0
  H  H23  1  0.39880000  0.80976000  0.39928000  1.0
  H  H24  1  0.33757000  0.26384000  0.48725000  1.0
  H  H25  1  0.66243000  0.73616000  0.51275000  1.0
  H  H26  1  0.18964000  0.68054000  0.60570000  1.0
  H  H27  1  0.81036000  0.31946000  0.39430000  1.0
  H  H28  1  0.45926000  0.59000000  0.71379000  1.0
  H  H29  1  0.54074000  0.41000000  0.28621000  1.0
  H  H30  1  0.02624000  0.64149000  0.46494000  1.0
  H  H31  1  0.97376000  0.35851000  0.53505000  1.0
  H  H32  1  0.11075000  0.48257000  0.39850000  1.0
  H  H33  1  0.88926000  0.51743000  0.60150000  1.0
  H  H34  1  0.44660000  0.37831000  0.95955000  1.0
  H  H35  1  0.55340000  0.62169000  0.04045000  1.0
  H  H36  1  0.60788000  0.43796000  0.93135000  1.0
  H  H37  1  0.39212000  0.56204000  0.06866000  1.0
  C  C38  1  0.86965000  0.04058000  0.70935000  1.0
  C  C39  1  0.13035000  0.95942000  0.29065000  1.0
  C  C40  1  0.93158000  0.88924000  0.75016000  1.0
  C  C41  1  0.06842000  0.11075000  0.24984000  1.0
  C  C42  1  0.10600000  0.84149000  0.78776000  1.0
  C  C43  1  0.89400000  0.15851000  0.21224000  1.0
  C  C44  1  0.16868000  0.71354000  0.84334000  1.0
  C  C45  1  0.83132000  0.28646000  0.15666000  1.0
  C  C46  1  0.05833000  0.63046000  0.86112000  1.0
  C  C47  1  0.94167000  0.36954000  0.13888000  1.0
  C  C48  1  0.88574000  0.67418000  0.82165000  1.0
  C  C49  1  0.11426000  0.32581000  0.17835000  1.0
  C  C50  1  0.77976000  0.57388000  0.83930000  1.0
  C  C51  1  0.22024000  0.42611000  0.16070000  1.0
  C  C52  1  0.12266000  0.25453000  0.78557000  1.0
  C  C53  1  0.87733000  0.74547000  0.21442000  1.0
  C  C54  1  0.28876000  0.19863000  0.83067000  1.0
  C  C55  1  0.71124000  0.80137000  0.16933000  1.0
  C  C56  1  0.30031000  0.13124000  0.92735000  1.0
  C  C57  1  0.69969000  0.86876000  0.07265000  1.0
  C  C58  1  0.13989000  0.12106000  0.97306000  1.0
  C  C59  1  0.86011000  0.87895000  0.02694000  1.0
  C  C60  1  0.97836000  0.17867000  0.92341000  1.0
  C  C61  1  0.02163000  0.82134000  0.07659000  1.0
  C  C62  1  0.47702000  0.07690000  0.97975000  1.0
  C  C63  1  0.52298000  0.92311000  0.02025000  1.0
  C  C64  1  0.50513000  0.29720000  0.59978000  1.0
  C  C65  1  0.49487000  0.70280000  0.40022000  1.0
  C  C66  1  0.35861000  0.33947000  0.53711000  1.0
  C  C67  1  0.64139000  0.66053000  0.46289000  1.0
  C  C68  1  0.23927000  0.47894000  0.53786000  1.0
  C  C69  1  0.76073000  0.52105000  0.46213000  1.0
  C  C70  1  0.27640000  0.57051000  0.60250000  1.0
  C  C71  1  0.72360000  0.42949000  0.39750000  1.0
  C  C72  1  0.42550000  0.52122000  0.66340000  1.0
  C  C73  1  0.57450000  0.47878000  0.33660000  1.0
  C  C74  1  0.07535000  0.52553000  0.47456000  1.0
  C  C75  1  0.92464000  0.47448000  0.52544000  1.0
  C  C76  1  0.63301000  0.84854000  0.73108000  1.0
  C  C77  1  0.36699000  0.15145000  0.26892000  1.0
  C  C78  1  0.82083000  0.80403000  0.76554000  1.0
  C  C79  1  0.17918000  0.19596000  0.23446000  1.0
  N  N80  1  0.96942000  0.24531000  0.83142000  1.0
  N  N81  1  0.03058000  0.75469000  0.16858000  1.0
  N  N82  1  0.53742000  0.38652000  0.66295000  1.0
  N  N83  1  0.46258000  0.61348000  0.33705000  1.0
  O  O84  1  0.95463000  0.08061000  0.63891000  1.0
  O  O85  1  0.04536000  0.91939000  0.36110000  1.0
  O  O86  1  0.73483000  0.12165000  0.76332000  1.0
  O  O87  1  0.26517000  0.87835000  0.23669000  1.0
  O  O88  1  0.76243000  0.51247000  0.75941000  1.0
  O  O89  1  0.23757000  0.48753000  0.24060000  1.0
  O  O90  1  0.72929000  0.55044000  0.92874000  1.0
  O  O91  1  0.27073000  0.44956000  0.07126000  1.0
  O  O92  1  0.60349000  0.92938000  0.64278000  1.0
  O  O93  1  0.39651000  0.07062000  0.35722000  1.0
  O  O94  1  0.51126000  0.81517000  0.77559000  1.0
  O  O95  1  0.48874000  0.18483000  0.22441000  1.0
  O  O96  1  0.55755000  0.36233000  0.91746000  1.0
  O  O97  1  0.44245000  0.63768000  0.08254000  1.0
