# generated using pymatgen
data_NiH5(CO)5
_symmetry_space_group_name_H-M   'P 1'
_cell_length_a   12.49730000
_cell_length_b   12.81140000
_cell_length_c   19.08220000
_cell_angle_alpha   90.02740000
_cell_angle_beta   90.00960000
_cell_angle_gamma   68.56700000
_symmetry_Int_Tables_number   1
_chemical_formula_structural   NiH5(CO)5
_chemical_formula_sum   'Ni16 H80 C80 O80'
_cell_volume   2843.92924381
_cell_formula_units_Z   16
loop_
 _symmetry_equiv_pos_site_id
 _symmetry_equiv_pos_as_xyz
  1  'x, y, z'
loop_
 _atom_site_type_symbol
 _atom_site_label
 _atom_site_symmetry_multiplicity
 _atom_site_fract_x
 _atom_site_fract_y
 _atom_site_fract_z
 _atom_site_occupancy
  Ni  Ni0  1  0.47479000  0.69894000  0.93222000  1.0
  Ni  Ni1  1  0.52513000  0.80102000  0.43216000  1.0
  Ni  Ni2  1  0.52499000  0.29945000  0.06853000  1.0
  Ni  Ni3  1  0.47551000  0.20029000  0.56893000  1.0
  Ni  Ni4  1  0.20589000  0.68212000  0.94602000  1.0
  Ni  Ni5  1  0.79259000  0.81776000  0.44662000  1.0
  Ni  Ni6  1  0.79405000  0.31849000  0.05381000  1.0
  Ni  Ni7  1  0.20569000  0.18274000  0.55333000  1.0
  Ni  Ni8  1  0.29507000  0.82275000  0.04309000  1.0
  Ni  Ni9  1  0.70501000  0.67815000  0.54303000  1.0
  Ni  Ni10  1  0.70697000  0.17627000  0.95606000  1.0
  Ni  Ni11  1  0.29240000  0.32387000  0.45602000  1.0
  Ni  Ni12  1  0.02457000  0.80718000  0.05802000  1.0
  Ni  Ni13  1  0.97621000  0.69299000  0.55786000  1.0
  Ni  Ni14  1  0.97612000  0.19277000  0.94142000  1.0
  Ni  Ni15  1  0.02418000  0.30687000  0.44176000  1.0
  H  H16  1  0.38107000  0.60570000  0.02590000  1.0
  H  H17  1  0.61619000  0.89563000  0.52717000  1.0
  H  H18  1  0.61518000  0.39496000  0.97402000  1.0
  H  H19  1  0.38408000  0.10488000  0.47419000  1.0
  H  H20  1  0.11814000  0.90249000  0.96733000  1.0
  H  H21  1  0.88125000  0.59778000  0.46692000  1.0
  H  H22  1  0.88317000  0.09668000  0.03298000  1.0
  H  H23  1  0.11644000  0.40416000  0.53324000  1.0
  H  H24  1  0.77008000  0.70194000  0.04072000  1.0
  H  H25  1  0.22966000  0.79742000  0.54057000  1.0
  H  H26  1  0.22944000  0.29658000  0.95975000  1.0
  H  H27  1  0.77018000  0.20273000  0.45971000  1.0
  H  H28  1  0.88668000  0.72807000  0.25024000  1.0
  H  H29  1  0.11309000  0.77222000  0.75020000  1.0
  H  H30  1  0.11326000  0.27125000  0.75000000  1.0
  H  H31  1  0.88652000  0.22875000  0.25011000  1.0
  H  H32  1  0.52609000  0.80663000  0.21008000  1.0
  H  H33  1  0.47365000  0.69362000  0.70993000  1.0
  H  H34  1  0.47388000  0.19138000  0.79067000  1.0
  H  H35  1  0.52583000  0.30857000  0.29064000  1.0
  H  H36  1  0.94670000  0.56121000  0.04923000  1.0
  H  H37  1  0.05284000  0.93938000  0.54994000  1.0
  H  H38  1  0.05233000  0.43872000  0.95033000  1.0
  H  H39  1  0.94689000  0.06234000  0.45145000  1.0
  H  H40  1  0.01229000  0.51088000  0.13160000  1.0
  H  H41  1  0.98674000  0.98863000  0.63237000  1.0
  H  H42  1  0.98734000  0.48800000  0.86758000  1.0
  H  H43  1  0.01151000  0.01108000  0.36892000  1.0
  H  H44  1  0.39134000  0.72141000  0.23972000  1.0
  H  H45  1  0.60924000  0.77857000  0.74004000  1.0
  H  H46  1  0.60932000  0.27880000  0.76023000  1.0
  H  H47  1  0.39080000  0.22042000  0.26036000  1.0
  H  H48  1  0.27193000  0.68899000  0.44762000  1.0
  H  H49  1  0.72945000  0.81056000  0.94786000  1.0
  H  H50  1  0.72694000  0.31152000  0.55192000  1.0
  H  H51  1  0.27320000  0.18842000  0.05189000  1.0
  H  H52  1  0.02904000  0.80815000  0.27861000  1.0
  H  H53  1  0.97167000  0.69203000  0.77841000  1.0
  H  H54  1  0.97130000  0.19220000  0.72019000  1.0
  H  H55  1  0.02874000  0.30790000  0.22012000  1.0
  H  H56  1  0.50830000  0.50050000  0.36857000  1.0
  H  H57  1  0.49308000  0.99933000  0.86914000  1.0
  H  H58  1  0.49156000  0.50036000  0.63250000  1.0
  H  H59  1  0.50828000  0.99905000  0.13198000  1.0
  H  H60  1  0.44560000  0.56482000  0.44899000  1.0
  H  H61  1  0.55529000  0.93492000  0.94961000  1.0
  H  H62  1  0.55324000  0.43691000  0.55163000  1.0
  H  H63  1  0.44675000  0.06325000  0.05129000  1.0
  H  H64  1  0.68047000  0.53895000  0.93254000  1.0
  H  H65  1  0.31903000  0.96054000  0.43310000  1.0
  H  H66  1  0.31856000  0.45924000  0.06655000  1.0
  H  H67  1  0.68141000  0.04044000  0.56709000  1.0
  H  H68  1  0.60803000  0.51515000  0.86984000  1.0
  H  H69  1  0.39067000  0.98493000  0.37022000  1.0
  H  H70  1  0.38992000  0.48401000  0.12947000  1.0
  H  H71  1  0.60995000  0.01637000  0.63021000  1.0
  H  H72  1  0.36718000  0.48825000  0.91512000  1.0
  H  H73  1  0.63287000  0.01104000  0.41520000  1.0
  H  H74  1  0.63329000  0.50867000  0.08542000  1.0
  H  H75  1  0.36662000  0.99222000  0.58587000  1.0
  H  H76  1  0.26703000  0.46674000  0.95287000  1.0
  H  H77  1  0.73300000  0.03253000  0.45307000  1.0
  H  H78  1  0.73052000  0.53390000  0.04673000  1.0
  H  H79  1  0.26933000  0.96649000  0.54749000  1.0
  H  H80  1  0.17300000  0.04983000  0.05892000  1.0
  H  H81  1  0.82703000  0.45058000  0.55873000  1.0
  H  H82  1  0.83412000  0.94738000  0.93916000  1.0
  H  H83  1  0.16642000  0.55306000  0.43895000  1.0
  H  H84  1  0.13873000  0.96934000  0.10827000  1.0
  H  H85  1  0.86166000  0.53105000  0.60794000  1.0
  H  H86  1  0.86650000  0.02984000  0.89011000  1.0
  H  H87  1  0.13356000  0.47081000  0.39001000  1.0
  H  H88  1  0.81450000  0.95715000  0.06604000  1.0
  H  H89  1  0.18581000  0.54279000  0.56601000  1.0
  H  H90  1  0.18640000  0.04282000  0.93379000  1.0
  H  H91  1  0.81405000  0.45726000  0.43369000  1.0
  H  H92  1  0.89369000  0.97383000  0.12846000  1.0
  H  H93  1  0.10633000  0.52669000  0.62848000  1.0
  H  H94  1  0.10876000  0.02578000  0.87078000  1.0
  H  H95  1  0.89231000  0.47344000  0.37075000  1.0
  C  C96  1  0.54408000  0.76340000  0.06979000  1.0
  C  C97  1  0.45569000  0.73602000  0.56956000  1.0
  C  C98  1  0.45596000  0.23353000  0.93089000  1.0
  C  C99  1  0.54382000  0.26609000  0.43085000  1.0
  C  C100  1  0.63860000  0.75486000  0.12038000  1.0
  C  C101  1  0.36116000  0.74490000  0.62023000  1.0
  C  C102  1  0.36121000  0.24312000  0.88024000  1.0
  C  C103  1  0.63856000  0.25643000  0.38018000  1.0
  C  C104  1  0.75181000  0.72064000  0.09607000  1.0
  C  C105  1  0.24795000  0.77892000  0.59592000  1.0
  C  C106  1  0.24790000  0.27776000  0.90444000  1.0
  C  C107  1  0.75184000  0.22165000  0.40441000  1.0
  C  C108  1  0.83947000  0.71332000  0.14288000  1.0
  C  C109  1  0.16035000  0.78641000  0.64278000  1.0
  C  C110  1  0.16037000  0.28544000  0.85746000  1.0
  C  C111  1  0.83943000  0.21401000  0.35749000  1.0
  C  C112  1  0.81717000  0.73622000  0.21371000  1.0
  C  C113  1  0.18259000  0.76388000  0.71363000  1.0
  C  C114  1  0.18274000  0.26270000  0.78664000  1.0
  C  C115  1  0.81702000  0.23713000  0.28670000  1.0
  C  C116  1  0.70378000  0.76894000  0.23820000  1.0
  C  C117  1  0.29598000  0.73137000  0.73811000  1.0
  C  C118  1  0.29617000  0.22986000  0.76226000  1.0
  C  C119  1  0.70357000  0.27012000  0.26230000  1.0
  C  C120  1  0.61428000  0.78006000  0.19129000  1.0
  C  C121  1  0.38545000  0.72007000  0.69116000  1.0
  C  C122  1  0.38560000  0.21819000  0.80932000  1.0
  C  C123  1  0.61412000  0.28160000  0.30930000  1.0
  C  C124  1  0.00235000  0.57409000  0.09062000  1.0
  C  C125  1  0.99711000  0.92582000  0.59101000  1.0
  C  C126  1  0.99698000  0.42538000  0.90892000  1.0
  C  C127  1  0.00229000  0.07452000  0.40969000  1.0
  C  C128  1  0.11754000  0.55904000  0.05823000  1.0
  C  C129  1  0.88222000  0.94083000  0.55821000  1.0
  C  C130  1  0.88160000  0.44065000  0.94114000  1.0
  C  C131  1  0.11791000  0.05923000  0.44162000  1.0
  C  C132  1  0.68244000  0.78732000  0.31529000  1.0
  C  C133  1  0.31725000  0.71360000  0.81524000  1.0
  C  C134  1  0.31756000  0.21211000  0.68514000  1.0
  C  C135  1  0.68226000  0.28829000  0.18519000  1.0
  C  C136  1  0.18703000  0.78780000  0.17418000  1.0
  C  C137  1  0.81336000  0.71225000  0.67420000  1.0
  C  C138  1  0.81357000  0.21243000  0.82504000  1.0
  C  C139  1  0.18639000  0.28716000  0.32509000  1.0
  C  C140  1  0.20774000  0.76612000  0.25103000  1.0
  C  C141  1  0.79289000  0.73384000  0.75111000  1.0
  C  C142  1  0.79278000  0.23417000  0.74832000  1.0
  C  C143  1  0.20727000  0.26551000  0.24836000  1.0
  C  C144  1  0.32118000  0.73007000  0.27586000  1.0
  C  C145  1  0.67954000  0.76980000  0.77611000  1.0
  C  C146  1  0.67916000  0.27028000  0.72387000  1.0
  C  C147  1  0.32094000  0.22919000  0.22396000  1.0
  C  C148  1  0.34297000  0.70480000  0.34657000  1.0
  C  C149  1  0.65798000  0.79502000  0.84687000  1.0
  C  C150  1  0.65683000  0.29578000  0.65328000  1.0
  C  C151  1  0.34335000  0.20376000  0.15335000  1.0
  C  C152  1  0.25435000  0.71180000  0.39272000  1.0
  C  C153  1  0.74679000  0.78793000  0.89290000  1.0
  C  C154  1  0.74497000  0.28884000  0.60681000  1.0
  C  C155  1  0.25518000  0.21101000  0.10681000  1.0
  C  C156  1  0.14114000  0.74967000  0.36810000  1.0
  C  C157  1  0.85993000  0.75024000  0.86809000  1.0
  C  C158  1  0.85832000  0.25093000  0.63115000  1.0
  C  C159  1  0.14179000  0.24914000  0.13109000  1.0
  C  C160  1  0.11732000  0.77845000  0.29751000  1.0
  C  C161  1  0.88348000  0.72154000  0.79746000  1.0
  C  C162  1  0.88282000  0.22194000  0.70164000  1.0
  C  C163  1  0.11725000  0.27805000  0.20160000  1.0
  C  C164  1  0.50171000  0.56876000  0.40523000  1.0
  C  C165  1  0.49933000  0.93109000  0.90571000  1.0
  C  C166  1  0.49766000  0.43255000  0.59558000  1.0
  C  C167  1  0.50234000  0.06713000  0.09537000  1.0
  C  C168  1  0.61888000  0.55373000  0.43495000  1.0
  C  C169  1  0.38191000  0.94643000  0.93523000  1.0
  C  C170  1  0.38024000  0.44738000  0.56647000  1.0
  C  C171  1  0.61987000  0.05228000  0.06642000  1.0
  C  C172  1  0.04605000  0.75763000  0.41817000  1.0
  C  C173  1  0.95498000  0.74285000  0.91802000  1.0
  C  C174  1  0.95303000  0.24297000  0.58091000  1.0
  C  C175  1  0.04704000  0.25724000  0.08083000  1.0
  O  O176  1  0.57528000  0.70838000  0.01238000  1.0
  O  O177  1  0.42422000  0.79010000  0.51188000  1.0
  O  O178  1  0.42514000  0.28770000  0.98856000  1.0
  O  O179  1  0.57475000  0.21144000  0.48836000  1.0
  O  O180  1  0.44222000  0.82274000  0.08764000  1.0
  O  O181  1  0.55764000  0.67731000  0.58758000  1.0
  O  O182  1  0.55761000  0.17390000  0.91266000  1.0
  O  O183  1  0.44230000  0.32619000  0.41279000  1.0
  O  O184  1  0.95271000  0.68538000  0.11961000  1.0
  O  O185  1  0.04706000  0.81423000  0.61947000  1.0
  O  O186  1  0.04692000  0.31367000  0.88054000  1.0
  O  O187  1  0.95287000  0.18566000  0.38054000  1.0
  O  O188  1  0.18518000  0.46155000  0.04229000  1.0
  O  O189  1  0.81446000  0.03834000  0.54252000  1.0
  O  O190  1  0.81344000  0.53816000  0.95637000  1.0
  O  O191  1  0.18590000  0.96180000  0.45699000  1.0
  O  O192  1  0.14058000  0.64731000  0.04746000  1.0
  O  O193  1  0.85963000  0.85246000  0.54686000  1.0
  O  O194  1  0.85912000  0.35221000  0.95253000  1.0
  O  O195  1  0.14085000  0.14759000  0.45254000  1.0
  O  O196  1  0.77175000  0.75515000  0.35374000  1.0
  O  O197  1  0.22783000  0.74654000  0.85360000  1.0
  O  O198  1  0.22827000  0.24420000  0.64674000  1.0
  O  O199  1  0.77179000  0.25708000  0.14698000  1.0
  O  O200  1  0.57853000  0.83195000  0.33664000  1.0
  O  O201  1  0.42115000  0.66892000  0.83662000  1.0
  O  O202  1  0.42167000  0.16807000  0.66394000  1.0
  O  O203  1  0.57826000  0.33171000  0.16380000  1.0
  O  O204  1  0.27460000  0.75208000  0.13469000  1.0
  O  O205  1  0.72564000  0.74820000  0.63486000  1.0
  O  O206  1  0.72565000  0.24870000  0.86425000  1.0
  O  O207  1  0.27431000  0.25096000  0.36434000  1.0
  O  O208  1  0.08337000  0.84138000  0.15340000  1.0
  O  O209  1  0.91691000  0.65856000  0.65327000  1.0
  O  O210  1  0.91695000  0.15844000  0.84607000  1.0
  O  O211  1  0.08299000  0.34089000  0.34612000  1.0
  O  O212  1  0.45604000  0.67525000  0.36971000  1.0
  O  O213  1  0.54497000  0.82458000  0.87015000  1.0
  O  O214  1  0.54359000  0.32562000  0.63059000  1.0
  O  O215  1  0.45661000  0.17375000  0.13075000  1.0
  O  O216  1  0.64262000  0.64220000  0.44521000  1.0
  O  O217  1  0.35803000  0.85806000  0.94550000  1.0
  O  O218  1  0.35664000  0.35873000  0.55716000  1.0
  O  O219  1  0.64360000  0.14087000  0.05727000  1.0
  O  O220  1  0.68752000  0.45672000  0.44922000  1.0
  O  O221  1  0.31326000  0.04350000  0.94942000  1.0
  O  O222  1  0.31141000  0.54422000  0.55183000  1.0
  O  O223  1  0.68874000  0.95541000  0.05182000  1.0
  O  O224  1  0.07561000  0.69406000  0.47278000  1.0
  O  O225  1  0.92542000  0.80584000  0.97283000  1.0
  O  O226  1  0.92322000  0.30572000  0.52605000  1.0
  O  O227  1  0.07666000  0.19412000  0.02609000  1.0
  O  O228  1  0.94582000  0.82420000  0.40347000  1.0
  O  O229  1  0.05552000  0.67700000  0.90283000  1.0
  O  O230  1  0.05336000  0.17683000  0.59594000  1.0
  O  O231  1  0.94687000  0.32383000  0.09585000  1.0
  O  O232  1  0.35741000  0.66916000  0.99306000  1.0
  O  O233  1  0.63988000  0.83190000  0.49462000  1.0
  O  O234  1  0.63969000  0.33217000  0.00729000  1.0
  O  O235  1  0.36041000  0.16792000  0.50732000  1.0
  O  O236  1  0.14280000  0.83685000  0.99863000  1.0
  O  O237  1  0.85749000  0.66368000  0.49802000  1.0
  O  O238  1  0.85930000  0.16386000  0.00301000  1.0
  O  O239  1  0.14029000  0.33741000  0.50288000  1.0
  O  O240  1  0.60383000  0.53566000  0.91927000  1.0
  O  O241  1  0.39547000  0.96405000  0.41959000  1.0
  O  O242  1  0.39500000  0.46271000  0.08015000  1.0
  O  O243  1  0.60495000  0.03723000  0.58082000  1.0
  O  O244  1  0.28406000  0.50873000  0.91379000  1.0
  O  O245  1  0.71613000  0.98965000  0.41440000  1.0
  O  O246  1  0.71621000  0.48998000  0.08566000  1.0
  O  O247  1  0.28372000  0.01081000  0.58617000  1.0
  O  O248  1  0.20530000  0.98219000  0.08863000  1.0
  O  O249  1  0.79497000  0.51822000  0.58846000  1.0
  O  O250  1  0.80085000  0.01452000  0.90907000  1.0
  O  O251  1  0.19945000  0.48579000  0.40887000  1.0
  O  O252  1  0.89298000  0.96062000  0.07815000  1.0
  O  O253  1  0.10719000  0.53959000  0.57815000  1.0
  O  O254  1  0.10829000  0.03948000  0.92108000  1.0
  O  O255  1  0.89223000  0.46062000  0.42113000  1.0
