# generated using pymatgen
data_ZnH11C13INO5
_symmetry_space_group_name_H-M   'P 1'
_cell_length_a   9.67922000
_cell_length_b   11.08140000
_cell_length_c   11.22000000
_cell_angle_alpha   93.18490000
_cell_angle_beta   105.22860000
_cell_angle_gamma   90.55670000
_symmetry_Int_Tables_number   1
_chemical_formula_structural   ZnH11C13INO5
_chemical_formula_sum   'Zn2 H22 C26 I2 N2 O10'
_cell_volume   1159.02822192
_cell_formula_units_Z   2
loop_
 _symmetry_equiv_pos_site_id
 _symmetry_equiv_pos_as_xyz
  1  'x, y, z'
loop_
 _atom_site_type_symbol
 _atom_site_label
 _atom_site_symmetry_multiplicity
 _atom_site_fract_x
 _atom_site_fract_y
 _atom_site_fract_z
 _atom_site_occupancy
  Zn  Zn0  1  0.36813000  0.49215000  0.49636000  1.0
  Zn  Zn1  1  0.65780000  0.49750000  0.51397000  1.0
  H  H2  1  0.62213000  0.49311000  0.12655000  1.0
  H  H3  1  0.70595000  0.87520000  0.44386000  1.0
  H  H4  1  0.16790000  0.10597000  0.46840000  1.0
  H  H5  1  0.26188000  0.90240000  0.64356000  1.0
  H  H6  1  0.67360000  0.25841000  0.33234000  1.0
  H  H7  1  0.60904000  0.12381000  0.23880000  1.0
  H  H8  1  0.85917000  0.07372000  0.23223000  1.0
  H  H9  1  0.81607000  0.22075000  0.17842000  1.0
  H  H10  1  0.92715000  0.20375000  0.33064000  1.0
  H  H11  1  0.14057000  0.27157000  0.55904000  1.0
  H  H12  1  0.23155000  0.31072000  0.71564000  1.0
  H  H13  1  0.82149000  0.42180000  0.32608000  1.0
  H  H14  1  0.06884000  0.16596000  0.78501000  1.0
  H  H15  1  0.96957000  0.27909000  0.69478000  1.0
  H  H16  1  0.97290000  0.13132000  0.62696000  1.0
  H  H17  1  0.07999000  0.41900000  0.31910000  1.0
  H  H18  1  0.23743000  0.56401000  0.78624000  1.0
  H  H19  1  0.22048000  0.70563000  0.71528000  1.0
  H  H20  1  0.97888000  0.56951000  0.79203000  1.0
  H  H21  1  0.95945000  0.71018000  0.71911000  1.0
  H  H22  1  0.39722000  0.43625000  0.87283000  1.0
  H  H23  1  0.71450000  0.52014000  0.93724000  1.0
  C  C24  1  0.51023000  0.72863000  0.50244000  1.0
  C  C25  1  0.90681000  0.45921000  0.40339000  1.0
  C  C26  1  0.04947000  0.45767000  0.39971000  1.0
  C  C27  1  0.57996000  0.49410000  0.74557000  1.0
  C  C28  1  0.11522000  0.55276000  0.58974000  1.0
  C  C29  1  0.16849000  0.61739000  0.71586000  1.0
  C  C30  1  0.00541000  0.62002000  0.71932000  1.0
  C  C31  1  0.50965000  0.25896000  0.48929000  1.0
  C  C32  1  0.44307000  0.47482000  0.26129000  1.0
  C  C33  1  0.60699000  0.49326000  0.88186000  1.0
  C  C34  1  0.50148000  0.46380000  0.93443000  1.0
  C  C35  1  0.50506000  0.86221000  0.49177000  1.0
  C  C36  1  0.41164000  0.45554000  0.12320000  1.0
  C  C37  1  0.51631000  0.46981000  0.06484000  1.0
  C  C38  1  0.39296000  0.93298000  0.51093000  1.0
  C  C39  1  0.70187000  0.16618000  0.30809000  1.0
  C  C40  1  0.83381000  0.16576000  0.25951000  1.0
  C  C41  1  0.17003000  0.23794000  0.65268000  1.0
  C  C42  1  0.03795000  0.20066000  0.69209000  1.0
  C  C43  1  0.61637000  0.92517000  0.46179000  1.0
  C  C44  1  0.61858000  0.05131000  0.45263000  1.0
  C  C45  1  0.50911000  0.12370000  0.48012000  1.0
  C  C46  1  0.39698000  0.05821000  0.50521000  1.0
  C  C47  1  0.25712000  0.07518000  0.54243000  1.0
  C  C48  1  0.25723000  0.93310000  0.55162000  1.0
  C  C49  1  0.97223000  0.55412000  0.59336000  1.0
  I  I50  1  0.06582000  0.83843000  0.43088000  1.0
  I  I51  1  0.19740000  0.41207000  0.02814000  1.0
  N  N52  1  0.86571000  0.50557000  0.50319000  1.0
  N  N53  1  0.15781000  0.50252000  0.49581000  1.0
  O  O54  1  0.40247000  0.67690000  0.52489000  1.0
  O  O55  1  0.26889000  0.14131000  0.65539000  1.0
  O  O56  1  0.62194000  0.67612000  0.48834000  1.0
  O  O57  1  0.45205000  0.47065000  0.68091000  1.0
  O  O58  1  0.68643000  0.51974000  0.70323000  1.0
  O  O59  1  0.38755000  0.30777000  0.46444000  1.0
  O  O60  1  0.63062000  0.31473000  0.52374000  1.0
  O  O61  1  0.33995000  0.50065000  0.30758000  1.0
  O  O62  1  0.57365000  0.46439000  0.32030000  1.0
  O  O63  1  0.73296000  0.09561000  0.41655000  1.0
