# generated using pymatgen
data_CuH6C4(N3O)4
_symmetry_space_group_name_H-M   'P 1'
_cell_length_a   6.97665000
_cell_length_b   8.78972000
_cell_length_c   9.49090000
_cell_angle_alpha   101.73500000
_cell_angle_beta   89.99930000
_cell_angle_gamma   89.99940000
_symmetry_Int_Tables_number   1
_chemical_formula_structural   CuH6C4(N3O)4
_chemical_formula_sum   'Cu2 H12 C8 N24 O8'
_cell_volume   569.84385760
_cell_formula_units_Z   2
loop_
 _symmetry_equiv_pos_site_id
 _symmetry_equiv_pos_as_xyz
  1  'x, y, z'
loop_
 _atom_site_type_symbol
 _atom_site_label
 _atom_site_symmetry_multiplicity
 _atom_site_fract_x
 _atom_site_fract_y
 _atom_site_fract_z
 _atom_site_occupancy
  Cu  Cu0  1  0.00000000  0.00000000  0.00000000  1.0
  Cu  Cu1  1  0.50000000  0.00000000  0.50000000  1.0
  H  H2  1  0.09957000  0.66723000  0.21692000  1.0
  H  H3  1  0.59957000  0.33276000  0.28306000  1.0
  H  H4  1  0.90043000  0.33277000  0.78308000  1.0
  H  H5  1  0.40043000  0.66725000  0.71694000  1.0
  H  H6  1  0.20113000  0.62789000  0.38038000  1.0
  H  H7  1  0.70113000  0.37210000  0.11960000  1.0
  H  H8  1  0.79887000  0.37212000  0.61962000  1.0
  H  H9  1  0.29887000  0.62790000  0.88039000  1.0
  H  H10  1  0.04728000  0.48755000  0.27196000  1.0
  H  H11  1  0.54728000  0.51243000  0.22803000  1.0
  H  H12  1  0.95272000  0.51245000  0.72804000  1.0
  H  H13  1  0.45272000  0.48757000  0.77197000  1.0
  C  C14  1  0.07678000  0.61147000  0.30846000  1.0
  C  C15  1  0.57678000  0.38852000  0.19153000  1.0
  C  C16  1  0.92322000  0.38854000  0.69154000  1.0
  C  C17  1  0.42322000  0.61148000  0.80847000  1.0
  C  C18  1  0.83644000  0.82580000  0.39739000  1.0
  C  C19  1  0.33644000  0.17420000  0.10260000  1.0
  C  C20  1  0.16356000  0.17420000  0.60260000  1.0
  C  C21  1  0.66356000  0.82580000  0.89740000  1.0
  N  N22  1  0.65999000  0.69316000  0.52017000  1.0
  N  N23  1  0.15999000  0.30683000  0.97982000  1.0
  N  N24  1  0.34001000  0.30684000  0.47983000  1.0
  N  N25  1  0.84001000  0.69317000  0.02018000  1.0
  N  N26  1  0.92050000  0.92777000  0.32775000  1.0
  N  N27  1  0.42050000  0.07223000  0.17224000  1.0
  N  N28  1  0.07949000  0.07223000  0.67225000  1.0
  N  N29  1  0.57950000  0.92777000  0.82776000  1.0
  N  N30  1  0.85183000  0.06925000  0.34599000  1.0
  N  N31  1  0.35183000  0.93074000  0.15401000  1.0
  N  N32  1  0.14817000  0.93075000  0.65401000  1.0
  N  N33  1  0.64818000  0.06926000  0.84599000  1.0
  N  N34  1  0.79777000  0.60180000  0.46431000  1.0
  N  N35  1  0.29778000  0.39820000  0.03568000  1.0
  N  N36  1  0.20223000  0.39820000  0.53569000  1.0
  N  N37  1  0.70222000  0.60180000  0.96432000  1.0
  N  N38  1  0.90907000  0.68071000  0.38684000  1.0
  N  N39  1  0.40908000  0.31928000  0.11315000  1.0
  N  N40  1  0.09093000  0.31929000  0.61316000  1.0
  N  N41  1  0.59093000  0.68071000  0.88685000  1.0
  N  N42  1  0.67958000  0.83263000  0.48152000  1.0
  N  N43  1  0.17959000  0.16736000  0.01848000  1.0
  N  N44  1  0.32041000  0.16737000  0.51849000  1.0
  N  N45  1  0.82041000  0.83264000  0.98152000  1.0
  O  O46  1  0.92947000  0.16079000  0.27804000  1.0
  O  O47  1  0.42947000  0.83921000  0.22196000  1.0
  O  O48  1  0.07052000  0.83921000  0.72196000  1.0
  O  O49  1  0.57054000  0.16079000  0.77805000  1.0
  O  O50  1  0.71138000  0.12363000  0.43256000  1.0
  O  O51  1  0.21137000  0.87637000  0.06744000  1.0
  O  O52  1  0.28862000  0.87637000  0.56744000  1.0
  O  O53  1  0.78863000  0.12363000  0.93256000  1.0
