# generated using pymatgen
data_NaH5C5(NO2)2
_symmetry_space_group_name_H-M   'P 1'
_cell_length_a   3.56815000
_cell_length_b   10.22080000
_cell_length_c   10.81820000
_cell_angle_alpha   108.95800000
_cell_angle_beta   98.63920000
_cell_angle_gamma   96.20940000
_symmetry_Int_Tables_number   1
_chemical_formula_structural   NaH5C5(NO2)2
_chemical_formula_sum   'Na2 H10 C10 N4 O8'
_cell_volume   363.66347190
_cell_formula_units_Z   2
loop_
 _symmetry_equiv_pos_site_id
 _symmetry_equiv_pos_as_xyz
  1  'x, y, z'
loop_
 _atom_site_type_symbol
 _atom_site_label
 _atom_site_symmetry_multiplicity
 _atom_site_fract_x
 _atom_site_fract_y
 _atom_site_fract_z
 _atom_site_occupancy
  Na  Na0  1  0.26102000  0.61414000  0.92519000  1.0
  Na  Na1  1  0.73890000  0.38585000  0.07480000  1.0
  H  H2  1  0.71143000  0.88016000  0.45576000  1.0
  H  H3  1  0.28858000  0.11985000  0.54427000  1.0
  H  H4  1  0.25761000  0.57813000  0.38143000  1.0
  H  H5  1  0.74243000  0.42186000  0.61856000  1.0
  H  H6  1  0.58755000  0.76721000  0.23397000  1.0
  H  H7  1  0.41243000  0.23279000  0.76602000  1.0
  H  H8  1  0.79350000  0.83015000  0.91476000  1.0
  H  H9  1  0.20647000  0.16986000  0.08524000  1.0
  H  H10  1  0.97697000  0.86456000  0.06185000  1.0
  H  H11  1  0.02300000  0.13545000  0.93815000  1.0
  C  C12  1  0.40063000  0.71569000  0.66050000  1.0
  C  C13  1  0.59944000  0.28429000  0.33952000  1.0
  C  C14  1  0.56783000  0.81451000  0.61115000  1.0
  C  C15  1  0.43226000  0.18548000  0.38886000  1.0
  C  C16  1  0.56679000  0.79143000  0.47555000  1.0
  C  C17  1  0.43327000  0.20857000  0.52447000  1.0
  C  C18  1  0.40561000  0.67120000  0.36971000  1.0
  C  C19  1  0.59440000  0.32880000  0.63028000  1.0
  C  C20  1  0.43421000  0.66979000  0.23970000  1.0
  C  C21  1  0.56574000  0.33021000  0.76029000  1.0
  N  N22  1  0.26144000  0.63352000  0.70167000  1.0
  N  N23  1  0.73864000  0.36646000  0.29831000  1.0
  N  N24  1  0.74819000  0.94300000  0.70805000  1.0
  N  N25  1  0.25184000  0.05701000  0.29197000  1.0
  O  O26  1  0.91054000  0.03829000  0.67559000  1.0
  O  O27  1  0.08944000  0.96172000  0.32441000  1.0
  O  O28  1  0.74128000  0.96093000  0.83034000  1.0
  O  O29  1  0.25869000  0.03908000  0.16966000  1.0
  O  O30  1  0.30188000  0.56736000  0.13278000  1.0
  O  O31  1  0.69801000  0.43266000  0.86722000  1.0
  O  O32  1  0.84727000  0.78431000  0.98132000  1.0
  O  O33  1  0.15269000  0.21569000  0.01867000  1.0
