# generated using pymatgen
data_Hg3H16C32N4(O2F3)6
_symmetry_space_group_name_H-M   'P 1'
_cell_length_a   9.31133000
_cell_length_b   10.70120000
_cell_length_c   11.85700000
_cell_angle_alpha   110.26000000
_cell_angle_beta   102.42800000
_cell_angle_gamma   101.35600000
_symmetry_Int_Tables_number   1
_chemical_formula_structural   Hg3H16C32N4(O2F3)6
_chemical_formula_sum   'Hg3 H16 C32 N4 O12 F18'
_cell_volume   1033.79677104
_cell_formula_units_Z   1
loop_
 _symmetry_equiv_pos_site_id
 _symmetry_equiv_pos_as_xyz
  1  'x, y, z'
loop_
 _atom_site_type_symbol
 _atom_site_label
 _atom_site_symmetry_multiplicity
 _atom_site_fract_x
 _atom_site_fract_y
 _atom_site_fract_z
 _atom_site_occupancy
  Hg  Hg0  1  0.00000000  0.00000000  0.00000000  1.0
  Hg  Hg1  1  0.98526000  0.38048000  0.27903000  1.0
  Hg  Hg2  1  0.01474000  0.61951000  0.72098000  1.0
  H  H3  1  0.83998000  0.67082000  0.01534000  1.0
  H  H4  1  0.16002000  0.32917000  0.98466000  1.0
  H  H5  1  0.59122000  0.50201000  0.87049000  1.0
  H  H6  1  0.40878000  0.49799000  0.12951000  1.0
  H  H7  1  0.50078000  0.27481000  0.89060000  1.0
  H  H8  1  0.49923000  0.72519000  0.10940000  1.0
  H  H9  1  0.67370000  0.22776000  0.05633000  1.0
  H  H10  1  0.32630000  0.77224000  0.94368000  1.0
  H  H11  1  0.05058000  0.79540000  0.12694000  1.0
  H  H12  1  0.94942000  0.20460000  0.87306000  1.0
  H  H13  1  0.30469000  0.94664000  0.27755000  1.0
  H  H14  1  0.69531000  0.05336000  0.72245000  1.0
  H  H15  1  0.43796000  0.87066000  0.44210000  1.0
  H  H16  1  0.56204000  0.12934000  0.55791000  1.0
  H  H17  1  0.30098000  0.64651000  0.44615000  1.0
  H  H18  1  0.69902000  0.35349000  0.55385000  1.0
  C  C19  1  0.89088000  0.54029000  0.11393000  1.0
  C  C20  1  0.10912000  0.45971000  0.88607000  1.0
  C  C21  1  0.80165000  0.57234000  0.02292000  1.0
  C  C22  1  0.19835000  0.42766000  0.97709000  1.0
  C  C23  1  0.66060000  0.47734000  0.94169000  1.0
  C  C24  1  0.33940000  0.52266000  0.05831000  1.0
  C  C25  1  0.61034000  0.35156000  0.95233000  1.0
  C  C26  1  0.38966000  0.64844000  0.04767000  1.0
  C  C27  1  0.70418000  0.32492000  0.04433000  1.0
  C  C28  1  0.29581000  0.67508000  0.95567000  1.0
  C  C29  1  0.04253000  0.63781000  0.20302000  1.0
  C  C30  1  0.95747000  0.36219000  0.79699000  1.0
  C  C31  1  0.10966000  0.76336000  0.19674000  1.0
  C  C32  1  0.89035000  0.23664000  0.80326000  1.0
  C  C33  1  0.25272000  0.84903000  0.28283000  1.0
  C  C34  1  0.74728000  0.15097000  0.71717000  1.0
  C  C35  1  0.32554000  0.80796000  0.37368000  1.0
  C  C36  1  0.67446000  0.19204000  0.62632000  1.0
  C  C37  1  0.25139000  0.68271000  0.37593000  1.0
  C  C38  1  0.74861000  0.31729000  0.62407000  1.0
  C  C39  1  0.14661000  0.35604000  0.50878000  1.0
  C  C40  1  0.85337000  0.64393000  0.49120000  1.0
  C  C41  1  0.20640000  0.27128000  0.58290000  1.0
  C  C42  1  0.79360000  0.72872000  0.41710000  1.0
  C  C43  1  0.25679000  0.21715000  0.19644000  1.0
  C  C44  1  0.74320000  0.78285000  0.80356000  1.0
  C  C45  1  0.41740000  0.30544000  0.29398000  1.0
  C  C46  1  0.58260000  0.69456000  0.70602000  1.0
  C  C47  1  0.80101000  0.01441000  0.16050000  1.0
  C  C48  1  0.19899000  0.98561000  0.83950000  1.0
  C  C49  1  0.68889000  0.03445000  0.24091000  1.0
  C  C50  1  0.31112000  0.96557000  0.75909000  1.0
  N  N51  1  0.83988000  0.41751000  0.12244000  1.0
  N  N52  1  0.16011000  0.58249000  0.87756000  1.0
  N  N53  1  0.11430000  0.60109000  0.29243000  1.0
  N  N54  1  0.88570000  0.39891000  0.70757000  1.0
  O  O55  1  0.07301000  0.27481000  0.39209000  1.0
  O  O56  1  0.92699000  0.72517000  0.60789000  1.0
  O  O57  1  0.17124000  0.48322000  0.56333000  1.0
  O  O58  1  0.82872000  0.51676000  0.43666000  1.0
  O  O59  1  0.22732000  0.08613000  0.16334000  1.0
  O  O60  1  0.77268000  0.91387000  0.83666000  1.0
  O  O61  1  0.17669000  0.28233000  0.15536000  1.0
  O  O62  1  0.82330000  0.71766000  0.84463000  1.0
  O  O63  1  0.83788000  0.90420000  0.13310000  1.0
  O  O64  1  0.16214000  0.09583000  0.86690000  1.0
  O  O65  1  0.83895000  0.11298000  0.12582000  1.0
  O  O66  1  0.16104000  0.88703000  0.87417000  1.0
  F  F67  1  0.28546000  0.19029000  0.52278000  1.0
  F  F68  1  0.71454000  0.80970000  0.47722000  1.0
  F  F69  1  0.08610000  0.18619000  0.59437000  1.0
  F  F70  1  0.91391000  0.81382000  0.40565000  1.0
  F  F71  1  0.30220000  0.35648000  0.70125000  1.0
  F  F72  1  0.69781000  0.64354000  0.29874000  1.0
  F  F73  1  0.46923000  0.24678000  0.37306000  1.0
  F  F74  1  0.53076000  0.75323000  0.62695000  1.0
  F  F75  1  0.52089000  0.32068000  0.23010000  1.0
  F  F76  1  0.47911000  0.67932000  0.76990000  1.0
  F  F77  1  0.41707000  0.43546000  0.36664000  1.0
  F  F78  1  0.58292000  0.56454000  0.63336000  1.0
  F  F79  1  0.67766000  0.94729000  0.30103000  1.0
  F  F80  1  0.32238000  0.05274000  0.69898000  1.0
  F  F81  1  0.73040000  0.16683000  0.33019000  1.0
  F  F82  1  0.26959000  0.83319000  0.66980000  1.0
  F  F83  1  0.54382000  0.00788000  0.16318000  1.0
  F  F84  1  0.45619000  0.99211000  0.83682000  1.0
