# generated using pymatgen
data_Zn3H32C30S2(N3O8)2
_symmetry_space_group_name_H-M   'P 1'
_cell_length_a   7.62520000
_cell_length_b   8.07489000
_cell_length_c   16.46150000
_cell_angle_alpha   92.92220000
_cell_angle_beta   101.69600000
_cell_angle_gamma   114.41000000
_symmetry_Int_Tables_number   1
_chemical_formula_structural   Zn3H32C30S2(N3O8)2
_chemical_formula_sum   'Zn3 H32 C30 S2 N6 O16'
_cell_volume   893.43204511
_cell_formula_units_Z   1
loop_
 _symmetry_equiv_pos_site_id
 _symmetry_equiv_pos_as_xyz
  1  'x, y, z'
loop_
 _atom_site_type_symbol
 _atom_site_label
 _atom_site_symmetry_multiplicity
 _atom_site_fract_x
 _atom_site_fract_y
 _atom_site_fract_z
 _atom_site_occupancy
  Zn  Zn0  1  0.50000000  0.00000000  0.50000000  1.0
  Zn  Zn1  1  0.28349000  0.21718000  0.39272000  1.0
  Zn  Zn2  1  0.71651000  0.78283000  0.60728000  1.0
  H  H3  1  0.21583000  0.24667000  0.78859000  1.0
  H  H4  1  0.78417000  0.75333000  0.21141000  1.0
  H  H5  1  0.24789000  0.33484000  0.94114000  1.0
  H  H6  1  0.75211000  0.66515000  0.05886000  1.0
  H  H7  1  0.28725000  0.86664000  0.89432000  1.0
  H  H8  1  0.71275000  0.13335000  0.10568000  1.0
  H  H9  1  0.25806000  0.78210000  0.74266000  1.0
  H  H10  1  0.74194000  0.21790000  0.25735000  1.0
  H  H11  1  0.39367000  0.63178000  0.16210000  1.0
  H  H12  1  0.60634000  0.36823000  0.83790000  1.0
  H  H13  1  0.42688000  0.71528000  0.31337000  1.0
  H  H14  1  0.57313000  0.28473000  0.68663000  1.0
  H  H15  1  0.19018000  0.05999000  0.02418000  1.0
  H  H16  1  0.80982000  0.94001000  0.97582000  1.0
  H  H17  1  0.13751000  0.32781000  0.08038000  1.0
  H  H18  1  0.86249000  0.67219000  0.91961000  1.0
  H  H19  1  0.17464000  0.39101000  0.23552000  1.0
  H  H20  1  0.82536000  0.60899000  0.76448000  1.0
  H  H21  1  0.91626000  0.94271000  0.37456000  1.0
  H  H22  1  0.08375000  0.05729000  0.62544000  1.0
  H  H23  1  0.91027000  0.11886000  0.42023000  1.0
  H  H24  1  0.08974000  0.88114000  0.57977000  1.0
  H  H25  1  0.73521000  0.26538000  0.43527000  1.0
  H  H26  1  0.26479000  0.73462000  0.56473000  1.0
  H  H27  1  0.86573000  0.26349000  0.52377000  1.0
  H  H28  1  0.13427000  0.73651000  0.47623000  1.0
  H  H29  1  0.39805000  0.58665000  0.44369000  1.0
  H  H30  1  0.60195000  0.41335000  0.55631000  1.0
  H  H31  1  0.16549000  0.48840000  0.39548000  1.0
  H  H32  1  0.83451000  0.51160000  0.60452000  1.0
  H  H33  1  0.34747000  0.21465000  0.54914000  1.0
  H  H34  1  0.65252000  0.78535000  0.45086000  1.0
  C  C35  1  0.23490000  0.50921000  0.75742000  1.0
  C  C36  1  0.76510000  0.49079000  0.24258000  1.0
  C  C37  1  0.23054000  0.38149000  0.81215000  1.0
  C  C38  1  0.76946000  0.61851000  0.18785000  1.0
  C  C39  1  0.24753000  0.43013000  0.89664000  1.0
  C  C40  1  0.75246000  0.56987000  0.10336000  1.0
  C  C41  1  0.26532000  0.60409000  0.92654000  1.0
  C  C42  1  0.73468000  0.39591000  0.07346000  1.0
  C  C43  1  0.26923000  0.73103000  0.87031000  1.0
  C  C44  1  0.73077000  0.26897000  0.12969000  1.0
  C  C45  1  0.25409000  0.68394000  0.78617000  1.0
  C  C46  1  0.74591000  0.31605000  0.21383000  1.0
  C  C47  1  0.29356000  0.83174000  0.12067000  1.0
  C  C48  1  0.70644000  0.16826000  0.87933000  1.0
  C  C49  1  0.35777000  0.74186000  0.18267000  1.0
  C  C50  1  0.64224000  0.25814000  0.81733000  1.0
  C  C51  1  0.37754000  0.78902000  0.26746000  1.0
  C  C52  1  0.62246000  0.21099000  0.73255000  1.0
  C  C53  1  0.33333333  0.93173000  0.29563000  1.0
  C  C54  1  0.66666667  0.06827000  0.70437000  1.0
  C  C55  1  0.27486000  0.03174000  0.23313000  1.0
  C  C56  1  0.72514000  0.96827000  0.76686000  1.0
  C  C57  1  0.25542000  0.98358000  0.14646000  1.0
  C  C58  1  0.74458000  0.01641000  0.85354000  1.0
  C  C59  1  0.20321000  0.09286000  0.09077000  1.0
  C  C60  1  0.79679000  0.90714000  0.90923000  1.0
  C  C61  1  0.17361000  0.23900000  0.12162000  1.0
  C  C62  1  0.82639000  0.76099000  0.87838000  1.0
  C  C63  1  0.19559000  0.27629000  0.20860000  1.0
  C  C64  1  0.80440000  0.72371000  0.79140000  1.0
  S  S65  1  0.20690000  0.45024000  0.64921000  1.0
  S  S66  1  0.79310000  0.54976000  0.35079000  1.0
  N  N67  1  0.24445000  0.17587000  0.26211000  1.0
  N  N68  1  0.75555000  0.82414000  0.73788000  1.0
  N  N69  1  0.26743000  0.78666000  0.03555000  1.0
  N  N70  1  0.73257000  0.21334000  0.96445000  1.0
  N  N71  1  0.28283000  0.63994000  0.01294000  1.0
  N  N72  1  0.71717000  0.36006000  0.98706000  1.0
  O  O73  1  0.34302000  0.98029000  0.37358000  1.0
  O  O74  1  0.65698000  0.01971000  0.62642000  1.0
  O  O75  1  0.43223000  0.22259000  0.51067000  1.0
  O  O76  1  0.56777000  0.77742000  0.48933000  1.0
  O  O77  1  0.24273000  0.28598000  0.63867000  1.0
  O  O78  1  0.75727000  0.71401000  0.36133000  1.0
  O  O79  1  0.35023000  0.61067000  0.62180000  1.0
  O  O80  1  0.64976000  0.38933000  0.37820000  1.0
  O  O81  1  0.99978000  0.41322000  0.60832000  1.0
  O  O82  1  0.00022000  0.58678000  0.39168000  1.0
  O  O83  1  0.98188000  0.07878000  0.38462000  1.0
  O  O84  1  0.01813000  0.92122000  0.61538000  1.0
  O  O85  1  0.77551000  0.18271000  0.47011000  1.0
  O  O86  1  0.22449000  0.81729000  0.52989000  1.0
  O  O87  1  0.28742000  0.46991000  0.40626000  1.0
  O  O88  1  0.71258000  0.53009000  0.59374000  1.0
