# generated using pymatgen
data_ZnH14C12S(NO2)2
_symmetry_space_group_name_H-M   'P 1'
_cell_length_a   9.52907000
_cell_length_b   9.71031000
_cell_length_c   14.80960000
_cell_angle_alpha   97.74980000
_cell_angle_beta   89.99980000
_cell_angle_gamma   89.99960000
_symmetry_Int_Tables_number   1
_chemical_formula_structural   ZnH14C12S(NO2)2
_chemical_formula_sum   'Zn4 H56 C48 S4 N8 O16'
_cell_volume   1357.81946007
_cell_formula_units_Z   4
loop_
 _symmetry_equiv_pos_site_id
 _symmetry_equiv_pos_as_xyz
  1  'x, y, z'
loop_
 _atom_site_type_symbol
 _atom_site_label
 _atom_site_symmetry_multiplicity
 _atom_site_fract_x
 _atom_site_fract_y
 _atom_site_fract_z
 _atom_site_occupancy
  Zn  Zn0  1  0.67049000  0.65686000  0.26607000  1.0
  Zn  Zn1  1  0.17049000  0.84314000  0.73393000  1.0
  Zn  Zn2  1  0.32951000  0.34314000  0.73393000  1.0
  Zn  Zn3  1  0.82951000  0.15686000  0.26607000  1.0
  H  H4  1  0.74615000  0.47231000  0.40300000  1.0
  H  H5  1  0.24615000  0.02770000  0.59700000  1.0
  H  H6  1  0.25385000  0.52769000  0.59700000  1.0
  H  H7  1  0.75385000  0.97230000  0.40301000  1.0
  H  H8  1  0.73861000  0.48496000  0.57335000  1.0
  H  H9  1  0.23861000  0.01505000  0.42665000  1.0
  H  H10  1  0.26139000  0.51504000  0.42665000  1.0
  H  H11  1  0.76139000  0.98495000  0.57335000  1.0
  H  H12  1  0.49023000  0.85725000  0.58027000  1.0
  H  H13  1  0.99024000  0.64275000  0.41973000  1.0
  H  H14  1  0.50977000  0.14275000  0.41973000  1.0
  H  H15  1  0.00976000  0.35725000  0.58027000  1.0
  H  H16  1  0.50937000  0.83146000  0.40914000  1.0
  H  H17  1  0.00938000  0.66855000  0.59086000  1.0
  H  H18  1  0.49063000  0.16854000  0.59086000  1.0
  H  H19  1  0.99062000  0.33145000  0.40914000  1.0
  H  H20  1  0.68352000  0.61896000  0.71983000  1.0
  H  H21  1  0.18351000  0.88104000  0.28016000  1.0
  H  H22  1  0.31648000  0.38104000  0.28017000  1.0
  H  H23  1  0.81648000  0.11896000  0.71984000  1.0
  H  H24  1  0.50034000  0.65761000  0.71364000  1.0
  H  H25  1  0.00033000  0.84239000  0.28636000  1.0
  H  H26  1  0.49966000  0.34239000  0.28636000  1.0
  H  H27  1  0.99966000  0.15761000  0.71364000  1.0
  H  H28  1  0.62050000  0.79449000  0.72258000  1.0
  H  H29  1  0.12050000  0.70552000  0.27742000  1.0
  H  H30  1  0.37950000  0.20551000  0.27742000  1.0
  H  H31  1  0.87949000  0.29448000  0.72258000  1.0
  H  H32  1  0.38021000  0.72109000  0.22251000  1.0
  H  H33  1  0.88021000  0.77892000  0.77749000  1.0
  H  H34  1  0.61979000  0.27891000  0.77749000  1.0
  H  H35  1  0.11979000  0.22109000  0.22251000  1.0
  H  H36  1  0.18856000  0.61240000  0.12227000  1.0
  H  H37  1  0.68856000  0.88760000  0.87773000  1.0
  H  H38  1  0.81144000  0.38759000  0.87774000  1.0
  H  H39  1  0.31144000  0.11241000  0.12227000  1.0
  H  H40  1  0.47592000  0.28312000  0.02520000  1.0
  H  H41  1  0.97591000  0.21688000  0.97480000  1.0
  H  H42  1  0.52409000  0.71688000  0.97480000  1.0
  H  H43  1  0.02409000  0.78312000  0.02520000  1.0
  H  H44  1  0.65588000  0.40105000  0.13176000  1.0
  H  H45  1  0.15587000  0.09895000  0.86824000  1.0
  H  H46  1  0.34413000  0.59895000  0.86824000  1.0
  H  H47  1  0.84413000  0.90105000  0.13176000  1.0
  H  H48  1  0.16862000  0.44506000  0.95583000  1.0
  H  H49  1  0.66862000  0.05495000  0.04418000  1.0
  H  H50  1  0.83138000  0.55494000  0.04418000  1.0
  H  H51  1  0.33138000  0.94506000  0.95583000  1.0
  H  H52  1  0.11677000  0.34747000  0.04173000  1.0
  H  H53  1  0.61677000  0.15253000  0.95827000  1.0
  H  H54  1  0.88323000  0.65253000  0.95827000  1.0
  H  H55  1  0.38323000  0.84747000  0.04173000  1.0
  H  H56  1  0.24793000  0.27859000  0.95982000  1.0
  H  H57  1  0.74792000  0.22141000  0.04018000  1.0
  H  H58  1  0.75207000  0.72140000  0.04018000  1.0
  H  H59  1  0.25207000  0.77859000  0.95982000  1.0
  C  C60  1  0.69071000  0.55555000  0.44549000  1.0
  C  C61  1  0.19071000  0.94445000  0.55451000  1.0
  C  C62  1  0.30929000  0.44445000  0.55451000  1.0
  C  C63  1  0.80929000  0.05554000  0.44549000  1.0
  C  C64  1  0.68505000  0.56319000  0.53966000  1.0
  C  C65  1  0.18505000  0.93681000  0.46033000  1.0
  C  C66  1  0.31495000  0.43681000  0.46034000  1.0
  C  C67  1  0.81495000  0.06319000  0.53967000  1.0
  C  C68  1  0.61324000  0.67285000  0.59112000  1.0
  C  C69  1  0.11324000  0.82715000  0.40888000  1.0
  C  C70  1  0.38676000  0.32715000  0.40888000  1.0
  C  C71  1  0.88676000  0.17285000  0.59112000  1.0
  C  C72  1  0.54712000  0.77008000  0.54305000  1.0
  C  C73  1  0.04712000  0.72992000  0.45695000  1.0
  C  C74  1  0.45288000  0.22992000  0.45695000  1.0
  C  C75  1  0.95287000  0.27008000  0.54305000  1.0
  C  C76  1  0.55731000  0.75674000  0.44883000  1.0
  C  C77  1  0.05732000  0.74327000  0.55117000  1.0
  C  C78  1  0.44269000  0.24326000  0.55117000  1.0
  C  C79  1  0.94268000  0.25673000  0.44883000  1.0
  C  C80  1  0.60595000  0.68583000  0.69252000  1.0
  C  C81  1  0.10595000  0.81417000  0.30748000  1.0
  C  C82  1  0.39405000  0.31417000  0.30748000  1.0
  C  C83  1  0.89405000  0.18583000  0.69253000  1.0
  C  C84  1  0.39618000  0.62302000  0.17844000  1.0
  C  C85  1  0.89618000  0.87698000  0.82156000  1.0
  C  C86  1  0.60381000  0.37698000  0.82156000  1.0
  C  C87  1  0.10382000  0.12302000  0.17844000  1.0
  C  C88  1  0.29112000  0.56269000  0.12183000  1.0
  C  C89  1  0.79112000  0.93731000  0.87817000  1.0
  C  C90  1  0.70888000  0.43730000  0.87817000  1.0
  C  C91  1  0.20888000  0.06269000  0.12183000  1.0
  C  C92  1  0.31722000  0.43846000  0.06411000  1.0
  C  C93  1  0.81721000  0.06154000  0.93590000  1.0
  C  C94  1  0.68279000  0.56154000  0.93589000  1.0
  C  C95  1  0.18279000  0.93846000  0.06410000  1.0
  C  C96  1  0.45057000  0.37934000  0.06872000  1.0
  C  C97  1  0.95057000  0.12066000  0.93128000  1.0
  C  C98  1  0.54943000  0.62066000  0.93127000  1.0
  C  C99  1  0.04943000  0.87934000  0.06872000  1.0
  C  C100  1  0.55133000  0.44469000  0.12699000  1.0
  C  C101  1  0.05132000  0.05530000  0.87301000  1.0
  C  C102  1  0.44868000  0.55531000  0.87301000  1.0
  C  C103  1  0.94868000  0.94470000  0.12699000  1.0
  C  C104  1  0.20757000  0.37239000  0.00107000  1.0
  C  C105  1  0.70756000  0.12761000  0.99893000  1.0
  C  C106  1  0.79244000  0.62761000  0.99893000  1.0
  C  C107  1  0.29243000  0.87239000  0.00107000  1.0
  S  S108  1  0.91763000  0.44564000  0.22810000  1.0
  S  S109  1  0.41763000  0.05435000  0.77190000  1.0
  S  S110  1  0.08237000  0.55436000  0.77190000  1.0
  S  S111  1  0.58237000  0.94564000  0.22810000  1.0
  N  N112  1  0.62939000  0.65154000  0.40047000  1.0
  N  N113  1  0.12939000  0.84847000  0.59953000  1.0
  N  N114  1  0.37061000  0.34847000  0.59953000  1.0
  N  N115  1  0.87060000  0.15153000  0.40047000  1.0
  N  N116  1  0.52533000  0.56544000  0.18102000  1.0
  N  N117  1  0.02533000  0.93456000  0.81898000  1.0
  N  N118  1  0.47466000  0.43456000  0.81898000  1.0
  N  N119  1  0.97467000  0.06544000  0.18102000  1.0
  O  O120  1  0.86338000  0.59368000  0.24335000  1.0
  O  O121  1  0.36338000  0.90632000  0.75665000  1.0
  O  O122  1  0.13663000  0.40632000  0.75665000  1.0
  O  O123  1  0.63662000  0.09368000  0.24334000  1.0
  O  O124  1  0.93356000  0.39845000  0.13049000  1.0
  O  O125  1  0.43356000  0.10155000  0.86951000  1.0
  O  O126  1  0.06644000  0.60155000  0.86951000  1.0
  O  O127  1  0.56644000  0.89845000  0.13049000  1.0
  O  O128  1  0.04743000  0.43819000  0.28100000  1.0
  O  O129  1  0.54742000  0.06181000  0.71900000  1.0
  O  O130  1  0.95257000  0.56181000  0.71900000  1.0
  O  O131  1  0.45257000  0.93819000  0.28100000  1.0
  O  O132  1  0.80245000  0.35919000  0.26660000  1.0
  O  O133  1  0.30244000  0.14081000  0.73340000  1.0
  O  O134  1  0.19755000  0.64081000  0.73340000  1.0
  O  O135  1  0.69755000  0.85919000  0.26660000  1.0
