# generated using pymatgen
data_ZnPH5C5NO3
_symmetry_space_group_name_H-M   'P 1'
_cell_length_a   7.44077000
_cell_length_b   9.69148000
_cell_length_c   10.09190000
_cell_angle_alpha   99.59060000
_cell_angle_beta   90.00000000
_cell_angle_gamma   89.99990000
_symmetry_Int_Tables_number   1
_chemical_formula_structural   ZnPH5C5NO3
_chemical_formula_sum   'Zn4 P4 H20 C20 N4 O12'
_cell_volume   717.57638394
_cell_formula_units_Z   4
loop_
 _symmetry_equiv_pos_site_id
 _symmetry_equiv_pos_as_xyz
  1  'x, y, z'
loop_
 _atom_site_type_symbol
 _atom_site_label
 _atom_site_symmetry_multiplicity
 _atom_site_fract_x
 _atom_site_fract_y
 _atom_site_fract_z
 _atom_site_occupancy
  Zn  Zn0  1  0.56561000  0.62644000  0.85928000  1.0
  Zn  Zn1  1  0.93439000  0.62644000  0.35928000  1.0
  Zn  Zn2  1  0.43439000  0.37356000  0.14072000  1.0
  Zn  Zn3  1  0.06561000  0.37356000  0.64072000  1.0
  P  P4  1  0.61487000  0.66318000  0.17663000  1.0
  P  P5  1  0.88513000  0.66318000  0.67663000  1.0
  P  P6  1  0.38513000  0.33682000  0.82337000  1.0
  P  P7  1  0.11487000  0.33682000  0.32337000  1.0
  H  H8  1  0.49036000  0.77297000  0.17318000  1.0
  H  H9  1  0.00964000  0.77297000  0.67318000  1.0
  H  H10  1  0.50964000  0.22703000  0.82682000  1.0
  H  H11  1  0.99036000  0.22703000  0.32682000  1.0
  H  H12  1  0.20143000  0.61145000  0.98180000  1.0
  H  H13  1  0.29857000  0.61145000  0.48180000  1.0
  H  H14  1  0.79856000  0.38855000  0.01820000  1.0
  H  H15  1  0.70144000  0.38855000  0.51820000  1.0
  H  H16  1  0.94969000  0.77115000  0.05303000  1.0
  H  H17  1  0.55031000  0.77115000  0.55303000  1.0
  H  H18  1  0.05031000  0.22885000  0.94697000  1.0
  H  H19  1  0.44969000  0.22885000  0.44697000  1.0
  H  H20  1  0.23964000  0.09097000  0.88534000  1.0
  H  H21  1  0.26036000  0.09097000  0.38534000  1.0
  H  H22  1  0.76036000  0.90903000  0.11466000  1.0
  H  H23  1  0.73964000  0.90903000  0.61466000  1.0
  H  H24  1  0.48133000  0.91555000  0.82217000  1.0
  H  H25  1  0.01867000  0.91555000  0.32217000  1.0
  H  H26  1  0.51867000  0.08445000  0.17783000  1.0
  H  H27  1  0.98133000  0.08445000  0.67783000  1.0
  C  C28  1  0.20497000  0.71945000  0.96420000  1.0
  C  C29  1  0.29503000  0.71945000  0.46420000  1.0
  C  C30  1  0.79502000  0.28055000  0.03580000  1.0
  C  C31  1  0.70497000  0.28055000  0.53580000  1.0
  C  C32  1  0.06450000  0.81119000  0.00446000  1.0
  C  C33  1  0.43550000  0.81118000  0.50446000  1.0
  C  C34  1  0.93550000  0.18881000  0.99554000  1.0
  C  C35  1  0.56450000  0.18881000  0.49554000  1.0
  C  C36  1  0.07286000  0.94913000  0.97914000  1.0
  C  C37  1  0.42714000  0.94913000  0.47914000  1.0
  C  C38  1  0.92714000  0.05087000  0.02086000  1.0
  C  C39  1  0.57286000  0.05087000  0.52086000  1.0
  C  C40  1  0.22538000  0.98689000  0.91102000  1.0
  C  C41  1  0.27462000  0.98689000  0.41102000  1.0
  C  C42  1  0.77462000  0.01311000  0.08899000  1.0
  C  C43  1  0.72538000  0.01311000  0.58899000  1.0
  C  C44  1  0.36057000  0.88972000  0.87425000  1.0
  C  C45  1  0.13943000  0.88972000  0.37425000  1.0
  C  C46  1  0.63943000  0.11028000  0.12575000  1.0
  C  C47  1  0.86057000  0.11028000  0.62575000  1.0
  N  N48  1  0.35170000  0.75819000  0.90118000  1.0
  N  N49  1  0.14830000  0.75819000  0.40118000  1.0
  N  N50  1  0.64830000  0.24181000  0.09882000  1.0
  N  N51  1  0.85170000  0.24181000  0.59882000  1.0
  O  O52  1  0.67708000  0.61094000  0.03165000  1.0
  O  O53  1  0.82292000  0.61094000  0.53165000  1.0
  O  O54  1  0.32292000  0.38906000  0.96835000  1.0
  O  O55  1  0.17708000  0.38905000  0.46835000  1.0
  O  O56  1  0.51798000  0.55068000  0.24054000  1.0
  O  O57  1  0.98202000  0.55068000  0.74054000  1.0
  O  O58  1  0.48202000  0.44932000  0.75946000  1.0
  O  O59  1  0.01798000  0.44932000  0.25946000  1.0
  O  O60  1  0.77062000  0.73277000  0.26357000  1.0
  O  O61  1  0.72938000  0.73277000  0.76357000  1.0
  O  O62  1  0.22938000  0.26724000  0.73643000  1.0
  O  O63  1  0.27062000  0.26724000  0.23643000  1.0
