# generated using pymatgen
data_AgH5(C2N)2
_symmetry_space_group_name_H-M   'P 1'
_cell_length_a   10.42150000
_cell_length_b   12.74010000
_cell_length_c   19.44730000
_cell_angle_alpha   90.00030000
_cell_angle_beta   90.00010000
_cell_angle_gamma   89.99940000
_symmetry_Int_Tables_number   1
_chemical_formula_structural   AgH5(C2N)2
_chemical_formula_sum   'Ag16 H80 C64 N32'
_cell_volume   2582.03653757
_cell_formula_units_Z   16
loop_
 _symmetry_equiv_pos_site_id
 _symmetry_equiv_pos_as_xyz
  1  'x, y, z'
loop_
 _atom_site_type_symbol
 _atom_site_label
 _atom_site_symmetry_multiplicity
 _atom_site_fract_x
 _atom_site_fract_y
 _atom_site_fract_z
 _atom_site_occupancy
  Ag  Ag0  1  0.25000000  0.75000000  0.32808000  1.0
  Ag  Ag1  1  0.75000000  0.75000000  0.17192000  1.0
  Ag  Ag2  1  0.75000000  0.25000000  0.67192000  1.0
  Ag  Ag3  1  0.25000000  0.25000000  0.82808000  1.0
  Ag  Ag4  1  0.13984000  0.32588000  0.46215000  1.0
  Ag  Ag5  1  0.86016000  0.32587000  0.03785000  1.0
  Ag  Ag6  1  0.63984000  0.17413000  0.03785000  1.0
  Ag  Ag7  1  0.36016000  0.17412000  0.46215000  1.0
  Ag  Ag8  1  0.86016000  0.67412000  0.53785000  1.0
  Ag  Ag9  1  0.13984000  0.67412000  0.96215000  1.0
  Ag  Ag10  1  0.36016000  0.82587000  0.96215000  1.0
  Ag  Ag11  1  0.63984000  0.82588000  0.53785000  1.0
  Ag  Ag12  1  1.00000000  0.17089000  0.75000000  1.0
  Ag  Ag13  1  0.50001000  0.32911000  0.75000000  1.0
  Ag  Ag14  1  0.99999000  0.82911000  0.25000000  1.0
  Ag  Ag15  1  0.50000000  0.67090000  0.25000000  1.0
  H  H16  1  0.20920000  0.33750000  0.29666000  1.0
  H  H17  1  0.79081000  0.33749000  0.20334000  1.0
  H  H18  1  0.70920000  0.16251000  0.20334000  1.0
  H  H19  1  0.29080000  0.16250000  0.29666000  1.0
  H  H20  1  0.79080000  0.66250000  0.70334000  1.0
  H  H21  1  0.20920000  0.66250000  0.79666000  1.0
  H  H22  1  0.29080000  0.83749000  0.79666000  1.0
  H  H23  1  0.70919000  0.83749000  0.70334000  1.0
  H  H24  1  0.25584000  0.52977000  0.23462000  1.0
  H  H25  1  0.74416000  0.52977000  0.26537000  1.0
  H  H26  1  0.75584000  0.97024000  0.26538000  1.0
  H  H27  1  0.24416000  0.97023000  0.23463000  1.0
  H  H28  1  0.74416000  0.47023000  0.76537000  1.0
  H  H29  1  0.25584000  0.47023000  0.73463000  1.0
  H  H30  1  0.24416000  0.02977000  0.73462000  1.0
  H  H31  1  0.75584000  0.02976000  0.76538000  1.0
  H  H32  1  0.18549000  0.67583000  0.45959000  1.0
  H  H33  1  0.81451000  0.67582000  0.04041000  1.0
  H  H34  1  0.68549000  0.82418000  0.04041000  1.0
  H  H35  1  0.31451000  0.82417000  0.45959000  1.0
  H  H36  1  0.81452000  0.32418000  0.54041000  1.0
  H  H37  1  0.18549000  0.32417000  0.95959000  1.0
  H  H38  1  0.31451000  0.17582000  0.95959000  1.0
  H  H39  1  0.68549000  0.17582000  0.54042000  1.0
  H  H40  1  0.26094000  0.56699000  0.50064000  1.0
  H  H41  1  0.73906000  0.56699000  0.99936000  1.0
  H  H42  1  0.76094000  0.93301000  0.99936000  1.0
  H  H43  1  0.23906000  0.93301000  0.50064000  1.0
  H  H44  1  0.73907000  0.43301000  0.49936000  1.0
  H  H45  1  0.26094000  0.43301000  0.00064000  1.0
  H  H46  1  0.23906000  0.06699000  0.00064000  1.0
  H  H47  1  0.76094000  0.06699000  0.49936000  1.0
  H  H48  1  0.09166000  0.56955000  0.49014000  1.0
  H  H49  1  0.90834000  0.56955000  0.00986000  1.0
  H  H50  1  0.59166000  0.93045000  0.00986000  1.0
  H  H51  1  0.40834000  0.93045000  0.49014000  1.0
  H  H52  1  0.90835000  0.43045000  0.50986000  1.0
  H  H53  1  0.09166000  0.43045000  0.99014000  1.0
  H  H54  1  0.40834000  0.06955000  0.99014000  1.0
  H  H55  1  0.59166000  0.06955000  0.50986000  1.0
  H  H56  1  0.99320000  0.00990000  0.61966000  1.0
  H  H57  1  0.00680000  0.00989000  0.88034000  1.0
  H  H58  1  0.49320000  0.49011000  0.88034000  1.0
  H  H59  1  0.50681000  0.49011000  0.61966000  1.0
  H  H60  1  0.00679000  0.99011000  0.38034000  1.0
  H  H61  1  0.99320000  0.99011000  0.11966000  1.0
  H  H62  1  0.50680000  0.50989000  0.11966000  1.0
  H  H63  1  0.49320000  0.50990000  0.38034000  1.0
  H  H64  1  0.04734000  0.08131000  0.48708000  1.0
  H  H65  1  0.95266000  0.08130000  0.01292000  1.0
  H  H66  1  0.54733000  0.41869000  0.01291000  1.0
  H  H67  1  0.45266000  0.41869000  0.48708000  1.0
  H  H68  1  0.95266000  0.91869000  0.51291000  1.0
  H  H69  1  0.04734000  0.91869000  0.98709000  1.0
  H  H70  1  0.45266000  0.58130000  0.98708000  1.0
  H  H71  1  0.54734000  0.58131000  0.51292000  1.0
  H  H72  1  0.09767000  0.35815000  0.69181000  1.0
  H  H73  1  0.90233000  0.35814000  0.80819000  1.0
  H  H74  1  0.59766000  0.14185000  0.80819000  1.0
  H  H75  1  0.40234000  0.14186000  0.69181000  1.0
  H  H76  1  0.90233000  0.64185000  0.30819000  1.0
  H  H77  1  0.09767000  0.64186000  0.19181000  1.0
  H  H78  1  0.40233000  0.85815000  0.19181000  1.0
  H  H79  1  0.59767000  0.85815000  0.30819000  1.0
  H  H80  1  0.04906000  0.41947000  0.61433000  1.0
  H  H81  1  0.95094000  0.41946000  0.88567000  1.0
  H  H82  1  0.54906000  0.08053000  0.88567000  1.0
  H  H83  1  0.45094000  0.08054000  0.61433000  1.0
  H  H84  1  0.95094000  0.58053000  0.38567000  1.0
  H  H85  1  0.04906000  0.58054000  0.11433000  1.0
  H  H86  1  0.45094000  0.91947000  0.11432000  1.0
  H  H87  1  0.54906000  0.91947000  0.38567000  1.0
  H  H88  1  0.21116000  0.37894000  0.62459000  1.0
  H  H89  1  0.78884000  0.37894000  0.87541000  1.0
  H  H90  1  0.71116000  0.12106000  0.87541000  1.0
  H  H91  1  0.28884000  0.12107000  0.62459000  1.0
  H  H92  1  0.78884000  0.62106000  0.37541000  1.0
  H  H93  1  0.21116000  0.62106000  0.12459000  1.0
  H  H94  1  0.28884000  0.87894000  0.12459000  1.0
  H  H95  1  0.71116000  0.87894000  0.37541000  1.0
  C  C96  1  0.19763000  0.53837000  0.39720000  1.0
  C  C97  1  0.80237000  0.53837000  0.10280000  1.0
  C  C98  1  0.69763000  0.96163000  0.10280000  1.0
  C  C99  1  0.30237000  0.96163000  0.39720000  1.0
  C  C100  1  0.80237000  0.46163000  0.60280000  1.0
  C  C101  1  0.19763000  0.46163000  0.89720000  1.0
  C  C102  1  0.30237000  0.03837000  0.89720000  1.0
  C  C103  1  0.69763000  0.03837000  0.60280000  1.0
  C  C104  1  0.21197000  0.41568000  0.31853000  1.0
  C  C105  1  0.78804000  0.41568000  0.18147000  1.0
  C  C106  1  0.71197000  0.08432000  0.18147000  1.0
  C  C107  1  0.28803000  0.08432000  0.31853000  1.0
  C  C108  1  0.78803000  0.58432000  0.68147000  1.0
  C  C109  1  0.21197000  0.58432000  0.81853000  1.0
  C  C110  1  0.28803000  0.91568000  0.81853000  1.0
  C  C111  1  0.71197000  0.91568000  0.68147000  1.0
  C  C112  1  0.23412000  0.51120000  0.28771000  1.0
  C  C113  1  0.76588000  0.51120000  0.21229000  1.0
  C  C114  1  0.73412000  0.98880000  0.21229000  1.0
  C  C115  1  0.26588000  0.98880000  0.28771000  1.0
  C  C116  1  0.76588000  0.48880000  0.71229000  1.0
  C  C117  1  0.23412000  0.48880000  0.78771000  1.0
  C  C118  1  0.26587000  0.01120000  0.78771000  1.0
  C  C119  1  0.73412000  0.01120000  0.71229000  1.0
  C  C120  1  0.18336000  0.59021000  0.46540000  1.0
  C  C121  1  0.81664000  0.59021000  0.03460000  1.0
  C  C122  1  0.68336000  0.90979000  0.03460000  1.0
  C  C123  1  0.31664000  0.90979000  0.46540000  1.0
  C  C124  1  0.81664000  0.40979000  0.53460000  1.0
  C  C125  1  0.18336000  0.40979000  0.96540000  1.0
  C  C126  1  0.31664000  0.09021000  0.96540000  1.0
  C  C127  1  0.68336000  0.09021000  0.53461000  1.0
  C  C128  1  0.07878000  0.25262000  0.60775000  1.0
  C  C129  1  0.92123000  0.25261000  0.89225000  1.0
  C  C130  1  0.57877000  0.24738000  0.89225000  1.0
  C  C131  1  0.42123000  0.24739000  0.60775000  1.0
  C  C132  1  0.92122000  0.74738000  0.39225000  1.0
  C  C133  1  0.07878000  0.74739000  0.10775000  1.0
  C  C134  1  0.42123000  0.75261000  0.10775000  1.0
  C  C135  1  0.57878000  0.75262000  0.39225000  1.0
  C  C136  1  0.02500000  0.08613000  0.60152000  1.0
  C  C137  1  0.97500000  0.08612000  0.89848000  1.0
  C  C138  1  0.52500000  0.41388000  0.89848000  1.0
  C  C139  1  0.47501000  0.41388000  0.60152000  1.0
  C  C140  1  0.97499000  0.91388000  0.39847000  1.0
  C  C141  1  0.02500000  0.91388000  0.10152000  1.0
  C  C142  1  0.47500000  0.58612000  0.10152000  1.0
  C  C143  1  0.52500000  0.58613000  0.39848000  1.0
  C  C144  1  0.04994000  0.12180000  0.53604000  1.0
  C  C145  1  0.95006000  0.12179000  0.96396000  1.0
  C  C146  1  0.54994000  0.37820000  0.96396000  1.0
  C  C147  1  0.45007000  0.37821000  0.53604000  1.0
  C  C148  1  0.95006000  0.87820000  0.46396000  1.0
  C  C149  1  0.04994000  0.87821000  0.03604000  1.0
  C  C150  1  0.45006000  0.62179000  0.03604000  1.0
  C  C151  1  0.54994000  0.62180000  0.46396000  1.0
  C  C152  1  0.11097000  0.35788000  0.63583000  1.0
  C  C153  1  0.88903000  0.35787000  0.86417000  1.0
  C  C154  1  0.61097000  0.14212000  0.86417000  1.0
  C  C155  1  0.38903000  0.14213000  0.63583000  1.0
  C  C156  1  0.88903000  0.64212000  0.36417000  1.0
  C  C157  1  0.11097000  0.64213000  0.13583000  1.0
  C  C158  1  0.38903000  0.85788000  0.13583000  1.0
  C  C159  1  0.61097000  0.85788000  0.36417000  1.0
  N  N160  1  0.22411000  0.58824000  0.33743000  1.0
  N  N161  1  0.77589000  0.58824000  0.16257000  1.0
  N  N162  1  0.72411000  0.91176000  0.16257000  1.0
  N  N163  1  0.27589000  0.91176000  0.33744000  1.0
  N  N164  1  0.77589000  0.41176000  0.66257000  1.0
  N  N165  1  0.22411000  0.41176000  0.83744000  1.0
  N  N166  1  0.27589000  0.08823000  0.83743000  1.0
  N  N167  1  0.72411000  0.08824000  0.66257000  1.0
  N  N168  1  0.18878000  0.43335000  0.38749000  1.0
  N  N169  1  0.81123000  0.43335000  0.11250000  1.0
  N  N170  1  0.68878000  0.06665000  0.11251000  1.0
  N  N171  1  0.31122000  0.06665000  0.38750000  1.0
  N  N172  1  0.81122000  0.56665000  0.61250000  1.0
  N  N173  1  0.18878000  0.56665000  0.88750000  1.0
  N  N174  1  0.31122000  0.93334000  0.88749000  1.0
  N  N175  1  0.68878000  0.93335000  0.61251000  1.0
  N  N176  1  0.08318000  0.22661000  0.54045000  1.0
  N  N177  1  0.91682000  0.22660000  0.95955000  1.0
  N  N178  1  0.58317000  0.27339000  0.95955000  1.0
  N  N179  1  0.41682000  0.27339000  0.54045000  1.0
  N  N180  1  0.91682000  0.77339000  0.45955000  1.0
  N  N181  1  0.08318000  0.77340000  0.04045000  1.0
  N  N182  1  0.41682000  0.72661000  0.04045000  1.0
  N  N183  1  0.58318000  0.72661000  0.45955000  1.0
  N  N184  1  0.04351000  0.16904000  0.64637000  1.0
  N  N185  1  0.95649000  0.16904000  0.85362000  1.0
  N  N186  1  0.54351000  0.33096000  0.85363000  1.0
  N  N187  1  0.45650000  0.33096000  0.64637000  1.0
  N  N188  1  0.95648000  0.83096000  0.35362000  1.0
  N  N189  1  0.04350000  0.83096000  0.14638000  1.0
  N  N190  1  0.45649000  0.66904000  0.14637000  1.0
  N  N191  1  0.54351000  0.66905000  0.35363000  1.0
