# generated using pymatgen
data_CdH15C13N11
_symmetry_space_group_name_H-M   'P 1'
_cell_length_a   9.53699000
_cell_length_b   9.83831000
_cell_length_c   9.85363000
_cell_angle_alpha   73.03540000
_cell_angle_beta   86.62530000
_cell_angle_gamma   68.91600000
_symmetry_Int_Tables_number   1
_chemical_formula_structural   CdH15C13N11
_chemical_formula_sum   'Cd2 H30 C26 N22'
_cell_volume   824.01095550
_cell_formula_units_Z   2
loop_
 _symmetry_equiv_pos_site_id
 _symmetry_equiv_pos_as_xyz
  1  'x, y, z'
loop_
 _atom_site_type_symbol
 _atom_site_label
 _atom_site_symmetry_multiplicity
 _atom_site_fract_x
 _atom_site_fract_y
 _atom_site_fract_z
 _atom_site_occupancy
  Cd  Cd0  1  0.82087000  0.31545000  0.88501000  1.0
  Cd  Cd1  1  0.17913000  0.68455000  0.11499000  1.0
  H  H2  1  0.84506000  0.90088000  0.92236000  1.0
  H  H3  1  0.15494000  0.09912000  0.07764000  1.0
  H  H4  1  0.75058000  0.69969000  0.90802000  1.0
  H  H5  1  0.24942000  0.30031000  0.09198000  1.0
  H  H6  1  0.49312000  0.76033000  0.82412000  1.0
  H  H7  1  0.50688000  0.23967000  0.17589000  1.0
  H  H8  1  0.30812000  0.02786000  0.75632000  1.0
  H  H9  1  0.69189000  0.97214000  0.24368000  1.0
  H  H10  1  0.17956000  0.30975000  0.78764000  1.0
  H  H11  1  0.82044000  0.69025000  0.21235000  1.0
  H  H12  1  0.23582000  0.46928000  0.76358000  1.0
  H  H13  1  0.76417000  0.53072000  0.23642000  1.0
  H  H14  1  0.13980000  0.22976000  0.57970000  1.0
  H  H15  1  0.86020000  0.77024000  0.42029000  1.0
  H  H16  1  0.12276000  0.36844000  0.28723000  1.0
  H  H17  1  0.87724000  0.63156000  0.71276000  1.0
  H  H18  1  0.38131000  0.58047000  0.59868000  1.0
  H  H19  1  0.61869000  0.41953000  0.40132000  1.0
  H  H20  1  0.36400000  0.67301000  0.41517000  1.0
  H  H21  1  0.63600000  0.32700000  0.58483000  1.0
  H  H22  1  0.11745000  0.74129000  0.62661000  1.0
  H  H23  1  0.88255000  0.25870000  0.37340000  1.0
  H  H24  1  0.08942000  0.82191000  0.44002000  1.0
  H  H25  1  0.91057000  0.17809000  0.55998000  1.0
  H  H26  1  0.14605000  0.99135000  0.56397000  1.0
  H  H27  1  0.85395000  0.00864000  0.43604000  1.0
  H  H28  1  0.28069000  0.94180000  0.43783000  1.0
  H  H29  1  0.71931000  0.05820000  0.56218000  1.0
  H  H30  1  0.32543000  0.84834000  0.62186000  1.0
  H  H31  1  0.67457000  0.15166000  0.37815000  1.0
  C  C32  1  0.62610000  0.08016000  0.84656000  1.0
  C  C33  1  0.37390000  0.91984000  0.15345000  1.0
  C  C34  1  0.72952000  0.92986000  0.88571000  1.0
  C  C35  1  0.27048000  0.07015000  0.11429000  1.0
  C  C36  1  0.67672000  0.81853000  0.87628000  1.0
  C  C37  1  0.32328000  0.18147000  0.12372000  1.0
  C  C38  1  0.52726000  0.85325000  0.82878000  1.0
  C  C39  1  0.47274000  0.14675000  0.17123000  1.0
  C  C40  1  0.42370000  0.00093000  0.79047000  1.0
  C  C41  1  0.57630000  0.99907000  0.20953000  1.0
  C  C42  1  0.47639000  0.11317000  0.80116000  1.0
  C  C43  1  0.52361000  0.88683000  0.19885000  1.0
  C  C44  1  0.25506000  0.36678000  0.73150000  1.0
  C  C45  1  0.74494000  0.63322000  0.26850000  1.0
  C  C46  1  0.17023000  0.32439000  0.51644000  1.0
  C  C47  1  0.82977000  0.67561000  0.48355000  1.0
  C  C48  1  0.16119000  0.39522000  0.37385000  1.0
  C  C49  1  0.83881000  0.60478000  0.62614000  1.0
  C  C50  1  0.24777000  0.52156000  0.47584000  1.0
  C  C51  1  0.75223000  0.47844000  0.52415000  1.0
  C  C52  1  0.30119000  0.63517000  0.50571000  1.0
  C  C53  1  0.69881000  0.36483000  0.49429000  1.0
  C  C54  1  0.17409000  0.77539000  0.52881000  1.0
  C  C55  1  0.82590000  0.22461000  0.47120000  1.0
  C  C56  1  0.23504000  0.89593000  0.53857000  1.0
  C  C57  1  0.76496000  0.10406000  0.46143000  1.0
  N  N58  1  0.20895000  0.51739000  0.34933000  1.0
  N  N59  1  0.79105000  0.48262000  0.65066000  1.0
  N  N60  1  0.22495000  0.40492000  0.58002000  1.0
  N  N61  1  0.77506000  0.59507000  0.41997000  1.0
  N  N62  1  0.40977000  0.26767000  0.77610000  1.0
  N  N63  1  0.59023000  0.73233000  0.22389000  1.0
  N  N64  1  0.50886000  0.32725000  0.80204000  1.0
  N  N65  1  0.49113000  0.67275000  0.19796000  1.0
  N  N66  1  0.63823000  0.21649000  0.84423000  1.0
  N  N67  1  0.36176000  0.78352000  0.15577000  1.0
  N  N68  1  0.03063000  0.13412000  0.80525000  1.0
  N  N69  1  0.96937000  0.86587000  0.19476000  1.0
  N  N70  1  0.06833000  0.99915000  0.84747000  1.0
  N  N71  1  0.93167000  0.00084000  0.15253000  1.0
  N  N72  1  0.10838000  0.86484000  0.88290000  1.0
  N  N73  1  0.89162000  0.13516000  0.11710000  1.0
  N  N74  1  0.62945000  0.48011000  0.98685000  1.0
  N  N75  1  0.37055000  0.51989000  0.01315000  1.0
  N  N76  1  0.50001000  0.50000000  0.00000000  1.0
  N  N77  1  0.98951000  0.42380000  0.93075000  1.0
  N  N78  1  0.01049000  0.57620000  0.06925000  1.0
  N  N79  1  0.00000000  0.50001000  0.00000000  1.0
