# generated using pymatgen
data_CoH30C32(NO)4
_symmetry_space_group_name_H-M   'P 1'
_cell_length_a   8.57905000
_cell_length_b   8.81693000
_cell_length_c   10.34360000
_cell_angle_alpha   79.22480000
_cell_angle_beta   74.73640000
_cell_angle_gamma   64.68300000
_symmetry_Int_Tables_number   1
_chemical_formula_structural   CoH30C32(NO)4
_chemical_formula_sum   'Co1 H30 C32 N4 O4'
_cell_volume   679.81935850
_cell_formula_units_Z   1
loop_
 _symmetry_equiv_pos_site_id
 _symmetry_equiv_pos_as_xyz
  1  'x, y, z'
loop_
 _atom_site_type_symbol
 _atom_site_label
 _atom_site_symmetry_multiplicity
 _atom_site_fract_x
 _atom_site_fract_y
 _atom_site_fract_z
 _atom_site_occupancy
  Co  Co0  1  0.00000000  0.50000000  0.50000000  1.0
  H  H1  1  0.89365000  0.22986000  0.14232000  1.0
  H  H2  1  0.10636000  0.77013000  0.85768000  1.0
  H  H3  1  0.42491000  0.59373000  0.36423000  1.0
  H  H4  1  0.57508000  0.40626000  0.63577000  1.0
  H  H5  1  0.62142000  0.66142000  0.46494000  1.0
  H  H6  1  0.37857000  0.33858000  0.53506000  1.0
  H  H7  1  0.38706000  0.42364000  0.22950000  1.0
  H  H8  1  0.61294000  0.57635000  0.77050000  1.0
  H  H9  1  0.77547000  0.92857000  0.12651000  1.0
  H  H10  1  0.22453000  0.07142000  0.87349000  1.0
  H  H11  1  0.29447000  0.44554000  0.04099000  1.0
  H  H12  1  0.70553000  0.55445000  0.95901000  1.0
  H  H13  1  0.07031000  0.31617000  0.24947000  1.0
  H  H14  1  0.92969000  0.68383000  0.75053000  1.0
  H  H15  1  0.87595000  0.63208000  0.07575000  1.0
  H  H16  1  0.12406000  0.36791000  0.92425000  1.0
  H  H17  1  0.87819000  0.02119000  0.35772000  1.0
  H  H18  1  0.12181000  0.97882000  0.64228000  1.0
  H  H19  1  0.29549000  0.77488000  0.18982000  1.0
  H  H20  1  0.70451000  0.22513000  0.81018000  1.0
  H  H21  1  0.10331000  0.95936000  0.16839000  1.0
  H  H22  1  0.89669000  0.04065000  0.83161000  1.0
  H  H23  1  0.14656000  0.76820000  0.10471000  1.0
  H  H24  1  0.85344000  0.23181000  0.89529000  1.0
  H  H25  1  0.53341000  0.97942000  0.61809000  1.0
  H  H26  1  0.46659000  0.02059000  0.38191000  1.0
  H  H27  1  0.64015000  0.11793000  0.53406000  1.0
  H  H28  1  0.35985000  0.88208000  0.46594000  1.0
  H  H29  1  0.69488000  0.99359000  0.68524000  1.0
  H  H30  1  0.30512000  0.00642000  0.31476000  1.0
  C  C31  1  0.64319000  0.40133000  0.24837000  1.0
  C  C32  1  0.35681000  0.59866000  0.75163000  1.0
  C  C33  1  0.82879000  0.32444000  0.21495000  1.0
  C  C34  1  0.17121000  0.67556000  0.78505000  1.0
  C  C35  1  0.48964000  0.19335000  0.06250000  1.0
  C  C36  1  0.51036000  0.80664000  0.93750000  1.0
  C  C37  1  0.54974000  0.02137000  0.03393000  1.0
  C  C38  1  0.45026000  0.97862000  0.96606000  1.0
  C  C39  1  0.56762000  0.52830000  0.33734000  1.0
  C  C40  1  0.43238000  0.47169000  0.66266000  1.0
  C  C41  1  0.67550000  0.56688000  0.39282000  1.0
  C  C42  1  0.32450000  0.43312000  0.60718000  1.0
  C  C43  1  0.53016000  0.35398000  0.19620000  1.0
  C  C44  1  0.46984000  0.64601000  0.80380000  1.0
  C  C45  1  0.80092000  0.85368000  0.51190000  1.0
  C  C46  1  0.19908000  0.14633000  0.48810000  1.0
  C  C47  1  0.70371000  0.89414000  0.07262000  1.0
  C  C48  1  0.29629000  0.10586000  0.92738000  1.0
  C  C49  1  0.33650000  0.31429000  0.02341000  1.0
  C  C50  1  0.66351000  0.68571000  0.97660000  1.0
  C  C51  1  0.92675000  0.37193000  0.27367000  1.0
  C  C52  1  0.07325000  0.62807000  0.72634000  1.0
  C  C53  1  0.05604000  0.76799000  0.31907000  1.0
  C  C54  1  0.94396000  0.23202000  0.68093000  1.0
  C  C55  1  0.75897000  0.72987000  0.04378000  1.0
  C  C56  1  0.24104000  0.27013000  0.95623000  1.0
  C  C57  1  0.90898000  0.88948000  0.39355000  1.0
  C  C58  1  0.09102000  0.11052000  0.60645000  1.0
  C  C59  1  0.15471000  0.82229000  0.18904000  1.0
  C  C60  1  0.84529000  0.17772000  0.81096000  1.0
  C  C61  1  0.65843000  0.99545000  0.59044000  1.0
  C  C62  1  0.34157000  0.00456000  0.40956000  1.0
  N  N63  1  0.85240000  0.48949000  0.36389000  1.0
  N  N64  1  0.14760000  0.51051000  0.63611000  1.0
  N  N65  1  0.59691000  0.23180000  0.11932000  1.0
  N  N66  1  0.40309000  0.76820000  0.88068000  1.0
  O  O67  1  0.81368000  0.70497000  0.56347000  1.0
  O  O68  1  0.18632000  0.29504000  0.43653000  1.0
  O  O69  1  0.11706000  0.60834000  0.35235000  1.0
  O  O70  1  0.88294000  0.39167000  0.64765000  1.0
