# generated using pymatgen
data_AlH9C27(NO3)6
_symmetry_space_group_name_H-M   'P 1'
_cell_length_a   4.24780000
_cell_length_b   16.11810000
_cell_length_c   16.11830000
_cell_angle_alpha   119.87600000
_cell_angle_beta   90.93390000
_cell_angle_gamma   90.93570000
_symmetry_Int_Tables_number   1
_chemical_formula_structural   AlH9C27(NO3)6
_chemical_formula_sum   'Al1 H9 C27 N6 O18'
_cell_volume   956.39792201
_cell_formula_units_Z   1
loop_
 _symmetry_equiv_pos_site_id
 _symmetry_equiv_pos_as_xyz
  1  'x, y, z'
loop_
 _atom_site_type_symbol
 _atom_site_label
 _atom_site_symmetry_multiplicity
 _atom_site_fract_x
 _atom_site_fract_y
 _atom_site_fract_z
 _atom_site_occupancy
  Al  Al0  1  0.99999000  0.49932000  0.50057000  1.0
  H  H1  1  0.50003000  0.92187000  0.07801000  1.0
  H  H2  1  0.48671000  0.65506000  0.07795000  1.0
  H  H3  1  0.51318000  0.92193000  0.34482000  1.0
  H  H4  1  0.76866000  0.05975000  0.16845000  1.0
  H  H5  1  0.21180000  0.05202000  0.38753000  1.0
  H  H6  1  0.23141000  0.83146000  0.94014000  1.0
  H  H7  1  0.78808000  0.61234000  0.94788000  1.0
  H  H8  1  0.73506000  0.60479000  0.16191000  1.0
  H  H9  1  0.26486000  0.83801000  0.39511000  1.0
  C  C10  1  0.51527000  0.57226000  0.64633000  1.0
  C  C11  1  0.49999000  0.57215000  0.42777000  1.0
  C  C12  1  0.48473000  0.35357000  0.42761000  1.0
  C  C13  1  0.50336000  0.78257000  0.06634000  1.0
  C  C14  1  0.50007000  0.88280000  0.11709000  1.0
  C  C15  1  0.49665000  0.93354000  0.21731000  1.0
  C  C16  1  0.50028000  0.88257000  0.26680000  1.0
  C  C17  1  0.49994000  0.78218000  0.21769000  1.0
  C  C18  1  0.49964000  0.73309000  0.11732000  1.0
  C  C19  1  0.63062000  0.19243000  0.28461000  1.0
  C  C20  1  0.64017000  0.09319000  0.23470000  1.0
  C  C21  1  0.49202000  0.03925000  0.26990000  1.0
  C  C22  1  0.33696000  0.08905000  0.35654000  1.0
  C  C23  1  0.33651000  0.18847000  0.40576000  1.0
  C  C24  1  0.48197000  0.24455000  0.37237000  1.0
  C  C25  1  0.35986000  0.76519000  0.90670000  1.0
  C  C26  1  0.36947000  0.71528000  0.80745000  1.0
  C  C27  1  0.51803000  0.62750000  0.75534000  1.0
  C  C28  1  0.66341000  0.59410000  0.81143000  1.0
  C  C29  1  0.66297000  0.64334000  0.91084000  1.0
  C  C30  1  0.50796000  0.72999000  0.96064000  1.0
  C  C31  1  0.62942000  0.63848000  0.23198000  1.0
  C  C32  1  0.63078000  0.58978000  0.28281000  1.0
  C  C33  1  0.49994000  0.62617000  0.37376000  1.0
  C  C34  1  0.36912000  0.71713000  0.41014000  1.0
  C  C35  1  0.37050000  0.76794000  0.36142000  1.0
  C  C36  1  0.49994000  0.72925000  0.27066000  1.0
  N  N37  1  0.17703000  0.23459000  0.49863000  1.0
  N  N38  1  0.78415000  0.24295000  0.23984000  1.0
  N  N39  1  0.21605000  0.76006000  0.75692000  1.0
  N  N40  1  0.82288000  0.50123000  0.76532000  1.0
  N  N41  1  0.77114000  0.49341000  0.22889000  1.0
  N  N42  1  0.22878000  0.77106000  0.50651000  1.0
  O  O43  1  0.24485000  0.39234000  0.41561000  1.0
  O  O44  1  0.27169000  0.52062000  0.60648000  1.0
  O  O45  1  0.26790000  0.58364000  0.48043000  1.0
  O  O46  1  0.72826000  0.39342000  0.47926000  1.0
  O  O47  1  0.73207000  0.51950000  0.41628000  1.0
  O  O48  1  0.75511000  0.58427000  0.60755000  1.0
  O  O49  1  0.25354000  0.31837000  0.55570000  1.0
  O  O50  1  0.98062000  0.18501000  0.51223000  1.0
  O  O51  1  0.69835000  0.32468000  0.26571000  1.0
  O  O52  1  0.98446000  0.19906000  0.17923000  1.0
  O  O53  1  0.30191000  0.73415000  0.67519000  1.0
  O  O54  1  0.01577000  0.82067000  0.80079000  1.0
  O  O55  1  0.74641000  0.44416000  0.68153000  1.0
  O  O56  1  0.01925000  0.48763000  0.81491000  1.0
  O  O57  1  0.03240000  0.48209000  0.25518000  1.0
  O  O58  1  0.61889000  0.43425000  0.15710000  1.0
  O  O59  1  0.96756000  0.74475000  0.51785000  1.0
  O  O60  1  0.38101000  0.84286000  0.56565000  1.0
