# generated using pymatgen
data_SmH7C11N3O7
_symmetry_space_group_name_H-M   'P 1'
_cell_length_a   6.79540000
_cell_length_b   14.55680000
_cell_length_c   14.84100000
_cell_angle_alpha   69.84100000
_cell_angle_beta   76.80960000
_cell_angle_gamma   76.54740000
_symmetry_Int_Tables_number   1
_chemical_formula_structural   SmH7C11N3O7
_chemical_formula_sum   'Sm4 H28 C44 N12 O28'
_cell_volume   1322.58421089
_cell_formula_units_Z   4
loop_
 _symmetry_equiv_pos_site_id
 _symmetry_equiv_pos_as_xyz
  1  'x, y, z'
loop_
 _atom_site_type_symbol
 _atom_site_label
 _atom_site_symmetry_multiplicity
 _atom_site_fract_x
 _atom_site_fract_y
 _atom_site_fract_z
 _atom_site_occupancy
  Sm  Sm0  1  0.68110000  0.55625000  0.85963000  1.0
  Sm  Sm1  1  0.09717000  0.94378000  0.64041000  1.0
  Sm  Sm2  1  0.31890000  0.44375000  0.14037000  1.0
  Sm  Sm3  1  0.90284000  0.05622000  0.35959000  1.0
  H  H4  1  0.26128000  0.61085000  0.89585000  1.0
  H  H5  1  0.76789000  0.88922000  0.60414000  1.0
  H  H6  1  0.73873000  0.38915000  0.10415000  1.0
  H  H7  1  0.23211000  0.11079000  0.39586000  1.0
  H  H8  1  0.20462000  0.57976000  0.81428000  1.0
  H  H9  1  0.59896000  0.92018000  0.68579000  1.0
  H  H10  1  0.79539000  0.42023000  0.18572000  1.0
  H  H11  1  0.40105000  0.07982000  0.31421000  1.0
  H  H12  1  0.31527000  0.97332000  0.85895000  1.0
  H  H13  1  0.14732000  0.52660000  0.64109000  1.0
  H  H14  1  0.68472000  0.02668000  0.14105000  1.0
  H  H15  1  0.85268000  0.47340000  0.35891000  1.0
  H  H16  1  0.29199000  0.10612000  0.90314000  1.0
  H  H17  1  0.30080000  0.39387000  0.59693000  1.0
  H  H18  1  0.70800000  0.89388000  0.09686000  1.0
  H  H19  1  0.69919000  0.60613000  0.40307000  1.0
  H  H20  1  0.13864000  0.91712000  0.19835000  1.0
  H  H21  1  0.25485000  0.58289000  0.30164000  1.0
  H  H22  1  0.86136000  0.08288000  0.80165000  1.0
  H  H23  1  0.74514000  0.41712000  0.69836000  1.0
  H  H24  1  0.17535000  0.25151000  0.96637000  1.0
  H  H25  1  0.39305000  0.24851000  0.53367000  1.0
  H  H26  1  0.82465000  0.74849000  0.03363000  1.0
  H  H27  1  0.60695000  0.75150000  0.46633000  1.0
  H  H28  1  0.04989000  0.22241000  0.14308000  1.0
  H  H29  1  0.41549000  0.27759000  0.35690000  1.0
  H  H30  1  0.95012000  0.77759000  0.85692000  1.0
  H  H31  1  0.58452000  0.72242000  0.64310000  1.0
  C  C32  1  0.95776000  0.54970000  0.01190000  1.0
  C  C33  1  0.51912000  0.95029000  0.48813000  1.0
  C  C34  1  0.04224000  0.45030000  0.98808000  1.0
  C  C35  1  0.48090000  0.04971000  0.51187000  1.0
  C  C36  1  0.38262000  0.64949000  0.05347000  1.0
  C  C37  1  0.08512000  0.85045000  0.44662000  1.0
  C  C38  1  0.61739000  0.35051000  0.94653000  1.0
  C  C39  1  0.91489000  0.14955000  0.55338000  1.0
  C  C40  1  0.43362000  0.80653000  0.81658000  1.0
  C  C41  1  0.05646000  0.69339000  0.68352000  1.0
  C  C42  1  0.56640000  0.19346000  0.18342000  1.0
  C  C43  1  0.94355000  0.30660000  0.31648000  1.0
  C  C44  1  0.36624000  0.75846000  0.01266000  1.0
  C  C45  1  0.13698000  0.74149000  0.48745000  1.0
  C  C46  1  0.63376000  0.24154000  0.98734000  1.0
  C  C47  1  0.86302000  0.25851000  0.51255000  1.0
  C  C48  1  0.38186000  0.81837000  0.91491000  1.0
  C  C49  1  0.11485000  0.68156000  0.58520000  1.0
  C  C50  1  0.61814000  0.18163000  0.08509000  1.0
  C  C51  1  0.88515000  0.31844000  0.41480000  1.0
  C  C52  1  0.28433000  0.91058000  0.01510000  1.0
  C  C53  1  0.20989000  0.58939000  0.48496000  1.0
  C  C54  1  0.71566000  0.08942000  0.98490000  1.0
  C  C55  1  0.79010000  0.41061000  0.51504000  1.0
  C  C56  1  0.22251000  0.99908000  0.04624000  1.0
  C  C57  1  0.26797000  0.50090000  0.45378000  1.0
  C  C58  1  0.77748000  0.00092000  0.95376000  1.0
  C  C59  1  0.73201000  0.49910000  0.54622000  1.0
  C  C60  1  0.23232000  0.09462000  0.98027000  1.0
  C  C61  1  0.30710000  0.40537000  0.51978000  1.0
  C  C62  1  0.76767000  0.90538000  0.01974000  1.0
  C  C63  1  0.69290000  0.59463000  0.48022000  1.0
  C  C64  1  0.14752000  0.99010000  0.14478000  1.0
  C  C65  1  0.28293000  0.50989000  0.35520000  1.0
  C  C66  1  0.85248000  0.00990000  0.85522000  1.0
  C  C67  1  0.71706000  0.49011000  0.64480000  1.0
  C  C68  1  0.16918000  0.17611000  0.01447000  1.0
  C  C69  1  0.35965000  0.32390000  0.48554000  1.0
  C  C70  1  0.83082000  0.82389000  0.98553000  1.0
  C  C71  1  0.64034000  0.67610000  0.51446000  1.0
  C  C72  1  0.09743000  0.16036000  0.11344000  1.0
  C  C73  1  0.37141000  0.33965000  0.38652000  1.0
  C  C74  1  0.90256000  0.83964000  0.88656000  1.0
  C  C75  1  0.62859000  0.66035000  0.61348000  1.0
  N  N76  1  0.08508000  0.06916000  0.17774000  1.0
  N  N77  1  0.33251000  0.43084000  0.32221000  1.0
  N  N78  1  0.91492000  0.93084000  0.82227000  1.0
  N  N79  1  0.66748000  0.56916000  0.67779000  1.0
  N  N80  1  0.30544000  0.81678000  0.07282000  1.0
  N  N81  1  0.19474000  0.68320000  0.42727000  1.0
  N  N82  1  0.69455000  0.18322000  0.92718000  1.0
  N  N83  1  0.80525000  0.31680000  0.57273000  1.0
  N  N84  1  0.32753000  0.91368000  0.91963000  1.0
  N  N85  1  0.16065000  0.58626000  0.58044000  1.0
  N  N86  1  0.67247000  0.08632000  0.08037000  1.0
  N  N87  1  0.83935000  0.41374000  0.41956000  1.0
  O  O88  1  0.83268000  0.61222000  0.95997000  1.0
  O  O89  1  0.40454000  0.88779000  0.54010000  1.0
  O  O90  1  0.16732000  0.38777000  0.04003000  1.0
  O  O91  1  0.59546000  0.11220000  0.45990000  1.0
  O  O92  1  0.42309000  0.59625000  0.99527000  1.0
  O  O93  1  0.01428000  0.90372000  0.50477000  1.0
  O  O94  1  0.57691000  0.40375000  0.00473000  1.0
  O  O95  1  0.98573000  0.09628000  0.49523000  1.0
  O  O96  1  0.54577000  0.72954000  0.80145000  1.0
  O  O97  1  0.07650000  0.77042000  0.69869000  1.0
  O  O98  1  0.45423000  0.27046000  0.19854000  1.0
  O  O99  1  0.92350000  0.22958000  0.30131000  1.0
  O  O100  1  0.31467000  0.57097000  0.85167000  1.0
  O  O101  1  0.73750000  0.92900000  0.64841000  1.0
  O  O102  1  0.68533000  0.42903000  0.14833000  1.0
  O  O103  1  0.26250000  0.07100000  0.35159000  1.0
  O  O104  1  0.02401000  0.56138000  0.07968000  1.0
  O  O105  1  0.66449000  0.93859000  0.42034000  1.0
  O  O106  1  0.97599000  0.43862000  0.92032000  1.0
  O  O107  1  0.33552000  0.06141000  0.57966000  1.0
  O  O108  1  0.34449000  0.60922000  0.14415000  1.0
  O  O109  1  0.09729000  0.89068000  0.35593000  1.0
  O  O110  1  0.65553000  0.39077000  0.85585000  1.0
  O  O111  1  0.90272000  0.10932000  0.64407000  1.0
  O  O112  1  0.36500000  0.88308000  0.74896000  1.0
  O  O113  1  0.99685000  0.61682000  0.75111000  1.0
  O  O114  1  0.63500000  0.11692000  0.25105000  1.0
  O  O115  1  0.00316000  0.38318000  0.24888000  1.0
