# generated using pymatgen
data_NdH21C17NO7
_symmetry_space_group_name_H-M   'P 1'
_cell_length_a   8.30028000
_cell_length_b   10.39790000
_cell_length_c   11.78610000
_cell_angle_alpha   108.45400000
_cell_angle_beta   107.02100000
_cell_angle_gamma   97.25450000
_symmetry_Int_Tables_number   1
_chemical_formula_structural   NdH21C17NO7
_chemical_formula_sum   'Nd2 H42 C34 N2 O14'
_cell_volume   895.35242547
_cell_formula_units_Z   2
loop_
 _symmetry_equiv_pos_site_id
 _symmetry_equiv_pos_as_xyz
  1  'x, y, z'
loop_
 _atom_site_type_symbol
 _atom_site_label
 _atom_site_symmetry_multiplicity
 _atom_site_fract_x
 _atom_site_fract_y
 _atom_site_fract_z
 _atom_site_occupancy
  Nd  Nd0  1  0.58446000  0.92436000  0.84555000  1.0
  Nd  Nd1  1  0.41554000  0.07564000  0.15445000  1.0
  H  H2  1  0.96924000  0.60781000  0.91767000  1.0
  H  H3  1  0.03076000  0.39220000  0.08234000  1.0
  H  H4  1  0.62144000  0.43081000  0.70702000  1.0
  H  H5  1  0.37856000  0.56920000  0.29299000  1.0
  H  H6  1  0.95332000  0.34746000  0.83969000  1.0
  H  H7  1  0.04668000  0.65254000  0.16032000  1.0
  H  H8  1  0.81475000  0.26125000  0.67529000  1.0
  H  H9  1  0.18525000  0.73875000  0.32472000  1.0
  H  H10  1  0.73491000  0.25199000  0.79538000  1.0
  H  H11  1  0.26510000  0.74802000  0.20463000  1.0
  H  H12  1  0.04939000  0.67234000  0.46566000  1.0
  H  H13  1  0.95061000  0.32765000  0.53435000  1.0
  H  H14  1  0.96213000  0.68112000  0.70354000  1.0
  H  H15  1  0.03785000  0.31887000  0.29645000  1.0
  H  H16  1  0.73410000  0.56006000  0.41446000  1.0
  H  H17  1  0.26590000  0.43994000  0.58554000  1.0
  H  H18  1  0.66123000  0.64062000  0.54266000  1.0
  H  H19  1  0.33877000  0.35938000  0.45733000  1.0
  H  H20  1  0.71593000  0.47977000  0.52381000  1.0
  H  H21  1  0.28406000  0.52022000  0.47618000  1.0
  H  H22  1  0.36076000  0.35373000  0.99915000  1.0
  H  H23  1  0.63924000  0.64627000  0.00085000  1.0
  H  H24  1  0.36208000  0.31404000  0.72996000  1.0
  H  H25  1  0.63792000  0.68596000  0.27004000  1.0
  H  H26  1  0.25857000  0.53704000  0.92550000  1.0
  H  H27  1  0.74143000  0.46296000  0.07450000  1.0
  H  H28  1  0.14440000  0.46671000  0.75666000  1.0
  H  H29  1  0.85560000  0.53328000  0.24334000  1.0
  H  H30  1  0.35654000  0.57108000  0.81830000  1.0
  H  H31  1  0.64346000  0.42892000  0.18170000  1.0
  H  H32  1  0.00701000  0.03028000  0.84997000  1.0
  H  H33  1  0.99299000  0.96972000  0.15003000  1.0
  H  H34  1  0.17550000  0.05804000  0.71555000  1.0
  H  H35  1  0.82449000  0.94196000  0.28445000  1.0
  H  H36  1  0.68980000  0.92716000  0.39652000  1.0
  H  H37  1  0.31019000  0.07283000  0.60348000  1.0
  H  H38  1  0.54215000  0.89944000  0.54325000  1.0
  H  H39  1  0.45786000  0.10056000  0.45675000  1.0
  H  H40  1  0.79272000  0.16329000  0.09463000  1.0
  H  H41  1  0.20728000  0.83672000  0.90537000  1.0
  H  H42  1  0.94221000  0.14403000  0.03547000  1.0
  H  H43  1  0.05779000  0.85598000  0.96454000  1.0
  C  C44  1  0.75513000  0.69742000  0.84319000  1.0
  C  C45  1  0.24488000  0.30259000  0.15681000  1.0
  C  C46  1  0.83689000  0.58072000  0.84960000  1.0
  C  C47  1  0.16312000  0.41929000  0.15040000  1.0
  C  C48  1  0.75271000  0.44767000  0.77373000  1.0
  C  C49  1  0.24728000  0.55233000  0.22628000  1.0
  C  C50  1  0.82016000  0.32208000  0.77235000  1.0
  C  C51  1  0.17984000  0.67793000  0.22766000  1.0
  C  C52  1  0.24122000  0.77219000  0.65860000  1.0
  C  C53  1  0.75878000  0.22781000  0.34140000  1.0
  C  C54  1  0.06612000  0.69435000  0.56592000  1.0
  C  C55  1  0.93388000  0.30564000  0.43409000  1.0
  C  C56  1  0.93408000  0.65523000  0.60126000  1.0
  C  C57  1  0.06591000  0.34477000  0.39874000  1.0
  C  C58  1  0.75304000  0.58065000  0.51506000  1.0
  C  C59  1  0.24695000  0.41934000  0.48494000  1.0
  C  C60  1  0.44197000  0.17852000  0.88859000  1.0
  C  C61  1  0.55802000  0.82148000  0.11142000  1.0
  C  C62  1  0.37999000  0.30766000  0.90876000  1.0
  C  C63  1  0.62000000  0.69234000  0.09124000  1.0
  C  C64  1  0.34172000  0.36495000  0.81960000  1.0
  C  C65  1  0.65828000  0.63505000  0.18040000  1.0
  C  C66  1  0.27195000  0.49143000  0.83216000  1.0
  C  C67  1  0.72805000  0.50857000  0.16784000  1.0
  C  C68  1  0.94047000  0.00768000  0.74870000  1.0
  C  C69  1  0.05952000  0.99232000  0.25130000  1.0
  C  C70  1  0.03520000  0.02452000  0.67268000  1.0
  C  C71  1  0.96479000  0.97548000  0.32731000  1.0
  C  C72  1  0.95068000  0.99401000  0.54206000  1.0
  C  C73  1  0.04932000  0.00598000  0.45793000  1.0
  C  C74  1  0.76855000  0.95038000  0.49571000  1.0
  C  C75  1  0.23145000  0.04962000  0.50429000  1.0
  C  C76  1  0.68319000  0.93563000  0.57790000  1.0
  C  C77  1  0.31682000  0.06437000  0.42210000  1.0
  N  N78  1  0.76616000  0.96244000  0.70298000  1.0
  N  N79  1  0.23384000  0.03756000  0.29702000  1.0
  O  O80  1  0.84525000  0.82461000  0.91217000  1.0
  O  O81  1  0.15475000  0.17540000  0.08783000  1.0
  O  O82  1  0.59743000  0.67529000  0.77226000  1.0
  O  O83  1  0.40258000  0.32472000  0.22774000  1.0
  O  O84  1  0.27534000  0.80624000  0.78019000  1.0
  O  O85  1  0.72467000  0.19375000  0.21981000  1.0
  O  O86  1  0.36042000  0.80777000  0.61849000  1.0
  O  O87  1  0.63957000  0.19223000  0.38151000  1.0
  O  O88  1  0.48667000  0.12518000  0.79243000  1.0
  O  O89  1  0.51333000  0.87482000  0.20757000  1.0
  O  O90  1  0.44664000  0.11605000  0.96812000  1.0
  O  O91  1  0.55337000  0.88395000  0.03188000  1.0
  O  O92  1  0.81301000  0.12926000  0.01205000  1.0
  O  O93  1  0.18699000  0.87075000  0.98795000  1.0
