# generated using pymatgen
data_ZnH12C22(NO3)2
_symmetry_space_group_name_H-M   'P 1'
_cell_length_a   14.78010000
_cell_length_b   15.65430000
_cell_length_c   16.21180000
_cell_angle_alpha   89.33650000
_cell_angle_beta   89.23390000
_cell_angle_gamma   65.47760000
_symmetry_Int_Tables_number   1
_chemical_formula_structural   ZnH12C22(NO3)2
_chemical_formula_sum   'Zn2 H24 C44 N4 O12'
_cell_volume   3412.23856810
_cell_formula_units_Z   2
loop_
 _symmetry_equiv_pos_site_id
 _symmetry_equiv_pos_as_xyz
  1  'x, y, z'
loop_
 _atom_site_type_symbol
 _atom_site_label
 _atom_site_symmetry_multiplicity
 _atom_site_fract_x
 _atom_site_fract_y
 _atom_site_fract_z
 _atom_site_occupancy
  Zn  Zn0  1  0.40289000  0.50524000  0.50092000  1.0
  Zn  Zn1  1  0.59756000  0.49254000  0.49702000  1.0
  H  H2  1  0.23030000  0.12509000  0.54307000  1.0
  H  H3  1  0.76481000  0.87554000  0.57118000  1.0
  H  H4  1  0.46310000  0.23116000  0.52220000  1.0
  H  H5  1  0.53652000  0.76701000  0.53063000  1.0
  H  H6  1  0.18371000  0.99317000  0.52758000  1.0
  H  H7  1  0.81373000  0.00718000  0.55570000  1.0
  H  H8  1  0.35896000  0.18594000  0.54680000  1.0
  H  H9  1  0.63653000  0.81448000  0.56607000  1.0
  H  H10  1  0.34960000  0.52444000  0.91793000  1.0
  H  H11  1  0.62839000  0.53263000  0.08006000  1.0
  H  H12  1  0.84900000  0.65050000  0.49686000  1.0
  H  H13  1  0.15099000  0.34838000  0.50189000  1.0
  H  H14  1  0.78850000  0.23597000  0.57649000  1.0
  H  H15  1  0.86974000  0.12080000  0.54252000  1.0
  H  H16  1  0.80266000  0.21214000  0.47056000  1.0
  H  H17  1  0.20896000  0.78070000  0.44993000  1.0
  H  H18  1  0.20147000  0.76885000  0.55715000  1.0
  H  H19  1  0.12944000  0.87978000  0.50923000  1.0
  H  H20  1  0.94886000  0.73867000  0.49433000  1.0
  H  H21  1  0.06216000  0.68437000  0.54980000  1.0
  H  H22  1  0.06443000  0.68213000  0.44105000  1.0
  H  H23  1  0.05126000  0.26025000  0.50421000  1.0
  H  H24  1  0.93720000  0.31631000  0.55982000  1.0
  H  H25  1  0.93642000  0.31479000  0.45109000  1.0
  C  C26  1  0.49824000  0.50654000  0.33798000  1.0
  C  C27  1  0.49705000  0.50353000  0.66078000  1.0
  C  C28  1  0.42438000  0.68105000  0.50729000  1.0
  C  C29  1  0.57683000  0.31716000  0.50866000  1.0
  C  C30  1  0.38753000  0.78501000  0.51965000  1.0
  C  C31  1  0.61244000  0.21365000  0.52473000  1.0
  C  C32  1  0.26173000  0.94306000  0.52867000  1.0
  C  C33  1  0.73613000  0.05671000  0.54810000  1.0
  C  C34  1  0.28463000  0.84831000  0.51925000  1.0
  C  C35  1  0.71467000  0.15087000  0.53459000  1.0
  C  C36  1  0.45977000  0.81890000  0.53126000  1.0
  C  C37  1  0.53924000  0.17974000  0.53032000  1.0
  C  C38  1  0.43707000  0.91483000  0.54054000  1.0
  C  C39  1  0.56051000  0.08441000  0.54333000  1.0
  C  C40  1  0.33463000  0.97862000  0.53777000  1.0
  C  C41  1  0.66255000  0.02105000  0.55142000  1.0
  C  C42  1  0.51253000  0.95061000  0.54838000  1.0
  C  C43  1  0.48434000  0.04890000  0.54548000  1.0
  C  C44  1  0.38094000  0.11041000  0.54458000  1.0
  C  C45  1  0.61523000  0.88962000  0.55871000  1.0
  C  C46  1  0.30898000  0.07681000  0.54245000  1.0
  C  C47  1  0.68706000  0.92342000  0.56159000  1.0
  C  C48  1  0.40987000  0.52897000  0.95280000  1.0
  C  C49  1  0.56559000  0.53357000  0.04522000  1.0
  C  C50  1  0.49266000  0.53151000  0.91052000  1.0
  C  C51  1  0.48213000  0.53258000  0.08751000  1.0
  C  C52  1  0.56919000  0.53532000  0.95984000  1.0
  C  C53  1  0.40421000  0.53175000  0.03812000  1.0
  C  C54  1  0.49713000  0.52445000  0.82380000  1.0
  C  C55  1  0.48322000  0.52669000  0.17440000  1.0
  C  C56  1  0.49209000  0.51709000  0.24889000  1.0
  C  C57  1  0.49600000  0.51399000  0.74959000  1.0
  C  C58  1  0.00919000  0.58767000  0.49772000  1.0
  C  C59  1  0.99081000  0.41122000  0.50172000  1.0
  C  C60  1  0.09265000  0.49977000  0.49913000  1.0
  C  C61  1  0.90733000  0.49911000  0.50005000  1.0
  C  C62  1  0.08388000  0.41374000  0.50100000  1.0
  C  C63  1  0.91610000  0.58514000  0.49817000  1.0
  C  C64  1  0.18892000  0.49918000  0.49903000  1.0
  C  C65  1  0.81120000  0.49939000  0.49970000  1.0
  C  C66  1  0.79883000  0.18122000  0.53094000  1.0
  C  C67  1  0.20124000  0.81814000  0.50830000  1.0
  C  C68  1  0.02128000  0.67820000  0.49564000  1.0
  C  C69  1  0.97880000  0.32069000  0.50432000  1.0
  N  N70  1  0.73404000  0.49649000  0.49863000  1.0
  N  N71  1  0.26648000  0.50129000  0.49950000  1.0
  N  N72  1  0.31222000  0.53359000  0.07641000  1.0
  N  N73  1  0.65805000  0.53989000  0.92107000  1.0
  O  O74  1  0.42220000  0.50472000  0.37400000  1.0
  O  O75  1  0.57928000  0.48756000  0.62466000  1.0
  O  O76  1  0.57862000  0.50049000  0.37039000  1.0
  O  O77  1  0.41580000  0.51173000  0.62871000  1.0
  O  O78  1  0.36059000  0.64634000  0.50060000  1.0
  O  O79  1  0.64092000  0.35112000  0.49703000  1.0
  O  O80  1  0.51850000  0.63390000  0.50452000  1.0
  O  O81  1  0.48275000  0.36486000  0.50801000  1.0
  O  O82  1  0.28189000  0.58053000  0.13978000  1.0
  O  O83  1  0.27137000  0.48925000  0.04125000  1.0
  O  O84  1  0.64572000  0.58482000  0.85581000  1.0
  O  O85  1  0.73818000  0.49932000  0.95741000  1.0
