# generated using pymatgen
data_Li2H8C4O7
_symmetry_space_group_name_H-M   'P 1'
_cell_length_a   7.54670000
_cell_length_b   8.54610000
_cell_length_c   11.11870000
_cell_angle_alpha   89.70410000
_cell_angle_beta   90.00010000
_cell_angle_gamma   90.00000000
_symmetry_Int_Tables_number   1
_chemical_formula_structural   Li2H8C4O7
_chemical_formula_sum   'Li8 H32 C16 O28'
_cell_volume   717.08935764
_cell_formula_units_Z   4
loop_
 _symmetry_equiv_pos_site_id
 _symmetry_equiv_pos_as_xyz
  1  'x, y, z'
loop_
 _atom_site_type_symbol
 _atom_site_label
 _atom_site_symmetry_multiplicity
 _atom_site_fract_x
 _atom_site_fract_y
 _atom_site_fract_z
 _atom_site_occupancy
  Li  Li0  1  0.86330000  0.87333000  0.01815000  1.0
  Li  Li1  1  0.36330000  0.12667000  0.48185000  1.0
  Li  Li2  1  0.13670000  0.12668000  0.98185000  1.0
  Li  Li3  1  0.63670000  0.87333000  0.51815000  1.0
  Li  Li4  1  0.53907000  0.39215000  0.28966000  1.0
  Li  Li5  1  0.03907000  0.60785000  0.21034000  1.0
  Li  Li6  1  0.46093000  0.60785000  0.71034000  1.0
  Li  Li7  1  0.96093000  0.39215000  0.78966000  1.0
  H  H8  1  0.83558000  0.31037000  0.06952000  1.0
  H  H9  1  0.33558000  0.68963000  0.43048000  1.0
  H  H10  1  0.16442000  0.68963000  0.93048000  1.0
  H  H11  1  0.66441000  0.31037000  0.56952000  1.0
  H  H12  1  0.85139000  0.13587000  0.87738000  1.0
  H  H13  1  0.35139000  0.86413000  0.62262000  1.0
  H  H14  1  0.14861000  0.86413000  0.12262000  1.0
  H  H15  1  0.64861000  0.13587000  0.37738000  1.0
  H  H16  1  0.53698000  0.16525000  0.92109000  1.0
  H  H17  1  0.03698000  0.83476000  0.57891000  1.0
  H  H18  1  0.46302000  0.83476000  0.07891000  1.0
  H  H19  1  0.96302000  0.16524000  0.42109000  1.0
  H  H20  1  0.48993000  0.29137000  0.04036000  1.0
  H  H21  1  0.98992000  0.70864000  0.45964000  1.0
  H  H22  1  0.51008000  0.70864000  0.95964000  1.0
  H  H23  1  0.01007000  0.29136000  0.54036000  1.0
  H  H24  1  0.78795000  0.86066000  0.78546000  1.0
  H  H25  1  0.28795000  0.13934000  0.71454000  1.0
  H  H26  1  0.21205000  0.13934000  0.21454000  1.0
  H  H27  1  0.71205000  0.86066000  0.28546000  1.0
  H  H28  1  0.78846000  0.68747000  0.84362000  1.0
  H  H29  1  0.28846000  0.31253000  0.65638000  1.0
  H  H30  1  0.21154000  0.31253000  0.15638000  1.0
  H  H31  1  0.71154000  0.68747000  0.34362000  1.0
  H  H32  1  0.71806000  0.62009000  0.13190000  1.0
  H  H33  1  0.21806000  0.37991000  0.36811000  1.0
  H  H34  1  0.28194000  0.37991000  0.86811000  1.0
  H  H35  1  0.78194000  0.62009000  0.63189000  1.0
  H  H36  1  0.83813000  0.57178000  0.02595000  1.0
  H  H37  1  0.33813000  0.42822000  0.47406000  1.0
  H  H38  1  0.16187000  0.42823000  0.97406000  1.0
  H  H39  1  0.66187000  0.57178000  0.52594000  1.0
  C  C40  1  0.71219000  0.11655000  0.15490000  1.0
  C  C41  1  0.21218000  0.88343000  0.34510000  1.0
  C  C42  1  0.28782000  0.88343000  0.84510000  1.0
  C  C43  1  0.78781000  0.11655000  0.65490000  1.0
  C  C44  1  0.75973000  0.20724000  0.03984000  1.0
  C  C45  1  0.25973000  0.79276000  0.46016000  1.0
  C  C46  1  0.24027000  0.79275000  0.96016000  1.0
  C  C47  1  0.74027000  0.20724000  0.53984000  1.0
  C  C48  1  0.59298000  0.26150000  0.97442000  1.0
  C  C49  1  0.09298000  0.73850000  0.52558000  1.0
  C  C50  1  0.40702000  0.73850000  0.02558000  1.0
  C  C51  1  0.90702000  0.26150000  0.47442000  1.0
  C  C52  1  0.61700000  0.40273000  0.89234000  1.0
  C  C53  1  0.11701000  0.59727000  0.60766000  1.0
  C  C54  1  0.38299000  0.59727000  0.10766000  1.0
  C  C55  1  0.88300000  0.40273000  0.39234000  1.0
  O  O56  1  0.64725000  0.19695000  0.24051000  1.0
  O  O57  1  0.14726000  0.80305000  0.25949000  1.0
  O  O58  1  0.35274000  0.80305000  0.75949000  1.0
  O  O59  1  0.85275000  0.19695000  0.74051000  1.0
  O  O60  1  0.74140000  0.97090000  0.15797000  1.0
  O  O61  1  0.24140000  0.02911000  0.34202000  1.0
  O  O62  1  0.25860000  0.02911000  0.84202000  1.0
  O  O63  1  0.75860000  0.97089000  0.65797000  1.0
  O  O64  1  0.86943000  0.11111000  0.96563000  1.0
  O  O65  1  0.36943000  0.88889000  0.53437000  1.0
  O  O66  1  0.13057000  0.88889000  0.03437000  1.0
  O  O67  1  0.63057000  0.11111000  0.46563000  1.0
  O  O68  1  0.76543000  0.47503000  0.88988000  1.0
  O  O69  1  0.26542000  0.52498000  0.61012000  1.0
  O  O70  1  0.23458000  0.52497000  0.11012000  1.0
  O  O71  1  0.73458000  0.47503000  0.38988000  1.0
  O  O72  1  0.48388000  0.44508000  0.83025000  1.0
  O  O73  1  0.98388000  0.55492000  0.66975000  1.0
  O  O74  1  0.51612000  0.55492000  0.16975000  1.0
  O  O75  1  0.01612000  0.44508000  0.33025000  1.0
  O  O76  1  0.80098000  0.79930000  0.86142000  1.0
  O  O77  1  0.30099000  0.20071000  0.63858000  1.0
  O  O78  1  0.19902000  0.20071000  0.13858000  1.0
  O  O79  1  0.69902000  0.79930000  0.36142000  1.0
  O  O80  1  0.84031000  0.63812000  0.09859000  1.0
  O  O81  1  0.34031000  0.36188000  0.40141000  1.0
  O  O82  1  0.15969000  0.36189000  0.90141000  1.0
  O  O83  1  0.65969000  0.63812000  0.59859000  1.0
