# generated using pymatgen
data_MoH12C15S2N2O3
_symmetry_space_group_name_H-M   'P 1'
_cell_length_a   7.81293000
_cell_length_b   13.39930000
_cell_length_c   16.41700000
_cell_angle_alpha   111.52600000
_cell_angle_beta   90.00000000
_cell_angle_gamma   90.00000000
_symmetry_Int_Tables_number   1
_chemical_formula_structural   MoH12C15S2N2O3
_chemical_formula_sum   'Mo4 H48 C60 S8 N8 O12'
_cell_volume   1598.78498923
_cell_formula_units_Z   4
loop_
 _symmetry_equiv_pos_site_id
 _symmetry_equiv_pos_as_xyz
  1  'x, y, z'
loop_
 _atom_site_type_symbol
 _atom_site_label
 _atom_site_symmetry_multiplicity
 _atom_site_fract_x
 _atom_site_fract_y
 _atom_site_fract_z
 _atom_site_occupancy
  Mo  Mo0  1  0.53757000  0.75949000  0.00043000  1.0
  Mo  Mo1  1  0.96243000  0.25948000  0.00043000  1.0
  Mo  Mo2  1  0.46243000  0.24051000  0.99957000  1.0
  Mo  Mo3  1  0.03757000  0.74052000  0.99957000  1.0
  H  H4  1  0.62432000  0.59973000  0.71411000  1.0
  H  H5  1  0.87567000  0.09974000  0.71411000  1.0
  H  H6  1  0.37567000  0.40027000  0.28589000  1.0
  H  H7  1  0.12433000  0.90027000  0.28589000  1.0
  H  H8  1  0.71539000  0.41300000  0.62141000  1.0
  H  H9  1  0.78461000  0.91300000  0.62141000  1.0
  H  H10  1  0.28462000  0.58700000  0.37859000  1.0
  H  H11  1  0.21539000  0.08700000  0.37859000  1.0
  H  H12  1  0.78446000  0.28189000  0.69151000  1.0
  H  H13  1  0.71554000  0.78189000  0.69151000  1.0
  H  H14  1  0.21555000  0.71811000  0.30849000  1.0
  H  H15  1  0.28446000  0.21811000  0.30849000  1.0
  H  H16  1  0.77354000  0.33843000  0.85351000  1.0
  H  H17  1  0.72647000  0.83843000  0.85351000  1.0
  H  H18  1  0.22647000  0.66157000  0.14649000  1.0
  H  H19  1  0.27354000  0.16157000  0.14649000  1.0
  H  H20  1  0.74514000  0.46646000  0.99214000  1.0
  H  H21  1  0.75486000  0.96646000  0.99214000  1.0
  H  H22  1  0.25486000  0.53354000  0.00786000  1.0
  H  H23  1  0.24514000  0.03354000  0.00786000  1.0
  H  H24  1  0.69118000  0.54797000  0.24035000  1.0
  H  H25  1  0.80882000  0.04798000  0.24035000  1.0
  H  H26  1  0.30882000  0.45203000  0.75965000  1.0
  H  H27  1  0.19117000  0.95202000  0.75965000  1.0
  H  H28  1  0.90343000  0.59563000  0.24006000  1.0
  H  H29  1  0.59657000  0.09563000  0.24006000  1.0
  H  H30  1  0.09657000  0.40437000  0.75994000  1.0
  H  H31  1  0.40343000  0.90437000  0.75994000  1.0
  H  H32  1  0.97823000  0.75030000  0.40897000  1.0
  H  H33  1  0.52177000  0.25030000  0.40896000  1.0
  H  H34  1  0.02177000  0.24970000  0.59103000  1.0
  H  H35  1  0.47823000  0.74970000  0.59104000  1.0
  H  H36  1  0.02227000  0.75123000  0.55836000  1.0
  H  H37  1  0.47774000  0.25123000  0.55836000  1.0
  H  H38  1  0.97774000  0.24877000  0.44164000  1.0
  H  H39  1  0.52226000  0.74877000  0.44164000  1.0
  H  H40  1  0.88061000  0.61457000  0.60478000  1.0
  H  H41  1  0.61940000  0.11457000  0.60478000  1.0
  H  H42  1  0.11940000  0.38543000  0.39522000  1.0
  H  H43  1  0.38061000  0.88543000  0.39522000  1.0
  H  H44  1  0.68823000  0.47761000  0.49993000  1.0
  H  H45  1  0.81177000  0.97761000  0.49993000  1.0
  H  H46  1  0.31177000  0.52239000  0.50007000  1.0
  H  H47  1  0.18823000  0.02239000  0.50007000  1.0
  H  H48  1  0.64470000  0.47705000  0.35013000  1.0
  H  H49  1  0.85530000  0.97705000  0.35013000  1.0
  H  H50  1  0.35530000  0.52294000  0.64987000  1.0
  H  H51  1  0.14470000  0.02295000  0.64987000  1.0
  C  C52  1  0.68887000  0.49962000  0.87560000  1.0
  C  C53  1  0.81113000  0.99962000  0.87560000  1.0
  C  C54  1  0.31114000  0.50038000  0.12439000  1.0
  C  C55  1  0.18887000  0.00038000  0.12440000  1.0
  C  C56  1  0.64465000  0.57251000  0.83448000  1.0
  C  C57  1  0.85535000  0.07251000  0.83449000  1.0
  C  C58  1  0.35535000  0.42749000  0.16552000  1.0
  C  C59  1  0.14465000  0.92749000  0.16551000  1.0
  C  C60  1  0.65621000  0.54089000  0.74321000  1.0
  C  C61  1  0.84378000  0.04089000  0.74321000  1.0
  C  C62  1  0.34379000  0.45911000  0.25679000  1.0
  C  C63  1  0.15621000  0.95911000  0.25679000  1.0
  C  C64  1  0.70696000  0.43712000  0.69233000  1.0
  C  C65  1  0.79304000  0.93712000  0.69233000  1.0
  C  C66  1  0.29305000  0.56288000  0.30767000  1.0
  C  C67  1  0.20695000  0.06288000  0.30767000  1.0
  C  C68  1  0.74753000  0.36346000  0.73179000  1.0
  C  C69  1  0.75247000  0.86346000  0.73179000  1.0
  C  C70  1  0.25247000  0.63654000  0.26821000  1.0
  C  C71  1  0.24753000  0.13654000  0.26821000  1.0
  C  C72  1  0.74008000  0.39485000  0.82219000  1.0
  C  C73  1  0.75992000  0.89485000  0.82219000  1.0
  C  C74  1  0.25993000  0.60515000  0.17781000  1.0
  C  C75  1  0.24008000  0.10515000  0.17781000  1.0
  C  C76  1  0.69388000  0.52696000  0.96874000  1.0
  C  C77  1  0.80612000  0.02696000  0.96874000  1.0
  C  C78  1  0.30612000  0.47304000  0.03126000  1.0
  C  C79  1  0.19388000  0.97305000  0.03126000  1.0
  C  C80  1  0.65993000  0.71752000  0.17327000  1.0
  C  C81  1  0.84007000  0.21752000  0.17328000  1.0
  C  C82  1  0.34007000  0.28248000  0.82672000  1.0
  C  C83  1  0.15993000  0.78248000  0.82673000  1.0
  C  C84  1  0.78289000  0.61002000  0.27710000  1.0
  C  C85  1  0.71711000  0.11002000  0.27710000  1.0
  C  C86  1  0.21711000  0.38997000  0.72290000  1.0
  C  C87  1  0.28288000  0.88997000  0.72290000  1.0
  C  C88  1  0.80797000  0.61327000  0.36893000  1.0
  C  C89  1  0.69203000  0.11327000  0.36893000  1.0
  C  C90  1  0.19204000  0.38674000  0.63107000  1.0
  C  C91  1  0.30796000  0.88674000  0.63107000  1.0
  C  C92  1  0.91388000  0.69043000  0.42867000  1.0
  C  C93  1  0.58612000  0.19043000  0.42867000  1.0
  C  C94  1  0.08612000  0.30956000  0.57133000  1.0
  C  C95  1  0.41388000  0.80957000  0.57133000  1.0
  C  C96  1  0.93836000  0.69133000  0.51311000  1.0
  C  C97  1  0.56164000  0.19134000  0.51311000  1.0
  C  C98  1  0.06164000  0.30866000  0.48689000  1.0
  C  C99  1  0.43836000  0.80867000  0.48689000  1.0
  C  C100  1  0.85745000  0.61502000  0.53936000  1.0
  C  C101  1  0.64255000  0.11502000  0.53936000  1.0
  C  C102  1  0.14255000  0.38497000  0.46064000  1.0
  C  C103  1  0.35745000  0.88498000  0.46064000  1.0
  C  C104  1  0.75090000  0.53835000  0.48066000  1.0
  C  C105  1  0.74910000  0.03836000  0.48067000  1.0
  C  C106  1  0.24910000  0.46165000  0.51934000  1.0
  C  C107  1  0.25090000  0.96165000  0.51934000  1.0
  C  C108  1  0.72620000  0.53774000  0.39619000  1.0
  C  C109  1  0.77381000  0.03774000  0.39619000  1.0
  C  C110  1  0.27380000  0.46226000  0.60381000  1.0
  C  C111  1  0.22619000  0.96226000  0.60381000  1.0
  S  S112  1  0.58664000  0.83202000  0.15731000  1.0
  S  S113  1  0.91336000  0.33202000  0.15731000  1.0
  S  S114  1  0.41336000  0.16798000  0.84269000  1.0
  S  S115  1  0.08664000  0.66798000  0.84269000  1.0
  S  S116  1  0.70090000  0.74012000  0.28271000  1.0
  S  S117  1  0.79910000  0.24012000  0.28271000  1.0
  S  S118  1  0.29910000  0.25988000  0.71729000  1.0
  S  S119  1  0.20090000  0.75988000  0.71729000  1.0
  N  N120  1  0.65044000  0.61878000  0.02896000  1.0
  N  N121  1  0.84956000  0.11878000  0.02896000  1.0
  N  N122  1  0.34956000  0.38122000  0.97104000  1.0
  N  N123  1  0.15044000  0.88121000  0.97104000  1.0
  N  N124  1  0.68656000  0.62390000  0.11278000  1.0
  N  N125  1  0.81343000  0.12390000  0.11278000  1.0
  N  N126  1  0.31343000  0.37610000  0.88722000  1.0
  N  N127  1  0.18657000  0.87610000  0.88722000  1.0
  O  O128  1  0.52220000  0.88806000  0.00355000  1.0
  O  O129  1  0.97780000  0.38806000  0.00356000  1.0
  O  O130  1  0.47780000  0.11194000  0.99644000  1.0
  O  O131  1  0.02221000  0.61194000  0.99645000  1.0
  O  O132  1  0.32525000  0.71713000  0.00094000  1.0
  O  O133  1  0.17475000  0.21713000  0.00094000  1.0
  O  O134  1  0.67475000  0.28287000  0.99906000  1.0
  O  O135  1  0.82525000  0.78287000  0.99906000  1.0
  O  O136  1  0.59174000  0.67248000  0.88035000  1.0
  O  O137  1  0.90825000  0.17247000  0.88035000  1.0
  O  O138  1  0.40826000  0.32752000  0.11965000  1.0
  O  O139  1  0.09174000  0.82753000  0.11965000  1.0
