# generated using pymatgen
data_CuH7C7SIN
_symmetry_space_group_name_H-M   'P 1'
_cell_length_a   5.36932000
_cell_length_b   7.82159000
_cell_length_c   21.20260000
_cell_angle_alpha   85.06350000
_cell_angle_beta   89.99930000
_cell_angle_gamma   89.99900000
_symmetry_Int_Tables_number   1
_chemical_formula_structural   CuH7C7SIN
_chemical_formula_sum   'Cu4 H28 C28 S4 I4 N4'
_cell_volume   887.13460884
_cell_formula_units_Z   4
loop_
 _symmetry_equiv_pos_site_id
 _symmetry_equiv_pos_as_xyz
  1  'x, y, z'
loop_
 _atom_site_type_symbol
 _atom_site_label
 _atom_site_symmetry_multiplicity
 _atom_site_fract_x
 _atom_site_fract_y
 _atom_site_fract_z
 _atom_site_occupancy
  Cu  Cu0  1  0.24286000  0.01540000  0.49438000  1.0
  Cu  Cu1  1  0.74287000  0.48461000  0.00562000  1.0
  Cu  Cu2  1  0.75715000  0.98460000  0.50562000  1.0
  Cu  Cu3  1  0.25715000  0.51540000  0.99438000  1.0
  H  H4  1  0.99020000  0.15334000  0.36990000  1.0
  H  H5  1  0.49020000  0.34662000  0.13011000  1.0
  H  H6  1  0.00981000  0.84666000  0.63010000  1.0
  H  H7  1  0.50982000  0.65336000  0.86989000  1.0
  H  H8  1  0.28030000  0.25588000  0.28383000  1.0
  H  H9  1  0.78030000  0.24408000  0.21617000  1.0
  H  H10  1  0.71969000  0.74413000  0.71616000  1.0
  H  H11  1  0.21969000  0.75588000  0.78383000  1.0
  H  H12  1  0.18981000  0.52495000  0.21642000  1.0
  H  H13  1  0.68980000  0.97500000  0.28358000  1.0
  H  H14  1  0.81016000  0.47504000  0.78358000  1.0
  H  H15  1  0.31017000  0.02497000  0.71642000  1.0
  H  H16  1  0.81224000  0.69740000  0.23817000  1.0
  H  H17  1  0.31218000  0.80257000  0.26183000  1.0
  H  H18  1  0.18776000  0.30260000  0.76183000  1.0
  H  H19  1  0.68776000  0.19741000  0.73817000  1.0
  H  H20  1  0.52897000  0.59948000  0.32591000  1.0
  H  H21  1  0.02893000  0.90052000  0.17410000  1.0
  H  H22  1  0.47104000  0.40053000  0.67410000  1.0
  H  H23  1  0.97102000  0.09948000  0.82590000  1.0
  H  H24  1  0.48796000  0.54612000  0.42974000  1.0
  H  H25  1  0.98797000  0.95389000  0.07026000  1.0
  H  H26  1  0.51205000  0.45389000  0.57026000  1.0
  H  H27  1  0.01204000  0.04613000  0.92973000  1.0
  H  H28  1  0.30690000  0.38017000  0.46667000  1.0
  H  H29  1  0.80690000  0.11984000  0.03333000  1.0
  H  H30  1  0.69313000  0.61984000  0.53333000  1.0
  H  H31  1  0.19313000  0.88017000  0.96667000  1.0
  C  C32  1  0.56597000  0.30595000  0.40346000  1.0
  C  C33  1  0.06596000  0.19404000  0.09654000  1.0
  C  C34  1  0.43403000  0.69405000  0.59654000  1.0
  C  C35  1  0.93402000  0.80596000  0.90346000  1.0
  C  C36  1  0.74154000  0.36987000  0.35378000  1.0
  C  C37  1  0.24153000  0.13011000  0.14623000  1.0
  C  C38  1  0.25846000  0.63013000  0.64622000  1.0
  C  C39  1  0.75845000  0.86988000  0.85377000  1.0
  C  C40  1  0.95325000  0.27304000  0.34113000  1.0
  C  C41  1  0.45325000  0.22693000  0.15887000  1.0
  C  C42  1  0.04676000  0.72697000  0.65886000  1.0
  C  C43  1  0.54676000  0.77305000  0.84113000  1.0
  C  C44  1  0.11574000  0.33112000  0.29291000  1.0
  C  C45  1  0.61574000  0.16885000  0.20709000  1.0
  C  C46  1  0.88427000  0.66889000  0.70708000  1.0
  C  C47  1  0.38426000  0.83113000  0.79291000  1.0
  C  C48  1  0.06634000  0.48370000  0.25564000  1.0
  C  C49  1  0.56633000  0.01626000  0.24436000  1.0
  C  C50  1  0.93366000  0.51630000  0.74436000  1.0
  C  C51  1  0.43367000  0.98371000  0.75564000  1.0
  C  C52  1  0.85527000  0.58017000  0.26772000  1.0
  C  C53  1  0.35524000  0.91981000  0.23228000  1.0
  C  C54  1  0.14475000  0.41984000  0.73227000  1.0
  C  C55  1  0.64474000  0.08018000  0.76773000  1.0
  C  C56  1  0.69547000  0.52529000  0.31714000  1.0
  C  C57  1  0.19545000  0.97471000  0.18286000  1.0
  C  C58  1  0.30454000  0.47472000  0.68286000  1.0
  C  C59  1  0.80453000  0.02529000  0.81714000  1.0
  S  S60  1  0.51394000  0.09095000  0.41502000  1.0
  S  S61  1  0.01394000  0.40905000  0.08498000  1.0
  S  S62  1  0.48607000  0.90906000  0.58498000  1.0
  S  S63  1  0.98607000  0.59095000  0.91502000  1.0
  I  I64  1  0.99238000  0.24549000  0.55177000  1.0
  I  I65  1  0.49242000  0.25451000  0.94824000  1.0
  I  I66  1  0.00763000  0.75452000  0.44823000  1.0
  I  I67  1  0.50759000  0.74549000  0.05177000  1.0
  N  N68  1  0.44725000  0.41858000  0.43575000  1.0
  N  N69  1  0.94725000  0.08142000  0.06425000  1.0
  N  N70  1  0.55275000  0.58143000  0.56425000  1.0
  N  N71  1  0.05275000  0.91858000  0.93574000  1.0
