# generated using pymatgen
data_Zn3H40(C3O)12
_symmetry_space_group_name_H-M   'P 1'
_cell_length_a   18.70680000
_cell_length_b   18.76600000
_cell_length_c   18.79946598
_cell_angle_alpha   109.44211383
_cell_angle_beta   109.22570665
_cell_angle_gamma   109.34000000
_symmetry_Int_Tables_number   1
_chemical_formula_structural   Zn3H40(C3O)12
_chemical_formula_sum   'Zn6 H80 C72 O24'
_cell_volume   5105.63750680
_cell_formula_units_Z   2
loop_
 _symmetry_equiv_pos_site_id
 _symmetry_equiv_pos_as_xyz
  1  'x, y, z'
loop_
 _atom_site_type_symbol
 _atom_site_label
 _atom_site_symmetry_multiplicity
 _atom_site_fract_x
 _atom_site_fract_y
 _atom_site_fract_z
 _atom_site_occupancy
  Zn  Zn0  1  0.50174000  0.05989000  0.05938000  1.0
  Zn  Zn1  1  0.49827000  0.94013000  0.94063000  1.0
  Zn  Zn2  1  0.94091000  0.49904000  0.94062000  1.0
  Zn  Zn3  1  0.05908000  0.50096000  0.05935000  1.0
  Zn  Zn4  1  0.94174000  0.94184000  0.50137000  1.0
  Zn  Zn5  1  0.05828000  0.05817000  0.49862000  1.0
  H  H6  1  0.90112000  0.70320000  0.30328000  1.0
  H  H7  1  0.16789000  0.78724000  0.06863000  1.0
  H  H8  1  0.79088000  0.19135000  0.09591000  1.0
  H  H9  1  0.20914000  0.80867000  0.90410000  1.0
  H  H10  1  0.89919000  0.29501000  0.09307000  1.0
  H  H11  1  0.10082000  0.70500000  0.90693000  1.0
  H  H12  1  0.30441000  0.10459000  0.89779000  1.0
  H  H13  1  0.69559000  0.89542000  0.10221000  1.0
  H  H14  1  0.11991000  0.99713000  0.76012000  1.0
  H  H15  1  0.88010000  0.00289000  0.23989000  1.0
  H  H16  1  0.19712000  0.10308000  0.79288000  1.0
  H  H17  1  0.10197000  0.29694000  0.70017000  1.0
  H  H18  1  0.80290000  0.89694000  0.20713000  1.0
  H  H19  1  0.90194000  0.59640000  0.19573000  1.0
  H  H20  1  0.10048000  0.40355000  0.80720000  1.0
  H  H21  1  0.39695000  0.11989000  0.83640000  1.0
  H  H22  1  0.60305000  0.88012000  0.16360000  1.0
  H  H23  1  0.29506000  0.12217000  0.72576000  1.0
  H  H24  1  0.70495000  0.87784000  0.27425000  1.0
  H  H25  1  0.27948000  0.88041000  0.70961000  1.0
  H  H26  1  0.72052000  0.11960000  0.29039000  1.0
  H  H27  1  0.21065000  0.85925000  0.75360000  1.0
  H  H28  1  0.72606000  0.10373000  0.93141000  1.0
  H  H29  1  0.78936000  0.14076000  0.24641000  1.0
  H  H30  1  0.10570000  0.86675000  0.64966000  1.0
  H  H31  1  0.89431000  0.13327000  0.35036000  1.0
  H  H32  1  0.17101000  0.87719000  0.60018000  1.0
  H  H33  1  0.82898000  0.12282000  0.39983000  1.0
  H  H34  1  0.38756000  0.02766000  0.75798000  1.0
  H  H35  1  0.61245000  0.97236000  0.24203000  1.0
  H  H36  1  0.28626000  0.03074000  0.64791000  1.0
  H  H37  1  0.71374000  0.96926000  0.35209000  1.0
  H  H38  1  0.12098000  0.90144000  0.32781000  1.0
  H  H39  1  0.27396000  0.89629000  0.06860000  1.0
  H  H40  1  0.87683000  0.09900000  0.66900000  1.0
  H  H41  1  0.11780000  0.79581000  0.21523000  1.0
  H  H42  1  0.87990000  0.20420000  0.78189000  1.0
  H  H43  1  0.01039000  0.62985000  0.26768000  1.0
  H  H44  1  0.99310000  0.37178000  0.73400000  1.0
  H  H45  1  0.13620000  0.74414000  0.27700000  1.0
  H  H46  1  0.86449000  0.25779000  0.72162000  1.0
  H  H47  1  0.13829000  0.84931000  0.38914000  1.0
  H  H48  1  0.86312000  0.15344000  0.60947000  1.0
  H  H49  1  0.00714000  0.73314000  0.37669000  1.0
  H  H50  1  0.64489000  0.11356000  0.86133000  1.0
  H  H51  1  0.99738000  0.26902000  0.62549000  1.0
  H  H52  1  0.87395000  0.66933000  0.10551000  1.0
  H  H53  1  0.12407000  0.32791000  0.89527000  1.0
  H  H54  1  0.96166000  0.74903000  0.11118000  1.0
  H  H55  1  0.03451000  0.24852000  0.88765000  1.0
  H  H56  1  0.96832000  0.85807000  0.22395000  1.0
  H  H57  1  0.02747000  0.13938000  0.77459000  1.0
  H  H58  1  0.87762000  0.77813000  0.21540000  1.0
  H  H59  1  0.12042000  0.21886000  0.78566000  1.0
  H  H60  1  0.64300000  0.28027000  0.03751000  1.0
  H  H61  1  0.35512000  0.88646000  0.13868000  1.0
  H  H62  1  0.35701000  0.71975000  0.96250000  1.0
  H  H63  1  0.59877000  0.22110000  0.92403000  1.0
  H  H64  1  0.40125000  0.77891000  0.07598000  1.0
  H  H65  1  0.70932000  0.33498000  0.93329000  1.0
  H  H66  1  0.29070000  0.66505000  0.06673000  1.0
  H  H67  1  0.75552000  0.39247000  0.04697000  1.0
  H  H68  1  0.24450000  0.60755000  0.95305000  1.0
  H  H69  1  0.75826000  0.26677000  0.13714000  1.0
  H  H70  1  0.24175000  0.73325000  0.86287000  1.0
  H  H71  1  0.87335000  0.37292000  0.14279000  1.0
  H  H72  1  0.75133000  0.22635000  0.86491000  1.0
  H  H73  1  0.12667000  0.62710000  0.85722000  1.0
  H  H74  1  0.31158000  0.10808000  0.02028000  1.0
  H  H75  1  0.24687000  0.05147000  0.09889000  1.0
  H  H76  1  0.11217000  0.90654000  0.01714000  1.0
  H  H77  1  0.04323000  0.82049000  0.85629000  1.0
  H  H78  1  0.10609000  0.87849000  0.77826000  1.0
  H  H79  1  0.68843000  0.89194000  0.97973000  1.0
  H  H80  1  0.75313000  0.94854000  0.90111000  1.0
  H  H81  1  0.88784000  0.09348000  0.98287000  1.0
  H  H82  1  0.95678000  0.17953000  0.14372000  1.0
  H  H83  1  0.24867000  0.77368000  0.13510000  1.0
  H  H84  1  0.89392000  0.12153000  0.22175000  1.0
  H  H85  1  0.83212000  0.21278000  0.93137000  1.0
  C  C86  1  0.37603000  0.99727000  0.88143000  1.0
  C  C87  1  0.15460000  0.69131000  0.91320000  1.0
  C  C88  1  0.77663000  0.22376000  0.92516000  1.0
  C  C89  1  0.22337000  0.77625000  0.07484000  1.0
  C  C90  1  0.25458000  0.03681000  0.84836000  1.0
  C  C91  1  0.74542000  0.96320000  0.15164000  1.0
  C  C92  1  0.18598000  0.03653000  0.77353000  1.0
  C  C93  1  0.81402000  0.96348000  0.22647000  1.0
  C  C94  1  0.35000000  0.05396000  0.78076000  1.0
  C  C95  1  0.65001000  0.94605000  0.21924000  1.0
  C  C96  1  0.24094000  0.90381000  0.73333000  1.0
  C  C97  1  0.62398000  0.00274000  0.11858000  1.0
  C  C98  1  0.75906000  0.09620000  0.26667000  1.0
  C  C99  1  0.30379000  0.99593000  0.81207000  1.0
  C  C100  1  0.69621000  0.00408000  0.18793000  1.0
  C  C101  1  0.61756000  0.11988000  0.99826000  1.0
  C  C102  1  0.38245000  0.88014000  0.00175000  1.0
  C  C103  1  0.19047000  0.99981000  0.68935000  1.0
  C  C104  1  0.80953000  0.00019000  0.31065000  1.0
  C  C105  1  0.28249000  0.05550000  0.70762000  1.0
  C  C106  1  0.71751000  0.94451000  0.29238000  1.0
  C  C107  1  0.17157000  0.90544000  0.66205000  1.0
  C  C108  1  0.70568000  0.15043000  0.92373000  1.0
  C  C109  1  0.82842000  0.09457000  0.33796000  1.0
  C  C110  1  0.00277000  0.81000000  0.31296000  1.0
  C  C111  1  0.99741000  0.19003000  0.68717000  1.0
  C  C112  1  0.00001000  0.62098000  0.11881000  1.0
  C  C113  1  0.99975000  0.37881000  0.88115000  1.0
  C  C114  1  0.87992000  0.38230000  0.00205000  1.0
  C  C115  1  0.12008000  0.61772000  0.99795000  1.0
  C  C116  1  0.99805000  0.11979000  0.61772000  1.0
  C  C117  1  0.00208000  0.88024000  0.38236000  1.0
  C  C118  1  0.12075000  0.00024000  0.61923000  1.0
  C  C119  1  0.29434000  0.84959000  0.07628000  1.0
  C  C120  1  0.87926000  0.99977000  0.38077000  1.0
  C  C121  1  0.09385000  0.76861000  0.25162000  1.0
  C  C122  1  0.90556000  0.23213000  0.74681000  1.0
  C  C123  1  0.94060000  0.72431000  0.15027000  1.0
  C  C124  1  0.05719000  0.27368000  0.84958000  1.0
  C  C125  1  0.96716000  0.72324000  0.31264000  1.0
  C  C126  1  0.03552000  0.27753000  0.68937000  1.0
  C  C127  1  0.94331000  0.79612000  0.22384000  1.0
  C  C128  1  0.05448000  0.20186000  0.77605000  1.0
  C  C129  1  0.09541000  0.83859000  0.32565000  1.0
  C  C130  1  0.68738000  0.18923000  0.99716000  1.0
  C  C131  1  0.90425000  0.16247000  0.67272000  1.0
  C  C132  1  0.00003000  0.69143000  0.18866000  1.0
  C  C133  1  0.99964000  0.30824000  0.81131000  1.0
  C  C134  1  0.96769000  0.65328000  0.24052000  1.0
  C  C135  1  0.03452000  0.34727000  0.76125000  1.0
  C  C136  1  0.65894000  0.25519000  0.98670000  1.0
  C  C137  1  0.34107000  0.74484000  0.01331000  1.0
  C  C138  1  0.73240000  0.32937000  0.99183000  1.0
  C  C139  1  0.26761000  0.67064000  0.00818000  1.0
  C  C140  1  0.77200000  0.23814000  0.08549000  1.0
  C  C141  1  0.31263000  0.81080000  0.00285000  1.0
  C  C142  1  0.22801000  0.76188000  0.91452000  1.0
  C  C143  1  0.21487000  0.99749000  0.89388000  1.0
  C  C144  1  0.25262000  0.04485000  0.98435000  1.0
  C  C145  1  0.21631000  0.01281000  0.02856000  1.0
  C  C146  1  0.14097000  0.93175000  0.98290000  1.0
  C  C147  1  0.10242000  0.88366000  0.89279000  1.0
  C  C148  1  0.13877000  0.91639000  0.84885000  1.0
  C  C149  1  0.78513000  0.00252000  0.10612000  1.0
  C  C150  1  0.74739000  0.95517000  0.01566000  1.0
  C  C151  1  0.78370000  0.98721000  0.97145000  1.0
  C  C152  1  0.80977000  0.31279000  0.00283000  1.0
  C  C153  1  0.85904000  0.06827000  0.01711000  1.0
  C  C154  1  0.89759000  0.11636000  0.10722000  1.0
  C  C155  1  0.86123000  0.08361000  0.15115000  1.0
  C  C156  1  0.19025000  0.68723000  0.99718000  1.0
  C  C157  1  0.84541000  0.30870000  0.08680000  1.0
  O  O158  1  0.40837000  0.05381000  0.96038000  1.0
  O  O159  1  0.59810000  0.05607000  0.14507000  1.0
  O  O160  1  0.59293000  0.14702000  0.05260000  1.0
  O  O161  1  0.40708000  0.85300000  0.94741000  1.0
  O  O162  1  0.58910000  0.04009000  0.94639000  1.0
  O  O163  1  0.41091000  0.95993000  0.05362000  1.0
  O  O164  1  0.94764000  0.59293000  0.03957000  1.0
  O  O165  1  0.05217000  0.40692000  0.96038000  1.0
  O  O166  1  0.05252000  0.59419000  0.14517000  1.0
  O  O167  1  0.94743000  0.40579000  0.85479000  1.0
  O  O168  1  0.85425000  0.40754000  0.94804000  1.0
  O  O169  1  0.59163000  0.94620000  0.03962000  1.0
  O  O170  1  0.14575000  0.59241000  0.05190000  1.0
  O  O171  1  0.95937000  0.40922000  0.05371000  1.0
  O  O172  1  0.04063000  0.59084000  0.94634000  1.0
  O  O173  1  0.94702000  0.04081000  0.59293000  1.0
  O  O174  1  0.05311000  0.95924000  0.40720000  1.0
  O  O175  1  0.05078000  0.14432000  0.59057000  1.0
  O  O176  1  0.94922000  0.85567000  0.40937000  1.0
  O  O177  1  0.04157000  0.94852000  0.59375000  1.0
  O  O178  1  0.95842000  0.05144000  0.40619000  1.0
  O  O179  1  0.14552000  0.05211000  0.59155000  1.0
  O  O180  1  0.85451000  0.94796000  0.40851000  1.0
  O  O181  1  0.40191000  0.94394000  0.85493000  1.0
