# generated using pymatgen
data_CoH17C23N2O7
_symmetry_space_group_name_H-M   'P 1'
_cell_length_a   7.38901000
_cell_length_b   10.80130000
_cell_length_c   13.01270000
_cell_angle_alpha   104.84600000
_cell_angle_beta   95.81060000
_cell_angle_gamma   96.03260000
_symmetry_Int_Tables_number   1
_chemical_formula_structural   CoH17C23N2O7
_chemical_formula_sum   'Co2 H34 C46 N4 O14'
_cell_volume   989.41345517
_cell_formula_units_Z   2
loop_
 _symmetry_equiv_pos_site_id
 _symmetry_equiv_pos_as_xyz
  1  'x, y, z'
loop_
 _atom_site_type_symbol
 _atom_site_label
 _atom_site_symmetry_multiplicity
 _atom_site_fract_x
 _atom_site_fract_y
 _atom_site_fract_z
 _atom_site_occupancy
  Co  Co0  1  0.92349000  0.75102000  0.66438000  1.0
  Co  Co1  1  0.07624000  0.24923000  0.33593000  1.0
  H  H2  1  0.64583000  0.63634000  0.78904000  1.0
  H  H3  1  0.35422000  0.36405000  0.21115000  1.0
  H  H4  1  0.53004000  0.73117000  0.96145000  1.0
  H  H5  1  0.46763000  0.26937000  0.03794000  1.0
  H  H6  1  0.63072000  0.96561000  0.05935000  1.0
  H  H7  1  0.36534000  0.03524000  0.93975000  1.0
  H  H8  1  0.81403000  0.18220000  0.05672000  1.0
  H  H9  1  0.18190000  0.81867000  0.94256000  1.0
  H  H10  1  0.00147000  0.30453000  0.95800000  1.0
  H  H11  1  0.99719000  0.69610000  0.04224000  1.0
  H  H12  1  0.13515000  0.30741000  0.78012000  1.0
  H  H13  1  0.86660000  0.69312000  0.22121000  1.0
  H  H14  1  0.19670000  0.17643000  0.60161000  1.0
  H  H15  1  0.80841000  0.82407000  0.40051000  1.0
  H  H16  1  0.10406000  0.93861000  0.54704000  1.0
  H  H17  1  0.90090000  0.06194000  0.45478000  1.0
  H  H18  1  0.60796000  0.06747000  0.50651000  1.0
  H  H19  1  0.39329000  0.93131000  0.49355000  1.0
  H  H20  1  0.50501000  0.03317000  0.67524000  1.0
  H  H21  1  0.49701000  0.96583000  0.32524000  1.0
  H  H22  1  0.56159000  0.21738000  0.84137000  1.0
  H  H23  1  0.44037000  0.78202000  0.15882000  1.0
  H  H24  1  0.82360000  0.48793000  0.06848000  1.0
  H  H25  1  0.17727000  0.51190000  0.93062000  1.0
  H  H26  1  0.59917000  0.54669000  0.19582000  1.0
  H  H27  1  0.40167000  0.45288000  0.80331000  1.0
  H  H28  1  0.15500000  0.65190000  0.76332000  1.0
  H  H29  1  0.84496000  0.34715000  0.23643000  1.0
  H  H30  1  0.26481000  0.75630000  0.71906000  1.0
  H  H31  1  0.73485000  0.24276000  0.28096000  1.0
  H  H32  1  0.67613000  0.64691000  0.50270000  1.0
  H  H33  1  0.32292000  0.35435000  0.49703000  1.0
  H  H34  1  0.55921000  0.74623000  0.56609000  1.0
  H  H35  1  0.43982000  0.25426000  0.43432000  1.0
  C  C36  1  0.84820000  0.93488000  0.83770000  1.0
  C  C37  1  0.15035000  0.06576000  0.16225000  1.0
  C  C38  1  0.68577000  0.73753000  0.83205000  1.0
  C  C39  1  0.31328000  0.26301000  0.16796000  1.0
  C  C40  1  0.62194000  0.79276000  0.92928000  1.0
  C  C41  1  0.37591000  0.20784000  0.07031000  1.0
  C  C42  1  0.67565000  0.92209000  0.98265000  1.0
  C  C43  1  0.32132000  0.07866000  0.01676000  1.0
  C  C44  1  0.79011000  0.99838000  0.93529000  1.0
  C  C45  1  0.20720000  0.00238000  0.06429000  1.0
  C  C46  1  0.85182000  0.13422000  0.97875000  1.0
  C  C47  1  0.14518000  0.86661000  0.02084000  1.0
  C  C48  1  0.95714000  0.20114000  0.92467000  1.0
  C  C49  1  0.04132000  0.79950000  0.07548000  1.0
  C  C50  1  0.00891000  0.13913000  0.82251000  1.0
  C  C51  1  0.99104000  0.86139000  0.17805000  1.0
  C  C52  1  0.09970000  0.20273000  0.75615000  1.0
  C  C53  1  0.90212000  0.79778000  0.24507000  1.0
  C  C54  1  0.13238000  0.13050000  0.65683000  1.0
  C  C55  1  0.87122000  0.87001000  0.34481000  1.0
  C  C56  1  0.08034000  0.99610000  0.62490000  1.0
  C  C57  1  0.92302000  0.00441000  0.37659000  1.0
  C  C58  1  0.95701000  0.00430000  0.78238000  1.0
  C  C59  1  0.04270000  0.99621000  0.21799000  1.0
  C  C60  1  0.90478000  0.48688000  0.68450000  1.0
  C  C61  1  0.09494000  0.51257000  0.31481000  1.0
  C  C62  1  0.78208000  0.36211000  0.67454000  1.0
  C  C63  1  0.21789000  0.63716000  0.32485000  1.0
  C  C64  1  0.78528000  0.26966000  0.47197000  1.0
  C  C65  1  0.21362000  0.72933000  0.52750000  1.0
  C  C66  1  0.73592000  0.26205000  0.57961000  1.0
  C  C67  1  0.26384000  0.73705000  0.41996000  1.0
  C  C68  1  0.63743000  0.14439000  0.58086000  1.0
  C  C69  1  0.36325000  0.85457000  0.41907000  1.0
  C  C70  1  0.57833000  0.12596000  0.67459000  1.0
  C  C71  1  0.42307000  0.87309000  0.32555000  1.0
  C  C72  1  0.61081000  0.22775000  0.76758000  1.0
  C  C73  1  0.39050000  0.77150000  0.23239000  1.0
  C  C74  1  0.71287000  0.34364000  0.76688000  1.0
  C  C75  1  0.28772000  0.65569000  0.23264000  1.0
  C  C76  1  0.62620000  0.46737000  0.92846000  1.0
  C  C77  1  0.37460000  0.53255000  0.07078000  1.0
  C  C78  1  0.68263000  0.49431000  0.03846000  1.0
  C  C79  1  0.31824000  0.50568000  0.96075000  1.0
  C  C80  1  0.55621000  0.52737000  0.10996000  1.0
  C  C81  1  0.44464000  0.47251000  0.88922000  1.0
  N  N82  1  0.99572000  0.93219000  0.68621000  1.0
  N  N83  1  0.00541000  0.06829000  0.31452000  1.0
  N  N84  1  0.80057000  0.80594000  0.78717000  1.0
  N  N85  1  0.19872000  0.19461000  0.21298000  1.0
  O  O86  1  0.82839000  0.57044000  0.64652000  1.0
  O  O87  1  0.17047000  0.42970000  0.35413000  1.0
  O  O88  1  0.06484000  0.50030000  0.73266000  1.0
  O  O89  1  0.93556000  0.49853000  0.26550000  1.0
  O  O90  1  0.95566000  0.29463000  0.46456000  1.0
  O  O91  1  0.04306000  0.70566000  0.53505000  1.0
  O  O92  1  0.65370000  0.24037000  0.39517000  1.0
  O  O93  1  0.34506000  0.75757000  0.60431000  1.0
  O  O94  1  0.75922000  0.44372000  0.86040000  1.0
  O  O95  1  0.24153000  0.55591000  0.13890000  1.0
  O  O96  1  0.18194000  0.74789000  0.77378000  1.0
  O  O97  1  0.81763000  0.25123000  0.22618000  1.0
  O  O98  1  0.68104000  0.73815000  0.53946000  1.0
  O  O99  1  0.31841000  0.26278000  0.46137000  1.0
