# generated using pymatgen
data_Zn2H25C40N8F
_symmetry_space_group_name_H-M   'P 1'
_cell_length_a   14.73680000
_cell_length_b   15.00210000
_cell_length_c   16.88170000
_cell_angle_alpha   105.27600000
_cell_angle_beta   107.10200000
_cell_angle_gamma   111.21600000
_symmetry_Int_Tables_number   1
_chemical_formula_structural   Zn2H25C40N8F
_chemical_formula_sum   'Zn4 H50 C80 N16 F2'
_cell_volume   3025.35411068
_cell_formula_units_Z   2
loop_
 _symmetry_equiv_pos_site_id
 _symmetry_equiv_pos_as_xyz
  1  'x, y, z'
loop_
 _atom_site_type_symbol
 _atom_site_label
 _atom_site_symmetry_multiplicity
 _atom_site_fract_x
 _atom_site_fract_y
 _atom_site_fract_z
 _atom_site_occupancy
  Zn  Zn0  1  0.36894000  0.01037000  0.88842000  1.0
  Zn  Zn1  1  0.61678000  0.99556000  0.12797000  1.0
  Zn  Zn2  1  0.35550000  0.86006000  0.00015000  1.0
  Zn  Zn3  1  0.62882000  0.12247000  0.99990000  1.0
  H  H4  1  0.33175000  0.18744000  0.01315000  1.0
  H  H5  1  0.55588000  0.66743000  0.12878000  1.0
  H  H6  1  0.25279000  0.35129000  0.72639000  1.0
  H  H7  1  0.82899000  0.72509000  0.06624000  1.0
  H  H8  1  0.13052000  0.19984000  0.57580000  1.0
  H  H9  1  0.95059000  0.86439000  0.22393000  1.0
  H  H10  1  0.41824000  0.53138000  0.78496000  1.0
  H  H11  1  0.65989000  0.49572000  0.03371000  1.0
  H  H12  1  0.97270000  0.72352000  0.58775000  1.0
  H  H13  1  0.69986000  0.29423000  0.42106000  1.0
  H  H14  1  0.84410000  0.65036000  0.42229000  1.0
  H  H15  1  0.88692000  0.05669000  0.22152000  1.0
  H  H16  1  0.80358000  0.37057000  0.58917000  1.0
  H  H17  1  0.61119000  0.15179000  0.29398000  1.0
  H  H18  1  0.12318000  0.85746000  0.71054000  1.0
  H  H19  1  0.47729000  0.14193000  0.42329000  1.0
  H  H20  1  0.96117000  0.28420000  0.85403000  1.0
  H  H21  1  0.61351000  0.87239000  0.41052000  1.0
  H  H22  1  0.33949000  0.77126000  0.57489000  1.0
  H  H23  1  0.26647000  0.72707000  0.26986000  1.0
  H  H24  1  0.68670000  0.91467000  0.71515000  1.0
  H  H25  1  0.69973000  0.89715000  0.57047000  1.0
  H  H26  1  0.38875000  0.20408000  0.31707000  1.0
  H  H27  1  0.25099000  0.71053000  0.40721000  1.0
  H  H28  1  0.37256000  0.96563000  0.41847000  1.0
  H  H29  1  0.95116000  0.43453000  0.95034000  1.0
  H  H30  1  0.17887000  0.85430000  0.30875000  1.0
  H  H31  1  0.01441000  0.48355000  0.11757000  1.0
  H  H32  1  0.09097000  0.91715000  0.20211000  1.0
  H  H33  1  0.08149000  0.37926000  0.18620000  1.0
  H  H34  1  0.28474000  0.74771000  0.13942000  1.0
  H  H35  1  0.68012000  0.98462000  0.85230000  1.0
  H  H36  1  0.69583000  0.34315000  0.96930000  1.0
  H  H37  1  0.02892000  0.18045000  0.92351000  1.0
  H  H38  1  0.34810000  0.64929000  0.87334000  1.0
  H  H39  1  0.62777000  0.94719000  0.30917000  1.0
  H  H40  1  0.33039000  0.83043000  0.71159000  1.0
  H  H41  1  0.34828000  0.19870000  0.82424000  1.0
  H  H42  1  0.69341000  0.84509000  0.03634000  1.0
  H  H43  1  0.65393000  0.34057000  0.13903000  1.0
  H  H44  1  0.11828000  0.65325000  0.85069000  1.0
  H  H45  1  0.29851000  0.97702000  0.14906000  1.0
  H  H46  1  0.86938000  0.18748000  0.02074000  1.0
  H  H47  1  0.05316000  0.07536000  0.23297000  1.0
  H  H48  1  0.20273000  0.09652000  0.49680000  1.0
  H  H49  1  0.21594000  0.22874000  0.05296000  1.0
  H  H50  1  0.87517000  0.90356000  0.33446000  1.0
  H  H51  1  0.39698000  0.14638000  0.56963000  1.0
  H  H52  1  0.67674000  0.80244000  0.28643000  1.0
  H  H53  1  0.51889000  0.29742000  0.72042000  1.0
  C  C54  1  0.33048000  0.12825000  0.03915000  1.0
  C  C55  1  0.18126000  0.19508000  0.09366000  1.0
  C  C56  1  0.03868000  0.15429000  0.14367000  1.0
  C  C57  1  0.22303000  0.13885000  0.13354000  1.0
  C  C58  1  0.09401000  0.20740000  0.10042000  1.0
  C  C59  1  0.18162000  0.10522000  0.19244000  1.0
  C  C60  1  0.34294000  0.12754000  0.31566000  1.0
  C  C61  1  0.02713000  0.24800000  0.96610000  1.0
  C  C62  1  0.33375000  0.99399000  0.37299000  1.0
  C  C63  1  0.98269000  0.39022000  0.98108000  1.0
  C  C64  1  0.36527000  0.19116000  0.60409000  1.0
  C  C65  1  0.86661000  0.08676000  0.17070000  1.0
  C  C66  1  0.71078000  0.78705000  0.23832000  1.0
  C  C67  1  0.43374000  0.27622000  0.68856000  1.0
  C  C68  1  0.64254000  0.71020000  0.14969000  1.0
  C  C69  1  0.61771000  0.18439000  0.24439000  1.0
  C  C70  1  0.13733000  0.82025000  0.75667000  1.0
  C  C71  1  0.39457000  0.33546000  0.73383000  1.0
  C  C72  1  0.68432000  0.68691000  0.08685000  1.0
  C  C73  1  0.28466000  0.30687000  0.69162000  1.0
  C  C74  1  0.79595000  0.74270000  0.11476000  1.0
  C  C75  1  0.21584000  0.22125000  0.60713000  1.0
  C  C76  1  0.64864000  0.28818000  0.25252000  1.0
  C  C77  1  0.86404000  0.82089000  0.20311000  1.0
  C  C78  1  0.25584000  0.16307000  0.56303000  1.0
  C  C79  1  0.82172000  0.84321000  0.26521000  1.0
  C  C80  1  0.47051000  0.52295000  0.84031000  1.0
  C  C81  1  0.60893000  0.50412000  0.97754000  1.0
  C  C82  1  0.53854000  0.61097000  0.92431000  1.0
  C  C83  1  0.53612000  0.41466000  0.89584000  1.0
  C  C84  1  0.61152000  0.60129000  0.99359000  1.0
  C  C85  1  0.46783000  0.42532000  0.82420000  1.0
  C  C86  1  0.39238000  0.09223000  0.37495000  1.0
  C  C87  1  0.07467000  0.71809000  0.74716000  1.0
  C  C88  1  0.98831000  0.30584000  0.92707000  1.0
  C  C89  1  0.97657000  0.63388000  0.66800000  1.0
  C  C90  1  0.70132000  0.38106000  0.33816000  1.0
  C  C91  1  0.81324000  0.57330000  0.42401000  1.0
  C  C92  1  0.83863000  0.44719000  0.58725000  1.0
  C  C93  1  0.37078000  0.80117000  0.16973000  1.0
  C  C94  1  0.59378000  0.95448000  0.83047000  1.0
  C  C95  1  0.74230000  0.48557000  0.34424000  1.0
  C  C96  1  0.92208000  0.53170000  0.66419000  1.0
  C  C97  1  0.72890000  0.37218000  0.42101000  1.0
  C  C98  1  0.45157000  0.83170000  0.25597000  1.0
  C  C99  1  0.93480000  0.64663000  0.58863000  1.0
  C  C100  1  0.80229000  0.45919000  0.50499000  1.0
  C  C101  1  0.84956000  0.56231000  0.50691000  1.0
  C  C102  1  0.44213000  0.80581000  0.33159000  1.0
  C  C103  1  0.51163000  0.84928000  0.65654000  1.0
  C  C104  1  0.62083000  0.87009000  0.57165000  1.0
  C  C105  1  0.33049000  0.74636000  0.40800000  1.0
  C  C106  1  0.61323000  0.87974000  0.65245000  1.0
  C  C107  1  0.33927000  0.75529000  0.33120000  1.0
  C  C108  1  0.41888000  0.79818000  0.57473000  1.0
  C  C109  1  0.50703000  0.88444000  0.74404000  1.0
  C  C110  1  0.53360000  0.83688000  0.40912000  1.0
  C  C111  1  0.42397000  0.78827000  0.49080000  1.0
  C  C112  1  0.52751000  0.83005000  0.48938000  1.0
  C  C113  1  0.22487000  0.93144000  0.31127000  1.0
  C  C114  1  0.01794000  0.41744000  0.07471000  1.0
  C  C115  1  0.17521000  0.96689000  0.25200000  1.0
  C  C116  1  0.05624000  0.35941000  0.11354000  1.0
  C  C117  1  0.60891000  0.29240000  0.93574000  1.0
  C  C118  1  0.43024000  0.71200000  0.91729000  1.0
  C  C119  1  0.23347000  0.06525000  0.25333000  1.0
  C  C120  1  0.52632000  0.31323000  0.89356000  1.0
  C  C121  1  0.05984000  0.27282000  0.05948000  1.0
  C  C122  1  0.54557000  0.90217000  0.25598000  1.0
  C  C123  1  0.41551000  0.87572000  0.75867000  1.0
  C  C124  1  0.43174000  0.21834000  0.86129000  1.0
  C  C125  1  0.60642000  0.81127000  0.00108000  1.0
  C  C126  1  0.63929000  0.28043000  0.16495000  1.0
  C  C127  1  0.13513000  0.71624000  0.82818000  1.0
  C  C128  1  0.31361000  0.02107000  0.10855000  1.0
  C  C129  1  0.85806000  0.15324000  0.06835000  1.0
  C  C130  1  0.29238000  0.10415000  0.10230000  1.0
  C  C131  1  0.52747000  0.70666000  0.94262000  1.0
  C  C132  1  0.93000000  0.13656000  0.13132000  1.0
  C  C133  1  0.08874000  0.10975000  0.19301000  1.0
  N  N134  1  0.36824000  0.06318000  0.00949000  1.0
  N  N135  1  0.44647000  0.93737000  0.84588000  1.0
  N  N136  1  0.45645000  0.14729000  0.88310000  1.0
  N  N137  1  0.55890000  0.87248000  0.01078000  1.0
  N  N138  1  0.60826000  0.18077000  0.11141000  1.0
  N  N139  1  0.22526000  0.80898000  0.88049000  1.0
  N  N140  1  0.35793000  0.99755000  0.05228000  1.0
  N  N141  1  0.76225000  0.11802000  0.07137000  1.0
  N  N142  1  0.76670000  0.07634000  0.13479000  1.0
  N  N143  1  0.59525000  0.12212000  0.16024000  1.0
  N  N144  1  0.22648000  0.87387000  0.83612000  1.0
  N  N145  1  0.41370000  0.84893000  0.12263000  1.0
  N  N146  1  0.55586000  0.98579000  0.88995000  1.0
  N  N147  1  0.56690000  0.19323000  0.92896000  1.0
  N  N148  1  0.45041000  0.81143000  0.95955000  1.0
  N  N149  1  0.52263000  0.91161000  0.17653000  1.0
  F  F150  1  0.95678000  0.51550000  0.74145000  1.0
  F  F151  1  0.71265000  0.49920000  0.26521000  1.0
