# generated using pymatgen
data_Na2H22W(C4O7)3
_symmetry_space_group_name_H-M   'P 1'
_cell_length_a   7.89509000
_cell_length_b   15.70610000
_cell_length_c   19.03970000
_cell_angle_alpha   89.99920000
_cell_angle_beta   90.00000000
_cell_angle_gamma   93.40290000
_symmetry_Int_Tables_number   1
_chemical_formula_structural   Na2H22W(C4O7)3
_chemical_formula_sum   'Na8 H88 W4 C48 O84'
_cell_volume   2356.78047394
_cell_formula_units_Z   4
loop_
 _symmetry_equiv_pos_site_id
 _symmetry_equiv_pos_as_xyz
  1  'x, y, z'
loop_
 _atom_site_type_symbol
 _atom_site_label
 _atom_site_symmetry_multiplicity
 _atom_site_fract_x
 _atom_site_fract_y
 _atom_site_fract_z
 _atom_site_occupancy
  Na  Na0  1  0.42177000  0.90913000  0.85500000  1.0
  Na  Na1  1  0.57826000  0.59087000  0.35500000  1.0
  Na  Na2  1  0.57823000  0.09087000  0.14500000  1.0
  Na  Na3  1  0.42175000  0.40913000  0.64500000  1.0
  Na  Na4  1  0.07973000  0.84637000  0.12465000  1.0
  Na  Na5  1  0.92027000  0.65362000  0.62465000  1.0
  Na  Na6  1  0.92023000  0.15362000  0.87536000  1.0
  Na  Na7  1  0.07976000  0.34639000  0.37536000  1.0
  H  H8  1  0.13927000  0.99859000  0.92858000  1.0
  H  H9  1  0.86076000  0.50141000  0.42858000  1.0
  H  H10  1  0.86076000  0.00139000  0.07143000  1.0
  H  H11  1  0.13924000  0.49860000  0.57143000  1.0
  H  H12  1  0.06570000  0.90239000  0.91401000  1.0
  H  H13  1  0.93432000  0.59761000  0.41400000  1.0
  H  H14  1  0.93433000  0.09760000  0.08601000  1.0
  H  H15  1  0.06566000  0.40240000  0.58600000  1.0
  H  H16  1  0.49899000  0.58628000  0.13519000  1.0
  H  H17  1  0.50101000  0.91372000  0.63517000  1.0
  H  H18  1  0.50095000  0.41372000  0.86481000  1.0
  H  H19  1  0.49901000  0.08629000  0.36480000  1.0
  H  H20  1  0.48119000  0.62290000  0.04847000  1.0
  H  H21  1  0.51883000  0.87708000  0.54847000  1.0
  H  H22  1  0.51875000  0.37709000  0.95152000  1.0
  H  H23  1  0.48121000  0.12292000  0.45151000  1.0
  H  H24  1  0.06097000  0.60997000  0.11466000  1.0
  H  H25  1  0.93904000  0.89003000  0.61467000  1.0
  H  H26  1  0.93896000  0.39002000  0.88532000  1.0
  H  H27  1  0.06099000  0.10999000  0.38532000  1.0
  H  H28  1  0.46732000  0.75242000  0.21103000  1.0
  H  H29  1  0.53269000  0.74757000  0.71103000  1.0
  H  H30  1  0.53260000  0.24759000  0.78896000  1.0
  H  H31  1  0.46736000  0.25244000  0.28896000  1.0
  H  H32  1  0.64161000  0.69047000  0.22911000  1.0
  H  H33  1  0.35840000  0.80953000  0.72910000  1.0
  H  H34  1  0.35829000  0.30955000  0.77089000  1.0
  H  H35  1  0.64164000  0.19047000  0.27088000  1.0
  H  H36  1  0.69179000  0.93739000  0.25340000  1.0
  H  H37  1  0.30818000  0.56261000  0.75340000  1.0
  H  H38  1  0.30816000  0.06261000  0.74661000  1.0
  H  H39  1  0.69187000  0.43740000  0.24661000  1.0
  H  H40  1  0.05474000  0.80612000  0.79097000  1.0
  H  H41  1  0.94530000  0.69390000  0.29097000  1.0
  H  H42  1  0.94528000  0.19387000  0.20903000  1.0
  H  H43  1  0.05469000  0.30611000  0.70903000  1.0
  H  H44  1  0.87640000  0.74204000  0.76102000  1.0
  H  H45  1  0.12365000  0.75798000  0.26102000  1.0
  H  H46  1  0.12363000  0.25795000  0.23899000  1.0
  H  H47  1  0.87634000  0.24203000  0.73898000  1.0
  H  H48  1  0.83677000  0.99403000  0.77926000  1.0
  H  H49  1  0.16328000  0.50599000  0.27925000  1.0
  H  H50  1  0.16324000  0.00596000  0.22075000  1.0
  H  H51  1  0.83674000  0.49402000  0.72074000  1.0
  H  H52  1  0.00541000  0.65119000  0.93965000  1.0
  H  H53  1  0.99463000  0.84884000  0.43965000  1.0
  H  H54  1  0.99463000  0.34883000  0.06036000  1.0
  H  H55  1  0.00536000  0.15116000  0.56036000  1.0
  H  H56  1  0.02762000  0.63388000  0.84834000  1.0
  H  H57  1  0.97241000  0.86614000  0.34834000  1.0
  H  H58  1  0.97241000  0.36612000  0.15167000  1.0
  H  H59  1  0.02758000  0.13387000  0.65167000  1.0
  H  H60  1  0.43531000  0.69338000  0.93302000  1.0
  H  H61  1  0.56473000  0.80663000  0.43302000  1.0
  H  H62  1  0.56473000  0.30663000  0.06699000  1.0
  H  H63  1  0.43526000  0.19337000  0.56698000  1.0
  H  H64  1  0.45111000  0.09675000  0.87661000  1.0
  H  H65  1  0.54889000  0.40323000  0.37661000  1.0
  H  H66  1  0.54893000  0.90326000  0.12339000  1.0
  H  H67  1  0.45108000  0.59674000  0.62339000  1.0
  H  H68  1  0.59877000  0.05827000  0.91530000  1.0
  H  H69  1  0.40124000  0.44174000  0.41530000  1.0
  H  H70  1  0.40123000  0.94172000  0.08471000  1.0
  H  H71  1  0.59877000  0.55827000  0.58470000  1.0
  H  H72  1  0.23944000  0.90405000  0.98870000  1.0
  H  H73  1  0.76058000  0.59595000  0.48870000  1.0
  H  H74  1  0.76060000  0.09592000  0.01131000  1.0
  H  H75  1  0.23939000  0.40407000  0.51131000  1.0
  H  H76  1  0.35193000  0.83747000  0.02776000  1.0
  H  H77  1  0.64809000  0.66252000  0.52776000  1.0
  H  H78  1  0.64808000  0.16250000  0.97227000  1.0
  H  H79  1  0.35190000  0.33750000  0.47227000  1.0
  H  H80  1  0.26486000  0.90104000  0.26509000  1.0
  H  H81  1  0.73515000  0.59895000  0.76508000  1.0
  H  H82  1  0.73513000  0.09895000  0.73492000  1.0
  H  H83  1  0.26487000  0.40105000  0.23492000  1.0
  H  H84  1  0.34556000  0.93387000  0.19049000  1.0
  H  H85  1  0.65443000  0.56612000  0.69048000  1.0
  H  H86  1  0.65444000  0.06612000  0.80952000  1.0
  H  H87  1  0.34558000  0.43388000  0.30952000  1.0
  H  H88  1  0.23091000  0.93587000  0.70392000  1.0
  H  H89  1  0.76913000  0.56413000  0.20393000  1.0
  H  H90  1  0.76912000  0.06413000  0.29608000  1.0
  H  H91  1  0.23085000  0.43587000  0.79609000  1.0
  H  H92  1  0.13453000  0.95869000  0.77148000  1.0
  H  H93  1  0.86551000  0.54132000  0.27149000  1.0
  H  H94  1  0.86547000  0.04129000  0.22852000  1.0
  H  H95  1  0.13451000  0.45870000  0.72852000  1.0
  W  W96  1  0.74316000  0.82839000  0.99993000  1.0
  W  W97  1  0.25685000  0.67160000  0.49993000  1.0
  W  W98  1  0.25683000  0.17160000  0.00007000  1.0
  W  W99  1  0.74316000  0.32839000  0.50007000  1.0
  C  C100  1  0.78532000  0.68332000  0.10140000  1.0
  C  C101  1  0.21469000  0.81667000  0.60139000  1.0
  C  C102  1  0.21461000  0.31667000  0.89861000  1.0
  C  C103  1  0.78535000  0.18333000  0.39859000  1.0
  C  C104  1  0.60749000  0.71561000  0.11882000  1.0
  C  C105  1  0.39252000  0.78439000  0.61882000  1.0
  C  C106  1  0.39245000  0.28439000  0.88118000  1.0
  C  C107  1  0.60751000  0.21562000  0.38117000  1.0
  C  C108  1  0.47228000  0.64264000  0.10370000  1.0
  C  C109  1  0.52773000  0.85735000  0.60370000  1.0
  C  C110  1  0.52766000  0.35736000  0.89629000  1.0
  C  C111  1  0.47230000  0.14265000  0.39629000  1.0
  C  C112  1  0.28880000  0.66243000  0.11707000  1.0
  C  C113  1  0.71121000  0.83757000  0.61707000  1.0
  C  C114  1  0.71113000  0.33756000  0.88292000  1.0
  C  C115  1  0.28883000  0.16245000  0.38292000  1.0
  C  C116  1  0.59852000  0.74270000  0.19662000  1.0
  C  C117  1  0.40148000  0.75729000  0.69662000  1.0
  C  C118  1  0.40139000  0.25731000  0.80337000  1.0
  C  C119  1  0.59856000  0.24271000  0.30336000  1.0
  C  C120  1  0.70819000  0.82172000  0.21468000  1.0
  C  C121  1  0.29181000  0.67828000  0.71468000  1.0
  C  C122  1  0.29174000  0.17829000  0.78532000  1.0
  C  C123  1  0.70824000  0.32172000  0.28531000  1.0
  C  C124  1  0.72847000  0.69740000  0.88234000  1.0
  C  C125  1  0.27157000  0.80261000  0.38234000  1.0
  C  C126  1  0.27156000  0.30259000  0.11766000  1.0
  C  C127  1  0.72842000  0.19740000  0.61766000  1.0
  C  C128  1  0.90139000  0.74830000  0.87415000  1.0
  C  C129  1  0.09865000  0.75171000  0.37415000  1.0
  C  C130  1  0.09864000  0.25170000  0.12585000  1.0
  C  C131  1  0.90135000  0.24829000  0.62585000  1.0
  C  C132  1  0.92077000  0.78883000  0.80067000  1.0
  C  C133  1  0.07927000  0.71118000  0.30066000  1.0
  C  C134  1  0.07925000  0.21116000  0.19934000  1.0
  C  C135  1  0.92073000  0.28882000  0.69934000  1.0
  C  C136  1  0.81714000  0.86639000  0.79393000  1.0
  C  C137  1  0.18290000  0.63362000  0.29393000  1.0
  C  C138  1  0.18288000  0.13360000  0.20607000  1.0
  C  C139  1  0.81710000  0.36639000  0.70607000  1.0
  C  C140  1  0.03590000  0.68315000  0.88959000  1.0
  C  C141  1  0.96414000  0.81687000  0.38959000  1.0
  C  C142  1  0.96414000  0.31685000  0.11042000  1.0
  C  C143  1  0.03585000  0.18313000  0.61042000  1.0
  C  C144  1  0.21863000  0.71774000  0.89247000  1.0
  C  C145  1  0.78141000  0.78226000  0.39247000  1.0
  C  C146  1  0.78140000  0.28226000  0.10753000  1.0
  C  C147  1  0.21858000  0.21774000  0.60753000  1.0
  O  O148  1  0.86497000  0.72350000  0.05151000  1.0
  O  O149  1  0.13504000  0.77649000  0.55151000  1.0
  O  O150  1  0.13498000  0.27649000  0.94850000  1.0
  O  O151  1  0.86498000  0.22350000  0.44849000  1.0
  O  O152  1  0.58232000  0.78643000  0.07360000  1.0
  O  O153  1  0.41769000  0.71357000  0.57360000  1.0
  O  O154  1  0.41764000  0.21357000  0.92639000  1.0
  O  O155  1  0.58234000  0.28644000  0.42638000  1.0
  O  O156  1  0.84489000  0.62212000  0.13375000  1.0
  O  O157  1  0.15513000  0.87788000  0.63374000  1.0
  O  O158  1  0.15503000  0.37787000  0.86626000  1.0
  O  O159  1  0.84492000  0.12213000  0.36624000  1.0
  O  O160  1  0.18199000  0.59492000  0.10576000  1.0
  O  O161  1  0.81802000  0.90508000  0.60577000  1.0
  O  O162  1  0.81794000  0.40507000  0.89422000  1.0
  O  O163  1  0.18201000  0.09494000  0.39421000  1.0
  O  O164  1  0.24243000  0.73208000  0.13647000  1.0
  O  O165  1  0.75758000  0.76791000  0.63647000  1.0
  O  O166  1  0.75749000  0.26789000  0.86354000  1.0
  O  O167  1  0.24247000  0.23211000  0.36352000  1.0
  O  O168  1  0.62473000  0.87917000  0.24925000  1.0
  O  O169  1  0.37525000  0.62082000  0.74925000  1.0
  O  O170  1  0.37521000  0.12083000  0.75076000  1.0
  O  O171  1  0.62480000  0.37918000  0.25075000  1.0
  O  O172  1  0.85967000  0.83170000  0.19867000  1.0
  O  O173  1  0.14032000  0.66831000  0.69868000  1.0
  O  O174  1  0.14025000  0.16831000  0.80132000  1.0
  O  O175  1  0.85974000  0.33168000  0.30131000  1.0
  O  O176  1  0.64137000  0.71992000  0.93700000  1.0
  O  O177  1  0.35866000  0.78008000  0.43701000  1.0
  O  O178  1  0.35864000  0.28007000  0.06299000  1.0
  O  O179  1  0.64134000  0.21992000  0.56299000  1.0
  O  O180  1  0.91165000  0.81440000  0.92557000  1.0
  O  O181  1  0.08837000  0.68561000  0.42557000  1.0
  O  O182  1  0.08836000  0.18560000  0.07444000  1.0
  O  O183  1  0.91163000  0.31439000  0.57443000  1.0
  O  O184  1  0.68291000  0.63828000  0.84259000  1.0
  O  O185  1  0.31713000  0.86174000  0.34260000  1.0
  O  O186  1  0.31714000  0.36171000  0.15742000  1.0
  O  O187  1  0.68284000  0.13828000  0.65741000  1.0
  O  O188  1  0.90991000  0.93855000  0.78256000  1.0
  O  O189  1  0.09013000  0.56147000  0.28256000  1.0
  O  O190  1  0.09010000  0.06144000  0.21744000  1.0
  O  O191  1  0.90988000  0.43854000  0.71744000  1.0
  O  O192  1  0.66112000  0.86284000  0.79854000  1.0
  O  O193  1  0.33892000  0.63718000  0.29855000  1.0
  O  O194  1  0.33890000  0.13715000  0.20146000  1.0
  O  O195  1  0.66108000  0.36283000  0.70146000  1.0
  O  O196  1  0.31049000  0.67429000  0.93721000  1.0
  O  O197  1  0.68954000  0.82572000  0.43720000  1.0
  O  O198  1  0.68954000  0.32572000  0.06280000  1.0
  O  O199  1  0.31045000  0.17428000  0.56280000  1.0
  O  O200  1  0.27882000  0.77735000  0.85661000  1.0
  O  O201  1  0.72124000  0.72264000  0.35662000  1.0
  O  O202  1  0.72122000  0.22263000  0.14337000  1.0
  O  O203  1  0.27875000  0.27736000  0.64337000  1.0
  O  O204  1  0.87905000  0.90270000  0.04654000  1.0
  O  O205  1  0.12096000  0.59730000  0.54654000  1.0
  O  O206  1  0.12093000  0.09730000  0.95346000  1.0
  O  O207  1  0.87905000  0.40270000  0.45346000  1.0
  O  O208  1  0.59342000  0.89134000  0.96087000  1.0
  O  O209  1  0.40658000  0.60865000  0.46087000  1.0
  O  O210  1  0.40658000  0.10865000  0.03912000  1.0
  O  O211  1  0.59341000  0.39134000  0.53912000  1.0
  O  O212  1  0.17026000  0.94004000  0.91497000  1.0
  O  O213  1  0.82977000  0.55996000  0.41497000  1.0
  O  O214  1  0.82977000  0.05994000  0.08504000  1.0
  O  O215  1  0.17021000  0.44005000  0.58505000  1.0
  O  O216  1  0.52001000  0.04721000  0.87440000  1.0
  O  O217  1  0.48001000  0.45279000  0.37441000  1.0
  O  O218  1  0.48000000  0.95280000  0.12560000  1.0
  O  O219  1  0.52000000  0.54720000  0.62559000  1.0
  O  O220  1  0.26800000  0.87958000  0.03589000  1.0
  O  O221  1  0.73202000  0.62041000  0.53589000  1.0
  O  O222  1  0.73201000  0.12039000  0.96412000  1.0
  O  O223  1  0.26798000  0.37961000  0.46412000  1.0
  O  O224  1  0.23689000  0.92555000  0.21824000  1.0
  O  O225  1  0.76311000  0.57444000  0.71824000  1.0
  O  O226  1  0.76310000  0.07444000  0.78176000  1.0
  O  O227  1  0.23691000  0.42557000  0.28176000  1.0
  O  O228  1  0.24896000  0.96505000  0.75014000  1.0
  O  O229  1  0.75108000  0.53496000  0.25015000  1.0
  O  O230  1  0.75104000  0.03495000  0.24986000  1.0
  O  O231  1  0.24893000  0.46505000  0.74986000  1.0
