# generated using pymatgen
data_Mn3H34C54(N2O3)4
_symmetry_space_group_name_H-M   'P 1'
_cell_length_a   9.71041000
_cell_length_b   11.58160000
_cell_length_c   11.66980000
_cell_angle_alpha   104.32300000
_cell_angle_beta   110.34500000
_cell_angle_gamma   105.72500000
_symmetry_Int_Tables_number   1
_chemical_formula_structural   Mn3H34C54(N2O3)4
_chemical_formula_sum   'Mn3 H34 C54 N8 O12'
_cell_volume   1096.35364597
_cell_formula_units_Z   1
loop_
 _symmetry_equiv_pos_site_id
 _symmetry_equiv_pos_as_xyz
  1  'x, y, z'
loop_
 _atom_site_type_symbol
 _atom_site_label
 _atom_site_symmetry_multiplicity
 _atom_site_fract_x
 _atom_site_fract_y
 _atom_site_fract_z
 _atom_site_occupancy
  Mn  Mn0  1  0.00104000  0.50135000  0.50208000  1.0
  Mn  Mn1  1  0.91817000  0.23488000  0.55363000  1.0
  Mn  Mn2  1  0.09461000  0.75556000  0.43663000  1.0
  H  H3  1  0.42363000  0.26939000  0.55588000  1.0
  H  H4  1  0.57009000  0.72072000  0.44578000  1.0
  H  H5  1  0.55448000  0.41369000  0.28754000  1.0
  H  H6  1  0.45429000  0.58367000  0.72281000  1.0
  H  H7  1  0.09941000  0.37667000  0.28445000  1.0
  H  H8  1  0.90939000  0.62832000  0.71989000  1.0
  H  H9  1  0.02433000  0.30192000  0.06028000  1.0
  H  H10  1  0.98516000  0.69372000  0.94903000  1.0
  H  H11  1  0.95007000  0.34601000  0.85538000  1.0
  H  H12  1  0.05313000  0.64017000  0.14870000  1.0
  H  H13  1  0.43137000  0.61832000  0.00525000  1.0
  H  H14  1  0.56704000  0.37424000  0.99154000  1.0
  H  H15  1  0.51034000  0.56991000  0.20856000  1.0
  H  H16  1  0.49531000  0.43014000  0.79268000  1.0
  H  H17  1  0.26030000  0.81055000  0.00643000  1.0
  H  H18  1  0.73512000  0.19355000  0.99118000  1.0
  H  H19  1  0.53447000  0.22278000  0.14852000  1.0
  H  H20  1  0.46436000  0.78093000  0.84814000  1.0
  H  H21  1  0.43154000  0.81611000  0.19457000  1.0
  H  H22  1  0.57851000  0.18423000  0.80009000  1.0
  H  H23  1  0.67506000  0.03421000  0.63453000  1.0
  H  H24  1  0.32673000  0.97664000  0.35747000  1.0
  H  H25  1  0.04033000  0.83217000  0.84038000  1.0
  H  H26  1  0.95758000  0.17320000  0.15863000  1.0
  H  H27  1  0.82214000  0.93076000  0.80969000  1.0
  H  H28  1  0.17372000  0.07670000  0.18144000  1.0
  H  H29  1  0.31159000  0.24260000  0.98573000  1.0
  H  H30  1  0.69042000  0.76236000  0.01245000  1.0
  H  H31  1  0.17139000  0.18902000  0.75233000  1.0
  H  H32  1  0.83297000  0.82030000  0.24856000  1.0
  H  H33  1  0.71787000  0.20421000  0.27452000  1.0
  H  H34  1  0.27357000  0.80793000  0.73445000  1.0
  H  H35  1  0.71136000  0.90605000  0.42276000  1.0
  H  H36  1  0.28863000  0.10113000  0.58052000  1.0
  C  C37  1  0.50510000  0.34139000  0.42735000  1.0
  C  C38  1  0.49792000  0.65330000  0.58047000  1.0
  C  C39  1  0.24750000  0.31766000  0.42341000  1.0
  C  C40  1  0.75129000  0.67860000  0.57821000  1.0
  C  C41  1  0.31749000  0.39425000  0.26595000  1.0
  C  C42  1  0.69114000  0.60547000  0.74085000  1.0
  C  C43  1  0.39423000  0.30442000  0.47576000  1.0
  C  C44  1  0.60388000  0.68875000  0.52781000  1.0
  C  C45  1  0.46599000  0.38643000  0.32359000  1.0
  C  C46  1  0.54084000  0.61069000  0.68479000  1.0
  C  C47  1  0.27306000  0.43088000  0.14947000  1.0
  C  C48  1  0.73510000  0.56721000  0.85619000  1.0
  C  C49  1  0.18696000  0.48268000  0.91522000  1.0
  C  C50  1  0.81344000  0.50533000  0.08460000  1.0
  C  C51  1  0.14379000  0.51722000  0.79547000  1.0
  C  C52  1  0.84839000  0.46603000  0.20187000  1.0
  C  C53  1  0.66955000  0.33947000  0.48050000  1.0
  C  C54  1  0.33752000  0.65891000  0.52785000  1.0
  C  C55  1  0.21122000  0.36307000  0.31985000  1.0
  C  C56  1  0.79502000  0.63818000  0.68461000  1.0
  C  C57  1  0.11500000  0.37117000  0.04906000  1.0
  C  C58  1  0.89229000  0.62381000  0.95767000  1.0
  C  C59  1  0.07263000  0.39471000  0.93283000  1.0
  C  C60  1  0.93073000  0.59462000  0.07086000  1.0
  C  C61  1  0.34349000  0.54709000  0.01739000  1.0
  C  C62  1  0.65734000  0.44564000  0.98186000  1.0
  C  C63  1  0.12624000  0.28571000  0.47080000  1.0
  C  C64  1  0.85885000  0.70658000  0.51519000  1.0
  C  C65  1  0.38714000  0.52019000  0.13170000  1.0
  C  C66  1  0.61801000  0.47694000  0.87038000  1.0
  C  C67  1  0.41045000  0.01659000  0.09555000  1.0
  C  C68  1  0.58861000  0.98753000  0.90364000  1.0
  C  C69  1  0.15939000  0.03921000  0.90449000  1.0
  C  C70  1  0.83876000  0.96650000  0.09257000  1.0
  C  C71  1  0.27106000  0.90683000  0.00709000  1.0
  C  C72  1  0.72669000  0.09806000  0.99146000  1.0
  C  C73  1  0.42554000  0.13676000  0.08454000  1.0
  C  C74  1  0.57307000  0.86702000  0.91352000  1.0
  C  C75  1  0.53092000  0.90944000  0.24512000  1.0
  C  C76  1  0.47340000  0.09498000  0.75397000  1.0
  C  C77  1  0.80003000  0.05167000  0.68572000  1.0
  C  C78  1  0.20110000  0.95821000  0.30775000  1.0
  C  C79  1  0.14614000  0.91837000  0.91193000  1.0
  C  C80  1  0.85175000  0.08738000  0.08648000  1.0
  C  C81  1  0.87071000  0.99956000  0.77157000  1.0
  C  C82  1  0.12786000  0.00884000  0.22153000  1.0
  C  C83  1  0.30080000  0.14791000  0.99013000  1.0
  C  C84  1  0.69877000  0.85658000  0.00759000  1.0
  C  C85  1  0.05652000  0.13633000  0.74568000  1.0
  C  C86  1  0.94645000  0.87302000  0.25265000  1.0
  C  C87  1  0.67753000  0.11232000  0.28544000  1.0
  C  C88  1  0.31655000  0.89827000  0.72137000  1.0
  C  C89  1  0.66919000  0.95591000  0.35957000  1.0
  C  C90  1  0.33073000  0.05205000  0.64465000  1.0
  N  N91  1  0.53568000  0.01012000  0.19922000  1.0
  N  N92  1  0.46412000  0.99545000  0.80164000  1.0
  N  N93  1  0.03367000  0.05440000  0.80934000  1.0
  N  N94  1  0.96609000  0.95318000  0.18684000  1.0
  N  N95  1  0.91737000  0.13716000  0.66999000  1.0
  N  N96  1  0.08638000  0.87399000  0.32615000  1.0
  N  N97  1  0.75834000  0.08360000  0.38535000  1.0
  N  N98  1  0.23426000  0.92909000  0.62487000  1.0
  O  O99  1  0.04260000  0.42664000  0.68009000  1.0
  O  O100  1  0.96569000  0.54891000  0.31488000  1.0
  O  O101  1  0.13021000  0.22958000  0.55334000  1.0
  O  O102  1  0.82592000  0.74713000  0.42239000  1.0
  O  O103  1  0.00030000  0.31262000  0.42661000  1.0
  O  O104  1  0.99001000  0.68716000  0.56023000  1.0
  O  O105  1  0.70287000  0.26536000  0.54113000  1.0
  O  O106  1  0.30881000  0.72550000  0.45704000  1.0
  O  O107  1  0.76700000  0.41402000  0.45406000  1.0
  O  O108  1  0.23919000  0.59836000  0.56318000  1.0
  O  O109  1  0.20447000  0.63349000  0.81083000  1.0
  O  O110  1  0.76436000  0.35445000  0.18476000  1.0
