# generated using pymatgen
data_Zn2H5C7NO6
_symmetry_space_group_name_H-M   'P 1'
_cell_length_a   5.24263000
_cell_length_b   8.86854000
_cell_length_c   19.56400000
_cell_angle_alpha   89.99750000
_cell_angle_beta   90.00030000
_cell_angle_gamma   90.00000000
_symmetry_Int_Tables_number   1
_chemical_formula_structural   Zn2H5C7NO6
_chemical_formula_sum   'Zn8 H20 C28 N4 O24'
_cell_volume   909.61788572
_cell_formula_units_Z   4
loop_
 _symmetry_equiv_pos_site_id
 _symmetry_equiv_pos_as_xyz
  1  'x, y, z'
loop_
 _atom_site_type_symbol
 _atom_site_label
 _atom_site_symmetry_multiplicity
 _atom_site_fract_x
 _atom_site_fract_y
 _atom_site_fract_z
 _atom_site_occupancy
  Zn  Zn0  1  0.88193000  0.81907000  0.48025000  1.0
  Zn  Zn1  1  0.38194000  0.18093000  0.51975000  1.0
  Zn  Zn2  1  0.88182000  0.31907000  0.01975000  1.0
  Zn  Zn3  1  0.38181000  0.68094000  0.98025000  1.0
  Zn  Zn4  1  0.39899000  0.08787000  0.97567000  1.0
  Zn  Zn5  1  0.89898000  0.91213000  0.02433000  1.0
  Zn  Zn6  1  0.39909000  0.58787000  0.52433000  1.0
  Zn  Zn7  1  0.89909000  0.41212000  0.47567000  1.0
  H  H8  1  0.42430000  0.84394000  0.49325000  1.0
  H  H9  1  0.92430000  0.15605000  0.50675000  1.0
  H  H10  1  0.42419000  0.34394000  0.00675000  1.0
  H  H11  1  0.92418000  0.65606000  0.99325000  1.0
  H  H12  1  0.97628000  0.59793000  0.56520000  1.0
  H  H13  1  0.47627000  0.40206000  0.43480000  1.0
  H  H14  1  0.97616000  0.09797000  0.93480000  1.0
  H  H15  1  0.47616000  0.90204000  0.06520000  1.0
  H  H16  1  0.55702000  0.07284000  0.26848000  1.0
  H  H17  1  0.05704000  0.92716000  0.73152000  1.0
  H  H18  1  0.55700000  0.57285000  0.23152000  1.0
  H  H19  1  0.05701000  0.42715000  0.76848000  1.0
  H  H20  1  0.18688000  0.77507000  0.22638000  1.0
  H  H21  1  0.68689000  0.22492000  0.77362000  1.0
  H  H22  1  0.18684000  0.27507000  0.27362000  1.0
  H  H23  1  0.68684000  0.72493000  0.72638000  1.0
  H  H24  1  0.22784000  0.73469000  0.35409000  1.0
  H  H25  1  0.72785000  0.26530000  0.64591000  1.0
  H  H26  1  0.22776000  0.23468000  0.14590000  1.0
  H  H27  1  0.72776000  0.76533000  0.85410000  1.0
  C  C28  1  0.58523000  0.06174000  0.40428000  1.0
  C  C29  1  0.08524000  0.93825000  0.59572000  1.0
  C  C30  1  0.58514000  0.56175000  0.09572000  1.0
  C  C31  1  0.08514000  0.43826000  0.90428000  1.0
  C  C32  1  0.75047000  0.97659000  0.35469000  1.0
  C  C33  1  0.25050000  0.02340000  0.64531000  1.0
  C  C34  1  0.75041000  0.47660000  0.14531000  1.0
  C  C35  1  0.25041000  0.52341000  0.85469000  1.0
  C  C36  1  0.71004000  0.99890000  0.28532000  1.0
  C  C37  1  0.21006000  0.00110000  0.71468000  1.0
  C  C38  1  0.71002000  0.49891000  0.21468000  1.0
  C  C39  1  0.21001000  0.50111000  0.78532000  1.0
  C  C40  1  0.86404000  0.92452000  0.23806000  1.0
  C  C41  1  0.36406000  0.07547000  0.76194000  1.0
  C  C42  1  0.86403000  0.42452000  0.26194000  1.0
  C  C43  1  0.36403000  0.57548000  0.73806000  1.0
  C  C44  1  0.05982000  0.83167000  0.26232000  1.0
  C  C45  1  0.55984000  0.16832000  0.73768000  1.0
  C  C46  1  0.05979000  0.33168000  0.23768000  1.0
  C  C47  1  0.55979000  0.66832000  0.76232000  1.0
  C  C48  1  0.08339000  0.81011000  0.33282000  1.0
  C  C49  1  0.58340000  0.18988000  0.66718000  1.0
  C  C50  1  0.08334000  0.31012000  0.16718000  1.0
  C  C51  1  0.58333000  0.68990000  0.83282000  1.0
  C  C52  1  0.80340000  0.94215000  0.16317000  1.0
  C  C53  1  0.30341000  0.05785000  0.83683000  1.0
  C  C54  1  0.80340000  0.44214000  0.33683000  1.0
  C  C55  1  0.30341000  0.55785000  0.66317000  1.0
  N  N56  1  0.93005000  0.87969000  0.37822000  1.0
  N  N57  1  0.43007000  0.12030000  0.62178000  1.0
  N  N58  1  0.92998000  0.37970000  0.12178000  1.0
  N  N59  1  0.42998000  0.62031000  0.87822000  1.0
  O  O60  1  0.65404000  0.05802000  0.46870000  1.0
  O  O61  1  0.15405000  0.94197000  0.53129000  1.0
  O  O62  1  0.65394000  0.55804000  0.03129000  1.0
  O  O63  1  0.15393000  0.44197000  0.96871000  1.0
  O  O64  1  0.39501000  0.13153000  0.38360000  1.0
  O  O65  1  0.89502000  0.86847000  0.61640000  1.0
  O  O66  1  0.39492000  0.63154000  0.11639000  1.0
  O  O67  1  0.89492000  0.36848000  0.88360000  1.0
  O  O68  1  0.58483000  0.98681000  0.14690000  1.0
  O  O69  1  0.08483000  0.01320000  0.85310000  1.0
  O  O70  1  0.58483000  0.48680000  0.35310000  1.0
  O  O71  1  0.08484000  0.51318000  0.64690000  1.0
  O  O72  1  0.98494000  0.90564000  0.12185000  1.0
  O  O73  1  0.48495000  0.09436000  0.87815000  1.0
  O  O74  1  0.98496000  0.40564000  0.37814000  1.0
  O  O75  1  0.48497000  0.59436000  0.62186000  1.0
  O  O76  1  0.52152000  0.75919000  0.47411000  1.0
  O  O77  1  0.02153000  0.24080000  0.52589000  1.0
  O  O78  1  0.52143000  0.25920000  0.02589000  1.0
  O  O79  1  0.02143000  0.74081000  0.97411000  1.0
  O  O80  1  0.00952000  0.60867000  0.51522000  1.0
  O  O81  1  0.50952000  0.39133000  0.48478000  1.0
  O  O82  1  0.00943000  0.10868000  0.98478000  1.0
  O  O83  1  0.50943000  0.89133000  0.01523000  1.0
