# generated using pymatgen
data_MnP2H18C12(NO4)2
_symmetry_space_group_name_H-M   'P 1'
_cell_length_a   9.38519000
_cell_length_b   9.38520000
_cell_length_c   9.62660000
_cell_angle_alpha   100.94000000
_cell_angle_beta   100.94000000
_cell_angle_gamma   100.81000000
_symmetry_Int_Tables_number   1
_chemical_formula_structural   MnP2H18C12(NO4)2
_chemical_formula_sum   'Mn2 P4 H36 C24 N4 O16'
_cell_volume   795.10262811
_cell_formula_units_Z   2
loop_
 _symmetry_equiv_pos_site_id
 _symmetry_equiv_pos_as_xyz
  1  'x, y, z'
loop_
 _atom_site_type_symbol
 _atom_site_label
 _atom_site_symmetry_multiplicity
 _atom_site_fract_x
 _atom_site_fract_y
 _atom_site_fract_z
 _atom_site_occupancy
  Mn  Mn0  1  0.77688000  0.22312000  0.25000000  1.0
  Mn  Mn1  1  0.22312000  0.77688000  0.75000000  1.0
  P  P2  1  0.60229000  0.30922000  0.94001000  1.0
  P  P3  1  0.69079000  0.39771000  0.55999000  1.0
  P  P4  1  0.39771000  0.69079000  0.05998000  1.0
  P  P5  1  0.30921000  0.60229000  0.44002000  1.0
  H  H6  1  0.78113000  0.42166000  0.84065000  1.0
  H  H7  1  0.57834000  0.21887000  0.65935000  1.0
  H  H8  1  0.21887000  0.57835000  0.15935000  1.0
  H  H9  1  0.42165000  0.78113000  0.34065000  1.0
  H  H10  1  0.55439000  0.98373000  0.25105000  1.0
  H  H11  1  0.01627000  0.44561000  0.24895000  1.0
  H  H12  1  0.44561000  0.01627000  0.74895000  1.0
  H  H13  1  0.98374000  0.55440000  0.75105000  1.0
  H  H14  1  0.58625000  0.12337000  0.39231000  1.0
  H  H15  1  0.87663000  0.41375000  0.10769000  1.0
  H  H16  1  0.41375000  0.87663000  0.60769000  1.0
  H  H17  1  0.12337000  0.58625000  0.89231000  1.0
  H  H18  1  0.46548000  0.46791000  0.83247000  1.0
  H  H19  1  0.53209000  0.53452000  0.66753000  1.0
  H  H20  1  0.53451000  0.53209000  0.16753000  1.0
  H  H21  1  0.46792000  0.46549000  0.33246000  1.0
  H  H22  1  0.36585000  0.36472000  0.93353000  1.0
  H  H23  1  0.63528000  0.63415000  0.56647000  1.0
  H  H24  1  0.63416000  0.63528000  0.06648000  1.0
  H  H25  1  0.36472000  0.36584000  0.43352000  1.0
  H  H26  1  0.18299000  0.95433000  0.35388000  1.0
  H  H27  1  0.04567000  0.81701000  0.14612000  1.0
  H  H28  1  0.81701000  0.04568000  0.64612000  1.0
  H  H29  1  0.95432000  0.18298000  0.85388000  1.0
  H  H30  1  0.31400000  0.12334000  0.59632000  1.0
  H  H31  1  0.87665000  0.68599000  0.90369000  1.0
  H  H32  1  0.68600000  0.87666000  0.40368000  1.0
  H  H33  1  0.12334000  0.31400000  0.09632000  1.0
  H  H34  1  0.21042000  0.34487000  0.68768000  1.0
  H  H35  1  0.65513000  0.78958000  0.81232000  1.0
  H  H36  1  0.78958000  0.65513000  0.31232000  1.0
  H  H37  1  0.34487000  0.21042000  0.18768000  1.0
  H  H38  1  0.98209000  0.38143000  0.53946000  1.0
  H  H39  1  0.61857000  0.01791000  0.96054000  1.0
  H  H40  1  0.01791000  0.61857000  0.46053000  1.0
  H  H41  1  0.38143000  0.98209000  0.03947000  1.0
  C  C42  1  0.47582000  0.43242000  0.93560000  1.0
  C  C43  1  0.56758000  0.52418000  0.56439000  1.0
  C  C44  1  0.52418000  0.56758000  0.06439000  1.0
  C  C45  1  0.43243000  0.47582000  0.43561000  1.0
  C  C46  1  0.01065000  0.07572000  0.32026000  1.0
  C  C47  1  0.92428000  0.98935000  0.17974000  1.0
  C  C48  1  0.98934000  0.92428000  0.67973000  1.0
  C  C49  1  0.07572000  0.01065000  0.82027000  1.0
  C  C50  1  0.14065000  0.04902000  0.39883000  1.0
  C  C51  1  0.95098000  0.85935000  0.10117000  1.0
  C  C52  1  0.85936000  0.95098000  0.60117000  1.0
  C  C53  1  0.04902000  0.14064000  0.89884000  1.0
  C  C54  1  0.21374000  0.14290000  0.53315000  1.0
  C  C55  1  0.85710000  0.78626000  0.96685000  1.0
  C  C56  1  0.78627000  0.85711000  0.46685000  1.0
  C  C57  1  0.14289000  0.21373000  0.03315000  1.0
  C  C58  1  0.15599000  0.26463000  0.58528000  1.0
  C  C59  1  0.73537000  0.84401000  0.91472000  1.0
  C  C60  1  0.84402000  0.73538000  0.41473000  1.0
  C  C61  1  0.26462000  0.15598000  0.08528000  1.0
  C  C62  1  0.02800000  0.28706000  0.50334000  1.0
  C  C63  1  0.71294000  0.97200000  0.99666000  1.0
  C  C64  1  0.97200000  0.71294000  0.49665000  1.0
  C  C65  1  0.28706000  0.02800000  0.00335000  1.0
  N  N66  1  0.95247000  0.19414000  0.37312000  1.0
  N  N67  1  0.80586000  0.04753000  0.12688000  1.0
  N  N68  1  0.04753000  0.80586000  0.62688000  1.0
  N  N69  1  0.19414000  0.95247000  0.87312000  1.0
  O  O70  1  0.61673000  0.25939000  0.08133000  1.0
  O  O71  1  0.74061000  0.38327000  0.41867000  1.0
  O  O72  1  0.38328000  0.74061000  0.91868000  1.0
  O  O73  1  0.25939000  0.61672000  0.58132000  1.0
  O  O74  1  0.76302000  0.40607000  0.94073000  1.0
  O  O75  1  0.59393000  0.23698000  0.55927000  1.0
  O  O76  1  0.23698000  0.59393000  0.05927000  1.0
  O  O77  1  0.40607000  0.76302000  0.44073000  1.0
  O  O78  1  0.54841000  0.18708000  0.79837000  1.0
  O  O79  1  0.81293000  0.45160000  0.70163000  1.0
  O  O80  1  0.45159000  0.81293000  0.20163000  1.0
  O  O81  1  0.18707000  0.54841000  0.29837000  1.0
  O  O82  1  0.60117000  0.09219000  0.29309000  1.0
  O  O83  1  0.90781000  0.39883000  0.20691000  1.0
  O  O84  1  0.39884000  0.90782000  0.70691000  1.0
  O  O85  1  0.09218000  0.60115000  0.79309000  1.0
