# generated using pymatgen
data_CdH17C24N3O5
_symmetry_space_group_name_H-M   'P 1'
_cell_length_a   10.22900000
_cell_length_b   14.70730000
_cell_length_c   16.72950000
_cell_angle_alpha   89.99960000
_cell_angle_beta   85.61380000
_cell_angle_gamma   89.99880000
_symmetry_Int_Tables_number   1
_chemical_formula_structural   CdH17C24N3O5
_chemical_formula_sum   'Cd4 H68 C96 N12 O20'
_cell_volume   2509.43102886
_cell_formula_units_Z   4
loop_
 _symmetry_equiv_pos_site_id
 _symmetry_equiv_pos_as_xyz
  1  'x, y, z'
loop_
 _atom_site_type_symbol
 _atom_site_label
 _atom_site_symmetry_multiplicity
 _atom_site_fract_x
 _atom_site_fract_y
 _atom_site_fract_z
 _atom_site_occupancy
  Cd  Cd0  1  0.22100000  0.63205000  0.71784000  1.0
  Cd  Cd1  1  0.77899000  0.13205000  0.78216000  1.0
  Cd  Cd2  1  0.77900000  0.36794000  0.28216000  1.0
  Cd  Cd3  1  0.22101000  0.86795000  0.21784000  1.0
  H  H4  1  0.04475000  0.39908000  0.50043000  1.0
  H  H5  1  0.95525000  0.89907000  0.99958000  1.0
  H  H6  1  0.95526000  0.60092000  0.49957000  1.0
  H  H7  1  0.04474000  0.10093000  0.00043000  1.0
  H  H8  1  0.44121000  0.52549000  0.60575000  1.0
  H  H9  1  0.55881000  0.02549000  0.89424000  1.0
  H  H10  1  0.55880000  0.47451000  0.39425000  1.0
  H  H11  1  0.44119000  0.97451000  0.10577000  1.0
  H  H12  1  0.40338000  0.83416000  0.46128000  1.0
  H  H13  1  0.59663000  0.33416000  0.03872000  1.0
  H  H14  1  0.59662000  0.16585000  0.53872000  1.0
  H  H15  1  0.40338000  0.66584000  0.96128000  1.0
  H  H16  1  0.46628000  0.40028000  0.50396000  1.0
  H  H17  1  0.53373000  0.90029000  0.99602000  1.0
  H  H18  1  0.53374000  0.59971000  0.49604000  1.0
  H  H19  1  0.46627000  0.09971000  0.00398000  1.0
  H  H20  1  0.36973000  0.30016000  0.41050000  1.0
  H  H21  1  0.63026000  0.80017000  0.08950000  1.0
  H  H22  1  0.63029000  0.69983000  0.58951000  1.0
  H  H23  1  0.36973000  0.19983000  0.91050000  1.0
  H  H24  1  0.30029000  0.70201000  0.53322000  1.0
  H  H25  1  0.69971000  0.20201000  0.96678000  1.0
  H  H26  1  0.69972000  0.29799000  0.46677000  1.0
  H  H27  1  0.30028000  0.79799000  0.03322000  1.0
  H  H28  1  0.03843000  0.52386000  0.60214000  1.0
  H  H29  1  0.96159000  0.02385000  0.89786000  1.0
  H  H30  1  0.96158000  0.47614000  0.39786000  1.0
  H  H31  1  0.03841000  0.97615000  0.10214000  1.0
  H  H32  1  0.56937000  0.77437000  0.89726000  1.0
  H  H33  1  0.43061000  0.27433000  0.60273000  1.0
  H  H34  1  0.43062000  0.22566000  0.10272000  1.0
  H  H35  1  0.56939000  0.72567000  0.39729000  1.0
  H  H36  1  0.07777000  0.26133000  0.45988000  1.0
  H  H37  1  0.92222000  0.76133000  0.04014000  1.0
  H  H38  1  0.92224000  0.73867000  0.54012000  1.0
  H  H39  1  0.07777000  0.23867000  0.95987000  1.0
  H  H40  1  0.39585000  0.17739000  0.34404000  1.0
  H  H41  1  0.60414000  0.67739000  0.15596000  1.0
  H  H42  1  0.60417000  0.82261000  0.65596000  1.0
  H  H43  1  0.39585000  0.32260000  0.84402000  1.0
  H  H44  1  0.34289000  0.98556000  0.68385000  1.0
  H  H45  1  0.65711000  0.48556000  0.81615000  1.0
  H  H46  1  0.65710000  0.01443000  0.31616000  1.0
  H  H47  1  0.34290000  0.51443000  0.18384000  1.0
  H  H48  1  0.84023000  0.78170000  0.88846000  1.0
  H  H49  1  0.15976000  0.28165000  0.61152000  1.0
  H  H50  1  0.15977000  0.21834000  0.11152000  1.0
  H  H51  1  0.84025000  0.71835000  0.38849000  1.0
  H  H52  1  0.23635000  0.84616000  0.74494000  1.0
  H  H53  1  0.76363000  0.34616000  0.75506000  1.0
  H  H54  1  0.76365000  0.15383000  0.25506000  1.0
  H  H55  1  0.23635000  0.65384000  0.24493000  1.0
  H  H56  1  0.39863000  0.03329000  0.26652000  1.0
  H  H57  1  0.60135000  0.53329000  0.23348000  1.0
  H  H58  1  0.60139000  0.96671000  0.73348000  1.0
  H  H59  1  0.39862000  0.46670000  0.76651000  1.0
  H  H60  1  0.00229000  0.99006000  0.32218000  1.0
  H  H61  1  0.99770000  0.49006000  0.17784000  1.0
  H  H62  1  0.99773000  0.00994000  0.67781000  1.0
  H  H63  1  0.00228000  0.50994000  0.82218000  1.0
  H  H64  1  0.98123000  0.13308000  0.40286000  1.0
  H  H65  1  0.01877000  0.63309000  0.09717000  1.0
  H  H66  1  0.01878000  0.86692000  0.59714000  1.0
  H  H67  1  0.98123000  0.36692000  0.90285000  1.0
  H  H68  1  0.45149000  0.06191000  0.57067000  1.0
  H  H69  1  0.54851000  0.56192000  0.92933000  1.0
  H  H70  1  0.54848000  0.93810000  0.42934000  1.0
  H  H71  1  0.45151000  0.43810000  0.07066000  1.0
  C  C72  1  0.13570000  0.42492000  0.52154000  1.0
  C  C73  1  0.86430000  0.92491000  0.97847000  1.0
  C  C74  1  0.86431000  0.57508000  0.47846000  1.0
  C  C75  1  0.13569000  0.07508000  0.02154000  1.0
  C  C76  1  0.60579000  0.68601000  0.79288000  1.0
  C  C77  1  0.39420000  0.18598000  0.70711000  1.0
  C  C78  1  0.39422000  0.31400000  0.20712000  1.0
  C  C79  1  0.60580000  0.81401000  0.29289000  1.0
  C  C80  1  0.95684000  0.67059000  0.75388000  1.0
  C  C81  1  0.04315000  0.17058000  0.74611000  1.0
  C  C82  1  0.04317000  0.32942000  0.24612000  1.0
  C  C83  1  0.95684000  0.82941000  0.25388000  1.0
  C  C84  1  0.35667000  0.49618000  0.57927000  1.0
  C  C85  1  0.64334000  0.99618000  0.92072000  1.0
  C  C86  1  0.64333000  0.50382000  0.42073000  1.0
  C  C87  1  0.35665000  0.00382000  0.07928000  1.0
  C  C88  1  0.18707000  0.16792000  0.38122000  1.0
  C  C89  1  0.81292000  0.66792000  0.11880000  1.0
  C  C90  1  0.81294000  0.83208000  0.61879000  1.0
  C  C91  1  0.18707000  0.33207000  0.88120000  1.0
  C  C92  1  0.38971000  0.92121000  0.56804000  1.0
  C  C93  1  0.61029000  0.42121000  0.93196000  1.0
  C  C94  1  0.61027000  0.07880000  0.43196000  1.0
  C  C95  1  0.38972000  0.57879000  0.06803000  1.0
  C  C96  1  0.37265000  0.84009000  0.52500000  1.0
  C  C97  1  0.62735000  0.34009000  0.97500000  1.0
  C  C98  1  0.62734000  0.15992000  0.47500000  1.0
  C  C99  1  0.37265000  0.65992000  0.02499000  1.0
  C  C100  1  0.36940000  0.42658000  0.52317000  1.0
  C  C101  1  0.63060000  0.92658000  0.97683000  1.0
  C  C102  1  0.63061000  0.57342000  0.47683000  1.0
  C  C103  1  0.36939000  0.07342000  0.02317000  1.0
  C  C104  1  0.25746000  0.38794000  0.49331000  1.0
  C  C105  1  0.74253000  0.88794000  0.00669000  1.0
  C  C106  1  0.74254000  0.61205000  0.50669000  1.0
  C  C107  1  0.25746000  0.11205000  0.99332000  1.0
  C  C108  1  0.27193000  0.30983000  0.44028000  1.0
  C  C109  1  0.72806000  0.80983000  0.05972000  1.0
  C  C110  1  0.72809000  0.69017000  0.55973000  1.0
  C  C111  1  0.27193000  0.19016000  0.94028000  1.0
  C  C112  1  0.31269000  0.76629000  0.56445000  1.0
  C  C113  1  0.68730000  0.26629000  0.93554000  1.0
  C  C114  1  0.68731000  0.23371000  0.43554000  1.0
  C  C115  1  0.31268000  0.73371000  0.06445000  1.0
  C  C116  1  0.13093000  0.49492000  0.57730000  1.0
  C  C117  1  0.86908000  0.99492000  0.92271000  1.0
  C  C118  1  0.86907000  0.50508000  0.42270000  1.0
  C  C119  1  0.13091000  0.00508000  0.07730000  1.0
  C  C120  1  0.63889000  0.74062000  0.85516000  1.0
  C  C121  1  0.36110000  0.24058000  0.64482000  1.0
  C  C122  1  0.36112000  0.25940000  0.14483000  1.0
  C  C123  1  0.63890000  0.75941000  0.35518000  1.0
  C  C124  1  0.82197000  0.69212000  0.78618000  1.0
  C  C125  1  0.17801000  0.19209000  0.71381000  1.0
  C  C126  1  0.17804000  0.30790000  0.21381000  1.0
  C  C127  1  0.82199000  0.80790000  0.28619000  1.0
  C  C128  1  0.47695000  0.66089000  0.76530000  1.0
  C  C129  1  0.52305000  0.16088000  0.73469000  1.0
  C  C130  1  0.52306000  0.33910000  0.23470000  1.0
  C  C131  1  0.47696000  0.83911000  0.26531000  1.0
  C  C132  1  0.17485000  0.24998000  0.42954000  1.0
  C  C133  1  0.82513000  0.74999000  0.07047000  1.0
  C  C134  1  0.82516000  0.75001000  0.57046000  1.0
  C  C135  1  0.17485000  0.25001000  0.92953000  1.0
  C  C136  1  0.30573000  0.13845000  0.34135000  1.0
  C  C137  1  0.69426000  0.63846000  0.15866000  1.0
  C  C138  1  0.69428000  0.86155000  0.65864000  1.0
  C  C139  1  0.30573000  0.36154000  0.84134000  1.0
  C  C140  1  0.33606000  0.92388000  0.64813000  1.0
  C  C141  1  0.66393000  0.42388000  0.85187000  1.0
  C  C142  1  0.66392000  0.07611000  0.35188000  1.0
  C  C143  1  0.33607000  0.57612000  0.14812000  1.0
  C  C144  1  0.77757000  0.74467000  0.85068000  1.0
  C  C145  1  0.22241000  0.24463000  0.64930000  1.0
  C  C146  1  0.22243000  0.25536000  0.14931000  1.0
  C  C147  1  0.77759000  0.75536000  0.35070000  1.0
  C  C148  1  0.27676000  0.84668000  0.68266000  1.0
  C  C149  1  0.72323000  0.34668000  0.81734000  1.0
  C  C150  1  0.72324000  0.15331000  0.31734000  1.0
  C  C151  1  0.27676000  0.65331000  0.18266000  1.0
  C  C152  1  0.30821000  0.05806000  0.29808000  1.0
  C  C153  1  0.69179000  0.55806000  0.20193000  1.0
  C  C154  1  0.69181000  0.94194000  0.70192000  1.0
  C  C155  1  0.30820000  0.44193000  0.79807000  1.0
  C  C156  1  0.08704000  0.03351000  0.32914000  1.0
  C  C157  1  0.91296000  0.53352000  0.17088000  1.0
  C  C158  1  0.91298000  0.96649000  0.67085000  1.0
  C  C159  1  0.08704000  0.46649000  0.82914000  1.0
  C  C160  1  0.07593000  0.11311000  0.37380000  1.0
  C  C161  1  0.92406000  0.61312000  0.12622000  1.0
  C  C162  1  0.92409000  0.88689000  0.62619000  1.0
  C  C163  1  0.07593000  0.38688000  0.87380000  1.0
  C  C164  1  0.46119000  0.99992000  0.53458000  1.0
  C  C165  1  0.53880000  0.49992000  0.96543000  1.0
  C  C166  1  0.53878000  0.00010000  0.46543000  1.0
  C  C167  1  0.46121000  0.50009000  0.03457000  1.0
  N  N168  1  0.20130000  0.00570000  0.29218000  1.0
  N  N169  1  0.79869000  0.50571000  0.20784000  1.0
  N  N170  1  0.79872000  0.99430000  0.70782000  1.0
  N  N171  1  0.20129000  0.49430000  0.79217000  1.0
  N  N172  1  0.26711000  0.76818000  0.64217000  1.0
  N  N173  1  0.73289000  0.26818000  0.85783000  1.0
  N  N174  1  0.73290000  0.23182000  0.35783000  1.0
  N  N175  1  0.26710000  0.73182000  0.14217000  1.0
  N  N176  1  0.23949000  0.53072000  0.60589000  1.0
  N  N177  1  0.76053000  0.03072000  0.89410000  1.0
  N  N178  1  0.76051000  0.46928000  0.39411000  1.0
  N  N179  1  0.23946000  0.96928000  0.10590000  1.0
  O  O180  1  0.37634000  0.68591000  0.80984000  1.0
  O  O181  1  0.62365000  0.18591000  0.69016000  1.0
  O  O182  1  0.62367000  0.31408000  0.19016000  1.0
  O  O183  1  0.37634000  0.81407000  0.30984000  1.0
  O  O184  1  0.71756000  0.65560000  0.75035000  1.0
  O  O185  1  0.28242000  0.15558000  0.74964000  1.0
  O  O186  1  0.28244000  0.34441000  0.24964000  1.0
  O  O187  1  0.71757000  0.84441000  0.25036000  1.0
  O  O188  1  0.04863000  0.70489000  0.79237000  1.0
  O  O189  1  0.95136000  0.20488000  0.70761000  1.0
  O  O190  1  0.95137000  0.29511000  0.20763000  1.0
  O  O191  1  0.04864000  0.79511000  0.29238000  1.0
  O  O192  1  0.97516000  0.61962000  0.69290000  1.0
  O  O193  1  0.02481000  0.11962000  0.80709000  1.0
  O  O194  1  0.02484000  0.38037000  0.30711000  1.0
  O  O195  1  0.97518000  0.88037000  0.19290000  1.0
  O  O196  1  0.47264000  0.61782000  0.69956000  1.0
  O  O197  1  0.52735000  0.11782000  0.80045000  1.0
  O  O198  1  0.52736000  0.38218000  0.30044000  1.0
  O  O199  1  0.47265000  0.88219000  0.19957000  1.0
