# generated using pymatgen
data_Al2H6C27(SO3)6
_symmetry_space_group_name_H-M   'P 1'
_cell_length_a   4.05722000
_cell_length_b   20.07985350
_cell_length_c   20.07940000
_cell_angle_alpha   60.00024133
_cell_angle_beta   90.00030000
_cell_angle_gamma   89.99930000
_symmetry_Int_Tables_number   1
_chemical_formula_structural   Al2H6C27(SO3)6
_chemical_formula_sum   'Al2 H6 C27 S6 O18'
_cell_volume   1416.67919744
_cell_formula_units_Z   1
loop_
 _symmetry_equiv_pos_site_id
 _symmetry_equiv_pos_as_xyz
  1  'x, y, z'
loop_
 _atom_site_type_symbol
 _atom_site_label
 _atom_site_symmetry_multiplicity
 _atom_site_fract_x
 _atom_site_fract_y
 _atom_site_fract_z
 _atom_site_occupancy
  Al  Al0  1  0.05046000  0.50000000  0.00000000  1.0
  Al  Al1  1  0.03621000  0.16667000  0.66666000  1.0
  H  H2  1  0.82434000  0.36998000  0.43538000  1.0
  H  H3  1  0.82436000  0.19464000  0.86999000  1.0
  H  H4  1  0.82434000  0.93537000  0.69464000  1.0
  H  H5  1  0.30238000  0.18008000  0.32522000  1.0
  H  H6  1  0.30222000  0.49469000  0.68007000  1.0
  H  H7  1  0.30233000  0.82524000  0.99469000  1.0
  C  C8  1  0.55286000  0.61631000  0.95146000  1.0
  C  C9  1  0.55287000  0.43222000  0.11632000  1.0
  C  C10  1  0.55289000  0.45146000  0.93223000  1.0
  C  C11  1  0.54012000  0.22626000  0.54944000  1.0
  C  C12  1  0.54012000  0.22430000  0.72626000  1.0
  C  C13  1  0.54013000  0.04944000  0.72430000  1.0
  C  C14  1  0.44873000  0.31607000  0.25173000  1.0
  C  C15  1  0.69788000  0.33547000  0.41539000  1.0
  C  C16  1  0.57329000  0.38908000  0.20255000  1.0
  C  C17  1  0.55522000  0.26531000  0.46527000  1.0
  C  C18  1  0.65036000  0.35480000  0.33802000  1.0
  C  C19  1  0.48564000  0.29765000  0.32985000  1.0
  C  C20  1  0.44869000  0.43220000  0.81607000  1.0
  C  C21  1  0.69786000  0.24914000  0.83547000  1.0
  C  C22  1  0.57329000  0.40837000  0.88908000  1.0
  C  C23  1  0.55522000  0.26941000  0.76531000  1.0
  C  C24  1  0.65036000  0.30718000  0.85479000  1.0
  C  C25  1  0.48562000  0.37250000  0.79765000  1.0
  C  C26  1  0.44869000  0.75174000  0.93220000  1.0
  C  C27  1  0.69786000  0.91540000  0.74913000  1.0
  C  C28  1  0.57327000  0.70255000  0.90837000  1.0
  C  C29  1  0.55521000  0.96528000  0.76941000  1.0
  C  C30  1  0.65036000  0.83803000  0.80718000  1.0
  C  C31  1  0.48561000  0.82985000  0.87250000  1.0
  C  C32  1  0.30267000  0.26898000  0.22136000  1.0
  C  C33  1  0.30263000  0.50965000  0.76897000  1.0
  C  C34  1  0.30262000  0.72138000  0.00965000  1.0
  S  S35  1  0.74395000  0.43309000  0.24913000  1.0
  S  S36  1  0.36517000  0.22291000  0.41789000  1.0
  S  S37  1  0.74398000  0.31778000  0.93309000  1.0
  S  S38  1  0.36516000  0.35919000  0.72291000  1.0
  S  S39  1  0.74394000  0.74913000  0.81777000  1.0
  S  S40  1  0.36514000  0.91790000  0.85919000  1.0
  O  O41  1  0.30852000  0.43425000  0.97725000  1.0
  O  O42  1  0.30850000  0.58850000  0.93424000  1.0
  O  O43  1  0.30850000  0.47725000  0.08851000  1.0
  O  O44  1  0.78319000  0.49770000  0.92295000  1.0
  O  O45  1  0.78317000  0.42295000  0.07935000  1.0
  O  O46  1  0.78316000  0.57935000  0.99770000  1.0
  O  O47  1  0.29962000  0.08167000  0.73864000  1.0
  O  O48  1  0.29961000  0.17969000  0.58167000  1.0
  O  O49  1  0.29961000  0.23864000  0.67969000  1.0
  O  O50  1  0.76760000  0.08408000  0.67470000  1.0
  O  O51  1  0.76757000  0.17470000  0.74122000  1.0
  O  O52  1  0.76757000  0.24122000  0.58408000  1.0
  O  O53  1  0.21410000  0.19510000  0.27430000  1.0
  O  O54  1  0.25708000  0.29269000  0.15330000  1.0
  O  O55  1  0.21400000  0.53060000  0.69509000  1.0
  O  O56  1  0.25708000  0.55401000  0.79268000  1.0
  O  O57  1  0.21405000  0.77431000  0.03060000  1.0
  O  O58  1  0.25701000  0.65331000  0.05400000  1.0
