# generated using pymatgen
data_TbH14C24(NO3)2
_symmetry_space_group_name_H-M   'P 1'
_cell_length_a   12.52940000
_cell_length_b   14.18410000
_cell_length_c   14.81290000
_cell_angle_alpha   68.80370000
_cell_angle_beta   67.48810000
_cell_angle_gamma   78.11940000
_symmetry_Int_Tables_number   1
_chemical_formula_structural   TbH14C24(NO3)2
_chemical_formula_sum   'Tb4 H56 C96 N8 O24'
_cell_volume   2260.43703547
_cell_formula_units_Z   4
loop_
 _symmetry_equiv_pos_site_id
 _symmetry_equiv_pos_as_xyz
  1  'x, y, z'
loop_
 _atom_site_type_symbol
 _atom_site_label
 _atom_site_symmetry_multiplicity
 _atom_site_fract_x
 _atom_site_fract_y
 _atom_site_fract_z
 _atom_site_occupancy
  Tb  Tb0  1  0.43571000  0.48136000  0.40353000  1.0
  Tb  Tb1  1  0.56429000  0.51864000  0.59647000  1.0
  Tb  Tb2  1  0.94770000  0.94591000  0.90539000  1.0
  Tb  Tb3  1  0.05230000  0.05409000  0.09461000  1.0
  H  H4  1  0.69971000  0.78338000  0.18925000  1.0
  H  H5  1  0.30029000  0.21662000  0.81075000  1.0
  H  H6  1  0.19390000  0.71188000  0.22559000  1.0
  H  H7  1  0.80610000  0.28812000  0.77442000  1.0
  H  H8  1  0.44299000  0.78659000  0.48247000  1.0
  H  H9  1  0.55701000  0.21341000  0.51753000  1.0
  H  H10  1  0.68029000  0.02147000  0.31153000  1.0
  H  H11  1  0.31971000  0.97853000  0.68848000  1.0
  H  H12  1  0.20510000  0.70466000  0.72719000  1.0
  H  H13  1  0.79490000  0.29534000  0.27281000  1.0
  H  H14  1  0.16428000  0.72747000  0.93985000  1.0
  H  H15  1  0.83572000  0.27253000  0.06015000  1.0
  H  H16  1  0.38800000  0.49058000  0.07568000  1.0
  H  H17  1  0.61200000  0.50942000  0.92432000  1.0
  H  H18  1  0.30129000  0.57181000  0.93676000  1.0
  H  H19  1  0.69871000  0.42819000  0.06324000  1.0
  H  H20  1  0.01624000  0.94618000  0.56146000  1.0
  H  H21  1  0.98376000  0.05382000  0.43854000  1.0
  H  H22  1  0.50685000  0.94968000  0.46158000  1.0
  H  H23  1  0.49315000  0.05032000  0.53842000  1.0
  H  H24  1  0.60509000  0.34591000  0.24860000  1.0
  H  H25  1  0.39491000  0.65410000  0.75140000  1.0
  H  H26  1  0.77515000  0.12472000  0.78544000  1.0
  H  H27  1  0.22485000  0.87528000  0.21456000  1.0
  H  H28  1  0.09946000  0.87982000  0.41064000  1.0
  H  H29  1  0.90054000  0.12018000  0.58935000  1.0
  H  H30  1  0.83748000  0.54646000  0.13175000  1.0
  H  H31  1  0.16252000  0.45354000  0.86825000  1.0
  H  H32  1  0.01984000  0.33856000  0.72501000  1.0
  H  H33  1  0.98016000  0.66145000  0.27499000  1.0
  H  H34  1  0.11097000  0.06918000  0.57657000  1.0
  H  H35  1  0.88903000  0.93083000  0.42343000  1.0
  H  H36  1  0.61238000  0.20403000  0.18309000  1.0
  H  H37  1  0.38762000  0.79597000  0.81691000  1.0
  H  H38  1  0.17980000  0.45251000  0.61048000  1.0
  H  H39  1  0.82019000  0.54749000  0.38952000  1.0
  H  H40  1  0.96030000  0.69456000  0.03017000  1.0
  H  H41  1  0.03970000  0.30544000  0.96984000  1.0
  H  H42  1  0.01842000  0.17925000  0.68843000  1.0
  H  H43  1  0.98159000  0.82075000  0.31157000  1.0
  H  H44  1  0.22792000  0.71744000  0.42558000  1.0
  H  H45  1  0.77208000  0.28256000  0.57442000  1.0
  H  H46  1  0.63218000  0.56751000  0.13136000  1.0
  H  H47  1  0.36782000  0.43249000  0.86864000  1.0
  H  H48  1  0.57597000  0.16237000  0.77348000  1.0
  H  H49  1  0.42403000  0.83763000  0.22651000  1.0
  H  H50  1  0.26655000  0.03676000  0.42236000  1.0
  H  H51  1  0.73345000  0.96324000  0.57764000  1.0
  H  H52  1  0.47942000  0.67438000  0.06667000  1.0
  H  H53  1  0.52058000  0.32562000  0.93334000  1.0
  H  H54  1  0.40583000  0.84243000  0.97110000  1.0
  H  H55  1  0.59417000  0.15757000  0.02890000  1.0
  H  H56  1  0.44921000  0.08866000  0.27389000  1.0
  H  H57  1  0.55079000  0.91135000  0.72612000  1.0
  H  H58  1  0.43951000  0.02322000  0.86487000  1.0
  H  H59  1  0.56049000  0.97678000  0.13513000  1.0
  C  C60  1  0.53300000  0.67239000  0.35624000  1.0
  C  C61  1  0.46700000  0.32761000  0.64376000  1.0
  C  C62  1  0.69934000  0.90757000  0.24113000  1.0
  C  C63  1  0.30066000  0.09243000  0.75887000  1.0
  C  C64  1  0.79986000  0.95413000  0.14935000  1.0
  C  C65  1  0.20014000  0.04587000  0.85064000  1.0
  C  C66  1  0.17113000  0.72994000  0.08252000  1.0
  C  C67  1  0.82887000  0.27006000  0.91748000  1.0
  C  C68  1  0.56926000  0.77334000  0.33851000  1.0
  C  C69  1  0.43073000  0.22666000  0.66149000  1.0
  C  C70  1  0.65881000  0.81863000  0.24994000  1.0
  C  C71  1  0.34119000  0.18137000  0.75006000  1.0
  C  C72  1  0.29427000  0.59560000  0.15970000  1.0
  C  C73  1  0.70573000  0.40440000  0.84031000  1.0
  C  C74  1  0.21694000  0.68178000  0.16194000  1.0
  C  C75  1  0.78306000  0.31822000  0.83806000  1.0
  C  C76  1  0.30431000  0.60634000  0.57972000  1.0
  C  C77  1  0.69569000  0.39366000  0.42028000  1.0
  C  C78  1  0.10638000  0.83015000  0.65183000  1.0
  C  C79  1  0.89362000  0.16985000  0.34817000  1.0
  C  C80  1  0.09534000  0.82666000  0.08149000  1.0
  C  C81  1  0.90466000  0.17334000  0.91851000  1.0
  C  C82  1  0.51411000  0.82124000  0.41436000  1.0
  C  C83  1  0.48589000  0.17876000  0.58564000  1.0
  C  C84  1  0.05411000  0.87105000  0.74042000  1.0
  C  C85  1  0.94589000  0.12895000  0.25958000  1.0
  C  C86  1  0.64642000  0.95330000  0.31872000  1.0
  C  C87  1  0.35358000  0.04670000  0.68128000  1.0
  C  C88  1  0.34678000  0.55036000  0.24273000  1.0
  C  C89  1  0.65322000  0.44964000  0.75727000  1.0
  C  C90  1  0.18219000  0.74230000  0.65789000  1.0
  C  C91  1  0.81781000  0.25771000  0.34211000  1.0
  C  C92  1  0.26339000  0.27781000  0.49627000  1.0
  C  C93  1  0.73661000  0.72219000  0.50373000  1.0
  C  C94  1  0.20032000  0.68935000  0.00170000  1.0
  C  C95  1  0.79969000  0.31065000  0.99830000  1.0
  C  C96  1  0.32567000  0.55668000  0.07768000  1.0
  C  C97  1  0.67433000  0.44332000  0.92232000  1.0
  C  C98  1  0.27732000  0.60288000  0.99990000  1.0
  C  C99  1  0.72268000  0.39712000  0.00010000  1.0
  C  C100  1  0.35808000  0.25512000  0.41182000  1.0
  C  C101  1  0.64192000  0.74489000  0.58818000  1.0
  C  C102  1  0.22522000  0.70190000  0.57637000  1.0
  C  C103  1  0.77478000  0.29810000  0.42363000  1.0
  C  C104  1  0.68151000  0.89914000  0.92148000  1.0
  C  C105  1  0.31849000  0.10086000  0.07852000  1.0
  C  C106  1  0.64882000  0.72139000  0.02962000  1.0
  C  C107  1  0.35118000  0.27861000  0.97038000  1.0
  C  C108  1  0.72356000  0.80154000  0.97720000  1.0
  C  C109  1  0.27644000  0.19846000  0.02280000  1.0
  C  C110  1  0.07676000  0.87894000  0.56290000  1.0
  C  C111  1  0.92323000  0.12106000  0.43710000  1.0
  C  C112  1  0.55107000  0.91225000  0.40296000  1.0
  C  C113  1  0.44892000  0.08775000  0.59704000  1.0
  C  C114  1  0.17480000  0.20954000  0.55476000  1.0
  C  C115  1  0.82521000  0.79046000  0.44524000  1.0
  C  C116  1  0.53507000  0.29571000  0.28437000  1.0
  C  C117  1  0.46493000  0.70429000  0.71563000  1.0
  C  C118  1  0.56674000  0.91262000  0.91921000  1.0
  C  C119  1  0.43326000  0.08738000  0.08079000  1.0
  C  C120  1  0.71489000  0.06562000  0.82145000  1.0
  C  C121  1  0.28512000  0.93438000  0.17855000  1.0
  C  C122  1  0.12195000  0.84058000  0.48010000  1.0
  C  C123  1  0.87805000  0.15942000  0.51990000  1.0
  C  C124  1  0.80265000  0.61726000  0.08777000  1.0
  C  C125  1  0.19735000  0.38274000  0.91223000  1.0
  C  C126  1  0.35620000  0.16967000  0.38369000  1.0
  C  C127  1  0.64380000  0.83033000  0.61631000  1.0
  C  C128  1  0.08716000  0.31848000  0.66055000  1.0
  C  C129  1  0.91284000  0.68152000  0.33945000  1.0
  C  C130  1  0.17851000  0.12141000  0.52762000  1.0
  C  C131  1  0.82149000  0.87859000  0.47238000  1.0
  C  C132  1  0.53878000  0.21556000  0.24858000  1.0
  C  C133  1  0.46122000  0.78444000  0.75142000  1.0
  C  C134  1  0.17705000  0.38266000  0.59699000  1.0
  C  C135  1  0.82295000  0.61734000  0.40301000  1.0
  C  C136  1  0.87159000  0.70006000  0.03158000  1.0
  C  C137  1  0.12841000  0.29994000  0.96842000  1.0
  C  C138  1  0.08575000  0.23154000  0.63964000  1.0
  C  C139  1  0.91426000  0.76846000  0.36036000  1.0
  C  C140  1  0.19442000  0.75126000  0.48755000  1.0
  C  C141  1  0.80558000  0.24874000  0.51245000  1.0
  C  C142  1  0.69076000  0.62800000  0.08706000  1.0
  C  C143  1  0.30923000  0.37200000  0.91294000  1.0
  C  C144  1  0.60299000  0.08626000  0.81496000  1.0
  C  C145  1  0.39701000  0.91373000  0.18504000  1.0
  C  C146  1  0.26464000  0.10330000  0.44372000  1.0
  C  C147  1  0.73536000  0.89670000  0.55628000  1.0
  C  C148  1  0.53410000  0.73754000  0.02530000  1.0
  C  C149  1  0.46590000  0.26246000  0.97470000  1.0
  C  C150  1  0.49430000  0.82969000  0.97231000  1.0
  C  C151  1  0.50570000  0.17031000  0.02769000  1.0
  C  C152  1  0.44894000  0.15255000  0.29831000  1.0
  C  C153  1  0.55106000  0.84745000  0.70169000  1.0
  C  C154  1  0.52831000  0.00971000  0.86513000  1.0
  C  C155  1  0.47169000  0.99029000  0.13487000  1.0
  N  N156  1  0.26382000  0.36337000  0.51735000  1.0
  N  N157  1  0.73618000  0.63664000  0.48265000  1.0
  N  N158  1  0.75301000  0.97581000  0.87406000  1.0
  N  N159  1  0.24699000  0.02419000  0.12594000  1.0
  N  N160  1  0.83346000  0.78984000  0.97868000  1.0
  N  N161  1  0.16654000  0.21016000  0.02132000  1.0
  N  N162  1  0.44735000  0.31578000  0.36307000  1.0
  N  N163  1  0.55265000  0.68422000  0.63693000  1.0
  O  O164  1  0.44996000  0.50847000  0.22218000  1.0
  O  O165  1  0.55004000  0.49153000  0.77782000  1.0
  O  O166  1  0.07228000  0.82186000  0.82500000  1.0
  O  O167  1  0.92772000  0.17814000  0.17500000  1.0
  O  O168  1  0.53049000  0.60354000  0.44177000  1.0
  O  O169  1  0.46951000  0.39646000  0.55823000  1.0
  O  O170  1  0.80367000  0.95604000  0.06163000  1.0
  O  O171  1  0.19632000  0.04396000  0.93837000  1.0
  O  O172  1  0.87284000  0.98876000  0.16699000  1.0
  O  O173  1  0.12717000  0.01124000  0.83301000  1.0
  O  O174  1  0.36284000  0.57683000  0.64059000  1.0
  O  O175  1  0.63716000  0.42317000  0.35941000  1.0
  O  O176  1  0.30789000  0.56200000  0.51772000  1.0
  O  O177  1  0.69211000  0.43800000  0.48228000  1.0
  O  O178  1  0.98988000  0.95486000  0.73049000  1.0
  O  O179  1  0.01012000  0.04514000  0.26950000  1.0
  O  O180  1  0.03196000  0.85441000  0.02558000  1.0
  O  O181  1  0.96804000  0.14559000  0.97443000  1.0
  O  O182  1  0.50335000  0.65490000  0.29165000  1.0
  O  O183  1  0.49665000  0.34510000  0.70835000  1.0
  O  O184  1  0.28727000  0.55742000  0.33234000  1.0
  O  O185  1  0.71273000  0.44258000  0.66766000  1.0
  O  O186  1  0.09973000  0.87723000  0.13555000  1.0
  O  O187  1  0.90026000  0.12277000  0.86446000  1.0
