# generated using pymatgen
data_Zn2H24C27N8
_symmetry_space_group_name_H-M   'P 1'
_cell_length_a   14.94540000
_cell_length_b   15.00890000
_cell_length_c   22.79190000
_cell_angle_alpha   89.29710000
_cell_angle_beta   89.52470000
_cell_angle_gamma   79.43000000
_symmetry_Int_Tables_number   1
_chemical_formula_structural   Zn2H24C27N8
_chemical_formula_sum   'Zn8 H96 C108 N32'
_cell_volume   5025.31733103
_cell_formula_units_Z   4
loop_
 _symmetry_equiv_pos_site_id
 _symmetry_equiv_pos_as_xyz
  1  'x, y, z'
loop_
 _atom_site_type_symbol
 _atom_site_label
 _atom_site_symmetry_multiplicity
 _atom_site_fract_x
 _atom_site_fract_y
 _atom_site_fract_z
 _atom_site_occupancy
  Zn  Zn0  1  0.57460000  0.54901000  0.06031000  1.0
  Zn  Zn1  1  0.57546000  0.55005000  0.91844000  1.0
  Zn  Zn2  1  0.07329000  0.05054000  0.55866000  1.0
  Zn  Zn3  1  0.07357000  0.05243000  0.41675000  1.0
  Zn  Zn4  1  0.43360000  0.40683000  0.91743000  1.0
  Zn  Zn5  1  0.42767000  0.41408000  0.06046000  1.0
  Zn  Zn6  1  0.93251000  0.90890000  0.41635000  1.0
  Zn  Zn7  1  0.92703000  0.91475000  0.55962000  1.0
  H  H8  1  0.44000000  0.74117000  0.07347000  1.0
  H  H9  1  0.46080000  0.07967000  0.98618000  1.0
  H  H10  1  0.03664000  0.57232000  0.40924000  1.0
  H  H11  1  0.95604000  0.58169000  0.49474000  1.0
  H  H12  1  0.67811000  0.06656000  0.91162000  1.0
  H  H13  1  0.49546000  0.06776000  0.05940000  1.0
  H  H14  1  0.15423000  0.57025000  0.40252000  1.0
  H  H15  1  0.00351000  0.57141000  0.56492000  1.0
  H  H16  1  0.75508000  0.88588000  0.02589000  1.0
  H  H17  1  0.66813000  0.90152000  0.07934000  1.0
  H  H18  1  0.25659000  0.38907000  0.50834000  1.0
  H  H19  1  0.43253000  0.73715000  0.90035000  1.0
  H  H20  1  0.18572000  0.40062000  0.57068000  1.0
  H  H21  1  0.33333333  0.83592000  0.84180000  1.0
  H  H22  1  0.35376000  0.82606000  0.14659000  1.0
  H  H23  1  0.81706000  0.34701000  0.35384000  1.0
  H  H24  1  0.85406000  0.32468000  0.64699000  1.0
  H  H25  1  0.72355000  0.44009000  0.28028000  1.0
  H  H26  1  0.76269000  0.41572000  0.72198000  1.0
  H  H27  1  0.23997000  0.92919000  0.76843000  1.0
  H  H28  1  0.26144000  0.91780000  0.22080000  1.0
  H  H29  1  0.54425000  0.24573000  0.27573000  1.0
  H  H30  1  0.93798000  0.24236000  0.57137000  1.0
  H  H31  1  0.53223000  0.29472000  0.67816000  1.0
  H  H32  1  0.04184000  0.75400000  0.78024000  1.0
  H  H33  1  0.03315000  0.79241000  0.17869000  1.0
  H  H34  1  0.13509000  0.66086000  0.85406000  1.0
  H  H35  1  0.12608000  0.69986000  0.10412000  1.0
  H  H36  1  0.63735000  0.15305000  0.34956000  1.0
  H  H37  1  0.62418000  0.20298000  0.60271000  1.0
  H  H38  1  0.91447000  0.31066000  0.90218000  1.0
  H  H39  1  0.90792000  0.37810000  0.08555000  1.0
  H  H40  1  0.41364000  0.81929000  0.39835000  1.0
  H  H41  1  0.92855000  0.23926000  0.39930000  1.0
  H  H42  1  0.40809000  0.87055000  0.58410000  1.0
  H  H43  1  0.24667000  0.54680000  0.89587000  1.0
  H  H44  1  0.24202000  0.56316000  0.08037000  1.0
  H  H45  1  0.74352000  0.04782000  0.39972000  1.0
  H  H46  1  0.74098000  0.06351000  0.58133000  1.0
  H  H47  1  0.08068000  0.29702000  0.90139000  1.0
  H  H48  1  0.07314000  0.36395000  0.08496000  1.0
  H  H49  1  0.57966000  0.80494000  0.39789000  1.0
  H  H50  1  0.57334000  0.85567000  0.58375000  1.0
  H  H51  1  0.22611000  0.35744000  0.08491000  1.0
  H  H52  1  0.59418000  0.91302000  0.89750000  1.0
  H  H53  1  0.22896000  0.34262000  0.89542000  1.0
  H  H54  1  0.72528000  0.85702000  0.58336000  1.0
  H  H55  1  0.72956000  0.84325000  0.39382000  1.0
  H  H56  1  0.62058000  0.75615000  0.89460000  1.0
  H  H57  1  0.63025000  0.74900000  0.08410000  1.0
  H  H58  1  0.11644000  0.25899000  0.39288000  1.0
  H  H59  1  0.12472000  0.25234000  0.58240000  1.0
  H  H60  1  0.75039000  0.39562000  0.08619000  1.0
  H  H61  1  0.76122000  0.40472000  0.89606000  1.0
  H  H62  1  0.25023000  0.89721000  0.58398000  1.0
  H  H63  1  0.47251000  0.92296000  0.97958000  1.0
  H  H64  1  0.26027000  0.90751000  0.39384000  1.0
  H  H65  1  0.57294000  0.21868000  0.89928000  1.0
  H  H66  1  0.55887000  0.22494000  0.08902000  1.0
  H  H67  1  0.07218000  0.72272000  0.39705000  1.0
  H  H68  1  0.05779000  0.72574000  0.58681000  1.0
  H  H69  1  0.47039000  0.32080000  0.19434000  1.0
  H  H70  1  0.48806000  0.31717000  0.78388000  1.0
  H  H71  1  0.97522000  0.81868000  0.69266000  1.0
  H  H72  1  0.98689000  0.81849000  0.28314000  1.0
  H  H73  1  0.66595000  0.51430000  0.78563000  1.0
  H  H74  1  0.06806000  0.41699000  0.39878000  1.0
  H  H75  1  0.66389000  0.50292000  0.19259000  1.0
  H  H76  1  0.16433000  0.01608000  0.28430000  1.0
  H  H77  1  0.16488000  0.00466000  0.69001000  1.0
  H  H78  1  0.70894000  0.90749000  0.91758000  1.0
  H  H79  1  0.50764000  0.91091000  0.05330000  1.0
  H  H80  1  0.18627000  0.41151000  0.40778000  1.0
  H  H81  1  0.01856000  0.41418000  0.56167000  1.0
  H  H82  1  0.75565000  0.17384000  0.96610000  1.0
  H  H83  1  0.79493000  0.17261000  0.03887000  1.0
  H  H84  1  0.87140000  0.12966000  0.98216000  1.0
  H  H85  1  0.96620000  0.42483000  0.49234000  1.0
  H  H86  1  0.83320000  0.99949000  0.03571000  1.0
  H  H87  1  0.78924000  0.00263000  0.96489000  1.0
  H  H88  1  0.54900000  0.10118000  0.13349000  1.0
  H  H89  1  0.59273000  0.98368000  0.13967000  1.0
  H  H90  1  0.63253000  0.06091000  0.18656000  1.0
  H  H91  1  0.75217000  0.02270000  0.11750000  1.0
  H  H92  1  0.69755000  0.13232000  0.09830000  1.0
  H  H93  1  0.38310000  0.54809000  0.55370000  1.0
  H  H94  1  0.37659000  0.43962000  0.52581000  1.0
  H  H95  1  0.42135000  0.51878000  0.48174000  1.0
  H  H96  1  0.56038000  0.06811000  0.90655000  1.0
  H  H97  1  0.27168000  0.52050000  0.44508000  1.0
  H  H98  1  0.26671000  0.62345000  0.48248000  1.0
  H  H99  1  0.06935000  0.60104000  0.63355000  1.0
  H  H100  1  0.11434000  0.48348000  0.63576000  1.0
  H  H101  1  0.16214000  0.55905000  0.67960000  1.0
  H  H102  1  0.26821000  0.52548000  0.60310000  1.0
  H  H103  1  0.20964000  0.63463000  0.58596000  1.0
  C  C104  1  0.40208000  0.68605000  0.07224000  1.0
  C  C105  1  0.61003000  0.46482000  0.18484000  1.0
  C  C106  1  0.05529000  0.73917000  0.53990000  1.0
  C  C107  1  0.78071000  0.03849000  0.00697000  1.0
  C  C108  1  0.80116000  0.13376000  0.99808000  1.0
  C  C109  1  0.68865000  0.06122000  0.09872000  1.0
  C  C110  1  0.61129000  0.05120000  0.14137000  1.0
  C  C111  1  0.27409000  0.54953000  0.48898000  1.0
  C  C112  1  0.36834000  0.51212000  0.51433000  1.0
  C  C113  1  0.20191000  0.56304000  0.58822000  1.0
  C  C114  1  0.13278000  0.55112000  0.63634000  1.0
  C  C115  1  0.11448000  0.97301000  0.29262000  1.0
  C  C116  1  0.11182000  0.96547000  0.68251000  1.0
  C  C117  1  0.79822000  0.37985000  0.99169000  1.0
  C  C118  1  0.29765000  0.88160000  0.48939000  1.0
  C  C119  1  0.58261000  0.17787000  0.99516000  1.0
  C  C120  1  0.08115000  0.68032000  0.49261000  1.0
  C  C121  1  0.58396000  0.39427000  0.21819000  1.0
  C  C122  1  0.59443000  0.40060000  0.76002000  1.0
  C  C123  1  0.08805000  0.89358000  0.71567000  1.0
  C  C124  1  0.39770000  0.67976000  0.90259000  1.0
  C  C125  1  0.09346000  0.90161000  0.25919000  1.0
  C  C126  1  0.63833000  0.93555000  0.93048000  1.0
  C  C127  1  0.52223000  0.94070000  0.01068000  1.0
  C  C128  1  0.11914000  0.43929000  0.42687000  1.0
  C  C129  1  0.02254000  0.44348000  0.51740000  1.0
  C  C130  1  0.62141000  0.04020000  0.93215000  1.0
  C  C131  1  0.51473000  0.04411000  0.01507000  1.0
  C  C132  1  0.10293000  0.54371000  0.42880000  1.0
  C  C133  1  0.01500000  0.54711000  0.51999000  1.0
  C  C134  1  0.68622000  0.92374000  0.03531000  1.0
  C  C135  1  0.90036000  0.18697000  0.57090000  1.0
  C  C136  1  0.19126000  0.42581000  0.52547000  1.0
  C  C137  1  0.61929000  0.89634000  0.99098000  1.0
  C  C138  1  0.11396000  0.39942000  0.48898000  1.0
  C  C139  1  0.60472000  0.07519000  0.99565000  1.0
  C  C140  1  0.10061000  0.57774000  0.49281000  1.0
  C  C141  1  0.30284000  0.58286000  0.90061000  1.0
  C  C142  1  0.30092000  0.59544000  0.07498000  1.0
  C  C143  1  0.79971000  0.08419000  0.40288000  1.0
  C  C144  1  0.79969000  0.09590000  0.57515000  1.0
  C  C145  1  0.68746000  0.02780000  0.03457000  1.0
  C  C146  1  0.89411000  0.18168000  0.40268000  1.0
  C  C147  1  0.19057000  0.53008000  0.52495000  1.0
  C  C148  1  0.26897000  0.81760000  0.82899000  1.0
  C  C149  1  0.28291000  0.81903000  0.15260000  1.0
  C  C150  1  0.75707000  0.32411000  0.33709000  1.0
  C  C151  1  0.78288000  0.31865000  0.65274000  1.0
  C  C152  1  0.70409000  0.37689000  0.29517000  1.0
  C  C153  1  0.73112000  0.37018000  0.69534000  1.0
  C  C154  1  0.21603000  0.87049000  0.78716000  1.0
  C  C155  1  0.23057000  0.87103000  0.19477000  1.0
  C  C156  1  0.62876000  0.34832000  0.26977000  1.0
  C  C157  1  0.51174000  0.37196000  0.18559000  1.0
  C  C158  1  0.64138000  0.35934000  0.70791000  1.0
  C  C159  1  0.13500000  0.84715000  0.76645000  1.0
  C  C160  1  0.14113000  0.85942000  0.20756000  1.0
  C  C161  1  0.60395000  0.26886000  0.29281000  1.0
  C  C162  1  0.60328000  0.30100000  0.67175000  1.0
  C  C163  1  0.10587000  0.77264000  0.79355000  1.0
  C  C164  1  0.10395000  0.79951000  0.17210000  1.0
  C  C165  1  0.15882000  0.71976000  0.83551000  1.0
  C  C166  1  0.15649000  0.74730000  0.12983000  1.0
  C  C167  1  0.65689000  0.21619000  0.33479000  1.0
  C  C168  1  0.52456000  0.37179000  0.79274000  1.0
  C  C169  1  0.65522000  0.24930000  0.62900000  1.0
  C  C170  1  0.24384000  0.73845000  0.85241000  1.0
  C  C171  1  0.24874000  0.75247000  0.12113000  1.0
  C  C172  1  0.73762000  0.23992000  0.35577000  1.0
  C  C173  1  0.74778000  0.25340000  0.62059000  1.0
  C  C174  1  0.94882000  0.32312000  0.94251000  1.0
  C  C175  1  0.94522000  0.35913000  0.04493000  1.0
  C  C176  1  0.44810000  0.82792000  0.43934000  1.0
  C  C177  1  0.44504000  0.85522000  0.54293000  1.0
  C  C178  1  0.04312000  0.31546000  0.94207000  1.0
  C  C179  1  0.01516000  0.87100000  0.68385000  1.0
  C  C180  1  0.03918000  0.35140000  0.04450000  1.0
  C  C181  1  0.54243000  0.81987000  0.43907000  1.0
  C  C182  1  0.53911000  0.84710000  0.54265000  1.0
  C  C183  1  0.09028000  0.33378000  0.99240000  1.0
  C  C184  1  0.58998000  0.83382000  0.49020000  1.0
  C  C185  1  0.24123000  0.35615000  0.03821000  1.0
  C  C186  1  0.24305000  0.34800000  0.94181000  1.0
  C  C187  1  0.74072000  0.85594000  0.53670000  1.0
  C  C188  1  0.74317000  0.84843000  0.44028000  1.0
  C  C189  1  0.89697000  0.34982000  0.99325000  1.0
  C  C190  1  0.02319000  0.87331000  0.29180000  1.0
  C  C191  1  0.39640000  0.85069000  0.49071000  1.0
  C  C192  1  0.62182000  0.73949000  0.94113000  1.0
  C  C193  1  0.62696000  0.73578000  0.03747000  1.0
  C  C194  1  0.11769000  0.24235000  0.43940000  1.0
  C  C195  1  0.12215000  0.23888000  0.53577000  1.0
  C  C196  1  0.31096000  0.68468000  0.08774000  1.0
  C  C197  1  0.30835000  0.67329000  0.88643000  1.0
  C  C198  1  0.80957000  0.18546000  0.58705000  1.0
  C  C199  1  0.80398000  0.17489000  0.38864000  1.0
  C  C200  1  0.18618000  0.34204000  0.99070000  1.0
  C  C201  1  0.61607000  0.47127000  0.79390000  1.0
  C  C202  1  0.68595000  0.84210000  0.48896000  1.0
  C  C203  1  0.62564000  0.79541000  0.98949000  1.0
  C  C204  1  0.12018000  0.29854000  0.48775000  1.0
  C  C205  1  0.73896000  0.40551000  0.03938000  1.0
  C  C206  1  0.74405000  0.40942000  0.94243000  1.0
  C  C207  1  0.23867000  0.90740000  0.53721000  1.0
  C  C208  1  0.24342000  0.91211000  0.44025000  1.0
  C  C209  1  0.56278000  0.23433000  0.94549000  1.0
  C  C210  1  0.55598000  0.23729000  0.04203000  1.0
  C  C211  1  0.06250000  0.73780000  0.44337000  1.0
  N  N212  1  0.44251000  0.60374000  0.05326000  1.0
  N  N213  1  0.32458000  0.36432000  0.95898000  1.0
  N  N214  1  0.82285000  0.86927000  0.51796000  1.0
  N  N215  1  0.82459000  0.86463000  0.45780000  1.0
  N  N216  1  0.62037000  0.65357000  0.95895000  1.0
  N  N217  1  0.62356000  0.65133000  0.01909000  1.0
  N  N218  1  0.11764000  0.15618000  0.45725000  1.0
  N  N219  1  0.12039000  0.15409000  0.51740000  1.0
  N  N220  1  0.65758000  0.44874000  0.01958000  1.0
  N  N221  1  0.66071000  0.45120000  0.96001000  1.0
  N  N222  1  0.15750000  0.95149000  0.51763000  1.0
  N  N223  1  0.44141000  0.59912000  0.92320000  1.0
  N  N224  1  0.16041000  0.95438000  0.45806000  1.0
  N  N225  1  0.52622000  0.31969000  0.96189000  1.0
  N  N226  1  0.52220000  0.32142000  0.02132000  1.0
  N  N227  1  0.02678000  0.82308000  0.46031000  1.0
  N  N228  1  0.02251000  0.82380000  0.51980000  1.0
  N  N229  1  0.49651000  0.42472000  0.13719000  1.0
  N  N230  1  0.50659000  0.42105000  0.84187000  1.0
  N  N231  1  0.99758000  0.92468000  0.63600000  1.0
  N  N232  1  0.00443000  0.92353000  0.34048000  1.0
  N  N233  1  0.56356000  0.48318000  0.84240000  1.0
  N  N234  1  0.94085000  0.10443000  0.55230000  1.0
  N  N235  1  0.55782000  0.48256000  0.13679000  1.0
  N  N236  1  0.06131000  0.98575000  0.34081000  1.0
  N  N237  1  0.05790000  0.98355000  0.63525000  1.0
  N  N238  1  0.93933000  0.10099000  0.42219000  1.0
  N  N239  1  0.38313000  0.53959000  0.92202000  1.0
  N  N240  1  0.38049000  0.54795000  0.05500000  1.0
  N  N241  1  0.88135000  0.04111000  0.42234000  1.0
  N  N242  1  0.87911000  0.04838000  0.55499000  1.0
  N  N243  1  0.32320000  0.36932000  0.01913000  1.0
