# generated using pymatgen
data_CuH10C8IN2
_symmetry_space_group_name_H-M   'P 1'
_cell_length_a   16.24640000
_cell_length_b   16.24640000
_cell_length_c   16.24630000
_cell_angle_alpha   105.60000000
_cell_angle_beta   105.60000000
_cell_angle_gamma   105.60000000
_symmetry_Int_Tables_number   1
_chemical_formula_structural   CuH10C8IN2
_chemical_formula_sum   'Cu12 H120 C96 I12 N24'
_cell_volume   3699.12731531
_cell_formula_units_Z   12
loop_
 _symmetry_equiv_pos_site_id
 _symmetry_equiv_pos_as_xyz
  1  'x, y, z'
loop_
 _atom_site_type_symbol
 _atom_site_label
 _atom_site_symmetry_multiplicity
 _atom_site_fract_x
 _atom_site_fract_y
 _atom_site_fract_z
 _atom_site_occupancy
  Cu  Cu0  1  0.43354000  0.74948000  0.06536000  1.0
  Cu  Cu1  1  0.06536000  0.43354000  0.74948000  1.0
  Cu  Cu2  1  0.74947000  0.06536000  0.43354000  1.0
  Cu  Cu3  1  0.56646000  0.25052000  0.93464000  1.0
  Cu  Cu4  1  0.93464000  0.56647000  0.25052000  1.0
  Cu  Cu5  1  0.25052000  0.93464000  0.56647000  1.0
  Cu  Cu6  1  0.25035000  0.56612000  0.93434000  1.0
  Cu  Cu7  1  0.93433000  0.25035000  0.56613000  1.0
  Cu  Cu8  1  0.56612000  0.93434000  0.25035000  1.0
  Cu  Cu9  1  0.74965000  0.43387000  0.06567000  1.0
  Cu  Cu10  1  0.06566000  0.74965000  0.43388000  1.0
  Cu  Cu11  1  0.43387000  0.06567000  0.74965000  1.0
  H  H12  1  0.52881000  0.09155000  0.25997000  1.0
  H  H13  1  0.25998000  0.52881000  0.09155000  1.0
  H  H14  1  0.09155000  0.25998000  0.52882000  1.0
  H  H15  1  0.47118000  0.90846000  0.74002000  1.0
  H  H16  1  0.74003000  0.47119000  0.90845000  1.0
  H  H17  1  0.90846000  0.74003000  0.47119000  1.0
  H  H18  1  0.62910000  0.13778000  0.24056000  1.0
  H  H19  1  0.24055000  0.62910000  0.13778000  1.0
  H  H20  1  0.13778000  0.24055000  0.62910000  1.0
  H  H21  1  0.37090000  0.86222000  0.75944000  1.0
  H  H22  1  0.75944000  0.37090000  0.86222000  1.0
  H  H23  1  0.86222000  0.75944000  0.37090000  1.0
  H  H24  1  0.37074000  0.75959000  0.86195000  1.0
  H  H25  1  0.86195000  0.37074000  0.75959000  1.0
  H  H26  1  0.75959000  0.86195000  0.37074000  1.0
  H  H27  1  0.62926000  0.24041000  0.13805000  1.0
  H  H28  1  0.13805000  0.62926000  0.24041000  1.0
  H  H29  1  0.24041000  0.13805000  0.62926000  1.0
  H  H30  1  0.47090000  0.73995000  0.90818000  1.0
  H  H31  1  0.90819000  0.47090000  0.73994000  1.0
  H  H32  1  0.73995000  0.90819000  0.47090000  1.0
  H  H33  1  0.52910000  0.26006000  0.09181000  1.0
  H  H34  1  0.09182000  0.52910000  0.26006000  1.0
  H  H35  1  0.26006000  0.09182000  0.52910000  1.0
  H  H36  1  0.39268000  0.20910000  0.14033000  1.0
  H  H37  1  0.14033000  0.39267000  0.20909000  1.0
  H  H38  1  0.20909000  0.14033000  0.39268000  1.0
  H  H39  1  0.60732000  0.79091000  0.85967000  1.0
  H  H40  1  0.85967000  0.60732000  0.79090000  1.0
  H  H41  1  0.79091000  0.85967000  0.60733000  1.0
  H  H42  1  0.38099000  0.09278000  0.09300000  1.0
  H  H43  1  0.09300000  0.38099000  0.09278000  1.0
  H  H44  1  0.09278000  0.09300000  0.38099000  1.0
  H  H45  1  0.61901000  0.90723000  0.90700000  1.0
  H  H46  1  0.90700000  0.61901000  0.90722000  1.0
  H  H47  1  0.90723000  0.90700000  0.61901000  1.0
  H  H48  1  0.39259000  0.14086000  0.20918000  1.0
  H  H49  1  0.20918000  0.39259000  0.14085000  1.0
  H  H50  1  0.14085000  0.20918000  0.39259000  1.0
  H  H51  1  0.60742000  0.85915000  0.79082000  1.0
  H  H52  1  0.79082000  0.60741000  0.85914000  1.0
  H  H53  1  0.85915000  0.79082000  0.60741000  1.0
  H  H54  1  0.54394000  0.26089000  0.32999000  1.0
  H  H55  1  0.32999000  0.54394000  0.26089000  1.0
  H  H56  1  0.26089000  0.32999000  0.54394000  1.0
  H  H57  1  0.45606000  0.73911000  0.67000000  1.0
  H  H58  1  0.67001000  0.45606000  0.73911000  1.0
  H  H59  1  0.73911000  0.67001000  0.45606000  1.0
  H  H60  1  0.64030000  0.29895000  0.29908000  1.0
  H  H61  1  0.29908000  0.64029000  0.29895000  1.0
  H  H62  1  0.29895000  0.29909000  0.64030000  1.0
  H  H63  1  0.35971000  0.70105000  0.70091000  1.0
  H  H64  1  0.70091000  0.35970000  0.70105000  1.0
  H  H65  1  0.70105000  0.70092000  0.35971000  1.0
  H  H66  1  0.54390000  0.32985000  0.26116000  1.0
  H  H67  1  0.26116000  0.54390000  0.32985000  1.0
  H  H68  1  0.32985000  0.26116000  0.54390000  1.0
  H  H69  1  0.45610000  0.67015000  0.73885000  1.0
  H  H70  1  0.73884000  0.45610000  0.67015000  1.0
  H  H71  1  0.67015000  0.73884000  0.45610000  1.0
  H  H72  1  0.60720000  0.71194000  0.97070000  1.0
  H  H73  1  0.97070000  0.60720000  0.71194000  1.0
  H  H74  1  0.71194000  0.97070000  0.60720000  1.0
  H  H75  1  0.39280000  0.28806000  0.02930000  1.0
  H  H76  1  0.02930000  0.39280000  0.28806000  1.0
  H  H77  1  0.28806000  0.02930000  0.39280000  1.0
  H  H78  1  0.60089000  0.76839000  0.07723000  1.0
  H  H79  1  0.07723000  0.60088000  0.76839000  1.0
  H  H80  1  0.76839000  0.07722000  0.60089000  1.0
  H  H81  1  0.39911000  0.23161000  0.92277000  1.0
  H  H82  1  0.92277000  0.39911000  0.23161000  1.0
  H  H83  1  0.23161000  0.92277000  0.39911000  1.0
  H  H84  1  0.23162000  0.39873000  0.92183000  1.0
  H  H85  1  0.92182000  0.23162000  0.39873000  1.0
  H  H86  1  0.39873000  0.92182000  0.23162000  1.0
  H  H87  1  0.76838000  0.60127000  0.07818000  1.0
  H  H88  1  0.07818000  0.76838000  0.60127000  1.0
  H  H89  1  0.60127000  0.07818000  0.76838000  1.0
  H  H90  1  0.28722000  0.39260000  0.02871000  1.0
  H  H91  1  0.02871000  0.28722000  0.39260000  1.0
  H  H92  1  0.39260000  0.02871000  0.28722000  1.0
  H  H93  1  0.71279000  0.60740000  0.97129000  1.0
  H  H94  1  0.97129000  0.71278000  0.60740000  1.0
  H  H95  1  0.60740000  0.97129000  0.71279000  1.0
  H  H96  1  0.70764000  0.77804000  0.22236000  1.0
  H  H97  1  0.22236000  0.70764000  0.77804000  1.0
  H  H98  1  0.77804000  0.22236000  0.70764000  1.0
  H  H99  1  0.29236000  0.22196000  0.77764000  1.0
  H  H100  1  0.77764000  0.29236000  0.22196000  1.0
  H  H101  1  0.22196000  0.77764000  0.29236000  1.0
  H  H102  1  0.65932000  0.65724000  0.19152000  1.0
  H  H103  1  0.19152000  0.65932000  0.65724000  1.0
  H  H104  1  0.65724000  0.19152000  0.65932000  1.0
  H  H105  1  0.34068000  0.34276000  0.80849000  1.0
  H  H106  1  0.80848000  0.34068000  0.34276000  1.0
  H  H107  1  0.34276000  0.80848000  0.34068000  1.0
  H  H108  1  0.77955000  0.71139000  0.22315000  1.0
  H  H109  1  0.22315000  0.77954000  0.71139000  1.0
  H  H110  1  0.71139000  0.22315000  0.77955000  1.0
  H  H111  1  0.22045000  0.28861000  0.77685000  1.0
  H  H112  1  0.77685000  0.22045000  0.28860000  1.0
  H  H113  1  0.28861000  0.77685000  0.22045000  1.0
  H  H114  1  0.77241000  0.77325000  0.01598000  1.0
  H  H115  1  0.01598000  0.77240000  0.77325000  1.0
  H  H116  1  0.77325000  0.01598000  0.77241000  1.0
  H  H117  1  0.22759000  0.22675000  0.98402000  1.0
  H  H118  1  0.98402000  0.22759000  0.22675000  1.0
  H  H119  1  0.22675000  0.98402000  0.22759000  1.0
  H  H120  1  0.77709000  0.84637000  0.12248000  1.0
  H  H121  1  0.12248000  0.77709000  0.84637000  1.0
  H  H122  1  0.84637000  0.12248000  0.77709000  1.0
  H  H123  1  0.22291000  0.15363000  0.87752000  1.0
  H  H124  1  0.87752000  0.22291000  0.15363000  1.0
  H  H125  1  0.15363000  0.87752000  0.22291000  1.0
  H  H126  1  0.84608000  0.77781000  0.12219000  1.0
  H  H127  1  0.12219000  0.84607000  0.77781000  1.0
  H  H128  1  0.77782000  0.12219000  0.84607000  1.0
  H  H129  1  0.15393000  0.22218000  0.87781000  1.0
  H  H130  1  0.87781000  0.15392000  0.22218000  1.0
  H  H131  1  0.22218000  0.87781000  0.15393000  1.0
  C  C132  1  0.47580000  0.87553000  0.97144000  1.0
  C  C133  1  0.97145000  0.47580000  0.87553000  1.0
  C  C134  1  0.87553000  0.97144000  0.47580000  1.0
  C  C135  1  0.52420000  0.12447000  0.02856000  1.0
  C  C136  1  0.02856000  0.52419000  0.12447000  1.0
  C  C137  1  0.12447000  0.02856000  0.52420000  1.0
  C  C138  1  0.48855000  0.96119000  0.96117000  1.0
  C  C139  1  0.96118000  0.48855000  0.96119000  1.0
  C  C140  1  0.96119000  0.96117000  0.48855000  1.0
  C  C141  1  0.51145000  0.03881000  0.03882000  1.0
  C  C142  1  0.03883000  0.51144000  0.03881000  1.0
  C  C143  1  0.03882000  0.03882000  0.51145000  1.0
  C  C144  1  0.52406000  0.02842000  0.12443000  1.0
  C  C145  1  0.12444000  0.52406000  0.02842000  1.0
  C  C146  1  0.02842000  0.12443000  0.52406000  1.0
  C  C147  1  0.47594000  0.97158000  0.87556000  1.0
  C  C148  1  0.87557000  0.47594000  0.97158000  1.0
  C  C149  1  0.97158000  0.87557000  0.47594000  1.0
  C  C150  1  0.55335000  0.11136000  0.20873000  1.0
  C  C151  1  0.20874000  0.55336000  0.11136000  1.0
  C  C152  1  0.11136000  0.20873000  0.55336000  1.0
  C  C153  1  0.44664000  0.88865000  0.79126000  1.0
  C  C154  1  0.79127000  0.44664000  0.88864000  1.0
  C  C155  1  0.88864000  0.79127000  0.44665000  1.0
  C  C156  1  0.52136000  0.18734000  0.18743000  1.0
  C  C157  1  0.18744000  0.52136000  0.18734000  1.0
  C  C158  1  0.18735000  0.18744000  0.52136000  1.0
  C  C159  1  0.47864000  0.81266000  0.81256000  1.0
  C  C160  1  0.81256000  0.47864000  0.81265000  1.0
  C  C161  1  0.81266000  0.81256000  0.47864000  1.0
  C  C162  1  0.44649000  0.79129000  0.88845000  1.0
  C  C163  1  0.88845000  0.44649000  0.79129000  1.0
  C  C164  1  0.79129000  0.88845000  0.44649000  1.0
  C  C165  1  0.55351000  0.20871000  0.11155000  1.0
  C  C166  1  0.11155000  0.55351000  0.20871000  1.0
  C  C167  1  0.20871000  0.11155000  0.55351000  1.0
  C  C168  1  0.41607000  0.15536000  0.15532000  1.0
  C  C169  1  0.15532000  0.41607000  0.15535000  1.0
  C  C170  1  0.15535000  0.15532000  0.41608000  1.0
  C  C171  1  0.58393000  0.84465000  0.84468000  1.0
  C  C172  1  0.84468000  0.58393000  0.84464000  1.0
  C  C173  1  0.84465000  0.84468000  0.58393000  1.0
  C  C174  1  0.56496000  0.27428000  0.27444000  1.0
  C  C175  1  0.27444000  0.56496000  0.27428000  1.0
  C  C176  1  0.27428000  0.27444000  0.56496000  1.0
  C  C177  1  0.43505000  0.72573000  0.72556000  1.0
  C  C178  1  0.72556000  0.43504000  0.72572000  1.0
  C  C179  1  0.72572000  0.72556000  0.43504000  1.0
  C  C180  1  0.37673000  0.47254000  0.98207000  1.0
  C  C181  1  0.98207000  0.37673000  0.47254000  1.0
  C  C182  1  0.47254000  0.98207000  0.37673000  1.0
  C  C183  1  0.62327000  0.52746000  0.01793000  1.0
  C  C184  1  0.01793000  0.62327000  0.52746000  1.0
  C  C185  1  0.52746000  0.01793000  0.62327000  1.0
  C  C186  1  0.46201000  0.46198000  0.99273000  1.0
  C  C187  1  0.99273000  0.46201000  0.46198000  1.0
  C  C188  1  0.46198000  0.99273000  0.46201000  1.0
  C  C189  1  0.53799000  0.53802000  0.00726000  1.0
  C  C190  1  0.00727000  0.53799000  0.53802000  1.0
  C  C191  1  0.53802000  0.00727000  0.53799000  1.0
  C  C192  1  0.52727000  0.62320000  0.01783000  1.0
  C  C193  1  0.01784000  0.52727000  0.62320000  1.0
  C  C194  1  0.62320000  0.01784000  0.52727000  1.0
  C  C195  1  0.47273000  0.37680000  0.98216000  1.0
  C  C196  1  0.98216000  0.47273000  0.37680000  1.0
  C  C197  1  0.37680000  0.98216000  0.47272000  1.0
  C  C198  1  0.60819000  0.70614000  0.03722000  1.0
  C  C199  1  0.03722000  0.60819000  0.70613000  1.0
  C  C200  1  0.70614000  0.03722000  0.60819000  1.0
  C  C201  1  0.39181000  0.29386000  0.96278000  1.0
  C  C202  1  0.96278000  0.39181000  0.29386000  1.0
  C  C203  1  0.29386000  0.96278000  0.39181000  1.0
  C  C204  1  0.70124000  0.70143000  0.08751000  1.0
  C  C205  1  0.08751000  0.70124000  0.70143000  1.0
  C  C206  1  0.70143000  0.08751000  0.70124000  1.0
  C  C207  1  0.29876000  0.29857000  0.91248000  1.0
  C  C208  1  0.91248000  0.29876000  0.29857000  1.0
  C  C209  1  0.29857000  0.91248000  0.29876000  1.0
  C  C210  1  0.29369000  0.39154000  0.96243000  1.0
  C  C211  1  0.96243000  0.29369000  0.39155000  1.0
  C  C212  1  0.39155000  0.96243000  0.29369000  1.0
  C  C213  1  0.70631000  0.60845000  0.03757000  1.0
  C  C214  1  0.03757000  0.70631000  0.60845000  1.0
  C  C215  1  0.60845000  0.03757000  0.70631000  1.0
  C  C216  1  0.71239000  0.71253000  0.18709000  1.0
  C  C217  1  0.18709000  0.71239000  0.71254000  1.0
  C  C218  1  0.71254000  0.18709000  0.71239000  1.0
  C  C219  1  0.28761000  0.28746000  0.81291000  1.0
  C  C220  1  0.81291000  0.28761000  0.28746000  1.0
  C  C221  1  0.28746000  0.81291000  0.28761000  1.0
  C  C222  1  0.77881000  0.77931000  0.08680000  1.0
  C  C223  1  0.08680000  0.77881000  0.77931000  1.0
  C  C224  1  0.77931000  0.08680000  0.77881000  1.0
  C  C225  1  0.22119000  0.22069000  0.91320000  1.0
  C  C226  1  0.91320000  0.22119000  0.22068000  1.0
  C  C227  1  0.22069000  0.91320000  0.22119000  1.0
  I  I228  1  0.26103000  0.73865000  0.99986000  1.0
  I  I229  1  0.99987000  0.26103000  0.73866000  1.0
  I  I230  1  0.73865000  0.99986000  0.26103000  1.0
  I  I231  1  0.73897000  0.26135000  0.00014000  1.0
  I  I232  1  0.00014000  0.73898000  0.26135000  1.0
  I  I233  1  0.26135000  0.00014000  0.73898000  1.0
  I  I234  1  0.49983000  0.76200000  0.23779000  1.0
  I  I235  1  0.23778000  0.49983000  0.76199000  1.0
  I  I236  1  0.76198000  0.23778000  0.49983000  1.0
  I  I237  1  0.50018000  0.23802000  0.76222000  1.0
  I  I238  1  0.76222000  0.50017000  0.23801000  1.0
  I  I239  1  0.23800000  0.76222000  0.50017000  1.0
  N  N240  1  0.48615000  0.86911000  0.05352000  1.0
  N  N241  1  0.05352000  0.48616000  0.86910000  1.0
  N  N242  1  0.86910000  0.05353000  0.48616000  1.0
  N  N243  1  0.51384000  0.13090000  0.94647000  1.0
  N  N244  1  0.94648000  0.51384000  0.13090000  1.0
  N  N245  1  0.13090000  0.94648000  0.51385000  1.0
  N  N246  1  0.51358000  0.94630000  0.13075000  1.0
  N  N247  1  0.13075000  0.51358000  0.94630000  1.0
  N  N248  1  0.94630000  0.13075000  0.51358000  1.0
  N  N249  1  0.48641000  0.05371000  0.86925000  1.0
  N  N250  1  0.86925000  0.48642000  0.05370000  1.0
  N  N251  1  0.05370000  0.86925000  0.48642000  1.0
  N  N252  1  0.36944000  0.55365000  0.98775000  1.0
  N  N253  1  0.98775000  0.36943000  0.55365000  1.0
  N  N254  1  0.55365000  0.98775000  0.36943000  1.0
  N  N255  1  0.63057000  0.44635000  0.01225000  1.0
  N  N256  1  0.01225000  0.63056000  0.44635000  1.0
  N  N257  1  0.44635000  0.01225000  0.63057000  1.0
  N  N258  1  0.44613000  0.63041000  0.01214000  1.0
  N  N259  1  0.01214000  0.44613000  0.63040000  1.0
  N  N260  1  0.63040000  0.01214000  0.44613000  1.0
  N  N261  1  0.55387000  0.36959000  0.98786000  1.0
  N  N262  1  0.98786000  0.55387000  0.36959000  1.0
  N  N263  1  0.36959000  0.98786000  0.55387000  1.0
