# generated using pymatgen
data_ZnH10C15I4NO6
_symmetry_space_group_name_H-M   'P 1'
_cell_length_a   11.00190000
_cell_length_b   13.16140000
_cell_length_c   14.38410000
_cell_angle_alpha   89.59960000
_cell_angle_beta   89.79870000
_cell_angle_gamma   89.75180000
_symmetry_Int_Tables_number   1
_chemical_formula_structural   ZnH10C15I4NO6
_chemical_formula_sum   'Zn2 H20 C30 I8 N2 O12'
_cell_volume   2082.74049428
_cell_formula_units_Z   2
loop_
 _symmetry_equiv_pos_site_id
 _symmetry_equiv_pos_as_xyz
  1  'x, y, z'
loop_
 _atom_site_type_symbol
 _atom_site_label
 _atom_site_symmetry_multiplicity
 _atom_site_fract_x
 _atom_site_fract_y
 _atom_site_fract_z
 _atom_site_occupancy
  Zn  Zn0  1  0.49930000  0.39114000  0.50097000  1.0
  Zn  Zn1  1  0.50059000  0.61415000  0.49282000  1.0
  H  H2  1  0.92369000  0.36600000  0.77240000  1.0
  H  H3  1  0.91658000  0.26757000  0.68841000  1.0
  H  H4  1  0.68766000  0.27447000  0.69357000  1.0
  H  H5  1  0.74815000  0.25073000  0.80681000  1.0
  H  H6  1  0.69318000  0.37377000  0.77677000  1.0
  H  H7  1  0.74245000  0.54582000  0.67952000  1.0
  H  H8  1  0.76603000  0.67937000  0.68510000  1.0
  H  H9  1  0.89108000  0.65473000  0.83018000  1.0
  H  H10  1  0.74200000  0.60483000  0.84480000  1.0
  H  H11  1  0.86663000  0.52104000  0.82528000  1.0
  H  H12  1  0.23858000  0.50773000  0.71167000  1.0
  H  H13  1  0.25756000  0.37795000  0.68082000  1.0
  H  H14  1  0.14123000  0.32226000  0.82049000  1.0
  H  H15  1  0.26181000  0.40357000  0.85501000  1.0
  H  H16  1  0.11056000  0.45135000  0.85098000  1.0
  H  H17  1  0.04363000  0.74212000  0.67803000  1.0
  H  H18  1  0.19607000  0.76470000  0.64163000  1.0
  H  H19  1  0.27458000  0.66180000  0.77690000  1.0
  H  H20  1  0.17937000  0.76250000  0.81510000  1.0
  H  H21  1  0.12203000  0.63637000  0.81333000  1.0
  C  C22  1  0.49628000  0.51260000  0.67589000  1.0
  C  C23  1  0.73490000  0.51250000  0.50215000  1.0
  C  C24  1  0.26507000  0.48899000  0.50228000  1.0
  C  C25  1  0.50025000  0.49735000  0.31903000  1.0
  C  C26  1  0.92073000  0.40964000  0.56481000  1.0
  C  C27  1  0.93496000  0.60384000  0.56319000  1.0
  C  C28  1  0.06539000  0.41142000  0.57941000  1.0
  C  C29  1  0.07998000  0.60307000  0.54726000  1.0
  C  C30  1  0.93018000  0.50563000  0.40183000  1.0
  C  C31  1  0.06923000  0.47597000  0.40412000  1.0
  C  C32  1  0.87789000  0.50801000  0.50478000  1.0
  C  C33  1  0.12220000  0.49412000  0.50524000  1.0
  C  C34  1  0.49485000  0.51490000  0.77619000  1.0
  C  C35  1  0.49567000  0.51253000  0.86153000  1.0
  C  C36  1  0.49685000  0.50849000  0.95462000  1.0
  C  C37  1  0.49825000  0.50355000  0.04035000  1.0
  C  C38  1  0.49936000  0.49907000  0.13341000  1.0
  C  C39  1  0.50001000  0.49563000  0.21868000  1.0
  C  C40  1  0.48598000  0.85453000  0.49255000  1.0
  C  C41  1  0.50813000  0.15065000  0.50392000  1.0
  C  C42  1  0.49237000  0.95586000  0.49633000  1.0
  C  C43  1  0.49944000  0.04949000  0.50015000  1.0
  C  C44  1  0.86808000  0.33351000  0.71695000  1.0
  C  C45  1  0.74148000  0.30688000  0.75006000  1.0
  C  C46  1  0.80422000  0.60465000  0.70384000  1.0
  C  C47  1  0.82818000  0.59558000  0.80698000  1.0
  C  C48  1  0.19826000  0.43222000  0.71696000  1.0
  C  C49  1  0.17579000  0.40032000  0.81664000  1.0
  C  C50  1  0.13626000  0.71117000  0.67884000  1.0
  C  C51  1  0.18075000  0.69069000  0.77658000  1.0
  I  I52  1  0.84981000  0.25213000  0.50144000  1.0
  I  I53  1  0.85328000  0.76936000  0.53828000  1.0
  I  I54  1  0.14909000  0.24255000  0.58257000  1.0
  I  I55  1  0.15022000  0.74133000  0.45490000  1.0
  I  I56  1  0.81832000  0.41156000  0.30548000  1.0
  I  I57  1  0.88953000  0.64890000  0.32281000  1.0
  I  I58  1  0.10795000  0.31924000  0.35167000  1.0
  I  I59  1  0.18078000  0.54789000  0.29100000  1.0
  N  N60  1  0.47728000  0.76565000  0.48899000  1.0
  N  N61  1  0.52058000  0.23927000  0.50715000  1.0
  O  O62  1  0.47737000  0.42614000  0.63989000  1.0
  O  O63  1  0.51694000  0.59668000  0.63462000  1.0
  O  O64  1  0.67829000  0.43151000  0.51969000  1.0
  O  O65  1  0.68776000  0.59718000  0.48151000  1.0
  O  O66  1  0.31175000  0.40242000  0.48944000  1.0
  O  O67  1  0.32205000  0.57098000  0.51211000  1.0
  O  O68  1  0.50918000  0.41205000  0.36051000  1.0
  O  O69  1  0.49141000  0.58517000  0.35472000  1.0
  O  O70  1  0.85704000  0.41122000  0.64497000  1.0
  O  O71  1  0.92070000  0.59557000  0.65694000  1.0
  O  O72  1  0.08121000  0.43532000  0.67016000  1.0
  O  O73  1  0.14174000  0.61681000  0.62729000  1.0
