# generated using pymatgen
data_MnH10(C2O)8
_symmetry_space_group_name_H-M   'P 1'
_cell_length_a   5.79116000
_cell_length_b   7.37852000
_cell_length_c   18.54450000
_cell_angle_alpha   91.20360000
_cell_angle_beta   96.13950000
_cell_angle_gamma   96.58950000
_symmetry_Int_Tables_number   1
_chemical_formula_structural   MnH10(C2O)8
_chemical_formula_sum   'Mn2 H20 C32 O16'
_cell_volume   782.21594753
_cell_formula_units_Z   2
loop_
 _symmetry_equiv_pos_site_id
 _symmetry_equiv_pos_as_xyz
  1  'x, y, z'
loop_
 _atom_site_type_symbol
 _atom_site_label
 _atom_site_symmetry_multiplicity
 _atom_site_fract_x
 _atom_site_fract_y
 _atom_site_fract_z
 _atom_site_occupancy
  Mn  Mn0  1  0.47131000  0.24690000  0.95660000  1.0
  Mn  Mn1  1  0.52870000  0.75308000  0.04340000  1.0
  H  H2  1  0.63238000  0.08562000  0.20132000  1.0
  H  H3  1  0.36763000  0.91439000  0.79868000  1.0
  H  H4  1  0.41563000  0.44537000  0.24898000  1.0
  H  H5  1  0.58438000  0.55463000  0.75102000  1.0
  H  H6  1  0.36992000  0.40026000  0.51461000  1.0
  H  H7  1  0.63007000  0.59977000  0.48539000  1.0
  H  H8  1  0.15012000  0.30146000  0.61611000  1.0
  H  H9  1  0.84987000  0.69858000  0.38389000  1.0
  H  H10  1  0.73774000  0.14856000  0.59159000  1.0
  H  H11  1  0.26226000  0.85146000  0.40841000  1.0
  H  H12  1  0.56237000  0.08602000  0.46268000  1.0
  H  H13  1  0.43762000  0.91400000  0.53732000  1.0
  H  H14  1  0.72680000  0.97581000  0.91012000  1.0
  H  H15  1  0.27320000  0.02416000  0.08988000  1.0
  H  H16  1  0.70226000  0.10492000  0.84214000  1.0
  H  H17  1  0.29775000  0.89506000  0.15786000  1.0
  H  H18  1  0.00560000  0.26667000  0.91366000  1.0
  H  H19  1  0.99440000  0.73330000  0.08634000  1.0
  H  H20  1  0.14508000  0.46841000  0.92756000  1.0
  H  H21  1  0.85493000  0.53156000  0.07244000  1.0
  C  C22  1  0.80474000  0.16358000  0.21095000  1.0
  C  C23  1  0.19526000  0.83642000  0.78905000  1.0
  C  C24  1  0.92817000  0.21703000  0.15301000  1.0
  C  C25  1  0.07183000  0.78295000  0.84699000  1.0
  C  C26  1  0.15082000  0.31875000  0.16661000  1.0
  C  C27  1  0.84919000  0.68122000  0.83338000  1.0
  C  C28  1  0.24393000  0.36650000  0.23778000  1.0
  C  C29  1  0.75607000  0.63349000  0.76222000  1.0
  C  C30  1  0.12031000  0.31197000  0.29598000  1.0
  C  C31  1  0.87969000  0.68804000  0.70402000  1.0
  C  C32  1  0.22783000  0.36122000  0.37124000  1.0
  C  C33  1  0.77216000  0.63881000  0.62876000  1.0
  C  C34  1  0.09466000  0.29552000  0.43137000  1.0
  C  C35  1  0.90532000  0.70451000  0.56862000  1.0
  C  C36  1  0.19417000  0.32931000  0.50328000  1.0
  C  C37  1  0.80582000  0.67071000  0.49672000  1.0
  C  C38  1  0.06833000  0.27462000  0.56059000  1.0
  C  C39  1  0.93167000  0.72541000  0.43941000  1.0
  C  C40  1  0.83887000  0.18838000  0.54686000  1.0
  C  C41  1  0.16113000  0.81164000  0.45314000  1.0
  C  C42  1  0.73983000  0.15289000  0.47547000  1.0
  C  C43  1  0.26016000  0.84714000  0.52453000  1.0
  C  C44  1  0.86646000  0.20244000  0.41741000  1.0
  C  C45  1  0.13353000  0.79759000  0.58259000  1.0
  C  C46  1  0.75962000  0.15093000  0.34261000  1.0
  C  C47  1  0.24038000  0.84909000  0.65739000  1.0
  C  C48  1  0.89793000  0.21019000  0.28241000  1.0
  C  C49  1  0.10207000  0.78982000  0.71759000  1.0
  C  C50  1  0.80958000  0.17687000  0.07749000  1.0
  C  C51  1  0.19044000  0.82311000  0.92251000  1.0
  C  C52  1  0.29129000  0.36823000  0.10486000  1.0
  C  C53  1  0.70873000  0.63174000  0.89514000  1.0
  O  O54  1  0.56556000  0.05897000  0.33009000  1.0
  O  O55  1  0.43446000  0.94103000  0.66991000  1.0
  O  O56  1  0.42027000  0.45533000  0.38242000  1.0
  O  O57  1  0.57972000  0.54470000  0.61758000  1.0
  O  O58  1  0.72041000  0.01627000  0.05975000  1.0
  O  O59  1  0.27960000  0.98370000  0.94026000  1.0
  O  O60  1  0.79249000  0.31253000  0.03618000  1.0
  O  O61  1  0.20753000  0.68744000  0.96382000  1.0
  O  O62  1  0.31110000  0.23649000  0.06056000  1.0
  O  O63  1  0.68891000  0.76347000  0.93944000  1.0
  O  O64  1  0.37998000  0.53111000  0.10173000  1.0
  O  O65  1  0.62002000  0.46887000  0.89826000  1.0
  O  O66  1  0.72959000  0.10651000  0.89487000  1.0
  O  O67  1  0.27041000  0.89346000  0.10513000  1.0
  O  O68  1  0.15429000  0.34255000  0.90845000  1.0
  O  O69  1  0.84571000  0.65742000  0.09154000  1.0
