# generated using pymatgen
data_H12RuC20N(O2F)2
_symmetry_space_group_name_H-M   'P 1'
_cell_length_a   9.86311000
_cell_length_b   10.87740000
_cell_length_c   11.38420000
_cell_angle_alpha   66.04030000
_cell_angle_beta   66.35910000
_cell_angle_gamma   65.33350000
_symmetry_Int_Tables_number   1
_chemical_formula_structural   H12RuC20N(O2F)2
_chemical_formula_sum   'H24 Ru2 C40 N2 O8 F4'
_cell_volume   974.05327554
_cell_formula_units_Z   2
loop_
 _symmetry_equiv_pos_site_id
 _symmetry_equiv_pos_as_xyz
  1  'x, y, z'
loop_
 _atom_site_type_symbol
 _atom_site_label
 _atom_site_symmetry_multiplicity
 _atom_site_fract_x
 _atom_site_fract_y
 _atom_site_fract_z
 _atom_site_occupancy
  H  H0  1  0.02097000  0.85243000  0.13014000  1.0
  H  H1  1  0.97913000  0.14778000  0.86945000  1.0
  H  H2  1  0.86466000  0.07833000  0.19752000  1.0
  H  H3  1  0.13544000  0.92157000  0.80255000  1.0
  H  H4  1  0.28584000  0.14044000  0.15649000  1.0
  H  H5  1  0.71417000  0.85957000  0.84360000  1.0
  H  H6  1  0.44166000  0.91763000  0.08754000  1.0
  H  H7  1  0.55843000  0.08269000  0.91209000  1.0
  H  H8  1  0.69187000  0.25913000  0.38738000  1.0
  H  H9  1  0.30788000  0.74120000  0.61284000  1.0
  H  H10  1  0.67791000  0.10248000  0.62428000  1.0
  H  H11  1  0.32224000  0.89721000  0.37576000  1.0
  H  H12  1  0.23885000  0.07649000  0.66038000  1.0
  H  H13  1  0.76124000  0.92331000  0.33957000  1.0
  H  H14  1  0.25505000  0.22854000  0.42339000  1.0
  H  H15  1  0.74477000  0.77184000  0.57674000  1.0
  H  H16  1  0.13899000  0.49074000  0.23906000  1.0
  H  H17  1  0.86086000  0.50947000  0.76047000  1.0
  H  H18  1  0.90221000  0.55526000  0.41877000  1.0
  H  H19  1  0.09776000  0.44472000  0.58106000  1.0
  H  H20  1  0.64037000  0.61633000  0.39122000  1.0
  H  H21  1  0.35949000  0.38366000  0.60883000  1.0
  H  H22  1  0.61804000  0.60966000  0.18602000  1.0
  H  H23  1  0.38145000  0.39066000  0.81412000  1.0
  Ru  Ru24  1  0.38711000  0.48434000  0.00786000  1.0
  Ru  Ru25  1  0.61367000  0.51590000  0.99205000  1.0
  C  C26  1  0.33333333  0.73885000  0.06807000  1.0
  C  C27  1  0.66711000  0.26140000  0.93139000  1.0
  C  C28  1  0.24062000  0.87135000  0.10598000  1.0
  C  C29  1  0.75964000  0.12905000  0.89317000  1.0
  C  C30  1  0.07782000  0.91557000  0.13664000  1.0
  C  C31  1  0.92239000  0.08468000  0.86275000  1.0
  C  C32  1  0.99075000  0.03848000  0.17558000  1.0
  C  C33  1  0.00939000  0.96156000  0.82418000  1.0
  C  C34  1  0.06867000  0.11383000  0.18488000  1.0
  C  C35  1  0.93139000  0.88619000  0.81503000  1.0
  C  C36  1  0.22979000  0.07579000  0.15135000  1.0
  C  C37  1  0.77026000  0.92435000  0.84846000  1.0
  C  C38  1  0.31541000  0.95277000  0.11217000  1.0
  C  C39  1  0.68471000  0.04757000  0.88730000  1.0
  C  C40  1  0.48312000  0.34170000  0.25219000  1.0
  C  C41  1  0.51681000  0.65881000  0.74812000  1.0
  C  C42  1  0.47439000  0.25244000  0.39178000  1.0
  C  C43  1  0.52514000  0.74833000  0.60867000  1.0
  C  C44  1  0.59386000  0.21778000  0.44772000  1.0
  C  C45  1  0.40582000  0.78269000  0.55262000  1.0
  C  C46  1  0.58682000  0.13130000  0.57852000  1.0
  C  C47  1  0.41305000  0.86882000  0.42168000  1.0
  C  C48  1  0.45835000  0.08235000  0.65133000  1.0
  C  C49  1  0.54156000  0.91772000  0.34877000  1.0
  C  C50  1  0.33759000  0.11606000  0.59922000  1.0
  C  C51  1  0.66226000  0.88412000  0.40090000  1.0
  C  C52  1  0.34676000  0.20103000  0.46812000  1.0
  C  C53  1  0.65294000  0.79948000  0.53211000  1.0
  C  C54  1  0.01671000  0.51017000  0.10886000  1.0
  C  C55  1  0.98283000  0.48921000  0.89130000  1.0
  C  C56  1  0.02517000  0.51701000  0.22780000  1.0
  C  C57  1  0.97457000  0.48297000  0.77204000  1.0
  C  C58  1  0.89296000  0.55232000  0.32768000  1.0
  C  C59  1  0.10689000  0.44758000  0.67225000  1.0
  C  C60  1  0.74473000  0.58643000  0.31246000  1.0
  C  C61  1  0.25506000  0.41346000  0.68758000  1.0
  C  C62  1  0.73153000  0.58208000  0.19860000  1.0
  C  C63  1  0.26808000  0.41787000  0.80148000  1.0
  C  C64  1  0.86547000  0.54023000  0.09531000  1.0
  C  C65  1  0.13400000  0.45914000  0.90496000  1.0
  N  N66  1  0.14959000  0.47193000  0.01268000  1.0
  N  N67  1  0.84984000  0.52713000  0.98768000  1.0
  O  O68  1  0.26172000  0.66831000  0.06093000  1.0
  O  O69  1  0.73887000  0.33105000  0.93965000  1.0
  O  O70  1  0.48149000  0.69900000  0.04607000  1.0
  O  O71  1  0.51893000  0.30066000  0.95445000  1.0
  O  O72  1  0.37616000  0.36310000  0.20270000  1.0
  O  O73  1  0.62468000  0.63625000  0.79720000  1.0
  O  O74  1  0.59721000  0.39243000  0.18686000  1.0
  O  O75  1  0.40358000  0.60688000  0.81329000  1.0
  F  F76  1  0.98213000  0.22936000  0.23045000  1.0
  F  F77  1  0.01785000  0.77035000  0.76989000  1.0
  F  F78  1  0.44918000  0.99795000  0.77979000  1.0
  F  F79  1  0.55096000  0.00168000  0.22018000  1.0
