# generated using pymatgen
data_ZnH18C22(NO)4
_symmetry_space_group_name_H-M   'P 1'
_cell_length_a   11.80810000
_cell_length_b   11.82370000
_cell_length_c   13.53810000
_cell_angle_alpha   110.89500000
_cell_angle_beta   89.99960000
_cell_angle_gamma   119.95700000
_symmetry_Int_Tables_number   1
_chemical_formula_structural   ZnH18C22(NO)4
_chemical_formula_sum   'Zn2 H36 C44 N8 O8'
_cell_volume   1492.42105691
_cell_formula_units_Z   2
loop_
 _symmetry_equiv_pos_site_id
 _symmetry_equiv_pos_as_xyz
  1  'x, y, z'
loop_
 _atom_site_type_symbol
 _atom_site_label
 _atom_site_symmetry_multiplicity
 _atom_site_fract_x
 _atom_site_fract_y
 _atom_site_fract_z
 _atom_site_occupancy
  Zn  Zn0  1  0.97949000  0.00000000  0.75000000  1.0
  Zn  Zn1  1  0.02051000  0.99999000  0.25000000  1.0
  H  H2  1  0.20810000  0.17169000  0.96861000  1.0
  H  H3  1  0.03642000  0.82832000  0.53139000  1.0
  H  H4  1  0.79190000  0.82831000  0.03139000  1.0
  H  H5  1  0.96359000  0.17168000  0.46861000  1.0
  H  H6  1  0.93465000  0.72965000  0.78648000  1.0
  H  H7  1  0.20500000  0.27036000  0.71351000  1.0
  H  H8  1  0.06536000  0.27035000  0.21352000  1.0
  H  H9  1  0.79500000  0.72964000  0.28649000  1.0
  H  H10  1  0.10035000  0.76589000  0.95698000  1.0
  H  H11  1  0.33446000  0.23412000  0.54301000  1.0
  H  H12  1  0.89966000  0.23412000  0.04302000  1.0
  H  H13  1  0.66553000  0.76589000  0.45699000  1.0
  H  H14  1  0.25692000  0.01141000  0.14187000  1.0
  H  H15  1  0.24551000  0.98860000  0.35813000  1.0
  H  H16  1  0.74307000  0.98859000  0.85814000  1.0
  H  H17  1  0.75449000  0.01142000  0.64186000  1.0
  H  H18  1  0.33355000  0.17068000  0.12018000  1.0
  H  H19  1  0.16287000  0.82933000  0.37982000  1.0
  H  H20  1  0.66645000  0.82932000  0.87983000  1.0
  H  H21  1  0.83713000  0.17068000  0.62017000  1.0
  H  H22  1  0.50385000  0.21323000  0.00246000  1.0
  H  H23  1  0.29061000  0.78677000  0.49753000  1.0
  H  H24  1  0.49616000  0.78677000  0.99756000  1.0
  H  H25  1  0.70939000  0.21324000  0.50245000  1.0
  H  H26  1  0.32757000  0.83917000  0.07190000  1.0
  H  H27  1  0.48841000  0.16084000  0.42811000  1.0
  H  H28  1  0.67244000  0.16083000  0.92811000  1.0
  H  H29  1  0.51159000  0.83916000  0.57188000  1.0
  H  H30  1  0.83057000  0.28510000  0.83913000  1.0
  H  H31  1  0.54546000  0.71490000  0.66087000  1.0
  H  H32  1  0.16943000  0.71490000  0.16088000  1.0
  H  H33  1  0.45453000  0.28510000  0.33913000  1.0
  H  H34  1  0.21519000  0.52380000  0.05367000  1.0
  H  H35  1  0.69140000  0.47620000  0.44634000  1.0
  H  H36  1  0.78481000  0.47620000  0.94634000  1.0
  H  H37  1  0.30859000  0.52379000  0.55366000  1.0
  C  C38  1  0.15572000  0.05650000  0.94292000  1.0
  C  C39  1  0.09921000  0.94350000  0.55709000  1.0
  C  C40  1  0.84429000  0.94350000  0.05709000  1.0
  C  C41  1  0.90079000  0.05650000  0.44291000  1.0
  C  C42  1  0.01495000  0.82621000  0.85115000  1.0
  C  C43  1  0.18875000  0.17380000  0.64885000  1.0
  C  C44  1  0.98506000  0.17380000  0.14885000  1.0
  C  C45  1  0.81125000  0.82620000  0.35116000  1.0
  C  C46  1  0.09650000  0.84287000  0.93406000  1.0
  C  C47  1  0.25364000  0.15714000  0.56594000  1.0
  C  C48  1  0.90350000  0.15713000  0.06594000  1.0
  C  C49  1  0.74636000  0.84287000  0.43407000  1.0
  C  C50  1  0.29658000  0.05601000  0.08229000  1.0
  C  C51  1  0.24057000  0.94399000  0.41770000  1.0
  C  C52  1  0.70342000  0.94398000  0.91771000  1.0
  C  C53  1  0.75943000  0.05602000  0.58229000  1.0
  C  C54  1  0.40460000  0.02997000  0.04280000  1.0
  C  C55  1  0.37462000  0.97004000  0.45720000  1.0
  C  C56  1  0.59541000  0.97002000  0.95721000  1.0
  C  C57  1  0.62537000  0.02997000  0.54278000  1.0
  C  C58  1  0.50198000  0.11961000  0.00166000  1.0
  C  C59  1  0.38237000  0.88039000  0.49833000  1.0
  C  C60  1  0.49803000  0.88040000  0.99836000  1.0
  C  C61  1  0.61763000  0.11961000  0.50165000  1.0
  C  C62  1  0.40368000  0.91027000  0.04080000  1.0
  C  C63  1  0.49340000  0.08974000  0.45921000  1.0
  C  C64  1  0.59633000  0.08972000  0.95921000  1.0
  C  C65  1  0.50659000  0.91027000  0.54078000  1.0
  C  C66  1  0.05127000  0.27766000  0.88116000  1.0
  C  C67  1  0.77361000  0.72234000  0.61883000  1.0
  C  C68  1  0.94873000  0.72234000  0.11883000  1.0
  C  C69  1  0.22638000  0.27765000  0.38116000  1.0
  C  C70  1  0.02540000  0.39389000  0.94064000  1.0
  C  C71  1  0.63151000  0.60612000  0.55936000  1.0
  C  C72  1  0.97460000  0.60611000  0.05936000  1.0
  C  C73  1  0.36848000  0.39388000  0.44063000  1.0
  C  C74  1  0.90394000  0.37984000  0.90989000  1.0
  C  C75  1  0.52410000  0.62016000  0.59011000  1.0
  C  C76  1  0.09605000  0.62016000  0.09012000  1.0
  C  C77  1  0.47589000  0.37983000  0.40988000  1.0
  C  C78  1  0.12152000  0.51505000  0.03110000  1.0
  C  C79  1  0.60648000  0.48495000  0.46890000  1.0
  C  C80  1  0.87847000  0.48495000  0.96890000  1.0
  C  C81  1  0.39352000  0.51504000  0.53109000  1.0
  N  N82  1  0.05302000  0.96035000  0.85767000  1.0
  N  N83  1  0.09267000  0.03967000  0.64234000  1.0
  N  N84  1  0.94700000  0.03966000  0.14234000  1.0
  N  N85  1  0.90733000  0.96033000  0.35767000  1.0
  N  N86  1  0.18420000  0.98872000  0.99142000  1.0
  N  N87  1  0.19547000  0.01128000  0.50858000  1.0
  N  N88  1  0.81580000  0.01127000  0.00858000  1.0
  N  N89  1  0.80452000  0.98872000  0.49142000  1.0
  O  O90  1  0.94622000  0.15719000  0.81504000  1.0
  O  O91  1  0.78903000  0.84281000  0.68497000  1.0
  O  O92  1  0.05377000  0.84281000  0.18497000  1.0
  O  O93  1  0.21097000  0.15719000  0.31503000  1.0
  O  O94  1  0.16587000  0.29921000  0.89836000  1.0
  O  O95  1  0.86665000  0.70077000  0.60163000  1.0
  O  O96  1  0.83413000  0.70078000  0.10164000  1.0
  O  O97  1  0.13334000  0.29922000  0.39835000  1.0
