# generated using pymatgen
data_CuH12C8(N8Cl)2
_symmetry_space_group_name_H-M   'P 1'
_cell_length_a   6.57933000
_cell_length_b   8.42553000
_cell_length_c   15.24240000
_cell_angle_alpha   88.13370000
_cell_angle_beta   89.99990000
_cell_angle_gamma   89.99990000
_symmetry_Int_Tables_number   1
_chemical_formula_structural   CuH12C8(N8Cl)2
_chemical_formula_sum   'Cu2 H24 C16 N32 Cl4'
_cell_volume   844.50420903
_cell_formula_units_Z   2
loop_
 _symmetry_equiv_pos_site_id
 _symmetry_equiv_pos_as_xyz
  1  'x, y, z'
loop_
 _atom_site_type_symbol
 _atom_site_label
 _atom_site_symmetry_multiplicity
 _atom_site_fract_x
 _atom_site_fract_y
 _atom_site_fract_z
 _atom_site_occupancy
  Cu  Cu0  1  1.00000000  0.50001000  0.50000000  1.0
  Cu  Cu1  1  0.50000000  0.99999000  1.00000000  1.0
  H  H2  1  0.65668000  0.78634000  0.32549000  1.0
  H  H3  1  0.15669000  0.71365000  0.17451000  1.0
  H  H4  1  0.34331000  0.21367000  0.67451000  1.0
  H  H5  1  0.84332000  0.28633000  0.82549000  1.0
  H  H6  1  0.64314000  0.98868000  0.44026000  1.0
  H  H7  1  0.14315000  0.51132000  0.05974000  1.0
  H  H8  1  0.35684000  0.01133000  0.55973000  1.0
  H  H9  1  0.85686000  0.48866000  0.94026000  1.0
  H  H10  1  0.45206000  0.60374000  0.43007000  1.0
  H  H11  1  0.95206000  0.89626000  0.06994000  1.0
  H  H12  1  0.54794000  0.39628000  0.56993000  1.0
  H  H13  1  0.04795000  0.10372000  0.93006000  1.0
  H  H14  1  0.75964000  0.06493000  0.34209000  1.0
  H  H15  1  0.25965000  0.43507000  0.15791000  1.0
  H  H16  1  0.24035000  0.93508000  0.65791000  1.0
  H  H17  1  0.74036000  0.56491000  0.84210000  1.0
  H  H18  1  0.51062000  0.91377000  0.25184000  1.0
  H  H19  1  0.01064000  0.58622000  0.24816000  1.0
  H  H20  1  0.48937000  0.08624000  0.74816000  1.0
  H  H21  1  0.98939000  0.41376000  0.75184000  1.0
  H  H22  1  0.44751000  0.22194000  0.23241000  1.0
  H  H23  1  0.94749000  0.27808000  0.26759000  1.0
  H  H24  1  0.55249000  0.77807000  0.76759000  1.0
  H  H25  1  0.05249000  0.72192000  0.73241000  1.0
  C  C26  1  0.33027000  0.68509000  0.41134000  1.0
  C  C27  1  0.83028000  0.81491000  0.08867000  1.0
  C  C28  1  0.66972000  0.31492000  0.58867000  1.0
  C  C29  1  0.16974000  0.18507000  0.91133000  1.0
  C  C30  1  0.39937000  0.23906000  0.29952000  1.0
  C  C31  1  0.89937000  0.26095000  0.20048000  1.0
  C  C32  1  0.60063000  0.76095000  0.70048000  1.0
  C  C33  1  0.10063000  0.73905000  0.79952000  1.0
  C  C34  1  0.61664000  0.02272000  0.37126000  1.0
  C  C35  1  0.11665000  0.47728000  0.12873000  1.0
  C  C36  1  0.38334000  0.97729000  0.62873000  1.0
  C  C37  1  0.88336000  0.52270000  0.87127000  1.0
  C  C38  1  0.54133000  0.88045000  0.32086000  1.0
  C  C39  1  0.04134000  0.61955000  0.17914000  1.0
  C  C40  1  0.45866000  0.11956000  0.67914000  1.0
  C  C41  1  0.95867000  0.38044000  0.82086000  1.0
  N  N42  1  0.13453000  0.67578000  0.43181000  1.0
  N  N43  1  0.63453000  0.82422000  0.06819000  1.0
  N  N44  1  0.86547000  0.32424000  0.56819000  1.0
  N  N45  1  0.36548000  0.17577000  0.93181000  1.0
  N  N46  1  0.17084000  0.88724000  0.34780000  1.0
  N  N47  1  0.67085000  0.61275000  0.15220000  1.0
  N  N48  1  0.82915000  0.11276000  0.65220000  1.0
  N  N49  1  0.32916000  0.38724000  0.84781000  1.0
  N  N50  1  0.24899000  0.31142000  0.41630000  1.0
  N  N51  1  0.74899000  0.18858000  0.08370000  1.0
  N  N52  1  0.75101000  0.68860000  0.58370000  1.0
  N  N53  1  0.25101000  0.81141000  0.91630000  1.0
  N  N54  1  0.26181000  0.34009000  0.32808000  1.0
  N  N55  1  0.76180000  0.15992000  0.17191000  1.0
  N  N56  1  0.73820000  0.65993000  0.67192000  1.0
  N  N57  1  0.23819000  0.84007000  0.82809000  1.0
  N  N58  1  0.35462000  0.81466000  0.35898000  1.0
  N  N59  1  0.85463000  0.68534000  0.14103000  1.0
  N  N60  1  0.64537000  0.18535000  0.64102000  1.0
  N  N61  1  0.14538000  0.31464000  0.85897000  1.0
  N  N62  1  0.37275000  0.19843000  0.44151000  1.0
  N  N63  1  0.87276000  0.30157000  0.05848000  1.0
  N  N64  1  0.62724000  0.80159000  0.55849000  1.0
  N  N65  1  0.12724000  0.69841000  0.94152000  1.0
  N  N66  1  0.46943000  0.15173000  0.36850000  1.0
  N  N67  1  0.96943000  0.34827000  0.13150000  1.0
  N  N68  1  0.53057000  0.84828000  0.63150000  1.0
  N  N69  1  0.03057000  0.65172000  0.86850000  1.0
  N  N70  1  0.03940000  0.80207000  0.39178000  1.0
  N  N71  1  0.53941000  0.69792000  0.10822000  1.0
  N  N72  1  0.96059000  0.19794000  0.60822000  1.0
  N  N73  1  0.46060000  0.30207000  0.89179000  1.0
  Cl  Cl74  1  0.76806000  0.47293000  0.38700000  1.0
  Cl  Cl75  1  0.26807000  0.02707000  0.11300000  1.0
  Cl  Cl76  1  0.23193000  0.52709000  0.61300000  1.0
  Cl  Cl77  1  0.73194000  0.97291000  0.88701000  1.0
