# generated using pymatgen
data_CuH4C8S2(NO2)2
_symmetry_space_group_name_H-M   'P 1'
_cell_length_a   8.48857000
_cell_length_b   10.60760000
_cell_length_c   12.82033660
_cell_angle_alpha   89.99986758
_cell_angle_beta   71.34232364
_cell_angle_gamma   89.99980000
_symmetry_Int_Tables_number   1
_chemical_formula_structural   CuH4C8S2(NO2)2
_chemical_formula_sum   'Cu4 H16 C32 S8 N8 O16'
_cell_volume   1093.71949651
_cell_formula_units_Z   4
loop_
 _symmetry_equiv_pos_site_id
 _symmetry_equiv_pos_as_xyz
  1  'x, y, z'
loop_
 _atom_site_type_symbol
 _atom_site_label
 _atom_site_symmetry_multiplicity
 _atom_site_fract_x
 _atom_site_fract_y
 _atom_site_fract_z
 _atom_site_occupancy
  Cu  Cu0  1  0.71554000  0.62025000  0.49191000  1.0
  Cu  Cu1  1  0.28446000  0.12025000  0.00808000  1.0
  Cu  Cu2  1  0.28448000  0.37975000  0.50810000  1.0
  Cu  Cu3  1  0.71552000  0.87975000  0.99191000  1.0
  H  H4  1  0.35020000  0.24775000  0.77831000  1.0
  H  H5  1  0.64979000  0.74774000  0.72169000  1.0
  H  H6  1  0.64979000  0.75227000  0.22168000  1.0
  H  H7  1  0.35021000  0.25227000  0.27833000  1.0
  H  H8  1  0.55819000  0.30411000  0.03231000  1.0
  H  H9  1  0.44180000  0.80411000  0.46770000  1.0
  H  H10  1  0.44180000  0.69587000  0.96770000  1.0
  H  H11  1  0.55822000  0.19587000  0.53230000  1.0
  H  H12  1  0.15242000  0.02344000  0.25143000  1.0
  H  H13  1  0.84761000  0.52345000  0.24856000  1.0
  H  H14  1  0.84758000  0.97656000  0.74856000  1.0
  H  H15  1  0.15238000  0.47656000  0.75146000  1.0
  H  H16  1  0.12364000  0.87487000  0.95303000  1.0
  H  H17  1  0.87636000  0.37485000  0.54696000  1.0
  H  H18  1  0.87632000  0.12514000  0.04696000  1.0
  H  H19  1  0.12367000  0.62514000  0.45304000  1.0
  C  C20  1  0.57252000  0.44387000  0.66076000  1.0
  C  C21  1  0.42748000  0.94387000  0.83924000  1.0
  C  C22  1  0.42750000  0.55612000  0.33924000  1.0
  C  C23  1  0.57250000  0.05613000  0.16076000  1.0
  C  C24  1  0.54359000  0.38614000  0.77099000  1.0
  C  C25  1  0.45641000  0.88613000  0.72901000  1.0
  C  C26  1  0.45643000  0.61386000  0.22901000  1.0
  C  C27  1  0.54357000  0.11387000  0.27100000  1.0
  C  C28  1  0.43117000  0.29274000  0.81775000  1.0
  C  C29  1  0.56882000  0.79274000  0.68225000  1.0
  C  C30  1  0.56882000  0.70726000  0.18224000  1.0
  C  C31  1  0.43118000  0.20726000  0.31776000  1.0
  C  C32  1  0.53954000  0.32133000  0.95356000  1.0
  C  C33  1  0.46045000  0.82134000  0.54644000  1.0
  C  C34  1  0.46045000  0.67865000  0.04644000  1.0
  C  C35  1  0.53956000  0.17866000  0.45356000  1.0
  C  C36  1  0.94298000  0.80079000  0.35218000  1.0
  C  C37  1  0.05705000  0.30080000  0.14781000  1.0
  C  C38  1  0.05704000  0.19921000  0.64782000  1.0
  C  C39  1  0.94294000  0.69921000  0.85219000  1.0
  C  C40  1  0.01988000  0.84918000  0.23779000  1.0
  C  C41  1  0.98014000  0.34918000  0.26220000  1.0
  C  C42  1  0.98012000  0.15082000  0.76220000  1.0
  C  C43  1  0.01986000  0.65082000  0.73780000  1.0
  C  C44  1  0.11408000  0.95536000  0.20113000  1.0
  C  C45  1  0.88595000  0.45537000  0.29886000  1.0
  C  C46  1  0.88591000  0.04464000  0.79886000  1.0
  C  C47  1  0.11407000  0.54464000  0.70114000  1.0
  C  C48  1  0.10194000  0.87984000  0.04083000  1.0
  C  C49  1  0.89807000  0.37983000  0.45916000  1.0
  C  C50  1  0.89802000  0.12017000  0.95917000  1.0
  C  C51  1  0.10196000  0.62017000  0.54084000  1.0
  S  S52  1  0.65073000  0.42846000  0.85970000  1.0
  S  S53  1  0.34927000  0.92846000  0.64030000  1.0
  S  S54  1  0.34929000  0.57153000  0.14030000  1.0
  S  S55  1  0.65073000  0.07152000  0.35969000  1.0
  S  S56  1  0.99017000  0.76903000  0.12858000  1.0
  S  S57  1  0.00982000  0.26903000  0.37142000  1.0
  S  S58  1  0.00981000  0.23096000  0.87142000  1.0
  S  S59  1  0.99017000  0.73096000  0.62859000  1.0
  N  N60  1  0.42921000  0.25752000  0.92109000  1.0
  N  N61  1  0.57078000  0.75752000  0.57891000  1.0
  N  N62  1  0.57078000  0.74248000  0.07890000  1.0
  N  N63  1  0.42923000  0.24249000  0.42110000  1.0
  N  N64  1  0.15803000  0.97244000  0.08904000  1.0
  N  N65  1  0.84198000  0.47243000  0.41096000  1.0
  N  N66  1  0.84195000  0.02757000  0.91096000  1.0
  N  N67  1  0.15804000  0.52756000  0.58904000  1.0
  O  O68  1  0.68063000  0.53428000  0.63691000  1.0
  O  O69  1  0.31937000  0.03428000  0.86309000  1.0
  O  O70  1  0.31940000  0.46573000  0.36310000  1.0
  O  O71  1  0.68060000  0.96573000  0.13691000  1.0
  O  O72  1  0.49562000  0.40153000  0.60025000  1.0
  O  O73  1  0.50439000  0.90153000  0.89975000  1.0
  O  O74  1  0.50441000  0.59847000  0.39974000  1.0
  O  O75  1  0.49559000  0.09847000  0.10026000  1.0
  O  O76  1  0.81906000  0.72532000  0.35953000  1.0
  O  O77  1  0.18096000  0.22531000  0.14046000  1.0
  O  O78  1  0.18094000  0.27468000  0.64047000  1.0
  O  O79  1  0.81903000  0.77469000  0.85954000  1.0
  O  O80  1  0.99982000  0.83287000  0.42641000  1.0
  O  O81  1  0.00022000  0.33289000  0.07358000  1.0
  O  O82  1  0.00020000  0.16713000  0.57358000  1.0
  O  O83  1  0.99977000  0.66712000  0.92642000  1.0
