# generated using pymatgen
data_MnH28C22S2(N3O)2
_symmetry_space_group_name_H-M   'P 1'
_cell_length_a   6.95241000
_cell_length_b   9.16015000
_cell_length_c   10.26040000
_cell_angle_alpha   72.01390000
_cell_angle_beta   75.80090000
_cell_angle_gamma   75.89600000
_symmetry_Int_Tables_number   1
_chemical_formula_structural   MnH28C22S2(N3O)2
_chemical_formula_sum   'Mn1 H28 C22 S2 N6 O2'
_cell_volume   592.43728588
_cell_formula_units_Z   1
loop_
 _symmetry_equiv_pos_site_id
 _symmetry_equiv_pos_as_xyz
  1  'x, y, z'
loop_
 _atom_site_type_symbol
 _atom_site_label
 _atom_site_symmetry_multiplicity
 _atom_site_fract_x
 _atom_site_fract_y
 _atom_site_fract_z
 _atom_site_occupancy
  Mn  Mn0  1  0.00000000  0.00000000  0.00000000  1.0
  H  H1  1  0.61391000  0.87524000  0.14745000  1.0
  H  H2  1  0.38609000  0.12477000  0.85254000  1.0
  H  H3  1  0.51901000  0.86852000  0.38780000  1.0
  H  H4  1  0.48099000  0.13148000  0.61221000  1.0
  H  H5  1  0.44656000  0.69198000  0.49390000  1.0
  H  H6  1  0.55345000  0.30803000  0.50610000  1.0
  H  H7  1  0.23841000  0.02015000  0.52751000  1.0
  H  H8  1  0.76157000  0.97985000  0.47248000  1.0
  H  H9  1  0.39841000  0.87917000  0.63670000  1.0
  H  H10  1  0.60157000  0.12084000  0.36331000  1.0
  H  H11  1  0.16036000  0.84363000  0.63545000  1.0
  H  H12  1  0.83963000  0.15637000  0.36454000  1.0
  H  H13  1  0.13492000  0.26507000  0.20278000  1.0
  H  H14  1  0.86507000  0.73493000  0.79722000  1.0
  H  H15  1  0.39573000  0.43598000  0.10033000  1.0
  H  H16  1  0.60426000  0.56402000  0.89968000  1.0
  H  H17  1  0.75192000  0.31886000  0.02357000  1.0
  H  H18  1  0.24807000  0.68115000  0.97643000  1.0
  H  H19  1  0.98064000  0.75175000  0.37548000  1.0
  H  H20  1  0.01937000  0.24824000  0.62452000  1.0
  H  H21  1  0.09630000  0.66960000  0.52612000  1.0
  H  H22  1  0.90371000  0.33039000  0.47388000  1.0
  H  H23  1  0.25957000  0.59895000  0.24050000  1.0
  H  H24  1  0.74044000  0.40104000  0.75950000  1.0
  H  H25  1  0.14658000  0.47054000  0.39246000  1.0
  H  H26  1  0.85343000  0.52945000  0.60754000  1.0
  H  H27  1  0.38367000  0.51848000  0.38537000  1.0
  H  H28  1  0.61634000  0.48152000  0.61463000  1.0
  C  C29  1  0.88508000  0.66976000  0.12279000  1.0
  C  C30  1  0.11493000  0.33024000  0.87721000  1.0
  C  C31  1  0.38929000  0.81665000  0.45205000  1.0
  C  C32  1  0.61071000  0.18335000  0.54795000  1.0
  C  C33  1  0.29035000  0.89456000  0.56942000  1.0
  C  C34  1  0.70964000  0.10545000  0.43058000  1.0
  C  C35  1  0.56131000  0.99900000  0.13934000  1.0
  C  C36  1  0.43869000  0.00100000  0.86066000  1.0
  C  C37  1  0.35945000  0.05476000  0.18820000  1.0
  C  C38  1  0.64055000  0.94524000  0.81180000  1.0
  C  C39  1  0.29294000  0.21525000  0.17161000  1.0
  C  C40  1  0.70706000  0.78475000  0.82839000  1.0
  C  C41  1  0.43699000  0.31089000  0.11199000  1.0
  C  C42  1  0.56301000  0.68911000  0.88801000  1.0
  C  C43  1  0.63622000  0.24690000  0.06739000  1.0
  C  C44  1  0.36377000  0.75311000  0.93260000  1.0
  C  C45  1  0.21637000  0.94310000  0.24879000  1.0
  C  C46  1  0.78363000  0.05690000  0.75121000  1.0
  C  C47  1  0.12479000  0.70336000  0.41148000  1.0
  C  C48  1  0.87522000  0.29664000  0.58852000  1.0
  C  C49  1  0.23539000  0.56406000  0.35469000  1.0
  C  C50  1  0.76462000  0.43593000  0.64531000  1.0
  S  S51  1  0.80400000  0.50818000  0.20378000  1.0
  S  S52  1  0.19602000  0.49181000  0.79623000  1.0
  N  N53  1  0.93770000  0.79149000  0.06300000  1.0
  N  N54  1  0.06230000  0.20850000  0.93701000  1.0
  N  N55  1  0.70039000  0.09210000  0.07718000  1.0
  N  N56  1  0.29961000  0.90791000  0.92282000  1.0
  N  N57  1  0.24701000  0.82665000  0.36380000  1.0
  N  N58  1  0.75299000  0.17335000  0.63620000  1.0
  O  O59  1  0.06676000  0.95631000  0.19372000  1.0
  O  O60  1  0.93324000  0.04369000  0.80628000  1.0
