# generated using pymatgen
data_CdH18C14N2(O2F)4
_symmetry_space_group_name_H-M   'P 1'
_cell_length_a   5.18824000
_cell_length_b   10.59560000
_cell_length_c   16.83770000
_cell_angle_alpha   89.99910000
_cell_angle_beta   90.40800000
_cell_angle_gamma   89.99980000
_symmetry_Int_Tables_number   1
_chemical_formula_structural   CdH18C14N2(O2F)4
_chemical_formula_sum   'Cd2 H36 C28 N4 O16 F8'
_cell_volume   925.58726046
_cell_formula_units_Z   2
loop_
 _symmetry_equiv_pos_site_id
 _symmetry_equiv_pos_as_xyz
  1  'x, y, z'
loop_
 _atom_site_type_symbol
 _atom_site_label
 _atom_site_symmetry_multiplicity
 _atom_site_fract_x
 _atom_site_fract_y
 _atom_site_fract_z
 _atom_site_occupancy
  Cd  Cd0  1  0.00000000  0.00000000  0.00000000  1.0
  Cd  Cd1  1  0.49998000  0.50000000  0.50000000  1.0
  H  H2  1  0.90218000  0.77691000  0.88086000  1.0
  H  H3  1  0.59786000  0.27692000  0.61913000  1.0
  H  H4  1  0.09787000  0.22309000  0.11913000  1.0
  H  H5  1  0.40211000  0.72308000  0.38087000  1.0
  H  H6  1  0.77335000  0.69928000  0.69966000  1.0
  H  H7  1  0.72671000  0.19928000  0.80034000  1.0
  H  H8  1  0.22668000  0.30071000  0.30034000  1.0
  H  H9  1  0.27331000  0.80072000  0.19966000  1.0
  H  H10  1  0.52257000  0.61992000  0.75072000  1.0
  H  H11  1  0.97749000  0.11993000  0.74927000  1.0
  H  H12  1  0.47746000  0.38008000  0.24928000  1.0
  H  H13  1  0.02254000  0.88008000  0.25072000  1.0
  H  H14  1  0.83555000  0.63094000  0.79514000  1.0
  H  H15  1  0.66450000  0.13095000  0.70485000  1.0
  H  H16  1  0.16448000  0.36905000  0.20486000  1.0
  H  H17  1  0.33551000  0.86905000  0.29514000  1.0
  H  H18  1  0.38960000  0.96066000  0.78723000  1.0
  H  H19  1  0.11041000  0.46068000  0.71276000  1.0
  H  H20  1  0.61041000  0.03934000  0.21277000  1.0
  H  H21  1  0.88956000  0.53934000  0.28723000  1.0
  H  H22  1  0.22387000  0.81502000  0.77371000  1.0
  H  H23  1  0.27615000  0.31504000  0.72629000  1.0
  H  H24  1  0.77615000  0.18497000  0.22630000  1.0
  H  H25  1  0.72383000  0.68498000  0.27370000  1.0
  H  H26  1  0.42863000  0.87155000  0.69698000  1.0
  H  H27  1  0.07138000  0.37156000  0.80301000  1.0
  H  H28  1  0.57137000  0.12845000  0.30302000  1.0
  H  H29  1  0.92860000  0.62844000  0.19698000  1.0
  H  H30  1  0.22936000  0.17186000  0.90971000  1.0
  H  H31  1  0.27064000  0.67187000  0.59029000  1.0
  H  H32  1  0.77065000  0.82814000  0.09029000  1.0
  H  H33  1  0.72933000  0.32815000  0.40971000  1.0
  H  H34  1  0.43193000  0.05198000  0.90269000  1.0
  H  H35  1  0.06806000  0.55199000  0.59731000  1.0
  H  H36  1  0.56808000  0.94802000  0.09731000  1.0
  H  H37  1  0.93191000  0.44803000  0.40269000  1.0
  C  C38  1  0.14063000  0.71105000  0.02539000  1.0
  C  C39  1  0.35936000  0.21105000  0.47463000  1.0
  C  C40  1  0.85937000  0.28894000  0.97462000  1.0
  C  C41  1  0.64064000  0.78895000  0.52538000  1.0
  C  C42  1  0.32091000  0.59997000  0.01274000  1.0
  C  C43  1  0.17908000  0.09998000  0.48726000  1.0
  C  C44  1  0.67909000  0.40002000  0.98727000  1.0
  C  C45  1  0.82091000  0.90001000  0.51274000  1.0
  C  C46  1  0.36910000  0.55280000  0.93715000  1.0
  C  C47  1  0.13091000  0.05279000  0.56286000  1.0
  C  C48  1  0.63092000  0.44721000  0.06286000  1.0
  C  C49  1  0.86909000  0.94720000  0.43715000  1.0
  C  C50  1  0.54461000  0.45584000  0.92461000  1.0
  C  C51  1  0.95539000  0.95584000  0.57540000  1.0
  C  C52  1  0.45539000  0.54416000  0.07540000  1.0
  C  C53  1  0.04460000  0.04416000  0.42461000  1.0
  C  C54  1  0.74688000  0.84020000  0.86038000  1.0
  C  C55  1  0.75314000  0.34022000  0.63961000  1.0
  C  C56  1  0.25315000  0.15980000  0.13962000  1.0
  C  C57  1  0.24683000  0.65979000  0.36038000  1.0
  C  C58  1  0.69241000  0.68033000  0.75852000  1.0
  C  C59  1  0.80764000  0.18034000  0.74147000  1.0
  C  C60  1  0.30762000  0.31966000  0.24147000  1.0
  C  C61  1  0.19237000  0.81966000  0.25852000  1.0
  C  C62  1  0.40343000  0.86632000  0.76149000  1.0
  C  C63  1  0.09659000  0.36634000  0.73851000  1.0
  C  C64  1  0.59658000  0.13368000  0.23852000  1.0
  C  C65  1  0.90339000  0.63368000  0.26148000  1.0
  N  N66  1  0.61929000  0.79838000  0.79678000  1.0
  N  N67  1  0.88074000  0.29840000  0.70321000  1.0
  N  N68  1  0.38073000  0.20161000  0.20321000  1.0
  N  N69  1  0.11926000  0.70160000  0.29679000  1.0
  O  O70  1  0.21088000  0.81151000  0.98982000  1.0
  O  O71  1  0.28910000  0.31151000  0.51018000  1.0
  O  O72  1  0.78913000  0.18849000  0.01018000  1.0
  O  O73  1  0.71086000  0.68850000  0.48981000  1.0
  O  O74  1  0.94583000  0.69446000  0.06807000  1.0
  O  O75  1  0.55418000  0.19446000  0.43195000  1.0
  O  O76  1  0.05418000  0.30555000  0.93194000  1.0
  O  O77  1  0.44582000  0.80554000  0.56806000  1.0
  O  O78  1  0.70475000  0.94283000  0.89615000  1.0
  O  O79  1  0.79525000  0.44285000  0.60385000  1.0
  O  O80  1  0.29529000  0.05715000  0.10385000  1.0
  O  O81  1  0.20471000  0.55713000  0.39614000  1.0
  O  O82  1  0.25099000  0.07995000  0.89830000  1.0
  O  O83  1  0.24900000  0.57996000  0.60170000  1.0
  O  O84  1  0.74902000  0.92005000  0.10170000  1.0
  O  O85  1  0.75096000  0.42006000  0.39830000  1.0
  F  F86  1  0.23457000  0.59912000  0.87381000  1.0
  F  F87  1  0.26541000  0.09912000  0.62620000  1.0
  F  F88  1  0.76543000  0.40089000  0.12620000  1.0
  F  F89  1  0.73455000  0.90089000  0.37381000  1.0
  F  F90  1  0.57499000  0.41133000  0.84951000  1.0
  F  F91  1  0.92500000  0.91132000  0.65050000  1.0
  F  F92  1  0.42503000  0.58867000  0.15050000  1.0
  F  F93  1  0.07498000  0.08868000  0.34951000  1.0
