# generated using pymatgen
data_CoH18C25N7O4
_symmetry_space_group_name_H-M   'P 1'
_cell_length_a   9.30255000
_cell_length_b   11.35660000
_cell_length_c   13.59050000
_cell_angle_alpha   67.63620000
_cell_angle_beta   71.98160000
_cell_angle_gamma   82.62110000
_symmetry_Int_Tables_number   1
_chemical_formula_structural   CoH18C25N7O4
_chemical_formula_sum   'Co2 H36 C50 N14 O8'
_cell_volume   1262.57132793
_cell_formula_units_Z   2
loop_
 _symmetry_equiv_pos_site_id
 _symmetry_equiv_pos_as_xyz
  1  'x, y, z'
loop_
 _atom_site_type_symbol
 _atom_site_label
 _atom_site_symmetry_multiplicity
 _atom_site_fract_x
 _atom_site_fract_y
 _atom_site_fract_z
 _atom_site_occupancy
  Co  Co0  1  0.50000000  0.50000000  0.50000000  1.0
  Co  Co1  1  0.00000000  0.00000000  0.00000000  1.0
  H  H2  1  0.58509000  0.55763000  0.23449000  1.0
  H  H3  1  0.41491000  0.44237000  0.76551000  1.0
  H  H4  1  0.44216000  0.23019000  0.72709000  1.0
  H  H5  1  0.55785000  0.76980000  0.27291000  1.0
  H  H6  1  0.20151000  0.35041000  0.28873000  1.0
  H  H7  1  0.79849000  0.64959000  0.71127000  1.0
  H  H8  1  0.63417000  0.02081000  0.73481000  1.0
  H  H9  1  0.36584000  0.97919000  0.26519000  1.0
  H  H10  1  0.21088000  0.35990000  0.48904000  1.0
  H  H11  1  0.78913000  0.64010000  0.51096000  1.0
  H  H12  1  0.25200000  0.09085000  0.74435000  1.0
  H  H13  1  0.74800000  0.90915000  0.25565000  1.0
  H  H14  1  0.27123000  0.71482000  0.74527000  1.0
  H  H15  1  0.72878000  0.28518000  0.25473000  1.0
  H  H16  1  0.95119000  0.44613000  0.62702000  1.0
  H  H17  1  0.04880000  0.55387000  0.37299000  1.0
  H  H18  1  0.77464000  0.31820000  0.41844000  1.0
  H  H19  1  0.22536000  0.68180000  0.58156000  1.0
  H  H20  1  0.07877000  0.72368000  0.94354000  1.0
  H  H21  1  0.92124000  0.27632000  0.05646000  1.0
  H  H22  1  0.76685000  0.08859000  0.87939000  1.0
  H  H23  1  0.23313000  0.91141000  0.12062000  1.0
  H  H24  1  0.74852000  0.28222000  0.71128000  1.0
  H  H25  1  0.25146000  0.71778000  0.28873000  1.0
  H  H26  1  0.86276000  0.93948000  0.70034000  1.0
  H  H27  1  0.13724000  0.06051000  0.29966000  1.0
  H  H28  1  0.47502000  0.21827000  0.36726000  1.0
  H  H29  1  0.52498000  0.78174000  0.63274000  1.0
  H  H30  1  0.29145000  0.14417000  0.55275000  1.0
  H  H31  1  0.70855000  0.85583000  0.44725000  1.0
  H  H32  1  0.77389000  0.51932000  0.89768000  1.0
  H  H33  1  0.22611000  0.48069000  0.10232000  1.0
  H  H34  1  0.69191000  0.48473000  0.09784000  1.0
  H  H35  1  0.30809000  0.51528000  0.90216000  1.0
  H  H36  1  0.08146000  0.81341000  0.64185000  1.0
  H  H37  1  0.91854000  0.18658000  0.35815000  1.0
  C  C38  1  0.06958000  0.24037000  0.84430000  1.0
  C  C39  1  0.93042000  0.75962000  0.15570000  1.0
  C  C40  1  0.06836000  0.34957000  0.75125000  1.0
  C  C41  1  0.93164000  0.65043000  0.24875000  1.0
  C  C42  1  0.18811000  0.20748000  0.90539000  1.0
  C  C43  1  0.81189000  0.79251000  0.09461000  1.0
  C  C44  1  0.87287000  0.07169000  0.53367000  1.0
  C  C45  1  0.12714000  0.92831000  0.46633000  1.0
  C  C46  1  0.39675000  0.95796000  0.60482000  1.0
  C  C47  1  0.60326000  0.04204000  0.39518000  1.0
  C  C48  1  0.48502000  0.49909000  0.27930000  1.0
  C  C49  1  0.51498000  0.50092000  0.72070000  1.0
  C  C50  1  0.53891000  0.21559000  0.66330000  1.0
  C  C51  1  0.46109000  0.78440000  0.33670000  1.0
  C  C52  1  0.18586000  0.45244000  0.69948000  1.0
  C  C53  1  0.81414000  0.54755000  0.30052000  1.0
  C  C54  1  0.28164000  0.39314000  0.30815000  1.0
  C  C55  1  0.71836000  0.60686000  0.69185000  1.0
  C  C56  1  0.45395000  0.47870000  0.11269000  1.0
  C  C57  1  0.54605000  0.52131000  0.88731000  1.0
  C  C58  1  0.63505000  0.11231000  0.66894000  1.0
  C  C59  1  0.36495000  0.88768000  0.33106000  1.0
  C  C60  1  0.28791000  0.39804000  0.40632000  1.0
  C  C61  1  0.71209000  0.60197000  0.59368000  1.0
  C  C62  1  0.22767000  0.99056000  0.77353000  1.0
  C  C63  1  0.77233000  0.00944000  0.22647000  1.0
  C  C64  1  0.24154000  0.79275000  0.77588000  1.0
  C  C65  1  0.75847000  0.20725000  0.22411000  1.0
  C  C66  1  0.95331000  0.36324000  0.70101000  1.0
  C  C67  1  0.04668000  0.63676000  0.29899000  1.0
  C  C68  1  0.71048000  0.26573000  0.50352000  1.0
  C  C69  1  0.28952000  0.73427000  0.49648000  1.0
  C  C70  1  0.14434000  0.79940000  0.87311000  1.0
  C  C71  1  0.85567000  0.20060000  0.12689000  1.0
  C  C72  1  0.84896000  0.16501000  0.83990000  1.0
  C  C73  1  0.15103000  0.83499000  0.16010000  1.0
  C  C74  1  0.84133000  0.27178000  0.74696000  1.0
  C  C75  1  0.15865000  0.72822000  0.25305000  1.0
  C  C76  1  0.92064000  0.96581000  0.61211000  1.0
  C  C77  1  0.07937000  0.03419000  0.38789000  1.0
  C  C78  1  0.48725000  0.12327000  0.42587000  1.0
  C  C79  1  0.51276000  0.87673000  0.57413000  1.0
  C  C80  1  0.38369000  0.08136000  0.53040000  1.0
  C  C81  1  0.61632000  0.91864000  0.46960000  1.0
  C  C82  1  0.65383000  0.51258000  0.94224000  1.0
  C  C83  1  0.34617000  0.48742000  0.05776000  1.0
  C  C84  1  0.60794000  0.49148000  0.05505000  1.0
  C  C85  1  0.39206000  0.50853000  0.94495000  1.0
  C  C86  1  0.04619000  0.89441000  0.57874000  1.0
  C  C87  1  0.95382000  0.10559000  0.42126000  1.0
  N  N88  1  0.96269000  0.14906000  0.88569000  1.0
  N  N89  1  0.03731000  0.85093000  0.11431000  1.0
  N  N90  1  0.29385000  0.91576000  0.71243000  1.0
  N  N91  1  0.70615000  0.08424000  0.28757000  1.0
  N  N92  1  0.74494000  0.14490000  0.56693000  1.0
  N  N93  1  0.25506000  0.85509000  0.43307000  1.0
  N  N94  1  0.40798000  0.45761000  0.22784000  1.0
  N  N95  1  0.59202000  0.54240000  0.77216000  1.0
  N  N96  1  0.58733000  0.31015000  0.55984000  1.0
  N  N97  1  0.41268000  0.68985000  0.44016000  1.0
  N  N98  1  0.41513000  0.46353000  0.38714000  1.0
  N  N99  1  0.58487000  0.53647000  0.61286000  1.0
  N  N100  1  0.13762000  0.92256000  0.87079000  1.0
  N  N101  1  0.86239000  0.07743000  0.12921000  1.0
  O  O102  1  0.29627000  0.43567000  0.62192000  1.0
  O  O103  1  0.70373000  0.56433000  0.37808000  1.0
  O  O104  1  0.17160000  0.09521000  0.98312000  1.0
  O  O105  1  0.82840000  0.90478000  0.01688000  1.0
  O  O106  1  0.29141000  0.28275000  0.88010000  1.0
  O  O107  1  0.70859000  0.71725000  0.11990000  1.0
  O  O108  1  0.15967000  0.54645000  0.73018000  1.0
  O  O109  1  0.84032000  0.45355000  0.26982000  1.0
