# generated using pymatgen
data_NiH30C26N4O7
_symmetry_space_group_name_H-M   'P 1'
_cell_length_a   9.69649000
_cell_length_b   10.17170000
_cell_length_c   15.12610000
_cell_angle_alpha   75.04930000
_cell_angle_beta   81.44140000
_cell_angle_gamma   64.65580000
_symmetry_Int_Tables_number   1
_chemical_formula_structural   NiH30C26N4O7
_chemical_formula_sum   'Ni2 H60 C52 N8 O14'
_cell_volume   1301.39231501
_cell_formula_units_Z   2
loop_
 _symmetry_equiv_pos_site_id
 _symmetry_equiv_pos_as_xyz
  1  'x, y, z'
loop_
 _atom_site_type_symbol
 _atom_site_label
 _atom_site_symmetry_multiplicity
 _atom_site_fract_x
 _atom_site_fract_y
 _atom_site_fract_z
 _atom_site_occupancy
  Ni  Ni0  1  0.36760000  0.73802000  0.14030000  1.0
  Ni  Ni1  1  0.63240000  0.26198000  0.85970000  1.0
  H  H2  1  0.03431000  0.18131000  0.74935000  1.0
  H  H3  1  0.96570000  0.81869000  0.25066000  1.0
  H  H4  1  0.77598000  0.24754000  0.49456000  1.0
  H  H5  1  0.22404000  0.75245000  0.50544000  1.0
  H  H6  1  0.38355000  0.25595000  0.20231000  1.0
  H  H7  1  0.61645000  0.74405000  0.79769000  1.0
  H  H8  1  0.32839000  0.31993000  0.08733000  1.0
  H  H9  1  0.67160000  0.68007000  0.91267000  1.0
  H  H10  1  0.14573000  0.01994000  0.03808000  1.0
  H  H11  1  0.85426000  0.98005000  0.96192000  1.0
  H  H12  1  0.38880000  0.70416000  0.81552000  1.0
  H  H13  1  0.61120000  0.29584000  0.18448000  1.0
  H  H14  1  0.44500000  0.45322000  0.27734000  1.0
  H  H15  1  0.55500000  0.54678000  0.72266000  1.0
  H  H16  1  0.07350000  0.12708000  0.87786000  1.0
  H  H17  1  0.92649000  0.87292000  0.12214000  1.0
  H  H18  1  0.44910000  0.61479000  0.97986000  1.0
  H  H19  1  0.55091000  0.38521000  0.02014000  1.0
  H  H20  1  0.52559000  0.83399000  0.24114000  1.0
  H  H21  1  0.47441000  0.16601000  0.75887000  1.0
  H  H22  1  0.01894000  0.51372000  0.30152000  1.0
  H  H23  1  0.98105000  0.48628000  0.69848000  1.0
  H  H24  1  0.20100000  0.37053000  0.32958000  1.0
  H  H25  1  0.79898000  0.62947000  0.67042000  1.0
  H  H26  1  0.12251000  0.26205000  0.03916000  1.0
  H  H27  1  0.87748000  0.73796000  0.96084000  1.0
  H  H28  1  0.03461000  0.15867000  0.12270000  1.0
  H  H29  1  0.96538000  0.84134000  0.87729000  1.0
  H  H30  1  0.67700000  0.72794000  0.38138000  1.0
  H  H31  1  0.32301000  0.27206000  0.61861000  1.0
  H  H32  1  0.82505000  0.15657000  0.65336000  1.0
  H  H33  1  0.17495000  0.84343000  0.34664000  1.0
  H  H34  1  0.82298000  0.32995000  0.65696000  1.0
  H  H35  1  0.17702000  0.67006000  0.34303000  1.0
  H  H36  1  0.59410000  0.33189000  0.41408000  1.0
  H  H37  1  0.40592000  0.66811000  0.58592000  1.0
  H  H38  1  0.94022000  0.60755000  0.13664000  1.0
  H  H39  1  0.05978000  0.39245000  0.86336000  1.0
  H  H40  1  0.06531000  0.52796000  0.04858000  1.0
  H  H41  1  0.93469000  0.47205000  0.95142000  1.0
  H  H42  1  0.25822000  0.10218000  0.31939000  1.0
  H  H43  1  0.74177000  0.89783000  0.68061000  1.0
  H  H44  1  0.11407000  0.06662000  0.28222000  1.0
  H  H45  1  0.88592000  0.93339000  0.71778000  1.0
  H  H46  1  0.86253000  0.42895000  0.09050000  1.0
  H  H47  1  0.13747000  0.57106000  0.90950000  1.0
  H  H48  1  0.81730000  0.46028000  0.25199000  1.0
  H  H49  1  0.18269000  0.53973000  0.74801000  1.0
  H  H50  1  0.84964000  0.27731000  0.24760000  1.0
  H  H51  1  0.15035000  0.72270000  0.75240000  1.0
  H  H52  1  0.00070000  0.27016000  0.36980000  1.0
  H  H53  1  0.99928000  0.72984000  0.63020000  1.0
  H  H54  1  0.08768000  0.08774000  0.57296000  1.0
  H  H55  1  0.91232000  0.91226000  0.42704000  1.0
  H  H56  1  0.07766000  0.26666000  0.57312000  1.0
  H  H57  1  0.92235000  0.73334000  0.42689000  1.0
  H  H58  1  0.71489000  0.69951000  0.11779000  1.0
  H  H59  1  0.28511000  0.30049000  0.88221000  1.0
  H  H60  1  0.58968000  0.85665000  0.08018000  1.0
  H  H61  1  0.41032000  0.14335000  0.91981000  1.0
  C  C62  1  0.28572000  0.29938000  0.15867000  1.0
  C  C63  1  0.71427000  0.70062000  0.84133000  1.0
  C  C64  1  0.19728000  0.95421000  0.98637000  1.0
  C  C65  1  0.80272000  0.04578000  0.01363000  1.0
  C  C66  1  0.34140000  0.03631000  0.14833000  1.0
  C  C67  1  0.65859000  0.96368000  0.85167000  1.0
  C  C68  1  0.33216000  0.77806000  0.86258000  1.0
  C  C69  1  0.66784000  0.22194000  0.13742000  1.0
  C  C70  1  0.49773000  0.51120000  0.30213000  1.0
  C  C71  1  0.50228000  0.48880000  0.69787000  1.0
  C  C72  1  0.15884000  0.01289000  0.89544000  1.0
  C  C73  1  0.84116000  0.98711000  0.10457000  1.0
  C  C74  1  0.19922000  0.97662000  0.72966000  1.0
  C  C75  1  0.80078000  0.02337000  0.27034000  1.0
  C  C76  1  0.22850000  0.92449000  0.83071000  1.0
  C  C77  1  0.77150000  0.07550000  0.16928000  1.0
  C  C78  1  0.36619000  0.72710000  0.95436000  1.0
  C  C79  1  0.63382000  0.27290000  0.04564000  1.0
  C  C80  1  0.22012000  0.18166000  0.17272000  1.0
  C  C81  1  0.77988000  0.81834000  0.82728000  1.0
  C  C82  1  0.54144000  0.72434000  0.28255000  1.0
  C  C83  1  0.45857000  0.27566000  0.71745000  1.0
  C  C84  1  0.21338000  0.56967000  0.16918000  1.0
  C  C85  1  0.78662000  0.43034000  0.83082000  1.0
  C  C86  1  0.10626000  0.41027000  0.28392000  1.0
  C  C87  1  0.89374000  0.58973000  0.71608000  1.0
  C  C88  1  0.16211000  0.44346000  0.18261000  1.0
  C  C89  1  0.83789000  0.55654000  0.81739000  1.0
  C  C90  1  0.08254000  0.24237000  0.11130000  1.0
  C  C91  1  0.91746000  0.75764000  0.88870000  1.0
  C  C92  1  0.62719000  0.66407000  0.35987000  1.0
  C  C93  1  0.37282000  0.33593000  0.64012000  1.0
  C  C94  1  0.86402000  0.24371000  0.61683000  1.0
  C  C95  1  0.13598000  0.75629000  0.38317000  1.0
  C  C96  1  0.58346000  0.44376000  0.37980000  1.0
  C  C97  1  0.41655000  0.55624000  0.62020000  1.0
  C  C98  1  0.02612000  0.50240000  0.12039000  1.0
  C  C99  1  0.97388000  0.49761000  0.87961000  1.0
  C  C100  1  0.16218000  0.14958000  0.27349000  1.0
  C  C101  1  0.83781000  0.85043000  0.72651000  1.0
  C  C102  1  0.95951000  0.38626000  0.13510000  1.0
  C  C103  1  0.04049000  0.61375000  0.86490000  1.0
  C  C104  1  0.65053000  0.52050000  0.41024000  1.0
  C  C105  1  0.34949000  0.47950000  0.58976000  1.0
  C  C106  1  0.90414000  0.35573000  0.23543000  1.0
  C  C107  1  0.09585000  0.64428000  0.76457000  1.0
  C  C108  1  0.03960000  0.29405000  0.29755000  1.0
  C  C109  1  0.96039000  0.70596000  0.70245000  1.0
  C  C110  1  0.03940000  0.17860000  0.61001000  1.0
  C  C111  1  0.96060000  0.82139000  0.38999000  1.0
  C  C112  1  0.74206000  0.46132000  0.49430000  1.0
  C  C113  1  0.25795000  0.53867000  0.50570000  1.0
  N  N114  1  0.30100000  0.81424000  0.01593000  1.0
  N  N115  1  0.69900000  0.18575000  0.98407000  1.0
  N  N116  1  0.47621000  0.64943000  0.25306000  1.0
  N  N117  1  0.52379000  0.35057000  0.74694000  1.0
  N  N118  1  0.09488000  0.11804000  0.70229000  1.0
  N  N119  1  0.90512000  0.88195000  0.29771000  1.0
  N  N120  1  0.79280000  0.31209000  0.52926000  1.0
  N  N121  1  0.20721000  0.68790000  0.47074000  1.0
  O  O122  1  0.11929000  0.69167000  0.18746000  1.0
  O  O123  1  0.88072000  0.30833000  0.81254000  1.0
  O  O124  1  0.35318000  0.54817000  0.14003000  1.0
  O  O125  1  0.64683000  0.45182000  0.85997000  1.0
  O  O126  1  0.28951000  0.93359000  0.16233000  1.0
  O  O127  1  0.71049000  0.06641000  0.83767000  1.0
  O  O128  1  0.47438000  0.02063000  0.12061000  1.0
  O  O129  1  0.52561000  0.97938000  0.87939000  1.0
  O  O130  1  0.26860000  0.89165000  0.67614000  1.0
  O  O131  1  0.73140000  0.10834000  0.32386000  1.0
  O  O132  1  0.76544000  0.54664000  0.52986000  1.0
  O  O133  1  0.23458000  0.45335000  0.47014000  1.0
  O  O134  1  0.65245000  0.75721000  0.06510000  1.0
  O  O135  1  0.34754000  0.24279000  0.93490000  1.0
