# generated using pymatgen
data_Ni3H48C72(N2O3)4
_symmetry_space_group_name_H-M   'P 1'
_cell_length_a   5.31749000
_cell_length_b   36.60990000
_cell_length_c   36.60990000
_cell_angle_alpha   120.00000000
_cell_angle_beta   90.00000000
_cell_angle_gamma   90.00000000
_symmetry_Int_Tables_number   1
_chemical_formula_structural   Ni3H48C72(N2O3)4
_chemical_formula_sum   'Ni3 H48 C72 N8 O12'
_cell_volume   6172.12053458
_cell_formula_units_Z   1
loop_
 _symmetry_equiv_pos_site_id
 _symmetry_equiv_pos_as_xyz
  1  'x, y, z'
loop_
 _atom_site_type_symbol
 _atom_site_label
 _atom_site_symmetry_multiplicity
 _atom_site_fract_x
 _atom_site_fract_y
 _atom_site_fract_z
 _atom_site_occupancy
  Ni  Ni0  1  0.50000000  0.50000000  0.50000000  1.0
  Ni  Ni1  1  0.50000000  0.00000000  0.50000000  1.0
  Ni  Ni2  1  0.50000000  0.50000000  0.00000000  1.0
  H  H3  1  0.77531000  0.59868000  0.31512000  1.0
  H  H4  1  0.77531000  0.71644000  0.40132000  1.0
  H  H5  1  0.77531000  0.68488000  0.28355000  1.0
  H  H6  1  0.77531000  0.40132000  0.68488000  1.0
  H  H7  1  0.77531000  0.28356000  0.59868000  1.0
  H  H8  1  0.77531000  0.31512000  0.71644000  1.0
  H  H9  1  0.77663000  0.55973000  0.35418000  1.0
  H  H10  1  0.77663000  0.79445000  0.44027000  1.0
  H  H11  1  0.77663000  0.64582000  0.20555000  1.0
  H  H12  1  0.77663000  0.44027000  0.64582000  1.0
  H  H13  1  0.77663000  0.20555000  0.55973000  1.0
  H  H14  1  0.77663000  0.35418000  0.79445000  1.0
  H  H15  1  0.22469000  0.68488000  0.40132000  1.0
  H  H16  1  0.22469000  0.71644000  0.31512000  1.0
  H  H17  1  0.22469000  0.59868000  0.28356000  1.0
  H  H18  1  0.22469000  0.31512000  0.59868000  1.0
  H  H19  1  0.22469000  0.28356000  0.68488000  1.0
  H  H20  1  0.22469000  0.40132000  0.71644000  1.0
  H  H21  1  0.22337000  0.64582000  0.44027000  1.0
  H  H22  1  0.22337000  0.79445000  0.35418000  1.0
  H  H23  1  0.22337000  0.55973000  0.20555000  1.0
  H  H24  1  0.22337000  0.35418000  0.55973000  1.0
  H  H25  1  0.22337000  0.20555000  0.64582000  1.0
  H  H26  1  0.22337000  0.44027000  0.79445000  1.0
  H  H27  1  0.51508000  0.47724000  0.41012000  1.0
  H  H28  1  0.51508000  0.93288000  0.52277000  1.0
  H  H29  1  0.51508000  0.58989000  0.06713000  1.0
  H  H30  1  0.51508000  0.52276000  0.58988000  1.0
  H  H31  1  0.51508000  0.06712000  0.47723000  1.0
  H  H32  1  0.51508000  0.41011000  0.93287000  1.0
  H  H33  1  0.51527000  0.51411000  0.36792000  1.0
  H  H34  1  0.51526000  0.85381000  0.48589000  1.0
  H  H35  1  0.51527000  0.63208000  0.14619000  1.0
  H  H36  1  0.51527000  0.48589000  0.63208000  1.0
  H  H37  1  0.51526000  0.14619000  0.51411000  1.0
  H  H38  1  0.51527000  0.36792000  0.85381000  1.0
  H  H39  1  0.48492000  0.58989000  0.52277000  1.0
  H  H40  1  0.48492000  0.93288000  0.41012000  1.0
  H  H41  1  0.48492000  0.47724000  0.06713000  1.0
  H  H42  1  0.48492000  0.41011000  0.47723000  1.0
  H  H43  1  0.48492000  0.06712000  0.58988000  1.0
  H  H44  1  0.48492000  0.52276000  0.93287000  1.0
  H  H45  1  0.48474000  0.63208000  0.48589000  1.0
  H  H46  1  0.48474000  0.85381000  0.36792000  1.0
  H  H47  1  0.48474000  0.51411000  0.14619000  1.0
  H  H48  1  0.48474000  0.36792000  0.51411000  1.0
  H  H49  1  0.48474000  0.14619000  0.63208000  1.0
  H  H50  1  0.48474000  0.48589000  0.85381000  1.0
  C  C51  1  0.65296000  0.60867000  0.34237000  1.0
  C  C52  1  0.65296000  0.73370000  0.39133000  1.0
  C  C53  1  0.65296000  0.65763000  0.26630000  1.0
  C  C54  1  0.65296000  0.39133000  0.65763000  1.0
  C  C55  1  0.65296000  0.26630000  0.60867000  1.0
  C  C56  1  0.65296000  0.34237000  0.73370000  1.0
  C  C57  1  0.65135000  0.58669000  0.36421000  1.0
  C  C58  1  0.65135000  0.77752000  0.41331000  1.0
  C  C59  1  0.65135000  0.63579000  0.22248000  1.0
  C  C60  1  0.65135000  0.41331000  0.63579000  1.0
  C  C61  1  0.65135000  0.22248000  0.58669000  1.0
  C  C62  1  0.65135000  0.36421000  0.77752000  1.0
  C  C63  1  0.34704000  0.65763000  0.39133000  1.0
  C  C64  1  0.34704000  0.73370000  0.34237000  1.0
  C  C65  1  0.34704000  0.60867000  0.26630000  1.0
  C  C66  1  0.34704000  0.34237000  0.60867000  1.0
  C  C67  1  0.34704000  0.26630000  0.65763000  1.0
  C  C68  1  0.34704000  0.39133000  0.73370000  1.0
  C  C69  1  0.34865000  0.63579000  0.41331000  1.0
  C  C70  1  0.34865000  0.77752000  0.36421000  1.0
  C  C71  1  0.34865000  0.58669000  0.22248000  1.0
  C  C72  1  0.34865000  0.36421000  0.58669000  1.0
  C  C73  1  0.34865000  0.22248000  0.63579000  1.0
  C  C74  1  0.34865000  0.41331000  0.77752000  1.0
  C  C75  1  0.50000000  0.64440000  0.35561000  1.0
  C  C76  1  0.50000000  0.71121000  0.35561000  1.0
  C  C77  1  0.50000000  0.64440000  0.28880000  1.0
  C  C78  1  0.50000000  0.35560000  0.64439000  1.0
  C  C79  1  0.50000000  0.28879000  0.64439000  1.0
  C  C80  1  0.50000000  0.35560000  0.71120000  1.0
  C  C81  1  0.50000000  0.59982000  0.40018000  1.0
  C  C82  1  0.50000000  0.80036000  0.40018000  1.0
  C  C83  1  0.50000000  0.59982000  0.19964000  1.0
  C  C84  1  0.50000000  0.40018000  0.59982000  1.0
  C  C85  1  0.50000000  0.19964000  0.59982000  1.0
  C  C86  1  0.50000000  0.40018000  0.80036000  1.0
  C  C87  1  0.50000000  0.57659000  0.42341000  1.0
  C  C88  1  0.50000000  0.84682000  0.42341000  1.0
  C  C89  1  0.50000000  0.57659000  0.15318000  1.0
  C  C90  1  0.50000000  0.42341000  0.57659000  1.0
  C  C91  1  0.50000000  0.15318000  0.57659000  1.0
  C  C92  1  0.50000000  0.42341000  0.84682000  1.0
  C  C93  1  0.50969000  0.51153000  0.42530000  1.0
  C  C94  1  0.50969000  0.91377000  0.48847000  1.0
  C  C95  1  0.50969000  0.57470000  0.08623000  1.0
  C  C96  1  0.50969000  0.48847000  0.57470000  1.0
  C  C97  1  0.50969000  0.08623000  0.51153000  1.0
  C  C98  1  0.50969000  0.42530000  0.91377000  1.0
  C  C99  1  0.51124000  0.53232000  0.40228000  1.0
  C  C100  1  0.51124000  0.86996000  0.46768000  1.0
  C  C101  1  0.51124000  0.59772000  0.13004000  1.0
  C  C102  1  0.51124000  0.46768000  0.59772000  1.0
  C  C103  1  0.51124000  0.13004000  0.53232000  1.0
  C  C104  1  0.51124000  0.40228000  0.86996000  1.0
  C  C105  1  0.49031000  0.57470000  0.48847000  1.0
  C  C106  1  0.49031000  0.91377000  0.42530000  1.0
  C  C107  1  0.49031000  0.51153000  0.08623000  1.0
  C  C108  1  0.49031000  0.42530000  0.51153000  1.0
  C  C109  1  0.49031000  0.08623000  0.57470000  1.0
  C  C110  1  0.49031000  0.48847000  0.91377000  1.0
  C  C111  1  0.48877000  0.59772000  0.46768000  1.0
  C  C112  1  0.48877000  0.86996000  0.40228000  1.0
  C  C113  1  0.48877000  0.53232000  0.13004000  1.0
  C  C114  1  0.48877000  0.40228000  0.53232000  1.0
  C  C115  1  0.48877000  0.13004000  0.59772000  1.0
  C  C116  1  0.48877000  0.46768000  0.86996000  1.0
  C  C117  1  0.00000000  0.47863000  0.47863000  1.0
  C  C118  1  0.00000000  0.00000000  0.52138000  1.0
  C  C119  1  1.00000000  0.52137000  0.00000000  1.0
  C  C120  1  0.00000000  0.52137000  0.52137000  1.0
  C  C121  1  1.00000000  0.00000000  0.47862000  1.0
  C  C122  1  0.00000000  0.47862000  1.00000000  1.0
  N  N123  1  0.50000000  0.53230000  0.46770000  1.0
  N  N124  1  0.50000000  0.93540000  0.46770000  1.0
  N  N125  1  0.50000000  0.53230000  0.06460000  1.0
  N  N126  1  0.50000000  0.46770000  0.53230000  1.0
  N  N127  1  0.50000000  0.06460000  0.53230000  1.0
  N  N128  1  0.50000000  0.46770000  0.93540000  1.0
  N  N129  1  0.50000000  0.66666667  0.33333333  1.0
  N  N130  1  0.50000000  0.33333333  0.66666667  1.0
  O  O131  1  0.21146000  0.46266000  0.46259000  1.0
  O  O132  1  0.21145000  0.99993000  0.53734000  1.0
  O  O133  1  0.21145000  0.53741000  0.00007000  1.0
  O  O134  1  0.21145000  0.53734000  0.53741000  1.0
  O  O135  1  0.21145000  0.00007000  0.46266000  1.0
  O  O136  1  0.21145000  0.46259000  0.99993000  1.0
  O  O137  1  0.78855000  0.46259000  0.46266000  1.0
  O  O138  1  0.78854000  0.00007000  0.53741000  1.0
  O  O139  1  0.78855000  0.53734000  0.99993000  1.0
  O  O140  1  0.78855000  0.53741000  0.53734000  1.0
  O  O141  1  0.78855000  0.99993000  0.46259000  1.0
  O  O142  1  0.78855000  0.46266000  0.00007000  1.0
