# generated using pymatgen
data_CdH9C11(NO2)2
_symmetry_space_group_name_H-M   'P 1'
_cell_length_a   7.96569000
_cell_length_b   8.15586000
_cell_length_c   16.78800000
_cell_angle_alpha   90.00000000
_cell_angle_beta   90.00000000
_cell_angle_gamma   98.50100000
_symmetry_Int_Tables_number   1
_chemical_formula_structural   CdH9C11(NO2)2
_chemical_formula_sum   'Cd4 H36 C44 N8 O16'
_cell_volume   1078.68402860
_cell_formula_units_Z   4
loop_
 _symmetry_equiv_pos_site_id
 _symmetry_equiv_pos_as_xyz
  1  'x, y, z'
loop_
 _atom_site_type_symbol
 _atom_site_label
 _atom_site_symmetry_multiplicity
 _atom_site_fract_x
 _atom_site_fract_y
 _atom_site_fract_z
 _atom_site_occupancy
  Cd  Cd0  1  0.12716000  0.28969000  0.26409000  1.0
  Cd  Cd1  1  0.37284000  0.71031000  0.76409000  1.0
  Cd  Cd2  1  0.87284000  0.71032000  0.73591000  1.0
  Cd  Cd3  1  0.62715000  0.28968000  0.23591000  1.0
  H  H4  1  0.78854000  0.69352000  0.32901000  1.0
  H  H5  1  0.71146000  0.30648000  0.82900000  1.0
  H  H6  1  0.21147000  0.30648000  0.67100000  1.0
  H  H7  1  0.28853000  0.69351000  0.17099000  1.0
  H  H8  1  0.86308000  0.92145000  0.22657000  1.0
  H  H9  1  0.63692000  0.07855000  0.72656000  1.0
  H  H10  1  0.13693000  0.07855000  0.77344000  1.0
  H  H11  1  0.36307000  0.92145000  0.27344000  1.0
  H  H12  1  0.92561000  0.62828000  0.48793000  1.0
  H  H13  1  0.57439000  0.37172000  0.98793000  1.0
  H  H14  1  0.07439000  0.37172000  0.51206000  1.0
  H  H15  1  0.42560000  0.62828000  0.01206000  1.0
  H  H16  1  0.35922000  0.99077000  0.54313000  1.0
  H  H17  1  0.14078000  0.00923000  0.04313000  1.0
  H  H18  1  0.64078000  0.00923000  0.45687000  1.0
  H  H19  1  0.85922000  0.99078000  0.95687000  1.0
  H  H20  1  0.34026000  0.13338000  0.41116000  1.0
  H  H21  1  0.15974000  0.86662000  0.91116000  1.0
  H  H22  1  0.65974000  0.86662000  0.58884000  1.0
  H  H23  1  0.84026000  0.13338000  0.08884000  1.0
  H  H24  1  0.26976000  0.54332000  0.41309000  1.0
  H  H25  1  0.23024000  0.45668000  0.91309000  1.0
  H  H26  1  0.73024000  0.45668000  0.58691000  1.0
  H  H27  1  0.76976000  0.54332000  0.08691000  1.0
  H  H28  1  0.41199000  0.72372000  0.38580000  1.0
  H  H29  1  0.08801000  0.27628000  0.88580000  1.0
  H  H30  1  0.58802000  0.27628000  0.61420000  1.0
  H  H31  1  0.91198000  0.72372000  0.11420000  1.0
  H  H32  1  0.63652000  0.64322000  0.47362000  1.0
  H  H33  1  0.86348000  0.35678000  0.97362000  1.0
  H  H34  1  0.36348000  0.35678000  0.52638000  1.0
  H  H35  1  0.13652000  0.64322000  0.02638000  1.0
  H  H36  1  0.45034000  0.66748000  0.52614000  1.0
  H  H37  1  0.04966000  0.33252000  0.02614000  1.0
  H  H38  1  0.54966000  0.33252000  0.47386000  1.0
  H  H39  1  0.95034000  0.66748000  0.97386000  1.0
  C  C40  1  0.93496000  0.91038000  0.28065000  1.0
  C  C41  1  0.56504000  0.08962000  0.78065000  1.0
  C  C42  1  0.06504000  0.08962000  0.71935000  1.0
  C  C43  1  0.43496000  0.91038000  0.21935000  1.0
  C  C44  1  0.11970000  0.95866000  0.37610000  1.0
  C  C45  1  0.38030000  0.04134000  0.87610000  1.0
  C  C46  1  0.88030000  0.04134000  0.62390000  1.0
  C  C47  1  0.61969000  0.95866000  0.12390000  1.0
  C  C48  1  0.00660000  0.81355000  0.39652000  1.0
  C  C49  1  0.49339000  0.18645000  0.89652000  1.0
  C  C50  1  0.99340000  0.18645000  0.60348000  1.0
  C  C51  1  0.50660000  0.81355000  0.10348000  1.0
  C  C52  1  0.01525000  0.73555000  0.46979000  1.0
  C  C53  1  0.48475000  0.26445000  0.96979000  1.0
  C  C54  1  0.98475000  0.26445000  0.53021000  1.0
  C  C55  1  0.51525000  0.73555000  0.03021000  1.0
  C  C56  1  0.14302000  0.80473000  0.52190000  1.0
  C  C57  1  0.35698000  0.19527000  0.02190000  1.0
  C  C58  1  0.85698000  0.19527000  0.47810000  1.0
  C  C59  1  0.64302000  0.80473000  0.97810000  1.0
  C  C60  1  0.26199000  0.94389000  0.49984000  1.0
  C  C61  1  0.23801000  0.05611000  0.99984000  1.0
  C  C62  1  0.73801000  0.05611000  0.50016000  1.0
  C  C63  1  0.76199000  0.94389000  0.00016000  1.0
  C  C64  1  0.25234000  0.02300000  0.42720000  1.0
  C  C65  1  0.24766000  0.97700000  0.92720000  1.0
  C  C66  1  0.74766000  0.97700000  0.57280000  1.0
  C  C67  1  0.75233000  0.02300000  0.07280000  1.0
  C  C68  1  0.14739000  0.73850000  0.60505000  1.0
  C  C69  1  0.35261000  0.26150000  0.10505000  1.0
  C  C70  1  0.85261000  0.26150000  0.39495000  1.0
  C  C71  1  0.64739000  0.73850000  0.89495000  1.0
  C  C72  1  0.47679000  0.49714000  0.33959000  1.0
  C  C73  1  0.02321000  0.50286000  0.83959000  1.0
  C  C74  1  0.52322000  0.50286000  0.66041000  1.0
  C  C75  1  0.97679000  0.49714000  0.16041000  1.0
  C  C76  1  0.40420000  0.59364000  0.40453000  1.0
  C  C77  1  0.09580000  0.40636000  0.90453000  1.0
  C  C78  1  0.59580000  0.40636000  0.59547000  1.0
  C  C79  1  0.90420000  0.59364000  0.09547000  1.0
  C  C80  1  0.50346000  0.58749000  0.48305000  1.0
  C  C81  1  0.99654000  0.41251000  0.98305000  1.0
  C  C82  1  0.49655000  0.41251000  0.51695000  1.0
  C  C83  1  0.00345000  0.58749000  0.01695000  1.0
  N  N84  1  0.07030000  0.01671000  0.30317000  1.0
  N  N85  1  0.42970000  0.98329000  0.80317000  1.0
  N  N86  1  0.92970000  0.98329000  0.69683000  1.0
  N  N87  1  0.57030000  0.01671000  0.19683000  1.0
  N  N88  1  0.89311000  0.78659000  0.33380000  1.0
  N  N89  1  0.60689000  0.21341000  0.83380000  1.0
  N  N90  1  0.10690000  0.21341000  0.66620000  1.0
  N  N91  1  0.39310000  0.78659000  0.16620000  1.0
  O  O92  1  0.39449000  0.35680000  0.31706000  1.0
  O  O93  1  0.10551000  0.64320000  0.81706000  1.0
  O  O94  1  0.60551000  0.64320000  0.68294000  1.0
  O  O95  1  0.89449000  0.35680000  0.18294000  1.0
  O  O96  1  0.62188000  0.54829000  0.30997000  1.0
  O  O97  1  0.87812000  0.45171000  0.80997000  1.0
  O  O98  1  0.37812000  0.45171000  0.69003000  1.0
  O  O99  1  0.12188000  0.54829000  0.19003000  1.0
  O  O100  1  0.27569000  0.79672000  0.64697000  1.0
  O  O101  1  0.22431000  0.20328000  0.14697000  1.0
  O  O102  1  0.72431000  0.20328000  0.35303000  1.0
  O  O103  1  0.77569000  0.79673000  0.85303000  1.0
  O  O104  1  0.02131000  0.63412000  0.62848000  1.0
  O  O105  1  0.47869000  0.36588000  0.12848000  1.0
  O  O106  1  0.97869000  0.36588000  0.37152000  1.0
  O  O107  1  0.52131000  0.63412000  0.87152000  1.0
