# generated using pymatgen
data_CuH16C10N2ClO2
_symmetry_space_group_name_H-M   'P 1'
_cell_length_a   7.49080000
_cell_length_b   8.74438000
_cell_length_c   10.53850000
_cell_angle_alpha   65.84830000
_cell_angle_beta   70.09470000
_cell_angle_gamma   83.28730000
_symmetry_Int_Tables_number   1
_chemical_formula_structural   CuH16C10N2ClO2
_chemical_formula_sum   'Cu2 H32 C20 N4 Cl2 O4'
_cell_volume   592.03935930
_cell_formula_units_Z   2
loop_
 _symmetry_equiv_pos_site_id
 _symmetry_equiv_pos_as_xyz
  1  'x, y, z'
loop_
 _atom_site_type_symbol
 _atom_site_label
 _atom_site_symmetry_multiplicity
 _atom_site_fract_x
 _atom_site_fract_y
 _atom_site_fract_z
 _atom_site_occupancy
  Cu  Cu0  1  0.22011000  0.45127000  0.41881000  1.0
  Cu  Cu1  1  0.77989000  0.54873000  0.58118000  1.0
  H  H2  1  0.36595000  0.08546000  0.45439000  1.0
  H  H3  1  0.63405000  0.91454000  0.54560000  1.0
  H  H4  1  0.21805000  0.89894000  0.35138000  1.0
  H  H5  1  0.78196000  0.10105000  0.64861000  1.0
  H  H6  1  0.87765000  0.95573000  0.29442000  1.0
  H  H7  1  0.12235000  0.04427000  0.70558000  1.0
  H  H8  1  0.05337000  0.05152000  0.12243000  1.0
  H  H9  1  0.94663000  0.94848000  0.87757000  1.0
  H  H10  1  0.88708000  0.32486000  0.08148000  1.0
  H  H11  1  0.11292000  0.67513000  0.91852000  1.0
  H  H12  1  0.70910000  0.23165000  0.25410000  1.0
  H  H13  1  0.29091000  0.76834000  0.74590000  1.0
  H  H14  1  0.80696000  0.11681000  0.99954000  1.0
  H  H15  1  0.19304000  0.88319000  0.00046000  1.0
  H  H16  1  0.62186000  0.03101000  0.16900000  1.0
  H  H17  1  0.37813000  0.96900000  0.83100000  1.0
  H  H18  1  0.65460000  0.39536000  0.94478000  1.0
  H  H19  1  0.34540000  0.60464000  0.05523000  1.0
  H  H20  1  0.46756000  0.31238000  0.11222000  1.0
  H  H21  1  0.53244000  0.68762000  0.88778000  1.0
  H  H22  1  0.57093000  0.19551000  0.85907000  1.0
  H  H23  1  0.42907000  0.80449000  0.14093000  1.0
  H  H24  1  0.38663000  0.10641000  0.02665000  1.0
  H  H25  1  0.61337000  0.89360000  0.97335000  1.0
  H  H26  1  0.96175000  0.37464000  0.26496000  1.0
  H  H27  1  0.03826000  0.62536000  0.73505000  1.0
  H  H28  1  0.22219000  0.38445000  0.97427000  1.0
  H  H29  1  0.77781000  0.61555000  0.02573000  1.0
  H  H30  1  0.25716000  0.31456000  0.83169000  1.0
  H  H31  1  0.74284000  0.68544000  0.16831000  1.0
  H  H32  1  0.40815000  0.47413000  0.80688000  1.0
  H  H33  1  0.59185000  0.52587000  0.19312000  1.0
  C  C34  1  0.26048000  0.11708000  0.39914000  1.0
  C  C35  1  0.73952000  0.88291000  0.60086000  1.0
  C  C36  1  0.18980000  0.02520000  0.34719000  1.0
  C  C37  1  0.81020000  0.97480000  0.65280000  1.0
  C  C38  1  0.95059000  0.07587000  0.21493000  1.0
  C  C39  1  0.04941000  0.92412000  0.78507000  1.0
  C  C40  1  0.81074000  0.20589000  0.16161000  1.0
  C  C41  1  0.18925000  0.79411000  0.83839000  1.0
  C  C42  1  0.70352000  0.14742000  0.08864000  1.0
  C  C43  1  0.29648000  0.85258000  0.91136000  1.0
  C  C44  1  0.57105000  0.27976000  0.02447000  1.0
  C  C45  1  0.42895000  0.72024000  0.97553000  1.0
  C  C46  1  0.46599000  0.22443000  0.94851000  1.0
  C  C47  1  0.53402000  0.77557000  0.05149000  1.0
  C  C48  1  0.05276000  0.27190000  0.30070000  1.0
  C  C49  1  0.94723000  0.72810000  0.69930000  1.0
  C  C50  1  0.33117000  0.35561000  0.88674000  1.0
  C  C51  1  0.66883000  0.64439000  0.11326000  1.0
  C  C52  1  0.53224000  0.41027000  0.51307000  1.0
  C  C53  1  0.46776000  0.58973000  0.48693000  1.0
  N  N54  1  0.17390000  0.27084000  0.36943000  1.0
  N  N55  1  0.82610000  0.72916000  0.63057000  1.0
  N  N56  1  0.05947000  0.12511000  0.28510000  1.0
  N  N57  1  0.94053000  0.87489000  0.71490000  1.0
  Cl  Cl58  1  0.02522000  0.63934000  0.30995000  1.0
  Cl  Cl59  1  0.97477000  0.36067000  0.69005000  1.0
  O  O60  1  0.43993000  0.32007000  0.48743000  1.0
  O  O61  1  0.56008000  0.67992000  0.51257000  1.0
  O  O62  1  0.67404000  0.36438000  0.55825000  1.0
  O  O63  1  0.32596000  0.63563000  0.44175000  1.0
