# generated using pymatgen
data_MnH4C6NClO2
_symmetry_space_group_name_H-M   'P 1'
_cell_length_a   9.62420000
_cell_length_b   9.67823000
_cell_length_c   15.68940000
_cell_angle_alpha   90.00000000
_cell_angle_beta   90.00000000
_cell_angle_gamma   90.00000000
_symmetry_Int_Tables_number   1
_chemical_formula_structural   MnH4C6NClO2
_chemical_formula_sum   'Mn8 H32 C48 N8 Cl8 O16'
_cell_volume   1461.39263296
_cell_formula_units_Z   8
loop_
 _symmetry_equiv_pos_site_id
 _symmetry_equiv_pos_as_xyz
  1  'x, y, z'
loop_
 _atom_site_type_symbol
 _atom_site_label
 _atom_site_symmetry_multiplicity
 _atom_site_fract_x
 _atom_site_fract_y
 _atom_site_fract_z
 _atom_site_occupancy
  Mn  Mn0  1  0.07385000  0.73945000  0.77846000  1.0
  Mn  Mn1  1  0.24064000  0.93019000  0.27831000  1.0
  Mn  Mn2  1  0.26003000  0.56993000  0.27856000  1.0
  Mn  Mn3  1  0.57259000  0.23989000  0.22151000  1.0
  Mn  Mn4  1  0.92615000  0.26058000  0.22155000  1.0
  Mn  Mn5  1  0.75934000  0.06980000  0.72170000  1.0
  Mn  Mn6  1  0.73999000  0.43008000  0.72145000  1.0
  Mn  Mn7  1  0.42734000  0.76015000  0.77848000  1.0
  H  H8  1  0.60806000  0.12422000  0.54142000  1.0
  H  H9  1  0.62485000  0.39215000  0.04142000  1.0
  H  H10  1  0.87501000  0.10798000  0.04126000  1.0
  H  H11  1  0.10819000  0.62426000  0.45849000  1.0
  H  H12  1  0.39195000  0.87577000  0.45858000  1.0
  H  H13  1  0.37517000  0.60782000  0.95855000  1.0
  H  H14  1  0.12501000  0.89202000  0.95876000  1.0
  H  H15  1  0.89180000  0.37572000  0.54149000  1.0
  H  H16  1  0.64816000  0.05793000  0.38916000  1.0
  H  H17  1  0.55803000  0.35201000  0.88927000  1.0
  H  H18  1  0.94213000  0.14795000  0.88911000  1.0
  H  H19  1  0.14817000  0.55783000  0.61072000  1.0
  H  H20  1  0.35186000  0.94205000  0.61084000  1.0
  H  H21  1  0.44195000  0.64800000  0.11070000  1.0
  H  H22  1  0.05784000  0.85205000  0.11090000  1.0
  H  H23  1  0.85180000  0.44219000  0.38928000  1.0
  H  H24  1  0.83595000  0.88484000  0.35574000  1.0
  H  H25  1  0.38510000  0.16436000  0.85588000  1.0
  H  H26  1  0.11498000  0.33558000  0.85575000  1.0
  H  H27  1  0.33600000  0.38476000  0.64414000  1.0
  H  H28  1  0.16407000  0.11513000  0.64427000  1.0
  H  H29  1  0.61483000  0.83569000  0.14410000  1.0
  H  H30  1  0.88498000  0.66441000  0.14424000  1.0
  H  H31  1  0.66396000  0.61526000  0.35588000  1.0
  H  H32  1  0.97250000  0.78453000  0.47768000  1.0
  H  H33  1  0.28493000  0.02804000  0.97802000  1.0
  H  H34  1  0.21526000  0.47178000  0.97791000  1.0
  H  H35  1  0.47266000  0.28456000  0.52221000  1.0
  H  H36  1  0.02751000  0.21545000  0.52233000  1.0
  H  H37  1  0.71512000  0.97190000  0.02194000  1.0
  H  H38  1  0.78475000  0.52822000  0.02206000  1.0
  H  H39  1  0.52734000  0.71547000  0.47782000  1.0
  C  C40  1  0.68700000  0.04867000  0.52394000  1.0
  C  C41  1  0.54939000  0.31313000  0.02404000  1.0
  C  C42  1  0.95049000  0.18699000  0.02388000  1.0
  C  C43  1  0.18714000  0.54874000  0.47597000  1.0
  C  C44  1  0.31301000  0.95131000  0.47607000  1.0
  C  C45  1  0.45061000  0.68686000  0.97594000  1.0
  C  C46  1  0.04953000  0.81301000  0.97613000  1.0
  C  C47  1  0.81286000  0.45126000  0.52403000  1.0
  C  C48  1  0.70987000  0.01078000  0.43933000  1.0
  C  C49  1  0.51114000  0.29030000  0.93947000  1.0
  C  C50  1  0.98892000  0.20967000  0.93932000  1.0
  C  C51  1  0.20997000  0.51077000  0.56057000  1.0
  C  C52  1  0.29014000  0.98919000  0.56067000  1.0
  C  C53  1  0.48884000  0.70972000  0.06052000  1.0
  C  C54  1  0.01108000  0.79031000  0.06069000  1.0
  C  C55  1  0.79001000  0.48924000  0.43944000  1.0
  C  C56  1  0.81379000  0.91494000  0.42130000  1.0
  C  C57  1  0.41531000  0.18641000  0.92144000  1.0
  C  C58  1  0.08476000  0.31353000  0.92131000  1.0
  C  C59  1  0.31392000  0.41494000  0.57860000  1.0
  C  C60  1  0.18622000  0.08504000  0.57871000  1.0
  C  C61  1  0.58465000  0.81360000  0.07855000  1.0
  C  C62  1  0.91523000  0.68646000  0.07869000  1.0
  C  C63  1  0.68606000  0.58508000  0.42142000  1.0
  C  C64  1  0.89009000  0.85923000  0.48856000  1.0
  C  C65  1  0.35982000  0.11029000  0.98873000  1.0
  C  C66  1  0.14027000  0.38963000  0.98862000  1.0
  C  C67  1  0.39028000  0.35930000  0.51134000  1.0
  C  C68  1  0.10992000  0.14075000  0.51145000  1.0
  C  C69  1  0.64019000  0.88970000  0.01126000  1.0
  C  C70  1  0.85974000  0.61036000  0.01137000  1.0
  C  C71  1  0.60973000  0.64072000  0.48868000  1.0
  C  C72  1  0.86045000  0.90176000  0.57134000  1.0
  C  C73  1  0.40272000  0.13990000  0.07146000  1.0
  C  C74  1  0.09719000  0.36017000  0.07134000  1.0
  C  C75  1  0.36065000  0.40187000  0.42857000  1.0
  C  C76  1  0.13956000  0.09823000  0.42867000  1.0
  C  C77  1  0.59726000  0.86009000  0.92852000  1.0
  C  C78  1  0.90285000  0.63982000  0.92866000  1.0
  C  C79  1  0.63938000  0.59815000  0.57145000  1.0
  C  C80  1  0.93804000  0.84871000  0.64720000  1.0
  C  C81  1  0.34935000  0.06262000  0.14712000  1.0
  C  C82  1  0.15060000  0.43729000  0.14710000  1.0
  C  C83  1  0.43797000  0.34857000  0.35272000  1.0
  C  C84  1  0.06196000  0.15129000  0.35281000  1.0
  C  C85  1  0.65066000  0.93740000  0.85287000  1.0
  C  C86  1  0.84944000  0.56268000  0.85290000  1.0
  C  C87  1  0.56204000  0.65147000  0.64729000  1.0
  N  N88  1  0.76068000  0.99603000  0.58885000  1.0
  N  N89  1  0.49722000  0.23937000  0.08900000  1.0
  N  N90  1  0.00248000  0.26086000  0.08883000  1.0
  N  N91  1  0.26091000  0.49616000  0.41108000  1.0
  N  N92  1  0.23933000  0.00395000  0.41116000  1.0
  N  N93  1  0.50276000  0.76064000  0.91099000  1.0
  N  N94  1  0.99756000  0.73914000  0.91117000  1.0
  N  N95  1  0.73911000  0.50385000  0.58893000  1.0
  Cl  Cl96  1  0.25957000  0.56813000  0.79058000  1.0
  Cl  Cl97  1  0.06952000  0.74157000  0.29039000  1.0
  Cl  Cl98  1  0.43090000  0.75833000  0.29060000  1.0
  Cl  Cl99  1  0.75878000  0.06859000  0.20915000  1.0
  Cl  Cl100  1  0.74039000  0.43186000  0.20941000  1.0
  Cl  Cl101  1  0.93047000  0.25839000  0.70961000  1.0
  Cl  Cl102  1  0.56911000  0.24171000  0.70939000  1.0
  Cl  Cl103  1  0.24118000  0.93145000  0.79086000  1.0
  O  O104  1  0.02879000  0.75499000  0.63925000  1.0
  O  O105  1  0.25503000  0.97258000  0.13900000  1.0
  O  O106  1  0.24516000  0.52716000  0.13907000  1.0
  O  O107  1  0.52838000  0.25458000  0.36059000  1.0
  O  O108  1  0.97127000  0.24506000  0.36075000  1.0
  O  O109  1  0.74499000  0.02738000  0.86101000  1.0
  O  O110  1  0.75488000  0.47283000  0.86093000  1.0
  O  O111  1  0.47161000  0.74541000  0.63941000  1.0
  O  O112  1  0.90917000  0.90182000  0.72014000  1.0
  O  O113  1  0.40258000  0.09104000  0.22030000  1.0
  O  O114  1  0.09723000  0.40875000  0.22011000  1.0
  O  O115  1  0.40919000  0.40166000  0.27965000  1.0
  O  O116  1  0.09078000  0.09814000  0.27987000  1.0
  O  O117  1  0.59739000  0.90902000  0.77969000  1.0
  O  O118  1  0.90283000  0.59121000  0.77989000  1.0
  O  O119  1  0.59084000  0.59839000  0.72037000  1.0
