# generated using pymatgen
data_NaP2H38C23NO6
_symmetry_space_group_name_H-M   'P 1'
_cell_length_a   8.15457000
_cell_length_b   12.08680000
_cell_length_c   14.67670000
_cell_angle_alpha   90.00000000
_cell_angle_beta   90.00000000
_cell_angle_gamma   106.04900000
_symmetry_Int_Tables_number   1
_chemical_formula_structural   NaP2H38C23NO6
_chemical_formula_sum   'Na2 P4 H76 C46 N2 O12'
_cell_volume   1390.19519186
_cell_formula_units_Z   2
loop_
 _symmetry_equiv_pos_site_id
 _symmetry_equiv_pos_as_xyz
  1  'x, y, z'
loop_
 _atom_site_type_symbol
 _atom_site_label
 _atom_site_symmetry_multiplicity
 _atom_site_fract_x
 _atom_site_fract_y
 _atom_site_fract_z
 _atom_site_occupancy
  Na  Na0  1  0.70941000  0.37590000  0.37995000  1.0
  Na  Na1  1  0.29059000  0.62410000  0.87994000  1.0
  P  P2  1  0.49782000  0.45393000  0.66052000  1.0
  P  P3  1  0.50217000  0.54607000  0.16052000  1.0
  P  P4  1  0.65646000  0.67457000  0.58855000  1.0
  P  P5  1  0.34354000  0.32543000  0.08855000  1.0
  H  H6  1  0.16336000  0.04506000  0.60014000  1.0
  H  H7  1  0.83664000  0.95494000  0.10014000  1.0
  H  H8  1  0.12523000  0.09957000  0.76044000  1.0
  H  H9  1  0.87477000  0.90043000  0.26044000  1.0
  H  H10  1  0.83263000  0.05156000  0.82745000  1.0
  H  H11  1  0.16737000  0.94845000  0.32745000  1.0
  H  H12  1  0.09063000  0.59828000  0.21800000  1.0
  H  H13  1  0.90937000  0.40172000  0.71800000  1.0
  H  H14  1  0.87457000  0.51891000  0.19402000  1.0
  H  H15  1  0.12543000  0.48110000  0.69401000  1.0
  H  H16  1  0.28556000  0.56663000  0.54477000  1.0
  H  H17  1  0.71444000  0.43337000  0.04477000  1.0
  H  H18  1  0.12678000  0.61737000  0.48875000  1.0
  H  H19  1  0.87323000  0.38263000  0.98875000  1.0
  H  H20  1  0.21006000  0.67573000  0.59641000  1.0
  H  H21  1  0.78993000  0.32427000  0.09641000  1.0
  H  H22  1  0.47452000  0.84553000  0.75188000  1.0
  H  H23  1  0.52548000  0.15447000  0.25188000  1.0
  H  H24  1  0.44746000  0.97099000  0.70005000  1.0
  H  H25  1  0.55254000  0.02901000  0.20005000  1.0
  H  H26  1  0.52975000  0.97720000  0.81352000  1.0
  H  H27  1  0.47025000  0.02280000  0.31352000  1.0
  H  H28  1  0.04419000  0.97922000  0.45462000  1.0
  H  H29  1  0.95580000  0.02077000  0.95462000  1.0
  H  H30  1  0.82027000  0.95128000  0.43693000  1.0
  H  H31  1  0.17972000  0.04872000  0.93692000  1.0
  H  H32  1  0.90585000  0.83902000  0.47223000  1.0
  H  H33  1  0.09415000  0.16098000  0.97223000  1.0
  H  H34  1  0.26730000  0.87260000  0.52298000  1.0
  H  H35  1  0.73269000  0.12740000  0.02298000  1.0
  H  H36  1  0.19865000  0.80933000  0.41490000  1.0
  H  H37  1  0.80135000  0.19066000  0.91491000  1.0
  H  H38  1  0.40474000  0.90898000  0.42745000  1.0
  H  H39  1  0.59526000  0.09102000  0.92745000  1.0
  H  H40  1  0.33698000  0.26086000  0.49087000  1.0
  H  H41  1  0.66302000  0.73914000  0.99087000  1.0
  H  H42  1  0.28318000  0.10942000  0.46592000  1.0
  H  H43  1  0.71682000  0.89058000  0.96592000  1.0
  H  H44  1  0.33357000  0.21284000  0.37485000  1.0
  H  H45  1  0.66643000  0.78716000  0.87485000  1.0
  H  H46  1  0.05475000  0.21469000  0.29643000  1.0
  H  H47  1  0.94525000  0.78531000  0.79643000  1.0
  H  H48  1  0.94769000  0.19600000  0.18915000  1.0
  H  H49  1  0.05231000  0.80400000  0.68915000  1.0
  H  H50  1  0.82835000  0.15010000  0.29172000  1.0
  H  H51  1  0.17165000  0.84990000  0.79172000  1.0
  H  H52  1  0.53201000  0.09976000  0.56530000  1.0
  H  H53  1  0.46799000  0.90024000  0.06529000  1.0
  H  H54  1  0.56104000  0.25117000  0.58451000  1.0
  H  H55  1  0.43896000  0.74882000  0.08451000  1.0
  H  H56  1  0.07713000  0.40093000  0.17247000  1.0
  H  H57  1  0.92287000  0.59907000  0.67247000  1.0
  H  H58  1  0.14959000  0.42666000  0.28726000  1.0
  H  H59  1  0.85042000  0.57333000  0.78725000  1.0
  H  H60  1  0.52523000  0.75677000  0.35376000  1.0
  H  H61  1  0.47477000  0.24323000  0.85376000  1.0
  H  H62  1  0.31848000  0.65847000  0.34761000  1.0
  H  H63  1  0.68153000  0.34153000  0.84761000  1.0
  H  H64  1  0.48589000  0.61674000  0.40247000  1.0
  H  H65  1  0.51412000  0.38326000  0.90247000  1.0
  H  H66  1  0.06915000  0.26972000  0.45018000  1.0
  H  H67  1  0.93084000  0.73028000  0.95017000  1.0
  H  H68  1  0.10781000  0.33110000  0.56208000  1.0
  H  H69  1  0.89219000  0.66890000  0.06207000  1.0
  H  H70  1  0.09796000  0.42096000  0.46590000  1.0
  H  H71  1  0.90204000  0.57903000  0.96589000  1.0
  H  H72  1  0.82980000  0.19047000  0.60668000  1.0
  H  H73  1  0.17020000  0.80952000  0.10668000  1.0
  H  H74  1  0.81646000  0.14235000  0.49125000  1.0
  H  H75  1  0.18354000  0.85765000  0.99124000  1.0
  H  H76  1  0.77424000  0.64958000  0.29022000  1.0
  H  H77  1  0.22576000  0.35040000  0.79021000  1.0
  H  H78  1  0.99053000  0.72683000  0.31631000  1.0
  H  H79  1  0.00947000  0.27317000  0.81630000  1.0
  H  H80  1  0.84531000  0.66253000  0.40652000  1.0
  H  H81  1  0.15470000  0.33747000  0.90651000  1.0
  C  C82  1  0.53648000  0.77484000  0.54256000  1.0
  C  C83  1  0.46352000  0.22516000  0.04256000  1.0
  C  C84  1  0.38017000  0.73649000  0.48116000  1.0
  C  C85  1  0.61983000  0.26351000  0.98116000  1.0
  C  C86  1  0.57176000  0.51920000  0.55189000  1.0
  C  C87  1  0.42823000  0.48079000  0.05189000  1.0
  C  C88  1  0.03636000  0.02159000  0.63063000  1.0
  C  C89  1  0.96364000  0.97841000  0.13063000  1.0
  C  C90  1  0.01511000  0.05284000  0.72045000  1.0
  C  C91  1  0.98489000  0.94716000  0.22046000  1.0
  C  C92  1  0.53112000  0.60325000  0.69259000  1.0
  C  C93  1  0.46888000  0.39675000  0.19259000  1.0
  C  C94  1  0.85148000  0.02545000  0.75812000  1.0
  C  C95  1  0.14851000  0.97456000  0.25812000  1.0
  C  C96  1  0.89720000  0.96123000  0.57803000  1.0
  C  C97  1  0.10280000  0.03877000  0.07803000  1.0
  C  C98  1  0.98259000  0.52655000  0.24137000  1.0
  C  C99  1  0.01742000  0.47345000  0.74137000  1.0
  C  C100  1  0.24250000  0.64317000  0.53089000  1.0
  C  C101  1  0.75750000  0.35683000  0.03089000  1.0
  C  C102  1  0.53109000  0.93900000  0.74593000  1.0
  C  C103  1  0.46891000  0.06101000  0.24593000  1.0
  C  C104  1  0.91850000  0.93153000  0.48036000  1.0
  C  C105  1  0.08149000  0.06847000  0.98036000  1.0
  C  C106  1  0.30892000  0.83842000  0.46046000  1.0
  C  C107  1  0.69107000  0.16158000  0.96046000  1.0
  C  C108  1  0.36304000  0.19522000  0.44531000  1.0
  C  C109  1  0.63697000  0.80478000  0.94531000  1.0
  C  C110  1  0.93519000  0.21572000  0.26165000  1.0
  C  C111  1  0.06481000  0.78428000  0.76165000  1.0
  C  C112  1  0.70861000  0.96599000  0.70801000  1.0
  C  C113  1  0.29140000  0.03402000  0.20801000  1.0
  C  C114  1  0.59446000  0.18719000  0.53948000  1.0
  C  C115  1  0.40554000  0.81281000  0.03948000  1.0
  C  C116  1  0.03813000  0.41761000  0.24205000  1.0
  C  C117  1  0.96187000  0.58240000  0.74205000  1.0
  C  C118  1  0.73329000  0.93118000  0.61834000  1.0
  C  C119  1  0.26670000  0.06882000  0.11834000  1.0
  C  C120  1  0.43151000  0.68914000  0.39130000  1.0
  C  C121  1  0.56849000  0.31086000  0.89130000  1.0
  C  C122  1  0.04494000  0.33577000  0.49606000  1.0
  C  C123  1  0.95506000  0.66423000  0.99605000  1.0
  C  C124  1  0.78441000  0.20498000  0.53798000  1.0
  C  C125  1  0.21559000  0.79502000  0.03798000  1.0
  C  C126  1  0.88303000  0.65285000  0.33590000  1.0
  C  C127  1  0.11698000  0.34715000  0.83589000  1.0
  N  N128  1  0.58852000  0.88106000  0.56581000  1.0
  N  N129  1  0.41148000  0.11894000  0.06581000  1.0
  O  O130  1  0.93184000  0.54819000  0.33169000  1.0
  O  O131  1  0.06818000  0.45182000  0.83168000  1.0
  O  O132  1  0.58032000  0.47666000  0.47581000  1.0
  O  O133  1  0.41966000  0.52334000  0.97582000  1.0
  O  O134  1  0.49229000  0.64869000  0.76154000  1.0
  O  O135  1  0.50771000  0.35131000  0.26154000  1.0
  O  O136  1  0.53938000  0.19972000  0.44839000  1.0
  O  O137  1  0.46063000  0.80029000  0.94838000  1.0
  O  O138  1  0.89931000  0.32413000  0.27239000  1.0
  O  O139  1  0.10069000  0.67587000  0.77239000  1.0
  O  O140  1  0.86615000  0.31937000  0.50715000  1.0
  O  O141  1  0.13385000  0.68063000  0.00715000  1.0
