# generated using pymatgen
data_CaH14(C2O)8
_symmetry_space_group_name_H-M   'P 1'
_cell_length_a   7.81344000
_cell_length_b   10.81130000
_cell_length_c   10.81130000
_cell_angle_alpha   63.49560000
_cell_angle_beta   85.68430000
_cell_angle_gamma   85.68380000
_symmetry_Int_Tables_number   1
_chemical_formula_structural   CaH14(C2O)8
_chemical_formula_sum   'Ca2 H28 C32 O16'
_cell_volume   814.07665366
_cell_formula_units_Z   2
loop_
 _symmetry_equiv_pos_site_id
 _symmetry_equiv_pos_as_xyz
  1  'x, y, z'
loop_
 _atom_site_type_symbol
 _atom_site_label
 _atom_site_symmetry_multiplicity
 _atom_site_fract_x
 _atom_site_fract_y
 _atom_site_fract_z
 _atom_site_occupancy
  Ca  Ca0  1  0.75000000  0.94623000  0.05377000  1.0
  Ca  Ca1  1  0.25000000  0.05377000  0.94623000  1.0
  H  H2  1  0.47309000  0.91920000  0.25525000  1.0
  H  H3  1  0.02690000  0.74475000  0.08079000  1.0
  H  H4  1  0.52691000  0.08080000  0.74475000  1.0
  H  H5  1  0.97310000  0.25525000  0.91920000  1.0
  H  H6  1  0.63323000  0.91654000  0.33892000  1.0
  H  H7  1  0.86677000  0.66108000  0.08346000  1.0
  H  H8  1  0.36677000  0.08346000  0.66108000  1.0
  H  H9  1  0.13323000  0.33892000  0.91653000  1.0
  H  H10  1  0.73735000  0.34805000  0.08130000  1.0
  H  H11  1  0.76265000  0.91870000  0.65196000  1.0
  H  H12  1  0.26267000  0.65196000  0.91869000  1.0
  H  H13  1  0.23735000  0.08129000  0.34805000  1.0
  H  H14  1  0.64602000  0.70945000  0.81686000  1.0
  H  H15  1  0.85398000  0.18313000  0.29056000  1.0
  H  H16  1  0.35398000  0.29055000  0.18314000  1.0
  H  H17  1  0.14602000  0.81686000  0.70945000  1.0
  H  H18  1  0.48649000  0.77863000  0.60251000  1.0
  H  H19  1  0.01351000  0.39749000  0.22137000  1.0
  H  H20  1  0.51351000  0.22137000  0.39749000  1.0
  H  H21  1  0.98648000  0.60251000  0.77863000  1.0
  H  H22  1  0.38141000  0.59623000  0.54904000  1.0
  H  H23  1  0.11858000  0.45097000  0.40377000  1.0
  H  H24  1  0.61859000  0.40378000  0.45096000  1.0
  H  H25  1  0.88140000  0.54903000  0.59623000  1.0
  H  H26  1  0.43896000  0.34654000  0.70791000  1.0
  H  H27  1  0.06103000  0.29210000  0.65345000  1.0
  H  H28  1  0.56104000  0.65346000  0.29209000  1.0
  H  H29  1  0.93896000  0.70790000  0.34655000  1.0
  C  C30  1  0.73429000  0.45733000  0.00240000  1.0
  C  C31  1  0.76570000  0.99761000  0.54268000  1.0
  C  C32  1  0.26571000  0.54267000  0.99760000  1.0
  C  C33  1  0.23429000  0.00239000  0.45732000  1.0
  C  C34  1  0.64080000  0.49169000  0.87695000  1.0
  C  C35  1  0.85919000  0.12305000  0.50831000  1.0
  C  C36  1  0.35920000  0.50831000  0.12304000  1.0
  C  C37  1  0.14081000  0.87695000  0.49169000  1.0
  C  C38  1  0.60304000  0.63184000  0.78898000  1.0
  C  C39  1  0.89696000  0.21102000  0.36816000  1.0
  C  C40  1  0.39696000  0.36816000  0.21102000  1.0
  C  C41  1  0.10304000  0.78897000  0.63184000  1.0
  C  C42  1  0.51203000  0.66964000  0.67086000  1.0
  C  C43  1  0.98797000  0.32913000  0.33037000  1.0
  C  C44  1  0.48797000  0.33037000  0.32913000  1.0
  C  C45  1  0.01203000  0.67086000  0.66963000  1.0
  C  C46  1  0.45383000  0.56689000  0.64120000  1.0
  C  C47  1  0.04618000  0.35881000  0.43310000  1.0
  C  C48  1  0.54618000  0.43311000  0.35880000  1.0
  C  C49  1  0.95382000  0.64119000  0.56690000  1.0
  C  C50  1  0.48570000  0.42719000  0.72959000  1.0
  C  C51  1  0.01430000  0.27042000  0.57281000  1.0
  C  C52  1  0.51430000  0.57281000  0.27041000  1.0
  C  C53  1  0.98570000  0.72958000  0.42719000  1.0
  C  C54  1  0.58085000  0.38832000  0.84709000  1.0
  C  C55  1  0.91915000  0.15292000  0.61168000  1.0
  C  C56  1  0.41916000  0.61168000  0.15290000  1.0
  C  C57  1  0.08085000  0.84708000  0.38833000  1.0
  C  C58  1  0.61938000  0.23702000  0.93563000  1.0
  C  C59  1  0.88063000  0.06438000  0.76299000  1.0
  C  C60  1  0.38062000  0.76298000  0.06437000  1.0
  C  C61  1  0.11937000  0.93561000  0.23702000  1.0
  O  O62  1  0.80616000  0.54465000  0.02151000  1.0
  O  O63  1  0.69384000  0.97848000  0.45536000  1.0
  O  O64  1  0.19384000  0.45536000  0.97848000  1.0
  O  O65  1  0.30616000  0.02151000  0.54465000  1.0
  O  O66  1  0.59660000  0.88908000  0.27017000  1.0
  O  O67  1  0.90339000  0.72984000  0.11091000  1.0
  O  O68  1  0.40340000  0.11092000  0.72983000  1.0
  O  O69  1  0.09661000  0.27016000  0.88908000  1.0
  O  O70  1  0.77112000  0.19668000  0.97819000  1.0
  O  O71  1  0.72888000  0.02182000  0.80332000  1.0
  O  O72  1  0.22888000  0.80332000  0.02181000  1.0
  O  O73  1  0.27112000  0.97818000  0.19668000  1.0
  O  O74  1  0.50151000  0.15315000  0.96314000  1.0
  O  O75  1  0.99849000  0.03687000  0.84684000  1.0
  O  O76  1  0.49849000  0.84685000  0.03686000  1.0
  O  O77  1  0.00151000  0.96312000  0.15317000  1.0
