# generated using pymatgen
data_H3AuC3N2
_symmetry_space_group_name_H-M   'P 1'
_cell_length_a   8.24561000
_cell_length_b   10.94020000
_cell_length_c   14.24040000
_cell_angle_alpha   90.00000000
_cell_angle_beta   90.00020000
_cell_angle_gamma   107.14200000
_symmetry_Int_Tables_number   1
_chemical_formula_structural   H3AuC3N2
_chemical_formula_sum   'H36 Au12 C36 N24'
_cell_volume   1227.54105371
_cell_formula_units_Z   12
loop_
 _symmetry_equiv_pos_site_id
 _symmetry_equiv_pos_as_xyz
  1  'x, y, z'
loop_
 _atom_site_type_symbol
 _atom_site_label
 _atom_site_symmetry_multiplicity
 _atom_site_fract_x
 _atom_site_fract_y
 _atom_site_fract_z
 _atom_site_occupancy
  H  H0  1  0.00505000  0.42867000  0.26522000  1.0
  H  H1  1  0.99495000  0.07133000  0.76521000  1.0
  H  H2  1  0.99495000  0.57133000  0.73479000  1.0
  H  H3  1  0.00505000  0.92867000  0.23479000  1.0
  H  H4  1  0.13450000  0.63095000  0.14498000  1.0
  H  H5  1  0.86550000  0.86905000  0.64498000  1.0
  H  H6  1  0.86550000  0.36905000  0.85502000  1.0
  H  H7  1  0.13450000  0.13095000  0.35502000  1.0
  H  H8  1  0.88497000  0.75412000  0.14195000  1.0
  H  H9  1  0.11503000  0.74588000  0.64195000  1.0
  H  H10  1  0.11503000  0.24588000  0.85805000  1.0
  H  H11  1  0.88498000  0.25412000  0.35805000  1.0
  H  H12  1  0.38873000  0.89212000  0.28041000  1.0
  H  H13  1  0.61127000  0.60789000  0.78041000  1.0
  H  H14  1  0.61127000  0.10788000  0.71959000  1.0
  H  H15  1  0.38873000  0.39211000  0.21959000  1.0
  H  H16  1  0.12362000  0.88807000  0.39855000  1.0
  H  H17  1  0.87638000  0.61193000  0.89855000  1.0
  H  H18  1  0.87638000  0.11193000  0.60145000  1.0
  H  H19  1  0.12362000  0.38807000  0.10145000  1.0
  H  H20  1  0.04863000  0.64923000  0.48324000  1.0
  H  H21  1  0.95138000  0.85078000  0.98324000  1.0
  H  H22  1  0.95137000  0.35078000  0.51676000  1.0
  H  H23  1  0.04863000  0.14922000  0.01676000  1.0
  H  H24  1  0.12687000  0.21367000  0.57420000  1.0
  H  H25  1  0.87313000  0.28633000  0.07420000  1.0
  H  H26  1  0.87313000  0.78633000  0.42580000  1.0
  H  H27  1  0.12687000  0.71367000  0.92580000  1.0
  H  H28  1  0.25542000  0.00915000  0.56364000  1.0
  H  H29  1  0.74457000  0.49085000  0.06364000  1.0
  H  H30  1  0.74457000  0.99085000  0.43636000  1.0
  H  H31  1  0.25543000  0.50915000  0.93636000  1.0
  H  H32  1  0.52651000  0.09301000  0.44055000  1.0
  H  H33  1  0.47348000  0.40698000  0.94055000  1.0
  H  H34  1  0.47349000  0.90699000  0.55945000  1.0
  H  H35  1  0.52652000  0.59302000  0.05944000  1.0
  Au  Au36  1  0.62653000  0.38417000  0.35788000  1.0
  Au  Au37  1  0.37347000  0.11583000  0.85788000  1.0
  Au  Au38  1  0.37347000  0.61583000  0.64212000  1.0
  Au  Au39  1  0.62653000  0.88417000  0.14212000  1.0
  Au  Au40  1  0.55734000  0.65801000  0.28243000  1.0
  Au  Au41  1  0.44266000  0.84199000  0.78243000  1.0
  Au  Au42  1  0.44266000  0.34199000  0.71757000  1.0
  Au  Au43  1  0.55734000  0.15801000  0.21757000  1.0
  Au  Au44  1  0.28845000  0.46594000  0.44162000  1.0
  Au  Au45  1  0.71156000  0.03407000  0.94162000  1.0
  Au  Au46  1  0.71155000  0.53406000  0.55838000  1.0
  Au  Au47  1  0.28845000  0.96594000  0.05838000  1.0
  C  C48  1  0.95111000  0.50326000  0.24331000  1.0
  C  C49  1  0.04889000  0.99673000  0.74331000  1.0
  C  C50  1  0.04889000  0.49673000  0.75669000  1.0
  C  C51  1  0.95111000  0.00327000  0.25669000  1.0
  C  C52  1  0.01489000  0.60609000  0.18231000  1.0
  C  C53  1  0.98511000  0.89390000  0.68231000  1.0
  C  C54  1  0.98511000  0.39391000  0.81769000  1.0
  C  C55  1  0.01489000  0.10609000  0.31769000  1.0
  C  C56  1  0.89143000  0.67026000  0.18072000  1.0
  C  C57  1  0.10857000  0.82974000  0.68072000  1.0
  C  C58  1  0.10857000  0.32974000  0.81928000  1.0
  C  C59  1  0.89143000  0.17027000  0.31928000  1.0
  C  C60  1  0.31844000  0.81737000  0.32782000  1.0
  C  C61  1  0.68156000  0.68263000  0.82782000  1.0
  C  C62  1  0.68156000  0.18263000  0.67218000  1.0
  C  C63  1  0.31844000  0.31737000  0.17218000  1.0
  C  C64  1  0.18301000  0.81315000  0.38776000  1.0
  C  C65  1  0.81699000  0.68686000  0.88776000  1.0
  C  C66  1  0.81698000  0.18685000  0.61224000  1.0
  C  C67  1  0.18301000  0.31315000  0.11224000  1.0
  C  C68  1  0.14541000  0.69400000  0.43183000  1.0
  C  C69  1  0.85459000  0.80600000  0.93183000  1.0
  C  C70  1  0.85458000  0.30600000  0.56817000  1.0
  C  C71  1  0.14541000  0.19400000  0.06817000  1.0
  C  C72  1  0.23254000  0.20252000  0.53368000  1.0
  C  C73  1  0.76745000  0.29748000  0.03369000  1.0
  C  C74  1  0.76746000  0.79748000  0.46632000  1.0
  C  C75  1  0.23254000  0.70252000  0.96632000  1.0
  C  C76  1  0.30022000  0.09995000  0.52750000  1.0
  C  C77  1  0.69978000  0.40005000  0.02750000  1.0
  C  C78  1  0.69978000  0.90005000  0.47250000  1.0
  C  C79  1  0.30022000  0.59995000  0.97250000  1.0
  C  C80  1  0.43739000  0.14093000  0.46595000  1.0
  C  C81  1  0.56261000  0.35907000  0.96595000  1.0
  C  C82  1  0.56261000  0.85907000  0.53405000  1.0
  C  C83  1  0.43739000  0.64093000  0.03405000  1.0
  N  N84  1  0.79877000  0.50636000  0.27633000  1.0
  N  N85  1  0.20124000  0.99364000  0.77633000  1.0
  N  N86  1  0.20124000  0.49364000  0.72367000  1.0
  N  N87  1  0.79877000  0.00636000  0.22367000  1.0
  N  N88  1  0.76169000  0.60934000  0.23790000  1.0
  N  N89  1  0.23832000  0.89066000  0.73790000  1.0
  N  N90  1  0.23832000  0.39066000  0.76210000  1.0
  N  N91  1  0.76169000  0.10934000  0.26210000  1.0
  N  N92  1  0.35942000  0.70713000  0.33577000  1.0
  N  N93  1  0.64058000  0.79288000  0.83577000  1.0
  N  N94  1  0.64057000  0.29288000  0.66423000  1.0
  N  N95  1  0.35943000  0.20712000  0.16423000  1.0
  N  N96  1  0.25302000  0.63123000  0.39994000  1.0
  N  N97  1  0.74698000  0.86877000  0.89994000  1.0
  N  N98  1  0.74697000  0.36877000  0.60006000  1.0
  N  N99  1  0.25303000  0.13123000  0.10006000  1.0
  N  N100  1  0.32323000  0.29864000  0.47818000  1.0
  N  N101  1  0.67676000  0.20136000  0.97818000  1.0
  N  N102  1  0.67676000  0.70136000  0.52182000  1.0
  N  N103  1  0.32324000  0.79864000  0.02182000  1.0
  N  N104  1  0.45010000  0.26098000  0.43712000  1.0
  N  N105  1  0.54990000  0.23902000  0.93712000  1.0
  N  N106  1  0.54990000  0.73902000  0.56288000  1.0
  N  N107  1  0.45010000  0.76098000  0.06288000  1.0
