# generated using pymatgen
data_CdH14C16(N3O2)4
_symmetry_space_group_name_H-M   'P 1'
_cell_length_a   7.25745000
_cell_length_b   7.35294029
_cell_length_c   12.04180000
_cell_angle_alpha   84.91531643
_cell_angle_beta   76.29700000
_cell_angle_gamma   61.55055030
_symmetry_Int_Tables_number   1
_chemical_formula_structural   CdH14C16(N3O2)4
_chemical_formula_sum   'Cd1 H14 C16 N12 O8'
_cell_volume   548.69042225
_cell_formula_units_Z   1
loop_
 _symmetry_equiv_pos_site_id
 _symmetry_equiv_pos_as_xyz
  1  'x, y, z'
loop_
 _atom_site_type_symbol
 _atom_site_label
 _atom_site_symmetry_multiplicity
 _atom_site_fract_x
 _atom_site_fract_y
 _atom_site_fract_z
 _atom_site_occupancy
  Cd  Cd0  1  0.00000000  0.50000000  0.00000000  1.0
  H  H1  1  0.36717000  0.13046000  0.85577000  1.0
  H  H2  1  0.63282000  0.86954000  0.14423000  1.0
  H  H3  1  0.83595000  0.61593000  0.68493000  1.0
  H  H4  1  0.16407000  0.38406000  0.31507000  1.0
  H  H5  1  0.98308000  0.66464000  0.48351000  1.0
  H  H6  1  0.01692000  0.33536000  0.51649000  1.0
  H  H7  1  0.51079000  0.30913000  0.51356000  1.0
  H  H8  1  0.48921000  0.69086000  0.48644000  1.0
  H  H9  1  0.65937000  0.68532000  0.87993000  1.0
  H  H10  1  0.34064000  0.31468000  0.12007000  1.0
  H  H11  1  0.71570000  0.44307000  0.90000000  1.0
  H  H12  1  0.28431000  0.55693000  0.10000000  1.0
  H  H13  1  0.33647000  0.90120000  0.96513000  1.0
  H  H14  1  0.66354000  0.09880000  0.03487000  1.0
  C  C15  1  0.49966000  0.13491000  0.66586000  1.0
  C  C16  1  0.50034000  0.86509000  0.33415000  1.0
  C  C17  1  0.59439000  0.93719000  0.71690000  1.0
  C  C18  1  0.40562000  0.06280000  0.28310000  1.0
  C  C19  1  0.76486000  0.76711000  0.64706000  1.0
  C  C20  1  0.23514000  0.23289000  0.35295000  1.0
  C  C21  1  0.84715000  0.79363000  0.53535000  1.0
  C  C22  1  0.15284000  0.20638000  0.46465000  1.0
  C  C23  1  0.75740000  0.99136000  0.48605000  1.0
  C  C24  1  0.24260000  0.00864000  0.51395000  1.0
  C  C25  1  0.58255000  0.15875000  0.55238000  1.0
  C  C26  1  0.41745000  0.84125000  0.44762000  1.0
  C  C27  1  0.30909000  0.31548000  0.72880000  1.0
  C  C28  1  0.69089000  0.68454000  0.27120000  1.0
  C  C29  1  0.04184000  0.95680000  0.20531000  1.0
  C  C30  1  0.95816000  0.04320000  0.79469000  1.0
  N  N31  1  0.82480000  0.03850000  0.37573000  1.0
  N  N32  1  0.17519000  0.96151000  0.62427000  1.0
  N  N33  1  0.06668000  0.14484000  0.06234000  1.0
  N  N34  1  0.93333000  0.85516000  0.93766000  1.0
  N  N35  1  0.94904000  0.15264000  0.16454000  1.0
  N  N36  1  0.05096000  0.84737000  0.83546000  1.0
  N  N37  1  0.22359000  0.94991000  0.04137000  1.0
  N  N38  1  0.77640000  0.05010000  0.95864000  1.0
  N  N39  1  0.21435000  0.82681000  0.12705000  1.0
  N  N40  1  0.78565000  0.17319000  0.87295000  1.0
  N  N41  1  0.98367000  0.88836000  0.31191000  1.0
  N  N42  1  0.01634000  0.11164000  0.68809000  1.0
  O  O43  1  0.20119000  0.47684000  0.68646000  1.0
  O  O44  1  0.79882000  0.52313000  0.31354000  1.0
  O  O45  1  0.25804000  0.28476000  0.84402000  1.0
  O  O46  1  0.74195000  0.71524000  0.15598000  1.0
  O  O47  1  0.52831000  0.91467000  0.82726000  1.0
  O  O48  1  0.47170000  0.08533000  0.17275000  1.0
  O  O49  1  0.71049000  0.56535000  0.93250000  1.0
  O  O50  1  0.28952000  0.43465000  0.06750000  1.0
