# generated using pymatgen
data_CuPH16C8NO6
_symmetry_space_group_name_H-M   'P 1'
_cell_length_a   6.99901000
_cell_length_b   11.18480000
_cell_length_c   14.25000000
_cell_angle_alpha   90.00000000
_cell_angle_beta   90.00000000
_cell_angle_gamma   90.00000000
_symmetry_Int_Tables_number   1
_chemical_formula_structural   CuPH16C8NO6
_chemical_formula_sum   'Cu4 P4 H64 C32 N4 O24'
_cell_volume   1115.52601043
_cell_formula_units_Z   4
loop_
 _symmetry_equiv_pos_site_id
 _symmetry_equiv_pos_as_xyz
  1  'x, y, z'
loop_
 _atom_site_type_symbol
 _atom_site_label
 _atom_site_symmetry_multiplicity
 _atom_site_fract_x
 _atom_site_fract_y
 _atom_site_fract_z
 _atom_site_occupancy
  Cu  Cu0  1  0.71736000  0.40786000  0.99958000  1.0
  Cu  Cu1  1  0.78265000  0.59215000  0.49958000  1.0
  Cu  Cu2  1  0.28264000  0.90786000  0.50041000  1.0
  Cu  Cu3  1  0.21736000  0.09215000  0.00042000  1.0
  P  P4  1  0.93790000  0.63530000  0.96559000  1.0
  P  P5  1  0.56210000  0.36471000  0.46558000  1.0
  P  P6  1  0.06210000  0.13531000  0.53441000  1.0
  P  P7  1  0.43790000  0.86470000  0.03441000  1.0
  H  H8  1  0.87550000  0.46676000  0.74121000  1.0
  H  H9  1  0.62451000  0.53324000  0.24120000  1.0
  H  H10  1  0.12450000  0.96677000  0.75879000  1.0
  H  H11  1  0.37550000  0.03324000  0.25879000  1.0
  H  H12  1  0.00542000  0.43869000  0.84715000  1.0
  H  H13  1  0.49458000  0.56131000  0.34714000  1.0
  H  H14  1  0.99457000  0.93869000  0.65286000  1.0
  H  H15  1  0.50543000  0.06132000  0.15286000  1.0
  H  H16  1  0.84103000  0.24619000  0.86772000  1.0
  H  H17  1  0.65898000  0.75380000  0.36772000  1.0
  H  H18  1  0.15896000  0.74619000  0.63228000  1.0
  H  H19  1  0.34104000  0.25381000  0.13228000  1.0
  H  H20  1  0.94358000  0.25195000  0.75502000  1.0
  H  H21  1  0.55643000  0.74805000  0.25502000  1.0
  H  H22  1  0.05641000  0.75195000  0.74498000  1.0
  H  H23  1  0.44358000  0.24805000  0.24498000  1.0
  H  H24  1  0.60469000  0.17510000  0.74773000  1.0
  H  H25  1  0.89532000  0.82490000  0.24773000  1.0
  H  H26  1  0.39531000  0.67510000  0.75226000  1.0
  H  H27  1  0.10469000  0.32490000  0.25226000  1.0
  H  H28  1  0.63943000  0.30658000  0.68131000  1.0
  H  H29  1  0.86057000  0.69342000  0.18130000  1.0
  H  H30  1  0.36057000  0.80658000  0.81869000  1.0
  H  H31  1  0.13943000  0.19343000  0.31870000  1.0
  H  H32  1  0.34576000  0.33254000  0.76314000  1.0
  H  H33  1  0.15425000  0.66745000  0.26314000  1.0
  H  H34  1  0.65424000  0.83255000  0.73685000  1.0
  H  H35  1  0.84576000  0.16746000  0.23686000  1.0
  H  H36  1  0.53400000  0.50861000  0.75030000  1.0
  H  H37  1  0.96600000  0.49138000  0.25029000  1.0
  H  H38  1  0.46599000  0.00862000  0.74970000  1.0
  H  H39  1  0.03401000  0.99139000  0.24970000  1.0
  H  H40  1  0.41929000  0.51283000  0.86260000  1.0
  H  H41  1  0.08071000  0.48716000  0.36260000  1.0
  H  H42  1  0.58070000  0.01284000  0.63739000  1.0
  H  H43  1  0.91930000  0.98717000  0.13740000  1.0
  H  H44  1  0.63055000  0.65893000  0.89895000  1.0
  H  H45  1  0.86945000  0.34106000  0.39895000  1.0
  H  H46  1  0.36944000  0.15893000  0.60105000  1.0
  H  H47  1  0.13056000  0.84107000  0.10105000  1.0
  H  H48  1  0.80151000  0.64873000  0.80602000  1.0
  H  H49  1  0.69847000  0.35126000  0.30602000  1.0
  H  H50  1  0.19848000  0.14873000  0.69398000  1.0
  H  H51  1  0.30153000  0.85127000  0.19398000  1.0
  H  H52  1  0.33671000  0.45499000  0.18386000  1.0
  H  H53  1  0.16330000  0.54501000  0.68386000  1.0
  H  H54  1  0.66329000  0.95498000  0.31615000  1.0
  H  H55  1  0.83672000  0.04502000  0.81614000  1.0
  H  H56  1  0.24929000  0.43706000  0.06654000  1.0
  H  H57  1  0.25071000  0.56294000  0.56654000  1.0
  H  H58  1  0.75070000  0.93705000  0.43347000  1.0
  H  H59  1  0.74930000  0.06294000  0.93347000  1.0
  H  H60  1  0.22531000  0.57683000  0.12410000  1.0
  H  H61  1  0.27469000  0.42317000  0.62410000  1.0
  H  H62  1  0.77469000  0.07682000  0.37591000  1.0
  H  H63  1  0.72531000  0.92317000  0.87590000  1.0
  H  H64  1  0.24428000  0.68044000  0.94549000  1.0
  H  H65  1  0.25571000  0.31956000  0.44549000  1.0
  H  H66  1  0.75571000  0.18044000  0.55452000  1.0
  H  H67  1  0.74429000  0.81956000  0.05451000  1.0
  H  H68  1  0.48674000  0.61261000  0.04999000  1.0
  H  H69  1  0.01326000  0.38739000  0.54999000  1.0
  H  H70  1  0.51326000  0.11261000  0.45001000  1.0
  H  H71  1  0.98674000  0.88739000  0.95001000  1.0
  C  C72  1  0.86952000  0.42307000  0.81073000  1.0
  C  C73  1  0.63048000  0.57693000  0.31072000  1.0
  C  C74  1  0.13047000  0.92307000  0.68928000  1.0
  C  C75  1  0.36952000  0.07694000  0.18928000  1.0
  C  C76  1  0.83074000  0.29063000  0.79913000  1.0
  C  C77  1  0.66926000  0.70937000  0.29913000  1.0
  C  C78  1  0.16925000  0.79063000  0.70087000  1.0
  C  C79  1  0.33074000  0.20937000  0.20087000  1.0
  C  C80  1  0.63685000  0.27063000  0.75315000  1.0
  C  C81  1  0.86316000  0.72937000  0.25315000  1.0
  C  C82  1  0.36315000  0.77063000  0.74685000  1.0
  C  C83  1  0.13685000  0.22938000  0.24685000  1.0
  C  C84  1  0.47549000  0.33511000  0.80649000  1.0
  C  C85  1  0.02451000  0.66488000  0.30649000  1.0
  C  C86  1  0.52451000  0.83511000  0.69350000  1.0
  C  C87  1  0.97549000  0.16489000  0.19351000  1.0
  C  C88  1  0.52726000  0.46625000  0.82035000  1.0
  C  C89  1  0.97274000  0.53375000  0.32034000  1.0
  C  C90  1  0.47273000  0.96625000  0.67965000  1.0
  C  C91  1  0.02727000  0.03375000  0.17965000  1.0
  C  C92  1  0.42537000  0.26898000  0.89652000  1.0
  C  C93  1  0.07463000  0.73102000  0.39651000  1.0
  C  C94  1  0.57462000  0.76898000  0.60347000  1.0
  C  C95  1  0.92538000  0.23102000  0.10348000  1.0
  C  C96  1  0.75900000  0.61163000  0.87462000  1.0
  C  C97  1  0.74099000  0.38836000  0.37462000  1.0
  C  C98  1  0.24098000  0.11163000  0.62537000  1.0
  C  C99  1  0.25901000  0.88837000  0.12538000  1.0
  C  C100  1  0.31930000  0.49896000  0.11549000  1.0
  C  C101  1  0.18071000  0.50103000  0.61549000  1.0
  C  C102  1  0.68070000  0.99896000  0.38452000  1.0
  C  C103  1  0.81930000  0.00104000  0.88451000  1.0
  N  N104  1  0.71552000  0.48244000  0.86636000  1.0
  N  N105  1  0.78448000  0.51755000  0.36636000  1.0
  N  N106  1  0.28447000  0.98245000  0.63363000  1.0
  N  N107  1  0.21553000  0.01756000  0.13364000  1.0
  O  O108  1  0.13873000  0.62935000  0.91448000  1.0
  O  O109  1  0.36127000  0.37065000  0.41448000  1.0
  O  O110  1  0.86126000  0.12935000  0.58552000  1.0
  O  O111  1  0.63873000  0.87065000  0.08552000  1.0
  O  O112  1  0.91458000  0.76023000  0.00786000  1.0
  O  O113  1  0.58542000  0.23977000  0.50786000  1.0
  O  O114  1  0.08541000  0.26024000  0.49214000  1.0
  O  O115  1  0.41458000  0.73976000  0.99214000  1.0
  O  O116  1  0.90835000  0.53145000  0.03366000  1.0
  O  O117  1  0.59165000  0.46855000  0.53365000  1.0
  O  O118  1  0.09164000  0.03146000  0.46634000  1.0
  O  O119  1  0.40836000  0.96855000  0.96634000  1.0
  O  O120  1  0.51416000  0.28920000  0.97341000  1.0
  O  O121  1  0.98583000  0.71079000  0.47341000  1.0
  O  O122  1  0.48584000  0.78919000  0.52660000  1.0
  O  O123  1  0.01417000  0.21081000  0.02660000  1.0
  O  O124  1  0.29355000  0.19099000  0.88940000  1.0
  O  O125  1  0.20644000  0.80900000  0.38940000  1.0
  O  O126  1  0.70646000  0.69100000  0.61060000  1.0
  O  O127  1  0.79355000  0.30900000  0.11060000  1.0
  O  O128  1  0.50397000  0.53476000  0.08242000  1.0
  O  O129  1  0.99603000  0.46524000  0.58242000  1.0
  O  O130  1  0.49602000  0.03476000  0.41758000  1.0
  O  O131  1  0.00398000  0.96524000  0.91758000  1.0
