# generated using pymatgen
data_ZnH12C15N3O4
_symmetry_space_group_name_H-M   'P 1'
_cell_length_a   7.15232000
_cell_length_b   12.45270000
_cell_length_c   15.94990000
_cell_angle_alpha   100.63100000
_cell_angle_beta   89.99970000
_cell_angle_gamma   90.00000000
_symmetry_Int_Tables_number   1
_chemical_formula_structural   ZnH12C15N3O4
_chemical_formula_sum   'Zn4 H48 C60 N12 O16'
_cell_volume   1396.20548703
_cell_formula_units_Z   4
loop_
 _symmetry_equiv_pos_site_id
 _symmetry_equiv_pos_as_xyz
  1  'x, y, z'
loop_
 _atom_site_type_symbol
 _atom_site_label
 _atom_site_symmetry_multiplicity
 _atom_site_fract_x
 _atom_site_fract_y
 _atom_site_fract_z
 _atom_site_occupancy
  Zn  Zn0  1  0.96056000  0.85768000  0.74421000  1.0
  Zn  Zn1  1  0.46056000  0.14232000  0.75579000  1.0
  Zn  Zn2  1  0.03943000  0.14232000  0.25579000  1.0
  Zn  Zn3  1  0.53944000  0.85768000  0.24421000  1.0
  H  H4  1  0.67341000  0.20591000  0.06177000  1.0
  H  H5  1  0.17342000  0.79410000  0.43823000  1.0
  H  H6  1  0.32659000  0.79410000  0.93823000  1.0
  H  H7  1  0.82659000  0.20591000  0.56177000  1.0
  H  H8  1  0.55566000  0.74448000  0.72024000  1.0
  H  H9  1  0.05566000  0.25552000  0.77976000  1.0
  H  H10  1  0.44434000  0.25552000  0.27976000  1.0
  H  H11  1  0.94434000  0.74448000  0.22024000  1.0
  H  H12  1  0.45042000  0.38660000  0.85673000  1.0
  H  H13  1  0.95041000  0.61340000  0.64327000  1.0
  H  H14  1  0.54959000  0.61340000  0.14327000  1.0
  H  H15  1  0.04959000  0.38660000  0.35673000  1.0
  H  H16  1  0.48161000  0.55716000  0.78632000  1.0
  H  H17  1  0.98160000  0.44284000  0.71368000  1.0
  H  H18  1  0.51839000  0.44284000  0.21368000  1.0
  H  H19  1  0.01840000  0.55716000  0.28631000  1.0
  H  H20  1  0.92838000  0.48888000  0.89776000  1.0
  H  H21  1  0.42837000  0.51112000  0.60225000  1.0
  H  H22  1  0.07162000  0.51112000  0.10224000  1.0
  H  H23  1  0.57163000  0.48888000  0.39775000  1.0
  H  H24  1  0.77441000  0.40923000  0.82429000  1.0
  H  H25  1  0.27440000  0.59077000  0.67571000  1.0
  H  H26  1  0.22559000  0.59077000  0.17571000  1.0
  H  H27  1  0.72560000  0.40922000  0.32429000  1.0
  H  H28  1  0.80106000  0.59969000  0.03452000  1.0
  H  H29  1  0.30106000  0.40031000  0.46548000  1.0
  H  H30  1  0.19894000  0.40031000  0.96548000  1.0
  H  H31  1  0.69894000  0.59969000  0.53452000  1.0
  H  H32  1  0.14428000  0.03783000  0.01581000  1.0
  H  H33  1  0.64428000  0.96217000  0.48419000  1.0
  H  H34  1  0.85572000  0.96217000  0.98419000  1.0
  H  H35  1  0.35572000  0.03783000  0.51581000  1.0
  H  H36  1  0.38968000  0.12334000  0.11785000  1.0
  H  H37  1  0.88969000  0.87666000  0.38215000  1.0
  H  H38  1  0.61031000  0.87667000  0.88215000  1.0
  H  H39  1  0.11032000  0.12334000  0.61785000  1.0
  H  H40  1  0.18009000  0.71049000  0.82488000  1.0
  H  H41  1  0.68008000  0.28951000  0.67512000  1.0
  H  H42  1  0.81991000  0.28951000  0.17512000  1.0
  H  H43  1  0.31992000  0.71049000  0.32488000  1.0
  H  H44  1  0.15386000  0.57561000  0.84522000  1.0
  H  H45  1  0.65386000  0.42439000  0.65478000  1.0
  H  H46  1  0.84614000  0.42439000  0.15478000  1.0
  H  H47  1  0.34614000  0.57561000  0.34522000  1.0
  H  H48  1  0.09089000  0.68843000  0.92563000  1.0
  H  H49  1  0.59088000  0.31157000  0.57437000  1.0
  H  H50  1  0.90911000  0.31157000  0.07437000  1.0
  H  H51  1  0.40912000  0.68843000  0.42563000  1.0
  C  C52  1  0.57535000  0.17176000  0.93224000  1.0
  C  C53  1  0.07536000  0.82824000  0.56776000  1.0
  C  C54  1  0.42465000  0.82825000  0.06776000  1.0
  C  C55  1  0.92466000  0.17176000  0.43224000  1.0
  C  C56  1  0.29025000  0.07848000  0.90675000  1.0
  C  C57  1  0.79025000  0.92152000  0.59325000  1.0
  C  C58  1  0.70975000  0.92152000  0.09325000  1.0
  C  C59  1  0.20975000  0.07848000  0.40676000  1.0
  C  C60  1  0.90083000  0.65567000  0.81980000  1.0
  C  C61  1  0.40082000  0.34433000  0.68020000  1.0
  C  C62  1  0.09917000  0.34433000  0.18019000  1.0
  C  C63  1  0.59917000  0.65567000  0.31980000  1.0
  C  C64  1  0.16762000  0.02283000  0.83479000  1.0
  C  C65  1  0.66761000  0.97717000  0.66521000  1.0
  C  C66  1  0.83238000  0.97717000  0.16521000  1.0
  C  C67  1  0.33238000  0.02283000  0.33479000  1.0
  C  C68  1  0.64112000  0.49171000  0.93860000  1.0
  C  C69  1  0.14112000  0.50829000  0.56140000  1.0
  C  C70  1  0.35888000  0.50829000  0.06140000  1.0
  C  C71  1  0.85889000  0.49171000  0.43860000  1.0
  C  C72  1  0.56122000  0.17137000  0.01947000  1.0
  C  C73  1  0.06123000  0.82864000  0.48053000  1.0
  C  C74  1  0.43878000  0.82864000  0.98053000  1.0
  C  C75  1  0.93879000  0.17137000  0.51947000  1.0
  C  C76  1  0.64592000  0.69819000  0.75527000  1.0
  C  C77  1  0.14592000  0.30180000  0.74473000  1.0
  C  C78  1  0.35408000  0.30181000  0.24473000  1.0
  C  C79  1  0.85408000  0.69819000  0.25527000  1.0
  C  C80  1  0.47113000  0.43695000  0.91957000  1.0
  C  C81  1  0.97113000  0.56305000  0.58043000  1.0
  C  C82  1  0.52887000  0.56305000  0.08044000  1.0
  C  C83  1  0.02888000  0.43695000  0.41956000  1.0
  C  C84  1  0.60749000  0.60520000  0.78636000  1.0
  C  C85  1  0.10748000  0.39479000  0.71364000  1.0
  C  C86  1  0.39251000  0.39480000  0.21364000  1.0
  C  C87  1  0.89251000  0.60520000  0.28636000  1.0
  C  C88  1  0.78768000  0.48608000  0.87051000  1.0
  C  C89  1  0.28767000  0.51392000  0.62949000  1.0
  C  C90  1  0.21232000  0.51392000  0.12949000  1.0
  C  C91  1  0.71232000  0.48608000  0.37050000  1.0
  C  C92  1  0.73789000  0.21962000  0.88904000  1.0
  C  C93  1  0.23789000  0.78038000  0.61097000  1.0
  C  C94  1  0.26210000  0.78038000  0.11096000  1.0
  C  C95  1  0.76211000  0.21962000  0.38904000  1.0
  C  C96  1  0.66983000  0.55524000  0.01944000  1.0
  C  C97  1  0.16983000  0.44476000  0.48056000  1.0
  C  C98  1  0.33018000  0.44476000  0.98056000  1.0
  C  C99  1  0.83017000  0.55524000  0.51943000  1.0
  C  C100  1  0.26578000  0.07662000  0.99321000  1.0
  C  C101  1  0.76578000  0.92338000  0.50680000  1.0
  C  C102  1  0.73422000  0.92338000  0.00680000  1.0
  C  C103  1  0.23422000  0.07662000  0.49320000  1.0
  C  C104  1  0.40341000  0.12496000  0.05004000  1.0
  C  C105  1  0.90342000  0.87504000  0.44996000  1.0
  C  C106  1  0.59659000  0.87504000  0.94996000  1.0
  C  C107  1  0.09660000  0.12496000  0.55004000  1.0
  C  C108  1  0.09160000  0.65766000  0.85609000  1.0
  C  C109  1  0.59159000  0.34233000  0.64391000  1.0
  C  C110  1  0.90840000  0.34234000  0.14391000  1.0
  C  C111  1  0.40841000  0.65766000  0.35609000  1.0
  N  N112  1  0.43940000  0.12732000  0.87940000  1.0
  N  N113  1  0.93940000  0.87268000  0.62060000  1.0
  N  N114  1  0.56060000  0.87268000  0.12060000  1.0
  N  N115  1  0.06060000  0.12732000  0.37940000  1.0
  N  N116  1  0.82864000  0.72869000  0.77646000  1.0
  N  N117  1  0.32864000  0.27131000  0.72354000  1.0
  N  N118  1  0.17135000  0.27131000  0.22354000  1.0
  N  N119  1  0.67136000  0.72869000  0.27646000  1.0
  N  N120  1  0.76882000  0.57899000  0.82618000  1.0
  N  N121  1  0.26881000  0.42100000  0.67382000  1.0
  N  N122  1  0.23118000  0.42101000  0.17382000  1.0
  N  N123  1  0.73118000  0.57899000  0.32618000  1.0
  O  O124  1  0.05407000  0.94987000  0.85174000  1.0
  O  O125  1  0.55408000  0.05013000  0.64826000  1.0
  O  O126  1  0.94592000  0.05013000  0.14826000  1.0
  O  O127  1  0.44592000  0.94987000  0.35174000  1.0
  O  O128  1  0.71512000  0.21976000  0.80880000  1.0
  O  O129  1  0.21512000  0.78024000  0.69120000  1.0
  O  O130  1  0.28488000  0.78024000  0.19120000  1.0
  O  O131  1  0.78488000  0.21976000  0.30880000  1.0
  O  O132  1  0.19128000  0.04641000  0.76199000  1.0
  O  O133  1  0.69127000  0.95360000  0.73802000  1.0
  O  O134  1  0.80872000  0.95360000  0.23801000  1.0
  O  O135  1  0.30872000  0.04640000  0.26198000  1.0
  O  O136  1  0.87677000  0.25553000  0.93309000  1.0
  O  O137  1  0.37677000  0.74447000  0.56691000  1.0
  O  O138  1  0.12323000  0.74447000  0.06691000  1.0
  O  O139  1  0.62323000  0.25553000  0.43310000  1.0
