# generated using pymatgen
data_Ni3H58C84(N6O7)2
_symmetry_space_group_name_H-M   'P 1'
_cell_length_a   8.14878000
_cell_length_b   18.95900000
_cell_length_c   29.16750000
_cell_angle_alpha   90.00000000
_cell_angle_beta   90.00010000
_cell_angle_gamma   94.15800000
_symmetry_Int_Tables_number   1
_chemical_formula_structural   Ni3H58C84(N6O7)2
_chemical_formula_sum   'Ni6 H116 C168 N24 O28'
_cell_volume   4494.30571106
_cell_formula_units_Z   2
loop_
 _symmetry_equiv_pos_site_id
 _symmetry_equiv_pos_as_xyz
  1  'x, y, z'
loop_
 _atom_site_type_symbol
 _atom_site_label
 _atom_site_symmetry_multiplicity
 _atom_site_fract_x
 _atom_site_fract_y
 _atom_site_fract_z
 _atom_site_occupancy
  Ni  Ni0  1  0.00000000  0.50000000  0.50000000  1.0
  Ni  Ni1  1  0.00000000  0.00000000  0.00000000  1.0
  Ni  Ni2  1  0.98190000  0.27819000  0.25647000  1.0
  Ni  Ni3  1  0.01811000  0.22181000  0.75646000  1.0
  Ni  Ni4  1  0.01811000  0.72181000  0.74354000  1.0
  Ni  Ni5  1  0.98189000  0.77819000  0.24354000  1.0
  H  H6  1  0.97163000  0.47379000  0.58323000  1.0
  H  H7  1  0.02837000  0.02621000  0.08323000  1.0
  H  H8  1  0.02837000  0.52621000  0.41677000  1.0
  H  H9  1  0.97163000  0.97379000  0.91677000  1.0
  H  H10  1  0.93148000  0.55651000  0.58149000  1.0
  H  H11  1  0.06853000  0.94349000  0.08149000  1.0
  H  H12  1  0.06853000  0.44349000  0.41851000  1.0
  H  H13  1  0.93147000  0.05651000  0.91851000  1.0
  H  H14  1  0.42535000  0.45076000  0.41976000  1.0
  H  H15  1  0.57465000  0.04924000  0.91977000  1.0
  H  H16  1  0.57465000  0.54925000  0.58023000  1.0
  H  H17  1  0.42534000  0.95075000  0.08023000  1.0
  H  H18  1  0.51742000  0.66983000  0.38237000  1.0
  H  H19  1  0.48258000  0.83018000  0.88237000  1.0
  H  H20  1  0.48257000  0.33018000  0.61763000  1.0
  H  H21  1  0.51743000  0.16982000  0.11763000  1.0
  H  H22  1  0.21374000  0.53152000  0.29579000  1.0
  H  H23  1  0.78626000  0.96849000  0.79580000  1.0
  H  H24  1  0.78625000  0.46849000  0.70420000  1.0
  H  H25  1  0.21375000  0.03151000  0.20421000  1.0
  H  H26  1  0.68994000  0.46970000  0.44587000  1.0
  H  H27  1  0.31005000  0.03030000  0.94587000  1.0
  H  H28  1  0.31005000  0.53030000  0.55413000  1.0
  H  H29  1  0.68995000  0.96970000  0.05413000  1.0
  H  H30  1  0.82303000  0.65750000  0.51764000  1.0
  H  H31  1  0.17697000  0.84249000  0.01764000  1.0
  H  H32  1  0.17697000  0.34249000  0.48236000  1.0
  H  H33  1  0.82303000  0.15751000  0.98236000  1.0
  H  H34  1  0.55837000  0.68121000  0.46070000  1.0
  H  H35  1  0.44164000  0.81879000  0.96070000  1.0
  H  H36  1  0.44164000  0.31879000  0.53930000  1.0
  H  H37  1  0.55836000  0.18121000  0.03930000  1.0
  H  H38  1  0.06216000  0.64631000  0.30279000  1.0
  H  H39  1  0.93784000  0.85369000  0.80279000  1.0
  H  H40  1  0.93783000  0.35370000  0.69721000  1.0
  H  H41  1  0.06217000  0.14631000  0.19721000  1.0
  H  H42  1  0.56945000  0.71935000  0.30072000  1.0
  H  H43  1  0.43056000  0.78065000  0.80072000  1.0
  H  H44  1  0.43055000  0.28065000  0.69927000  1.0
  H  H45  1  0.56945000  0.21935000  0.19928000  1.0
  H  H46  1  0.38606000  0.81391000  0.25486000  1.0
  H  H47  1  0.61394000  0.68609000  0.75486000  1.0
  H  H48  1  0.61393000  0.18609000  0.74514000  1.0
  H  H49  1  0.38606000  0.31391000  0.24515000  1.0
  H  H50  1  0.12656000  0.42902000  0.27944000  1.0
  H  H51  1  0.87344000  0.07098000  0.77944000  1.0
  H  H52  1  0.87344000  0.57098000  0.72056000  1.0
  H  H53  1  0.12655000  0.92902000  0.22056000  1.0
  H  H54  1  0.14183000  0.24372000  0.35750000  1.0
  H  H55  1  0.85818000  0.25629000  0.85750000  1.0
  H  H56  1  0.85819000  0.75629000  0.64250000  1.0
  H  H57  1  0.14181000  0.74371000  0.14250000  1.0
  H  H58  1  0.31646000  0.35212000  0.40458000  1.0
  H  H59  1  0.68355000  0.14789000  0.90459000  1.0
  H  H60  1  0.68356000  0.64789000  0.59541000  1.0
  H  H61  1  0.31645000  0.85211000  0.09541000  1.0
  H  H62  1  0.23093000  0.70341000  0.52604000  1.0
  H  H63  1  0.76907000  0.79659000  0.02604000  1.0
  H  H64  1  0.76907000  0.29659000  0.47397000  1.0
  H  H65  1  0.23093000  0.20341000  0.97397000  1.0
  H  H66  1  0.29445000  0.83322000  0.53333000  1.0
  H  H67  1  0.70555000  0.66678000  0.03333000  1.0
  H  H68  1  0.70555000  0.16678000  0.46667000  1.0
  H  H69  1  0.29445000  0.33322000  0.96667000  1.0
  H  H70  1  0.21262000  0.85603000  0.38805000  1.0
  H  H71  1  0.78737000  0.64397000  0.88805000  1.0
  H  H72  1  0.78737000  0.14396000  0.61195000  1.0
  H  H73  1  0.21263000  0.35603000  0.11195000  1.0
  H  H74  1  0.14525000  0.72687000  0.38180000  1.0
  H  H75  1  0.85474000  0.77313000  0.88180000  1.0
  H  H76  1  0.85474000  0.27313000  0.61820000  1.0
  H  H77  1  0.14526000  0.22687000  0.11820000  1.0
  H  H78  1  0.17482000  0.93386000  0.53359000  1.0
  H  H79  1  0.82518000  0.56614000  0.03359000  1.0
  H  H80  1  0.82518000  0.06614000  0.46641000  1.0
  H  H81  1  0.17482000  0.43386000  0.96641000  1.0
  H  H82  1  0.35338000  0.13603000  0.47953000  1.0
  H  H83  1  0.64663000  0.36397000  0.97953000  1.0
  H  H84  1  0.64663000  0.86397000  0.52047000  1.0
  H  H85  1  0.35337000  0.63603000  0.02047000  1.0
  H  H86  1  0.39734000  0.94744000  0.40003000  1.0
  H  H87  1  0.60266000  0.55256000  0.90003000  1.0
  H  H88  1  0.60264000  0.05256000  0.59997000  1.0
  H  H89  1  0.39735000  0.44744000  0.09997000  1.0
  H  H90  1  0.34429000  0.18309000  0.40908000  1.0
  H  H91  1  0.65570000  0.31691000  0.90908000  1.0
  H  H92  1  0.65570000  0.81691000  0.59092000  1.0
  H  H93  1  0.34430000  0.68309000  0.09092000  1.0
  H  H94  1  0.51830000  0.25470000  0.35282000  1.0
  H  H95  1  0.48169000  0.24530000  0.85282000  1.0
  H  H96  1  0.48169000  0.74530000  0.64718000  1.0
  H  H97  1  0.51831000  0.75470000  0.14718000  1.0
  H  H98  1  0.80341000  0.07704000  0.32815000  1.0
  H  H99  1  0.19659000  0.42296000  0.82815000  1.0
  H  H100  1  0.19658000  0.92296000  0.67184000  1.0
  H  H101  1  0.80343000  0.57704000  0.17184000  1.0
  H  H102  1  0.63047000  0.00480000  0.38317000  1.0
  H  H103  1  0.36953000  0.49521000  0.88317000  1.0
  H  H104  1  0.36951000  0.99520000  0.61683000  1.0
  H  H105  1  0.63048000  0.50480000  0.11683000  1.0
  H  H106  1  0.40664000  0.15741000  0.54995000  1.0
  H  H107  1  0.59336000  0.34259000  0.04995000  1.0
  H  H108  1  0.59336000  0.84259000  0.45005000  1.0
  H  H109  1  0.40664000  0.65741000  0.95005000  1.0
  H  H110  1  0.34049000  0.21226000  0.62437000  1.0
  H  H111  1  0.65951000  0.28774000  0.12437000  1.0
  H  H112  1  0.65951000  0.78774000  0.37563000  1.0
  H  H113  1  0.34049000  0.71226000  0.87563000  1.0
  H  H114  1  0.95967000  0.04811000  0.64798000  1.0
  H  H115  1  0.04033000  0.45189000  0.14798000  1.0
  H  H116  1  0.04033000  0.95189000  0.35202000  1.0
  H  H117  1  0.95967000  0.54810000  0.85202000  1.0
  H  H118  1  0.01315000  0.99614000  0.57187000  1.0
  H  H119  1  0.98685000  0.50386000  0.07187000  1.0
  H  H120  1  0.98685000  0.00386000  0.42813000  1.0
  H  H121  1  0.01315000  0.49614000  0.92813000  1.0
  C  C122  1  0.40881000  0.49330000  0.39560000  1.0
  C  C123  1  0.59119000  0.00670000  0.89560000  1.0
  C  C124  1  0.59119000  0.50670000  0.60440000  1.0
  C  C125  1  0.40881000  0.99330000  0.10440000  1.0
  C  C126  1  0.48163000  0.56084000  0.40460000  1.0
  C  C127  1  0.51837000  0.93916000  0.90460000  1.0
  C  C128  1  0.51836000  0.43916000  0.59540000  1.0
  C  C129  1  0.48163000  0.06084000  0.09540000  1.0
  C  C130  1  0.46016000  0.61737000  0.37535000  1.0
  C  C131  1  0.53985000  0.88263000  0.87535000  1.0
  C  C132  1  0.53984000  0.38264000  0.62465000  1.0
  C  C133  1  0.46016000  0.11736000  0.12465000  1.0
  C  C134  1  0.36022000  0.60564000  0.33695000  1.0
  C  C135  1  0.63978000  0.89436000  0.83695000  1.0
  C  C136  1  0.63977000  0.39436000  0.66305000  1.0
  C  C137  1  0.36022000  0.10563000  0.16305000  1.0
  C  C138  1  0.28850000  0.53858000  0.32654000  1.0
  C  C139  1  0.71150000  0.96142000  0.82654000  1.0
  C  C140  1  0.71149000  0.46142000  0.67346000  1.0
  C  C141  1  0.28851000  0.03858000  0.17346000  1.0
  C  C142  1  0.31452000  0.48215000  0.35595000  1.0
  C  C143  1  0.68548000  0.01785000  0.85595000  1.0
  C  C144  1  0.68548000  0.51785000  0.64404000  1.0
  C  C145  1  0.31452000  0.98215000  0.14405000  1.0
  C  C146  1  0.68562000  0.52266000  0.45944000  1.0
  C  C147  1  0.31438000  0.97734000  0.95943000  1.0
  C  C148  1  0.31438000  0.47734000  0.54056000  1.0
  C  C149  1  0.68562000  0.02266000  0.04057000  1.0
  C  C150  1  0.75227000  0.62136000  0.49514000  1.0
  C  C151  1  0.24774000  0.87864000  0.99514000  1.0
  C  C152  1  0.24773000  0.37864000  0.50486000  1.0
  C  C153  1  0.75226000  0.12136000  0.00486000  1.0
  C  C154  1  0.62515000  0.63461000  0.46628000  1.0
  C  C155  1  0.37486000  0.86539000  0.96628000  1.0
  C  C156  1  0.37486000  0.36539000  0.53372000  1.0
  C  C157  1  0.62514000  0.13461000  0.03372000  1.0
  C  C158  1  0.17327000  0.67884000  0.29472000  1.0
  C  C159  1  0.82673000  0.82116000  0.79472000  1.0
  C  C160  1  0.82672000  0.32116000  0.70528000  1.0
  C  C161  1  0.17328000  0.17884000  0.20528000  1.0
  C  C162  1  0.43760000  0.71881000  0.29485000  1.0
  C  C163  1  0.56240000  0.78120000  0.79485000  1.0
  C  C164  1  0.56239000  0.28120000  0.70514000  1.0
  C  C165  1  0.43761000  0.21880000  0.20515000  1.0
  C  C166  1  0.34493000  0.76514000  0.27204000  1.0
  C  C167  1  0.65507000  0.73486000  0.77204000  1.0
  C  C168  1  0.65507000  0.23486000  0.72796000  1.0
  C  C169  1  0.34492000  0.26514000  0.22796000  1.0
  C  C170  1  0.15441000  0.39407000  0.30730000  1.0
  C  C171  1  0.84560000  0.10593000  0.80730000  1.0
  C  C172  1  0.84559000  0.60593000  0.69270000  1.0
  C  C173  1  0.15440000  0.89407000  0.19270000  1.0
  C  C174  1  0.16462000  0.29919000  0.34886000  1.0
  C  C175  1  0.83539000  0.20081000  0.84886000  1.0
  C  C176  1  0.83539000  0.70081000  0.65114000  1.0
  C  C177  1  0.16461000  0.79919000  0.15114000  1.0
  C  C178  1  0.25018000  0.35254000  0.37246000  1.0
  C  C179  1  0.74982000  0.14747000  0.87246000  1.0
  C  C180  1  0.74983000  0.64746000  0.62754000  1.0
  C  C181  1  0.25018000  0.85254000  0.12754000  1.0
  C  C182  1  0.18382000  0.70702000  0.45353000  1.0
  C  C183  1  0.81618000  0.79298000  0.95353000  1.0
  C  C184  1  0.81617000  0.29298000  0.54648000  1.0
  C  C185  1  0.18383000  0.20702000  0.04647000  1.0
  C  C186  1  0.22734000  0.73761000  0.49606000  1.0
  C  C187  1  0.77266000  0.76239000  0.99606000  1.0
  C  C188  1  0.77266000  0.26239000  0.50394000  1.0
  C  C189  1  0.22734000  0.23761000  0.00394000  1.0
  C  C190  1  0.26146000  0.81031000  0.49997000  1.0
  C  C191  1  0.73854000  0.68969000  0.99997000  1.0
  C  C192  1  0.73854000  0.18969000  0.50004000  1.0
  C  C193  1  0.26146000  0.31031000  0.00003000  1.0
  C  C194  1  0.25452000  0.85448000  0.46130000  1.0
  C  C195  1  0.74548000  0.64552000  0.96130000  1.0
  C  C196  1  0.74548000  0.14552000  0.53870000  1.0
  C  C197  1  0.25452000  0.35448000  0.03870000  1.0
  C  C198  1  0.21876000  0.82295000  0.41844000  1.0
  C  C199  1  0.78124000  0.67704000  0.91844000  1.0
  C  C200  1  0.78123000  0.17704000  0.58156000  1.0
  C  C201  1  0.21877000  0.32296000  0.08156000  1.0
  C  C202  1  0.18183000  0.75040000  0.41465000  1.0
  C  C203  1  0.81817000  0.74960000  0.91465000  1.0
  C  C204  1  0.81817000  0.24959000  0.58535000  1.0
  C  C205  1  0.18183000  0.25041000  0.08535000  1.0
  C  C206  1  0.28057000  0.93202000  0.46595000  1.0
  C  C207  1  0.71943000  0.56798000  0.96595000  1.0
  C  C208  1  0.71942000  0.06798000  0.53405000  1.0
  C  C209  1  0.28058000  0.43202000  0.03405000  1.0
  C  C210  1  0.23127000  0.96565000  0.50593000  1.0
  C  C211  1  0.76874000  0.53434000  0.00593000  1.0
  C  C212  1  0.76873000  0.03434000  0.49407000  1.0
  C  C213  1  0.23127000  0.46566000  0.99407000  1.0
  C  C214  1  0.25580000  0.03917000  0.51136000  1.0
  C  C215  1  0.74420000  0.46083000  0.01136000  1.0
  C  C216  1  0.74419000  0.96083000  0.48864000  1.0
  C  C217  1  0.25581000  0.53917000  0.98864000  1.0
  C  C218  1  0.33001000  0.07905000  0.47551000  1.0
  C  C219  1  0.66999000  0.42095000  0.97551000  1.0
  C  C220  1  0.66999000  0.92095000  0.52449000  1.0
  C  C221  1  0.33001000  0.57905000  0.02449000  1.0
  C  C222  1  0.38240000  0.04673000  0.43540000  1.0
  C  C223  1  0.61760000  0.45327000  0.93541000  1.0
  C  C224  1  0.61760000  0.95327000  0.56460000  1.0
  C  C225  1  0.38240000  0.54673000  0.06459000  1.0
  C  C226  1  0.35571000  0.97320000  0.43089000  1.0
  C  C227  1  0.64429000  0.52680000  0.93089000  1.0
  C  C228  1  0.64428000  0.02680000  0.56911000  1.0
  C  C229  1  0.35572000  0.47320000  0.06911000  1.0
  C  C230  1  0.47529000  0.08889000  0.40024000  1.0
  C  C231  1  0.52471000  0.41111000  0.90024000  1.0
  C  C232  1  0.52470000  0.91111000  0.59976000  1.0
  C  C233  1  0.47529000  0.58889000  0.09976000  1.0
  C  C234  1  0.44526000  0.15979000  0.39138000  1.0
  C  C235  1  0.55473000  0.34021000  0.89138000  1.0
  C  C236  1  0.55473000  0.84021000  0.60862000  1.0
  C  C237  1  0.44527000  0.65979000  0.10862000  1.0
  C  C238  1  0.54145000  0.19994000  0.36019000  1.0
  C  C239  1  0.45854000  0.30006000  0.86019000  1.0
  C  C240  1  0.45854000  0.80006000  0.63981000  1.0
  C  C241  1  0.54146000  0.69994000  0.13981000  1.0
  C  C242  1  0.67163000  0.17029000  0.33758000  1.0
  C  C243  1  0.32836000  0.32972000  0.83758000  1.0
  C  C244  1  0.32836000  0.82971000  0.66242000  1.0
  C  C245  1  0.67164000  0.67029000  0.16242000  1.0
  C  C246  1  0.70128000  0.09949000  0.34572000  1.0
  C  C247  1  0.29872000  0.40052000  0.84571000  1.0
  C  C248  1  0.29871000  0.90051000  0.65428000  1.0
  C  C249  1  0.70130000  0.59948000  0.15428000  1.0
  C  C250  1  0.60342000  0.05921000  0.37634000  1.0
  C  C251  1  0.39658000  0.44079000  0.87634000  1.0
  C  C252  1  0.39657000  0.94078000  0.62366000  1.0
  C  C253  1  0.60343000  0.55921000  0.12366000  1.0
  C  C254  1  0.78126000  0.21364000  0.30617000  1.0
  C  C255  1  0.21874000  0.28637000  0.80617000  1.0
  C  C256  1  0.21874000  0.78637000  0.69383000  1.0
  C  C257  1  0.78126000  0.71363000  0.19383000  1.0
  C  C258  1  0.21369000  0.07293000  0.55504000  1.0
  C  C259  1  0.78631000  0.42706000  0.05504000  1.0
  C  C260  1  0.78630000  0.92707000  0.44496000  1.0
  C  C261  1  0.21369000  0.57293000  0.94496000  1.0
  C  C262  1  0.30448000  0.13444000  0.57046000  1.0
  C  C263  1  0.69552000  0.36556000  0.07047000  1.0
  C  C264  1  0.69552000  0.86556000  0.42953000  1.0
  C  C265  1  0.30448000  0.63444000  0.92953000  1.0
  C  C266  1  0.27007000  0.16472000  0.61246000  1.0
  C  C267  1  0.72993000  0.33528000  0.11246000  1.0
  C  C268  1  0.72993000  0.83528000  0.38754000  1.0
  C  C269  1  0.27007000  0.66472000  0.88754000  1.0
  C  C270  1  0.14613000  0.13366000  0.64076000  1.0
  C  C271  1  0.85387000  0.36634000  0.14077000  1.0
  C  C272  1  0.85386000  0.86634000  0.35924000  1.0
  C  C273  1  0.14613000  0.63366000  0.85924000  1.0
  C  C274  1  0.05655000  0.07191000  0.62596000  1.0
  C  C275  1  0.94345000  0.42809000  0.12596000  1.0
  C  C276  1  0.94345000  0.92809000  0.37404000  1.0
  C  C277  1  0.05655000  0.57191000  0.87404000  1.0
  C  C278  1  0.08811000  0.04266000  0.58347000  1.0
  C  C279  1  0.91189000  0.45734000  0.08347000  1.0
  C  C280  1  0.91188000  0.95734000  0.41653000  1.0
  C  C281  1  0.08811000  0.54266000  0.91653000  1.0
  C  C282  1  0.10527000  0.16710000  0.68506000  1.0
  C  C283  1  0.89473000  0.33290000  0.18506000  1.0
  C  C284  1  0.89472000  0.83290000  0.31494000  1.0
  C  C285  1  0.10527000  0.66710000  0.81494000  1.0
  C  C286  1  0.13120000  0.62971000  0.45059000  1.0
  C  C287  1  0.86881000  0.87029000  0.95059000  1.0
  C  C288  1  0.86881000  0.37029000  0.54941000  1.0
  C  C289  1  0.13119000  0.12972000  0.04941000  1.0
  N  N290  1  0.78882000  0.55151000  0.49028000  1.0
  N  N291  1  0.21118000  0.94848000  0.99027000  1.0
  N  N292  1  0.21118000  0.44848000  0.50972000  1.0
  N  N293  1  0.78882000  0.05152000  0.00973000  1.0
  N  N294  1  0.58442000  0.57139000  0.44346000  1.0
  N  N295  1  0.41558000  0.92861000  0.94346000  1.0
  N  N296  1  0.41557000  0.42861000  0.55654000  1.0
  N  N297  1  0.58443000  0.07139000  0.05654000  1.0
  N  N298  1  0.18144000  0.73990000  0.27253000  1.0
  N  N299  1  0.81856000  0.76010000  0.77252000  1.0
  N  N300  1  0.81855000  0.26010000  0.72748000  1.0
  N  N301  1  0.18144000  0.23990000  0.22748000  1.0
  N  N302  1  0.32708000  0.66370000  0.30885000  1.0
  N  N303  1  0.67292000  0.83630000  0.80885000  1.0
  N  N304  1  0.67291000  0.33630000  0.69115000  1.0
  N  N305  1  0.32709000  0.16370000  0.19115000  1.0
  N  N306  1  0.10668000  0.32591000  0.30846000  1.0
  N  N307  1  0.89332000  0.17409000  0.80846000  1.0
  N  N308  1  0.89333000  0.67409000  0.69154000  1.0
  N  N309  1  0.10667000  0.82591000  0.19154000  1.0
  N  N310  1  0.24336000  0.41334000  0.34577000  1.0
  N  N311  1  0.75664000  0.08666000  0.84577000  1.0
  N  N312  1  0.75664000  0.58666000  0.65423000  1.0
  N  N313  1  0.24336000  0.91334000  0.15423000  1.0
  O  O314  1  0.14091000  0.59465000  0.48801000  1.0
  O  O315  1  0.85909000  0.90535000  0.98801000  1.0
  O  O316  1  0.85908000  0.40535000  0.51199000  1.0
  O  O317  1  0.14091000  0.09465000  0.01199000  1.0
  O  O318  1  0.07814000  0.60467000  0.41250000  1.0
  O  O319  1  0.92186000  0.89533000  0.91250000  1.0
  O  O320  1  0.92186000  0.39533000  0.58750000  1.0
  O  O321  1  0.07814000  0.10467000  0.08750000  1.0
  O  O322  1  0.91019000  0.18650000  0.29039000  1.0
  O  O323  1  0.08981000  0.31350000  0.79039000  1.0
  O  O324  1  0.08981000  0.81350000  0.70962000  1.0
  O  O325  1  0.91019000  0.68650000  0.20961000  1.0
  O  O326  1  0.75173000  0.27673000  0.29566000  1.0
  O  O327  1  0.24827000  0.22327000  0.79566000  1.0
  O  O328  1  0.24827000  0.72327000  0.70434000  1.0
  O  O329  1  0.75173000  0.77673000  0.20434000  1.0
  O  O330  1  0.01331000  0.13213000  0.71410000  1.0
  O  O331  1  0.98669000  0.36787000  0.21410000  1.0
  O  O332  1  0.98668000  0.86787000  0.28590000  1.0
  O  O333  1  0.01331000  0.63213000  0.78590000  1.0
  O  O334  1  0.15760000  0.23105000  0.69364000  1.0
  O  O335  1  0.84240000  0.26895000  0.19365000  1.0
  O  O336  1  0.84240000  0.76895000  0.30635000  1.0
  O  O337  1  0.15760000  0.73105000  0.80636000  1.0
  O  O338  1  0.01561000  0.52469000  0.57384000  1.0
  O  O339  1  0.98439000  0.97531000  0.07384000  1.0
  O  O340  1  0.98439000  0.47531000  0.42616000  1.0
  O  O341  1  0.01561000  0.02469000  0.92616000  1.0
