# generated using pymatgen
data_CdH10C12N2O5
_symmetry_space_group_name_H-M   'P 1'
_cell_length_a   14.48660000
_cell_length_b   17.51134408
_cell_length_c   17.51566011
_cell_angle_alpha   80.13784600
_cell_angle_beta   65.58755480
_cell_angle_gamma   65.57382565
_symmetry_Int_Tables_number   1
_chemical_formula_structural   CdH10C12N2O5
_chemical_formula_sum   'Cd8 H80 C96 N16 O40'
_cell_volume   3683.95782733
_cell_formula_units_Z   8
loop_
 _symmetry_equiv_pos_site_id
 _symmetry_equiv_pos_as_xyz
  1  'x, y, z'
loop_
 _atom_site_type_symbol
 _atom_site_label
 _atom_site_symmetry_multiplicity
 _atom_site_fract_x
 _atom_site_fract_y
 _atom_site_fract_z
 _atom_site_occupancy
  Cd  Cd0  1  0.52441000  0.93676000  0.41180000  1.0
  Cd  Cd1  1  0.37305000  0.56313000  0.08822000  1.0
  Cd  Cd2  1  0.96115000  0.91186000  0.06337000  1.0
  Cd  Cd3  1  0.43640000  0.58813000  0.43659000  1.0
  Cd  Cd4  1  0.47559000  0.06324000  0.58820000  1.0
  Cd  Cd5  1  0.62694000  0.43688000  0.91178000  1.0
  Cd  Cd6  1  0.03884000  0.08814000  0.93663000  1.0
  Cd  Cd7  1  0.56360000  0.41187000  0.56341000  1.0
  H  H8  1  0.83475000  0.04846000  0.34782000  1.0
  H  H9  1  0.71955000  0.93716000  0.07429000  1.0
  H  H10  1  0.69036000  0.84434000  0.00036000  1.0
  H  H11  1  0.68407000  0.67048000  0.20635000  1.0
  H  H12  1  0.70796000  0.76396000  0.28123000  1.0
  H  H13  1  0.65946000  0.72128000  0.99484000  1.0
  H  H14  1  0.73291000  0.63191000  0.04256000  1.0
  H  H15  1  0.59015000  0.68496000  0.09371000  1.0
  H  H16  1  0.33520000  0.05501000  0.37961000  1.0
  H  H17  1  0.37343000  0.10210000  0.42329000  1.0
  H  H18  1  0.73125000  0.45165000  0.15218000  1.0
  H  H19  1  0.23124000  0.56242000  0.42548000  1.0
  H  H20  1  0.03534000  0.65528000  0.49948000  1.0
  H  H21  1  0.06134000  0.82948000  0.29376000  1.0
  H  H22  1  0.25357000  0.73593000  0.21887000  1.0
  H  H23  1  0.87609000  0.77854000  0.50518000  1.0
  H  H24  1  0.90796000  0.86785000  0.45738000  1.0
  H  H25  1  0.86915000  0.81485000  0.40635000  1.0
  H  H26  1  0.26988000  0.44506000  0.12016000  1.0
  H  H27  1  0.39890000  0.39792000  0.07674000  1.0
  H  H28  1  0.38313000  0.84767000  0.95168000  1.0
  H  H29  1  0.15629000  0.57434000  0.06258000  1.0
  H  H30  1  0.03421000  0.50039000  0.15540000  1.0
  H  H31  1  0.85508000  0.70597000  0.32954000  1.0
  H  H32  1  0.97259000  0.78078000  0.23611000  1.0
  H  H33  1  0.88057000  0.49474000  0.27876000  1.0
  H  H34  1  0.86489000  0.54245000  0.36796000  1.0
  H  H35  1  0.77508000  0.59362000  0.31494000  1.0
  H  H36  1  0.89040000  0.87945000  0.94514000  1.0
  H  H37  1  0.97573000  0.92313000  0.89799000  1.0
  H  H38  1  0.68288000  0.65222000  0.54816000  1.0
  H  H39  1  0.29367000  0.92590000  0.43712000  1.0
  H  H40  1  0.19066000  0.99980000  0.34414000  1.0
  H  H41  1  0.39043000  0.79366000  0.17061000  1.0
  H  H42  1  0.48912000  0.71884000  0.26422000  1.0
  H  H43  1  0.15440000  0.00524000  0.22109000  1.0
  H  H44  1  0.27565000  0.95742000  0.13190000  1.0
  H  H45  1  0.18386000  0.90637000  0.18483000  1.0
  H  H46  1  0.21509000  0.62037000  0.55459000  1.0
  H  H47  1  0.29677000  0.57678000  0.60191000  1.0
  H  H48  1  0.16525000  0.95153000  0.65219000  1.0
  H  H49  1  0.28045000  0.06284000  0.92571000  1.0
  H  H50  1  0.30964000  0.15566000  0.99964000  1.0
  H  H51  1  0.31593000  0.32952000  0.79364000  1.0
  H  H52  1  0.29203000  0.23604000  0.71877000  1.0
  H  H53  1  0.34053000  0.27873000  0.00516000  1.0
  H  H54  1  0.26710000  0.36809000  0.95743000  1.0
  H  H55  1  0.40984000  0.31505000  0.90629000  1.0
  H  H56  1  0.66480000  0.94499000  0.62039000  1.0
  H  H57  1  0.62657000  0.89790000  0.57671000  1.0
  H  H58  1  0.26875000  0.54835000  0.84782000  1.0
  H  H59  1  0.76876000  0.43758000  0.57452000  1.0
  H  H60  1  0.96465000  0.34472000  0.50053000  1.0
  H  H61  1  0.93865000  0.17052000  0.70624000  1.0
  H  H62  1  0.74642000  0.26407000  0.78114000  1.0
  H  H63  1  0.12390000  0.22147000  0.49483000  1.0
  H  H64  1  0.09206000  0.13215000  0.54262000  1.0
  H  H65  1  0.13086000  0.18515000  0.59365000  1.0
  H  H66  1  0.73012000  0.55494000  0.87984000  1.0
  H  H67  1  0.60110000  0.60208000  0.92326000  1.0
  H  H68  1  0.61685000  0.15234000  0.04832000  1.0
  H  H69  1  0.84371000  0.42566000  0.93742000  1.0
  H  H70  1  0.96578000  0.49962000  0.84460000  1.0
  H  H71  1  0.14492000  0.29403000  0.67046000  1.0
  H  H72  1  0.02742000  0.21922000  0.76389000  1.0
  H  H73  1  0.11942000  0.50526000  0.72124000  1.0
  H  H74  1  0.13511000  0.45755000  0.63203000  1.0
  H  H75  1  0.22491000  0.40639000  0.68505000  1.0
  H  H76  1  0.10959000  0.12056000  0.05485000  1.0
  H  H77  1  0.02427000  0.07687000  0.10201000  1.0
  H  H78  1  0.31712000  0.34779000  0.45184000  1.0
  H  H79  1  0.70634000  0.07410000  0.56287000  1.0
  H  H80  1  0.80937000  0.00019000  0.65585000  1.0
  H  H81  1  0.60957000  0.20634000  0.82939000  1.0
  H  H82  1  0.51088000  0.28115000  0.73578000  1.0
  H  H83  1  0.84560000  0.99476000  0.77891000  1.0
  H  H84  1  0.72436000  0.04257000  0.86810000  1.0
  H  H85  1  0.81614000  0.09363000  0.81517000  1.0
  H  H86  1  0.78492000  0.37963000  0.44540000  1.0
  H  H87  1  0.70323000  0.42323000  0.39809000  1.0
  C  C88  1  0.68652000  0.01875000  0.40204000  1.0
  C  C89  1  0.73217000  0.97727000  0.32056000  1.0
  C  C90  1  0.82462000  0.97387000  0.24851000  1.0
  C  C91  1  0.90847000  0.00819000  0.23058000  1.0
  C  C92  1  0.74050000  0.90742000  0.22456000  1.0
  C  C93  1  0.71832000  0.85565000  0.18190000  1.0
  C  C94  1  0.71411000  0.87755000  0.10210000  1.0
  C  C95  1  0.69707000  0.82562000  0.06126000  1.0
  C  C96  1  0.68597000  0.75040000  0.09757000  1.0
  C  C97  1  0.69110000  0.72919000  0.17708000  1.0
  C  C98  1  0.70502000  0.78140000  0.21934000  1.0
  C  C99  1  0.66653000  0.69456000  0.05450000  1.0
  C  C100  1  0.60754000  0.48107000  0.09794000  1.0
  C  C101  1  0.53027000  0.52261000  0.17937000  1.0
  C  C102  1  0.54724000  0.52607000  0.25144000  1.0
  C  C103  1  0.64739000  0.49186000  0.26944000  1.0
  C  C104  1  0.37272000  0.59237000  0.27537000  1.0
  C  C105  1  0.25612000  0.64410000  0.31805000  1.0
  C  C106  1  0.19397000  0.62210000  0.39777000  1.0
  C  C107  1  0.08424000  0.67406000  0.43862000  1.0
  C  C108  1  0.03429000  0.74935000  0.40236000  1.0
  C  C109  1  0.09775000  0.77065000  0.32292000  1.0
  C  C110  1  0.20609000  0.71841000  0.28066000  1.0
  C  C111  1  0.91602000  0.80523000  0.44548000  1.0
  C  C112  1  0.20527000  0.90199000  0.98134000  1.0
  C  C113  1  0.20945000  0.82051000  0.02290000  1.0
  C  C114  1  0.29848000  0.74835000  0.02620000  1.0
  C  C115  1  0.41658000  0.73037000  0.99196000  1.0
  C  C116  1  0.14796000  0.72437000  0.09252000  1.0
  C  C117  1  0.07397000  0.68170000  0.14423000  1.0
  C  C118  1  0.09138000  0.60203000  0.12223000  1.0
  C  C119  1  0.02242000  0.56119000  0.17418000  1.0
  C  C120  1  0.93634000  0.59741000  0.24946000  1.0
  C  C121  1  0.92057000  0.67680000  0.27075000  1.0
  C  C122  1  0.98671000  0.71905000  0.21855000  1.0
  C  C123  1  0.86103000  0.55440000  0.30536000  1.0
  C  C124  1  0.58871000  0.59791000  0.51869000  1.0
  C  C125  1  0.55291000  0.67941000  0.47716000  1.0
  C  C126  1  0.57319000  0.75155000  0.47377000  1.0
  C  C127  1  0.63916000  0.76953000  0.50795000  1.0
  C  C128  1  0.46489000  0.77552000  0.40752000  1.0
  C  C129  1  0.39991000  0.81818000  0.35584000  1.0
  C  C130  1  0.31593000  0.89801000  0.37761000  1.0
  C  C131  1  0.25813000  0.93881000  0.32561000  1.0
  C  C132  1  0.28341000  0.90244000  0.25044000  1.0
  C  C133  1  0.36805000  0.82291000  0.22935000  1.0
  C  C134  1  0.42417000  0.78069000  0.28162000  1.0
  C  C135  1  0.22106000  0.94553000  0.19449000  1.0
  C  C136  1  0.31348000  0.98125000  0.59796000  1.0
  C  C137  1  0.26782000  0.02273000  0.67944000  1.0
  C  C138  1  0.17537000  0.02613000  0.75150000  1.0
  C  C139  1  0.09152000  0.99182000  0.76942000  1.0
  C  C140  1  0.25950000  0.09258000  0.77544000  1.0
  C  C141  1  0.28168000  0.14435000  0.81810000  1.0
  C  C142  1  0.28590000  0.12245000  0.89789000  1.0
  C  C143  1  0.30294000  0.17438000  0.93873000  1.0
  C  C144  1  0.31404000  0.24960000  0.90242000  1.0
  C  C145  1  0.30889000  0.27082000  0.82292000  1.0
  C  C146  1  0.29498000  0.21860000  0.78066000  1.0
  C  C147  1  0.33348000  0.30544000  0.94549000  1.0
  C  C148  1  0.39246000  0.51893000  0.90206000  1.0
  C  C149  1  0.46973000  0.47739000  0.82063000  1.0
  C  C150  1  0.45276000  0.47393000  0.74856000  1.0
  C  C151  1  0.35261000  0.50815000  0.73056000  1.0
  C  C152  1  0.62727000  0.40764000  0.72464000  1.0
  C  C153  1  0.74389000  0.35590000  0.68196000  1.0
  C  C154  1  0.80603000  0.37790000  0.60224000  1.0
  C  C155  1  0.91576000  0.32594000  0.56139000  1.0
  C  C156  1  0.96572000  0.25065000  0.59764000  1.0
  C  C157  1  0.90225000  0.22935000  0.67708000  1.0
  C  C158  1  0.79391000  0.28159000  0.71935000  1.0
  C  C159  1  0.08398000  0.19478000  0.55452000  1.0
  C  C160  1  0.79473000  0.09801000  0.01866000  1.0
  C  C161  1  0.79054000  0.17949000  0.97710000  1.0
  C  C162  1  0.70151000  0.25166000  0.97381000  1.0
  C  C163  1  0.58341000  0.26963000  0.00804000  1.0
  C  C164  1  0.85205000  0.27562000  0.90748000  1.0
  C  C165  1  0.92602000  0.31830000  0.85577000  1.0
  C  C166  1  0.90861000  0.39797000  0.87777000  1.0
  C  C167  1  0.97757000  0.43881000  0.82582000  1.0
  C  C168  1  0.06364000  0.40260000  0.75054000  1.0
  C  C169  1  0.07943000  0.32320000  0.72925000  1.0
  C  C170  1  0.01329000  0.28095000  0.78145000  1.0
  C  C171  1  0.13896000  0.44560000  0.69464000  1.0
  C  C172  1  0.41127000  0.40210000  0.48132000  1.0
  C  C173  1  0.44710000  0.32059000  0.52284000  1.0
  C  C174  1  0.42682000  0.24845000  0.52623000  1.0
  C  C175  1  0.36085000  0.23047000  0.49205000  1.0
  C  C176  1  0.53511000  0.22448000  0.59248000  1.0
  C  C177  1  0.60010000  0.18181000  0.64416000  1.0
  C  C178  1  0.68408000  0.10198000  0.62239000  1.0
  C  C179  1  0.74188000  0.06118000  0.67439000  1.0
  C  C180  1  0.71659000  0.09756000  0.74956000  1.0
  C  C181  1  0.63196000  0.17708000  0.77065000  1.0
  C  C182  1  0.57583000  0.21931000  0.71838000  1.0
  C  C183  1  0.77894000  0.05447000  0.80551000  1.0
  N  N184  1  0.68062000  0.93528000  0.30450000  1.0
  N  N185  1  0.82766000  0.93021000  0.18879000  1.0
  N  N186  1  0.42066000  0.56446000  0.19545000  1.0
  N  N187  1  0.44691000  0.56972000  0.31112000  1.0
  N  N188  1  0.11595000  0.80441000  0.06477000  1.0
  N  N189  1  0.25788000  0.68858000  0.06978000  1.0
  N  N190  1  0.48511000  0.69550000  0.43532000  1.0
  N  N191  1  0.51636000  0.81131000  0.43020000  1.0
  N  N192  1  0.31938000  0.06472000  0.69550000  1.0
  N  N193  1  0.17234000  0.06979000  0.81121000  1.0
  N  N194  1  0.57934000  0.43554000  0.80456000  1.0
  N  N195  1  0.55309000  0.43028000  0.68888000  1.0
  N  N196  1  0.88406000  0.19559000  0.93523000  1.0
  N  N197  1  0.74212000  0.31142000  0.93022000  1.0
  N  N198  1  0.51489000  0.30450000  0.56468000  1.0
  N  N199  1  0.48364000  0.18869000  0.56980000  1.0
  O  O200  1  0.59165000  0.02052000  0.45170000  1.0
  O  O201  1  0.74123000  0.04989000  0.41887000  1.0
  O  O202  1  0.90417000  0.04657000  0.29066000  1.0
  O  O203  1  0.98278000  0.99974000  0.15872000  1.0
  O  O204  1  0.39981000  0.06022000  0.37890000  1.0
  O  O205  1  0.56408000  0.47935000  0.04826000  1.0
  O  O206  1  0.71018000  0.45009000  0.08110000  1.0
  O  O207  1  0.74159000  0.45361000  0.20935000  1.0
  O  O208  1  0.64128000  0.50021000  0.34137000  1.0
  O  O209  1  0.33890000  0.43974000  0.12114000  1.0
  O  O210  1  0.11212000  0.95172000  0.97966000  1.0
  O  O211  1  0.29111000  0.91879000  0.95018000  1.0
  O  O212  1  0.45068000  0.79048000  0.95359000  1.0
  O  O213  1  0.48242000  0.65844000  0.00037000  1.0
  O  O214  1  0.96022000  0.87875000  0.93991000  1.0
  O  O215  1  0.54344000  0.54825000  0.52054000  1.0
  O  O216  1  0.66034000  0.58106000  0.54973000  1.0
  O  O217  1  0.69514000  0.70940000  0.54621000  1.0
  O  O218  1  0.64149000  0.84145000  0.49956000  1.0
  O  O219  1  0.27887000  0.62114000  0.55995000  1.0
  O  O220  1  0.40833000  0.97948000  0.54831000  1.0
  O  O221  1  0.25877000  0.95011000  0.58113000  1.0
  O  O222  1  0.09583000  0.95343000  0.70934000  1.0
  O  O223  1  0.01720000  0.00027000  0.84128000  1.0
  O  O224  1  0.60019000  0.93978000  0.62110000  1.0
  O  O225  1  0.43592000  0.52066000  0.95174000  1.0
  O  O226  1  0.28981000  0.54992000  0.91890000  1.0
  O  O227  1  0.25841000  0.54640000  0.79064000  1.0
  O  O228  1  0.35872000  0.49979000  0.65863000  1.0
  O  O229  1  0.66110000  0.56026000  0.87886000  1.0
  O  O230  1  0.88788000  0.04827000  0.02034000  1.0
  O  O231  1  0.70888000  0.08121000  0.04982000  1.0
  O  O232  1  0.54932000  0.20952000  0.04640000  1.0
  O  O233  1  0.51759000  0.34156000  0.99963000  1.0
  O  O234  1  0.03977000  0.12125000  0.06009000  1.0
  O  O235  1  0.45656000  0.45175000  0.47947000  1.0
  O  O236  1  0.33967000  0.41894000  0.45027000  1.0
  O  O237  1  0.30487000  0.29060000  0.45379000  1.0
  O  O238  1  0.35851000  0.15855000  0.50044000  1.0
  O  O239  1  0.72114000  0.37886000  0.44005000  1.0
