# generated using pymatgen
data_CoH20C22(NO4)2
_symmetry_space_group_name_H-M   'P 1'
_cell_length_a   9.13146000
_cell_length_b   9.76725000
_cell_length_c   11.34810000
_cell_angle_alpha   89.99490000
_cell_angle_beta   89.99430000
_cell_angle_gamma   81.52020000
_symmetry_Int_Tables_number   1
_chemical_formula_structural   CoH20C22(NO4)2
_chemical_formula_sum   'Co2 H40 C44 N4 O16'
_cell_volume   1001.06387322
_cell_formula_units_Z   2
loop_
 _symmetry_equiv_pos_site_id
 _symmetry_equiv_pos_as_xyz
  1  'x, y, z'
loop_
 _atom_site_type_symbol
 _atom_site_label
 _atom_site_symmetry_multiplicity
 _atom_site_fract_x
 _atom_site_fract_y
 _atom_site_fract_z
 _atom_site_occupancy
  Co  Co0  1  0.00000000  0.00000000  0.00000000  1.0
  Co  Co1  1  0.50000000  0.00000000  0.50000000  1.0
  H  H2  1  0.67731000  0.11711000  0.07708000  1.0
  H  H3  1  0.17732000  0.11710000  0.42291000  1.0
  H  H4  1  0.32269000  0.88289000  0.92292000  1.0
  H  H5  1  0.82268000  0.88289000  0.57709000  1.0
  H  H6  1  0.53920000  0.18620000  0.24733000  1.0
  H  H7  1  0.03920000  0.18619000  0.25267000  1.0
  H  H8  1  0.46080000  0.81380000  0.75267000  1.0
  H  H9  1  0.96079000  0.81381000  0.74733000  1.0
  H  H10  1  0.35883000  0.36344000  0.34497000  1.0
  H  H11  1  0.85883000  0.36345000  0.15503000  1.0
  H  H12  1  0.64116000  0.63656000  0.65503000  1.0
  H  H13  1  0.14116000  0.63655000  0.84497000  1.0
  H  H14  1  0.21391000  0.55364000  0.22670000  1.0
  H  H15  1  0.71391000  0.55365000  0.27330000  1.0
  H  H16  1  0.78609000  0.44635000  0.77330000  1.0
  H  H17  1  0.28608000  0.44635000  0.72670000  1.0
  H  H18  1  0.24875000  0.55819000  0.00963000  1.0
  H  H19  1  0.74875000  0.55820000  0.49036000  1.0
  H  H20  1  0.75125000  0.44181000  0.99037000  1.0
  H  H21  1  0.25125000  0.44180000  0.50964000  1.0
  H  H22  1  0.42140000  0.37498000  0.90997000  1.0
  H  H23  1  0.92140000  0.37498000  0.59002000  1.0
  H  H24  1  0.57860000  0.62502000  0.09004000  1.0
  H  H25  1  0.07859000  0.62502000  0.40998000  1.0
  H  H26  1  0.91180000  0.21608000  0.87511000  1.0
  H  H27  1  0.41179000  0.21606000  0.62491000  1.0
  H  H28  1  0.08821000  0.78392000  0.12489000  1.0
  H  H29  1  0.58820000  0.78394000  0.37509000  1.0
  H  H30  1  0.01822000  0.40402000  0.94473000  1.0
  H  H31  1  0.51821000  0.40402000  0.55527000  1.0
  H  H32  1  0.98178000  0.59598000  0.05527000  1.0
  H  H33  1  0.48179000  0.59598000  0.44473000  1.0
  H  H34  1  0.15443000  0.25737000  0.91246000  1.0
  H  H35  1  0.65443000  0.25736000  0.58753000  1.0
  H  H36  1  0.84557000  0.74263000  0.08754000  1.0
  H  H37  1  0.34557000  0.74264000  0.41247000  1.0
  H  H38  1  0.09869000  0.29353000  0.06100000  1.0
  H  H39  1  0.59870000  0.29355000  0.43900000  1.0
  H  H40  1  0.90131000  0.70647000  0.93900000  1.0
  H  H41  1  0.40130000  0.70645000  0.56100000  1.0
  C  C42  1  0.71947000  0.02270000  0.85248000  1.0
  C  C43  1  0.21946000  0.02270000  0.64752000  1.0
  C  C44  1  0.28053000  0.97731000  0.14752000  1.0
  C  C45  1  0.78054000  0.97730000  0.35248000  1.0
  C  C46  1  0.63498000  0.03678000  0.74170000  1.0
  C  C47  1  0.13497000  0.03679000  0.75831000  1.0
  C  C48  1  0.36503000  0.96322000  0.25830000  1.0
  C  C49  1  0.86502000  0.96321000  0.24169000  1.0
  C  C50  1  0.52014000  0.13941000  0.79967000  1.0
  C  C51  1  0.02014000  0.13942000  0.70034000  1.0
  C  C52  1  0.47986000  0.86059000  0.20033000  1.0
  C  C53  1  0.97986000  0.86059000  0.29966000  1.0
  C  C54  1  0.60502000  0.12023000  0.91027000  1.0
  C  C55  1  0.10501000  0.12024000  0.58973000  1.0
  C  C56  1  0.39498000  0.87977000  0.08973000  1.0
  C  C57  1  0.89499000  0.87977000  0.41027000  1.0
  C  C58  1  0.47352000  0.26670000  0.19500000  1.0
  C  C59  1  0.97351000  0.26669000  0.30499000  1.0
  C  C60  1  0.52648000  0.73330000  0.80500000  1.0
  C  C61  1  0.02648000  0.73331000  0.69501000  1.0
  C  C62  1  0.37283000  0.36795000  0.24980000  1.0
  C  C63  1  0.87283000  0.36795000  0.25020000  1.0
  C  C64  1  0.62717000  0.63204000  0.75020000  1.0
  C  C65  1  0.12717000  0.63205000  0.74980000  1.0
  C  C66  1  0.29061000  0.47295000  0.18368000  1.0
  C  C67  1  0.79062000  0.47295000  0.31632000  1.0
  C  C68  1  0.70939000  0.52705000  0.81632000  1.0
  C  C69  1  0.20938000  0.52705000  0.68368000  1.0
  C  C70  1  0.30926000  0.47449000  0.06152000  1.0
  C  C71  1  0.80926000  0.47450000  0.43847000  1.0
  C  C72  1  0.69074000  0.52551000  0.93848000  1.0
  C  C73  1  0.19074000  0.52550000  0.56153000  1.0
  C  C74  1  0.40709000  0.37240000  0.00497000  1.0
  C  C75  1  0.90709000  0.37240000  0.49502000  1.0
  C  C76  1  0.59291000  0.62759000  0.99503000  1.0
  C  C77  1  0.09290000  0.62760000  0.50498000  1.0
  C  C78  1  0.48953000  0.26802000  0.07209000  1.0
  C  C79  1  0.98953000  0.26802000  0.42790000  1.0
  C  C80  1  0.51047000  0.73198000  0.92791000  1.0
  C  C81  1  0.01046000  0.73198000  0.57210000  1.0
  C  C82  1  0.06048000  0.29680000  0.96969000  1.0
  C  C83  1  0.56048000  0.29680000  0.53031000  1.0
  C  C84  1  0.93952000  0.70320000  0.03031000  1.0
  C  C85  1  0.43952000  0.70320000  0.46969000  1.0
  N  N86  1  0.59499000  0.16426000  0.02117000  1.0
  N  N87  1  0.09498000  0.16426000  0.47883000  1.0
  N  N88  1  0.40502000  0.83574000  0.97883000  1.0
  N  N89  1  0.90502000  0.83574000  0.52117000  1.0
  O  O90  1  0.84290000  0.95721000  0.88199000  1.0
  O  O91  1  0.34289000  0.95720000  0.61801000  1.0
  O  O92  1  0.15711000  0.04279000  0.11801000  1.0
  O  O93  1  0.65711000  0.04280000  0.38199000  1.0
  O  O94  1  0.65647000  0.98442000  0.64018000  1.0
  O  O95  1  0.15647000  0.98443000  0.85983000  1.0
  O  O96  1  0.34353000  0.01558000  0.35982000  1.0
  O  O97  1  0.84353000  0.01558000  0.14017000  1.0
  O  O98  1  0.40382000  0.21377000  0.76626000  1.0
  O  O99  1  0.90383000  0.21377000  0.73377000  1.0
  O  O100  1  0.59617000  0.78624000  0.23375000  1.0
  O  O101  1  0.09617000  0.78623000  0.26623000  1.0
  O  O102  1  0.94282000  0.21322000  0.96101000  1.0
  O  O103  1  0.44282000  0.21322000  0.53901000  1.0
  O  O104  1  0.05718000  0.78678000  0.03899000  1.0
  O  O105  1  0.55718000  0.78678000  0.46099000  1.0
