# generated using pymatgen
data_Cu2H22C15(N3O4)2
_symmetry_space_group_name_H-M   'P 1'
_cell_length_a   8.52028000
_cell_length_b   8.79516000
_cell_length_c   15.82000000
_cell_angle_alpha   77.33780000
_cell_angle_beta   82.38670000
_cell_angle_gamma   63.93990000
_symmetry_Int_Tables_number   1
_chemical_formula_structural   Cu2H22C15(N3O4)2
_chemical_formula_sum   'Cu4 H44 C30 N12 O16'
_cell_volume   1038.19382872
_cell_formula_units_Z   2
loop_
 _symmetry_equiv_pos_site_id
 _symmetry_equiv_pos_as_xyz
  1  'x, y, z'
loop_
 _atom_site_type_symbol
 _atom_site_label
 _atom_site_symmetry_multiplicity
 _atom_site_fract_x
 _atom_site_fract_y
 _atom_site_fract_z
 _atom_site_occupancy
  Cu  Cu0  1  0.63061000  0.96256000  0.55168000  1.0
  Cu  Cu1  1  0.36967000  0.03737000  0.44846000  1.0
  Cu  Cu2  1  0.97792000  0.60953000  0.92486000  1.0
  Cu  Cu3  1  0.02209000  0.39043000  0.07516000  1.0
  H  H4  1  0.60454000  0.38432000  0.29176000  1.0
  H  H5  1  0.39537000  0.61569000  0.70823000  1.0
  H  H6  1  0.44628000  0.52255000  0.35621000  1.0
  H  H7  1  0.55370000  0.47741000  0.64375000  1.0
  H  H8  1  0.66850000  0.51076000  0.44390000  1.0
  H  H9  1  0.33140000  0.48924000  0.55607000  1.0
  H  H10  1  0.83561000  0.34043000  0.39844000  1.0
  H  H11  1  0.16427000  0.65958000  0.60151000  1.0
  H  H12  1  0.62700000  0.68540000  0.28336000  1.0
  H  H13  1  0.37288000  0.31458000  0.71658000  1.0
  H  H14  1  0.83077000  0.52061000  0.25877000  1.0
  H  H15  1  0.16915000  0.47940000  0.74122000  1.0
  H  H16  1  0.88221000  0.75660000  0.29048000  1.0
  H  H17  1  0.11766000  0.24344000  0.70949000  1.0
  H  H18  1  0.95925000  0.58413000  0.37930000  1.0
  H  H19  1  0.04071000  0.41582000  0.62069000  1.0
  H  H20  1  0.90499000  0.06289000  0.93982000  1.0
  H  H21  1  0.09503000  0.93713000  0.06018000  1.0
  H  H22  1  0.03950000  0.09878000  0.85167000  1.0
  H  H23  1  0.96051000  0.90121000  0.14833000  1.0
  H  H24  1  0.79265000  0.33433000  0.77304000  1.0
  H  H25  1  0.20735000  0.66566000  0.22697000  1.0
  H  H26  1  0.75375000  0.14853000  0.80366000  1.0
  H  H27  1  0.24624000  0.85145000  0.19635000  1.0
  H  H28  1  0.54123000  0.12825000  0.92840000  1.0
  H  H29  1  0.45876000  0.87175000  0.07161000  1.0
  H  H30  1  0.60121000  0.20734000  0.00543000  1.0
  H  H31  1  0.39878000  0.79264000  0.99457000  1.0
  H  H32  1  0.48959000  0.41454000  0.82327000  1.0
  H  H33  1  0.51041000  0.58544000  0.17674000  1.0
  H  H34  1  0.59590000  0.46041000  0.89573000  1.0
  H  H35  1  0.40411000  0.53957000  0.10429000  1.0
  H  H36  1  0.69181000  0.71503000  0.70120000  1.0
  H  H37  1  0.30815000  0.28494000  0.29882000  1.0
  H  H38  1  0.81062000  0.59824000  0.79552000  1.0
  H  H39  1  0.18936000  0.40177000  0.20449000  1.0
  H  H40  1  0.00321000  0.17946000  0.56186000  1.0
  H  H41  1  0.99684000  0.82051000  0.43812000  1.0
  H  H42  1  0.81807000  0.16179000  0.53547000  1.0
  H  H43  1  0.18192000  0.83827000  0.46451000  1.0
  H  H44  1  0.31378000  0.84756000  0.79503000  1.0
  H  H45  1  0.68621000  0.15244000  0.20496000  1.0
  H  H46  1  0.25780000  0.68990000  0.86337000  1.0
  H  H47  1  0.74217000  0.31012000  0.13662000  1.0
  C  C48  1  0.86537000  0.79654000  0.73074000  1.0
  C  C49  1  0.13460000  0.20346000  0.26925000  1.0
  C  C50  1  0.93886000  0.00379000  0.64562000  1.0
  C  C51  1  0.06114000  0.99621000  0.35436000  1.0
  C  C52  1  0.09040000  0.84302000  0.76608000  1.0
  C  C53  1  0.90958000  0.15698000  0.23391000  1.0
  C  C54  1  0.55272000  0.25805000  0.41295000  1.0
  C  C55  1  0.44745000  0.74192000  0.58709000  1.0
  C  C56  1  0.57552000  0.41213000  0.35804000  1.0
  C  C57  1  0.42447000  0.58788000  0.64194000  1.0
  C  C58  1  0.71359000  0.45708000  0.38381000  1.0
  C  C59  1  0.28636000  0.54298000  0.61614000  1.0
  C  C60  1  0.75051000  0.58645000  0.31135000  1.0
  C  C61  1  0.24940000  0.41363000  0.68863000  1.0
  C  C62  1  0.71884000  0.79958000  0.40314000  1.0
  C  C63  1  0.28123000  0.20041000  0.59692000  1.0
  C  C64  1  0.84162000  0.67651000  0.34421000  1.0
  C  C65  1  0.15834000  0.32352000  0.65579000  1.0
  C  C66  1  0.95020000  0.28703000  0.93114000  1.0
  C  C67  1  0.04980000  0.71301000  0.06885000  1.0
  C  C68  1  0.91851000  0.16388000  0.88914000  1.0
  C  C69  1  0.08150000  0.83613000  0.11086000  1.0
  C  C70  1  0.76437000  0.25020000  0.82939000  1.0
  C  C71  1  0.23563000  0.74978000  0.17061000  1.0
  C  C72  1  0.33223000  0.34007000  0.97292000  1.0
  C  C73  1  0.66777000  0.65996000  0.02706000  1.0
  C  C74  1  0.52558000  0.24826000  0.94697000  1.0
  C  C75  1  0.47442000  0.75175000  0.05303000  1.0
  C  C76  1  0.58887000  0.35411000  0.87254000  1.0
  C  C77  1  0.41114000  0.64588000  0.12747000  1.0
  N  N78  1  0.77169000  0.70369000  0.74724000  1.0
  N  N79  1  0.22829000  0.29631000  0.25277000  1.0
  N  N80  1  0.83759000  0.91602000  0.65687000  1.0
  N  N81  1  0.16242000  0.08398000  0.34312000  1.0
  N  N82  1  0.90760000  0.13678000  0.57946000  1.0
  N  N83  1  0.09243000  0.86323000  0.42052000  1.0
  N  N84  1  0.07190000  0.96632000  0.69627000  1.0
  N  N85  1  0.92809000  0.03369000  0.30371000  1.0
  N  N86  1  0.22611000  0.79749000  0.81674000  1.0
  N  N87  1  0.77389000  0.20248000  0.18324000  1.0
  N  N88  1  0.98431000  0.76156000  0.79025000  1.0
  N  N89  1  0.01566000  0.23846000  0.20974000  1.0
  O  O90  1  0.65154000  0.16824000  0.47566000  1.0
  O  O91  1  0.34858000  0.83178000  0.52441000  1.0
  O  O92  1  0.78361000  0.80815000  0.46953000  1.0
  O  O93  1  0.21649000  0.19186000  0.53051000  1.0
  O  O94  1  0.43086000  0.23011000  0.39047000  1.0
  O  O95  1  0.56935000  0.76979000  0.60957000  1.0
  O  O96  1  0.56140000  0.88232000  0.38081000  1.0
  O  O97  1  0.43866000  0.11762000  0.61926000  1.0
  O  O98  1  0.94032000  0.42803000  0.88330000  1.0
  O  O99  1  0.05960000  0.57203000  0.11669000  1.0
  O  O100  1  0.27919000  0.27599000  0.04446000  1.0
  O  O101  1  0.72082000  0.72409000  0.95553000  1.0
  O  O102  1  0.23891000  0.47161000  0.91925000  1.0
  O  O103  1  0.76109000  0.52838000  0.08072000  1.0
  O  O104  1  0.98684000  0.23849000  0.01063000  1.0
  O  O105  1  0.01324000  0.76152000  0.98934000  1.0
