# generated using pymatgen
data_TlBH6(C2N3)2
_symmetry_space_group_name_H-M   'P 1'
_cell_length_a   5.98381000
_cell_length_b   7.76779000
_cell_length_c   17.95420000
_cell_angle_alpha   90.00080000
_cell_angle_beta   89.99980000
_cell_angle_gamma   89.99970000
_symmetry_Int_Tables_number   1
_chemical_formula_structural   TlBH6(C2N3)2
_chemical_formula_sum   'Tl4 B4 H24 C16 N24'
_cell_volume   834.52880168
_cell_formula_units_Z   4
loop_
 _symmetry_equiv_pos_site_id
 _symmetry_equiv_pos_as_xyz
  1  'x, y, z'
loop_
 _atom_site_type_symbol
 _atom_site_label
 _atom_site_symmetry_multiplicity
 _atom_site_fract_x
 _atom_site_fract_y
 _atom_site_fract_z
 _atom_site_occupancy
  Tl  Tl0  1  0.48735000  0.30474000  0.82040000  1.0
  Tl  Tl1  1  0.98735000  0.19527000  0.17960000  1.0
  Tl  Tl2  1  0.51264000  0.80474000  0.67960000  1.0
  Tl  Tl3  1  0.01265000  0.69526000  0.32040000  1.0
  B  B4  1  0.71152000  0.32067000  0.60669000  1.0
  B  B5  1  0.21152000  0.17933000  0.39330000  1.0
  B  B6  1  0.28846000  0.82068000  0.89331000  1.0
  B  B7  1  0.78846000  0.67932000  0.10669000  1.0
  H  H8  1  0.01291000  0.59837000  0.81130000  1.0
  H  H9  1  0.51290000  0.90162000  0.18870000  1.0
  H  H10  1  0.98709000  0.09838000  0.68869000  1.0
  H  H11  1  0.48710000  0.40163000  0.31131000  1.0
  H  H12  1  0.16851000  0.46445000  0.59098000  1.0
  H  H13  1  0.66852000  0.03555000  0.40901000  1.0
  H  H14  1  0.83149000  0.96447000  0.90902000  1.0
  H  H15  1  0.33147000  0.53554000  0.09099000  1.0
  H  H16  1  0.45413000  0.75373000  0.45242000  1.0
  H  H17  1  0.95413000  0.74627000  0.54758000  1.0
  H  H18  1  0.54588000  0.25374000  0.04759000  1.0
  H  H19  1  0.04590000  0.24627000  0.95242000  1.0
  H  H20  1  0.88506000  0.32860000  0.45492000  1.0
  H  H21  1  0.38506000  0.17139000  0.54508000  1.0
  H  H22  1  0.11493000  0.82861000  0.04508000  1.0
  H  H23  1  0.61493000  0.67139000  0.95492000  1.0
  H  H24  1  0.54102000  0.29392000  0.64136000  1.0
  H  H25  1  0.04102000  0.20608000  0.35864000  1.0
  H  H26  1  0.45898000  0.79392000  0.85864000  1.0
  H  H27  1  0.95897000  0.70608000  0.14136000  1.0
  H  H28  1  0.80025000  0.18915000  0.58460000  1.0
  H  H29  1  0.30026000  0.31085000  0.41539000  1.0
  H  H30  1  0.19973000  0.68916000  0.91539000  1.0
  H  H31  1  0.69974000  0.81084000  0.08461000  1.0
  C  C32  1  0.00229000  0.54939000  0.75483000  1.0
  C  C33  1  0.50229000  0.95061000  0.24517000  1.0
  C  C34  1  0.99772000  0.04939000  0.74517000  1.0
  C  C35  1  0.49772000  0.45061000  0.25483000  1.0
  C  C36  1  0.08264000  0.47968000  0.64386000  1.0
  C  C37  1  0.58263000  0.02032000  0.35614000  1.0
  C  C38  1  0.91737000  0.97970000  0.85614000  1.0
  C  C39  1  0.41735000  0.52031000  0.14386000  1.0
  C  C40  1  0.54589000  0.64034000  0.47006000  1.0
  C  C41  1  0.04589000  0.85967000  0.52994000  1.0
  C  C42  1  0.45411000  0.14033000  0.02995000  1.0
  C  C43  1  0.95412000  0.35966000  0.97006000  1.0
  C  C44  1  0.76378000  0.42639000  0.46999000  1.0
  C  C45  1  0.26379000  0.07361000  0.53001000  1.0
  C  C46  1  0.23621000  0.92640000  0.03001000  1.0
  C  C47  1  0.73623000  0.57359000  0.96999000  1.0
  N  N48  1  0.87522000  0.42143000  0.65839000  1.0
  N  N49  1  0.37522000  0.07857000  0.34161000  1.0
  N  N50  1  0.12478000  0.92144000  0.84161000  1.0
  N  N51  1  0.62478000  0.57857000  0.15839000  1.0
  N  N52  1  0.82226000  0.46637000  0.72997000  1.0
  N  N53  1  0.32226000  0.03363000  0.27002000  1.0
  N  N54  1  0.17775000  0.96637000  0.77003000  1.0
  N  N55  1  0.67775000  0.53363000  0.22997000  1.0
  N  N56  1  0.16830000  0.56163000  0.70312000  1.0
  N  N57  1  0.66830000  0.93837000  0.29688000  1.0
  N  N58  1  0.83172000  0.06165000  0.79687000  1.0
  N  N59  1  0.33171000  0.43836000  0.20313000  1.0
  N  N60  1  0.66351000  0.43308000  0.53707000  1.0
  N  N61  1  0.16352000  0.06693000  0.46293000  1.0
  N  N62  1  0.33648000  0.93308000  0.96293000  1.0
  N  N63  1  0.83648000  0.56692000  0.03707000  1.0
  N  N64  1  0.52153000  0.57182000  0.53770000  1.0
  N  N65  1  0.02153000  0.92819000  0.46230000  1.0
  N  N66  1  0.47846000  0.07182000  0.96231000  1.0
  N  N67  1  0.97847000  0.42818000  0.03770000  1.0
  N  N68  1  0.69469000  0.55512000  0.42594000  1.0
  N  N69  1  0.19469000  0.94488000  0.57406000  1.0
  N  N70  1  0.30531000  0.05512000  0.07407000  1.0
  N  N71  1  0.80532000  0.44488000  0.92594000  1.0
