# generated using pymatgen
data_CdH18C28(NO)4
_symmetry_space_group_name_H-M   'P 1'
_cell_length_a   9.61939000
_cell_length_b   12.08430000
_cell_length_c   12.54140000
_cell_angle_alpha   65.42670000
_cell_angle_beta   79.32030000
_cell_angle_gamma   82.22100000
_symmetry_Int_Tables_number   1
_chemical_formula_structural   CdH18C28(NO)4
_chemical_formula_sum   'Cd2 H36 C56 N8 O8'
_cell_volume   1300.08014027
_cell_formula_units_Z   2
loop_
 _symmetry_equiv_pos_site_id
 _symmetry_equiv_pos_as_xyz
  1  'x, y, z'
loop_
 _atom_site_type_symbol
 _atom_site_label
 _atom_site_symmetry_multiplicity
 _atom_site_fract_x
 _atom_site_fract_y
 _atom_site_fract_z
 _atom_site_occupancy
  Cd  Cd0  1  0.07645000  0.12181000  0.32070000  1.0
  Cd  Cd1  1  0.92356000  0.87819000  0.67930000  1.0
  H  H2  1  0.29026000  0.35564000  0.00944000  1.0
  H  H3  1  0.70975000  0.64436000  0.99056000  1.0
  H  H4  1  0.38690000  0.47658000  0.09493000  1.0
  H  H5  1  0.61309000  0.52343000  0.90507000  1.0
  H  H6  1  0.99752000  0.16691000  0.57670000  1.0
  H  H7  1  0.00248000  0.83308000  0.42332000  1.0
  H  H8  1  0.15163000  0.45547000  0.62796000  1.0
  H  H9  1  0.84838000  0.54452000  0.37204000  1.0
  H  H10  1  0.64117000  0.00002000  0.31279000  1.0
  H  H11  1  0.35884000  0.99998000  0.68723000  1.0
  H  H12  1  0.95257000  0.57814000  0.70741000  1.0
  H  H13  1  0.04743000  0.42186000  0.29259000  1.0
  H  H14  1  0.61148000  0.05637000  0.63267000  1.0
  H  H15  1  0.38853000  0.94363000  0.36733000  1.0
  H  H16  1  0.52213000  0.14855000  0.08485000  1.0
  H  H17  1  0.47785000  0.85149000  0.91514000  1.0
  H  H18  1  0.12520000  0.06578000  0.77684000  1.0
  H  H19  1  0.87480000  0.93421000  0.22317000  1.0
  H  H20  1  0.16150000  0.80766000  0.88338000  1.0
  H  H21  1  0.83849000  0.19234000  0.11661000  1.0
  H  H22  1  0.09131000  0.06420000  0.98159000  1.0
  H  H23  1  0.90868000  0.93580000  0.01841000  1.0
  H  H24  1  0.08508000  0.25638000  0.00743000  1.0
  H  H25  1  0.91492000  0.74361000  0.99258000  1.0
  H  H26  1  0.41957000  0.38197000  0.57077000  1.0
  H  H27  1  0.58045000  0.61802000  0.42922000  1.0
  H  H28  1  0.27391000  0.89881000  0.05099000  1.0
  H  H29  1  0.72607000  0.10120000  0.94901000  1.0
  H  H30  1  0.38589000  0.26698000  0.23306000  1.0
  H  H31  1  0.61409000  0.73301000  0.76694000  1.0
  H  H32  1  0.32518000  0.69613000  0.03521000  1.0
  H  H33  1  0.67481000  0.30387000  0.96479000  1.0
  H  H34  1  0.59354000  0.37368000  0.23022000  1.0
  H  H35  1  0.40644000  0.62633000  0.76976000  1.0
  H  H36  1  0.60968000  0.42915000  0.39611000  1.0
  H  H37  1  0.39033000  0.57086000  0.60387000  1.0
  C  C38  1  0.16864000  0.51606000  0.89965000  1.0
  C  C39  1  0.83136000  0.48394000  0.10034000  1.0
  C  C40  1  0.26160000  0.45298000  0.98200000  1.0
  C  C41  1  0.73840000  0.54702000  0.01800000  1.0
  C  C42  1  0.31492000  0.52144000  0.02968000  1.0
  C  C43  1  0.68507000  0.47857000  0.97031000  1.0
  C  C44  1  0.64072000  0.03175000  0.46951000  1.0
  C  C45  1  0.35929000  0.96824000  0.53050000  1.0
  C  C46  1  0.79312000  0.05975000  0.43960000  1.0
  C  C47  1  0.20689000  0.94025000  0.56041000  1.0
  C  C48  1  0.09672000  0.20837000  0.53048000  1.0
  C  C49  1  0.90328000  0.79161000  0.46953000  1.0
  C  C50  1  0.28322000  0.27280000  0.39932000  1.0
  C  C51  1  0.71678000  0.72719000  0.60068000  1.0
  C  C52  1  0.11349000  0.36777000  0.81966000  1.0
  C  C53  1  0.88650000  0.63222000  0.18034000  1.0
  C  C54  1  0.14281000  0.26021000  0.69219000  1.0
  C  C55  1  0.85720000  0.73978000  0.30781000  1.0
  C  C56  1  0.26395000  0.05703000  0.15461000  1.0
  C  C57  1  0.73603000  0.94298000  0.84541000  1.0
  C  C58  1  0.13715000  0.36982000  0.70554000  1.0
  C  C59  1  0.86285000  0.63017000  0.29446000  1.0
  C  C60  1  0.57830000  0.99981000  0.39458000  1.0
  C  C61  1  0.42171000  0.00019000  0.60543000  1.0
  C  C62  1  0.02056000  0.58190000  0.76570000  1.0
  C  C63  1  0.97944000  0.41810000  0.23430000  1.0
  C  C64  1  0.56144000  0.03209000  0.57503000  1.0
  C  C65  1  0.43858000  0.96791000  0.42497000  1.0
  C  C66  1  0.12941000  0.64229000  0.86631000  1.0
  C  C67  1  0.87059000  0.35771000  0.13368000  1.0
  C  C68  1  0.51358000  0.08393000  0.04672000  1.0
  C  C69  1  0.48642000  0.91609000  0.95326000  1.0
  C  C70  1  0.12337000  0.14956000  0.79028000  1.0
  C  C71  1  0.87663000  0.85044000  0.20973000  1.0
  C  C72  1  0.29366000  0.30453000  0.49411000  1.0
  C  C73  1  0.70634000  0.69546000  0.50589000  1.0
  C  C74  1  0.18701000  0.70983000  0.91309000  1.0
  C  C75  1  0.81298000  0.29018000  0.08691000  1.0
  C  C76  1  0.10345000  0.14938000  0.90338000  1.0
  C  C77  1  0.89655000  0.85062000  0.09662000  1.0
  C  C78  1  0.38588000  0.02716000  0.07499000  1.0
  C  C79  1  0.61411000  0.97285000  0.92501000  1.0
  C  C80  1  0.10041000  0.25742000  0.91898000  1.0
  C  C81  1  0.89958000  0.74257000  0.08103000  1.0
  C  C82  1  0.41011000  0.36086000  0.49610000  1.0
  C  C83  1  0.58989000  0.63912000  0.50390000  1.0
  C  C84  1  0.37350000  0.94269000  0.02785000  1.0
  C  C85  1  0.62649000  0.05733000  0.97213000  1.0
  C  C86  1  0.39164000  0.29665000  0.30303000  1.0
  C  C87  1  0.60835000  0.70334000  0.69696000  1.0
  C  C88  1  0.27917000  0.64724000  0.99562000  1.0
  C  C89  1  0.72082000  0.35276000  0.00437000  1.0
  C  C90  1  0.50711000  0.35431000  0.30376000  1.0
  C  C91  1  0.49287000  0.64569000  0.69622000  1.0
  C  C92  1  0.51614000  0.38589000  0.39837000  1.0
  C  C93  1  0.48386000  0.61411000  0.60162000  1.0
  N  N94  1  0.09902000  0.48080000  0.83150000  1.0
  N  N95  1  0.90098000  0.51920000  0.16849000  1.0
  N  N96  1  0.15834000  0.21427000  0.42482000  1.0
  N  N97  1  0.84166000  0.78573000  0.57519000  1.0
  N  N98  1  0.17288000  0.26153000  0.57636000  1.0
  N  N99  1  0.82713000  0.73845000  0.42365000  1.0
  N  N100  1  0.03502000  0.67920000  0.78417000  1.0
  N  N101  1  0.96498000  0.32080000  0.21583000  1.0
  O  O102  1  0.85718000  0.06571000  0.33826000  1.0
  O  O103  1  0.14283000  0.93429000  0.66175000  1.0
  O  O104  1  0.85437000  0.07339000  0.51475000  1.0
  O  O105  1  0.14564000  0.92660000  0.48525000  1.0
  O  O106  1  0.15297000  0.99896000  0.18780000  1.0
  O  O107  1  0.84702000  0.00103000  0.81220000  1.0
  O  O108  1  0.27892000  0.14304000  0.18634000  1.0
  O  O109  1  0.72109000  0.85698000  0.81366000  1.0
