# generated using pymatgen
data_Mo2H9C10N3O8
_symmetry_space_group_name_H-M   'P 1'
_cell_length_a   7.36084000
_cell_length_b   8.51314000
_cell_length_c   11.28230000
_cell_angle_alpha   98.68890000
_cell_angle_beta   92.73710000
_cell_angle_gamma   98.42560000
_symmetry_Int_Tables_number   1
_chemical_formula_structural   Mo2H9C10N3O8
_chemical_formula_sum   'Mo4 H18 C20 N6 O16'
_cell_volume   689.56744136
_cell_formula_units_Z   2
loop_
 _symmetry_equiv_pos_site_id
 _symmetry_equiv_pos_as_xyz
  1  'x, y, z'
loop_
 _atom_site_type_symbol
 _atom_site_label
 _atom_site_symmetry_multiplicity
 _atom_site_fract_x
 _atom_site_fract_y
 _atom_site_fract_z
 _atom_site_occupancy
  Mo  Mo0  1  0.39715000  0.07094000  0.63071000  1.0
  Mo  Mo1  1  0.60285000  0.92906000  0.36929000  1.0
  Mo  Mo2  1  0.09518000  0.88019000  0.38555000  1.0
  Mo  Mo3  1  0.90483000  0.11981000  0.61446000  1.0
  H  H4  1  0.48473000  0.46550000  0.38584000  1.0
  H  H5  1  0.51528000  0.53449000  0.61415000  1.0
  H  H6  1  0.25134000  0.49285000  0.38991000  1.0
  H  H7  1  0.74869000  0.50716000  0.61009000  1.0
  H  H8  1  0.16826000  0.72214000  0.10671000  1.0
  H  H9  1  0.83173000  0.27785000  0.89329000  1.0
  H  H10  1  0.41424000  0.15804000  0.17664000  1.0
  H  H11  1  0.58575000  0.84195000  0.82335000  1.0
  H  H12  1  0.35515000  0.22788000  0.94620000  1.0
  H  H13  1  0.64482000  0.77211000  0.05379000  1.0
  H  H14  1  0.08865000  0.90796000  0.99546000  1.0
  H  H15  1  0.91134000  0.09203000  0.00455000  1.0
  H  H16  1  0.06748000  0.84344000  0.76678000  1.0
  H  H17  1  0.93252000  0.15657000  0.23323000  1.0
  H  H18  1  0.15331000  0.58096000  0.67291000  1.0
  H  H19  1  0.84669000  0.41905000  0.32709000  1.0
  H  H20  1  0.25631000  0.39475000  0.80413000  1.0
  H  H21  1  0.74369000  0.60526000  0.19587000  1.0
  C  C22  1  0.29824000  0.25543000  0.41167000  1.0
  C  C23  1  0.70176000  0.74457000  0.58833000  1.0
  C  C24  1  0.34329000  0.40786000  0.35612000  1.0
  C  C25  1  0.65672000  0.59214000  0.64387000  1.0
  C  C26  1  0.36236000  0.25850000  0.14553000  1.0
  C  C27  1  0.63762000  0.74149000  0.85447000  1.0
  C  C28  1  0.33248000  0.29628000  0.03195000  1.0
  C  C29  1  0.66751000  0.70371000  0.96805000  1.0
  C  C30  1  0.27249000  0.44837000  0.05281000  1.0
  C  C31  1  0.72750000  0.55164000  0.94719000  1.0
  C  C32  1  0.22227000  0.54924000  0.96797000  1.0
  C  C33  1  0.77772000  0.45077000  0.03202000  1.0
  C  C34  1  0.12278000  0.79776000  0.94580000  1.0
  C  C35  1  0.87722000  0.20224000  0.05421000  1.0
  C  C36  1  0.11443000  0.76148000  0.82215000  1.0
  C  C37  1  0.88558000  0.23852000  0.17785000  1.0
  C  C38  1  0.16144000  0.61385000  0.77041000  1.0
  C  C39  1  0.83857000  0.38615000  0.22959000  1.0
  C  C40  1  0.21661000  0.50862000  0.84276000  1.0
  C  C41  1  0.78340000  0.49138000  0.15724000  1.0
  N  N42  1  0.31953000  0.38273000  0.22560000  1.0
  N  N43  1  0.68047000  0.61726000  0.77440000  1.0
  N  N44  1  0.26478000  0.49922000  0.17152000  1.0
  N  N45  1  0.73522000  0.50077000  0.82848000  1.0
  N  N46  1  0.17511000  0.69306000  0.01421000  1.0
  N  N47  1  0.82488000  0.30694000  0.98579000  1.0
  O  O48  1  0.35848000  0.91043000  0.43056000  1.0
  O  O49  1  0.64152000  0.08957000  0.56944000  1.0
  O  O50  1  0.40432000  0.89440000  0.68551000  1.0
  O  O51  1  0.59568000  0.10560000  0.31449000  1.0
  O  O52  1  0.41848000  0.21221000  0.75725000  1.0
  O  O53  1  0.58154000  0.78780000  0.24275000  1.0
  O  O54  1  0.03663000  0.70028000  0.43498000  1.0
  O  O55  1  0.96338000  0.29971000  0.56502000  1.0
  O  O56  1  0.08053000  0.83034000  0.23144000  1.0
  O  O57  1  0.91948000  0.16966000  0.76856000  1.0
  O  O58  1  0.13022000  0.02865000  0.58505000  1.0
  O  O59  1  0.86978000  0.97136000  0.41496000  1.0
  O  O60  1  0.37736000  0.26140000  0.51536000  1.0
  O  O61  1  0.62264000  0.73860000  0.48465000  1.0
  O  O62  1  0.18615000  0.13946000  0.35388000  1.0
  O  O63  1  0.81385000  0.86054000  0.64612000  1.0
