# generated using pymatgen
data_Pr2B5H7(C2O7)2
_symmetry_space_group_name_H-M   'P 1'
_cell_length_a   6.42449000
_cell_length_b   10.94620000
_cell_length_c   11.48644998
_cell_angle_alpha   61.54135850
_cell_angle_beta   89.61932520
_cell_angle_gamma   89.20650000
_symmetry_Int_Tables_number   1
_chemical_formula_structural   Pr2B5H7(C2O7)2
_chemical_formula_sum   'Pr4 B10 H14 C8 O28'
_cell_volume   710.09226542
_cell_formula_units_Z   2
loop_
 _symmetry_equiv_pos_site_id
 _symmetry_equiv_pos_as_xyz
  1  'x, y, z'
loop_
 _atom_site_type_symbol
 _atom_site_label
 _atom_site_symmetry_multiplicity
 _atom_site_fract_x
 _atom_site_fract_y
 _atom_site_fract_z
 _atom_site_occupancy
  Pr  Pr0  1  0.17631000  0.12814000  0.48596000  1.0
  Pr  Pr1  1  0.67632000  0.61414000  0.51395000  1.0
  Pr  Pr2  1  0.34036000  0.07696000  0.13523000  1.0
  Pr  Pr3  1  0.84029000  0.21217000  0.86477000  1.0
  B  B4  1  0.68682000  0.99555000  0.41652000  1.0
  B  B5  1  0.18679000  0.41207000  0.58347000  1.0
  B  B6  1  0.78984000  0.02474000  0.19176000  1.0
  B  B7  1  0.28982000  0.21646000  0.80826000  1.0
  B  B8  1  0.03567000  0.92384000  0.38140000  1.0
  B  B9  1  0.53566000  0.30527000  0.61857000  1.0
  B  B10  1  0.63728000  0.18743000  0.48421000  1.0
  B  B11  1  0.13725000  0.67162000  0.51582000  1.0
  B  B12  1  0.37600000  0.84811000  0.51192000  1.0
  B  B13  1  0.87601000  0.36005000  0.48803000  1.0
  H  H14  1  0.94272000  0.45704000  0.19745000  1.0
  H  H15  1  0.44305000  0.65456000  0.80245000  1.0
  H  H16  1  0.75058000  0.38309000  0.13760000  1.0
  H  H17  1  0.25075000  0.52087000  0.86227000  1.0
  H  H18  1  0.91765000  0.51222000  0.02333000  1.0
  H  H19  1  0.41779000  0.53569000  0.97657000  1.0
  H  H20  1  0.24859000  0.64265000  0.11248000  1.0
  H  H21  1  0.74851000  0.75496000  0.88775000  1.0
  H  H22  1  0.30208000  0.53079000  0.28477000  1.0
  H  H23  1  0.80202000  0.81524000  0.71546000  1.0
  H  H24  1  0.50844000  0.58390000  0.16586000  1.0
  H  H25  1  0.00836000  0.74956000  0.83436000  1.0
  H  H26  1  0.19429000  0.82811000  0.67059000  1.0
  H  H27  1  0.69420000  0.49858000  0.32938000  1.0
  C  C28  1  0.05672000  0.31108000  0.13365000  1.0
  C  C29  1  0.55681000  0.44471000  0.86637000  1.0
  C  C30  1  0.90966000  0.42376000  0.12364000  1.0
  C  C31  1  0.40986000  0.54749000  0.87628000  1.0
  C  C32  1  0.39931000  0.74197000  0.21226000  1.0
  C  C33  1  0.89925000  0.95408000  0.78772000  1.0
  C  C34  1  0.36089000  0.61699000  0.19231000  1.0
  C  C35  1  0.86078000  0.80906000  0.80789000  1.0
  O  O36  1  0.57007000  0.09200000  0.44972000  1.0
  O  O37  1  0.07003000  0.54170000  0.55032000  1.0
  O  O38  1  0.64911000  0.04639000  0.27333000  1.0
  O  O39  1  0.14906000  0.31961000  0.72664000  1.0
  O  O40  1  0.91100000  0.99404000  0.44001000  1.0
  O  O41  1  0.41098000  0.43409000  0.55998000  1.0
  O  O42  1  0.71550000  0.05211000  0.07267000  1.0
  O  O43  1  0.21551000  0.12474000  0.92737000  1.0
  O  O44  1  0.99040000  0.98010000  0.23823000  1.0
  O  O45  1  0.49039000  0.21836000  0.76176000  1.0
  O  O46  1  0.48869000  0.22239000  0.55024000  1.0
  O  O47  1  0.98870000  0.77261000  0.44975000  1.0
  O  O48  1  0.25801000  0.94661000  0.39036000  1.0
  O  O49  1  0.75801000  0.33702000  0.60959000  1.0
  O  O50  1  0.32596000  0.70034000  0.55099000  1.0
  O  O51  1  0.82601000  0.25131000  0.44904000  1.0
  O  O52  1  0.31241000  0.88164000  0.61933000  1.0
  O  O53  1  0.81233000  0.50094000  0.38058000  1.0
  O  O54  1  0.59802000  0.85621000  0.49368000  1.0
  O  O55  1  0.09805000  0.34998000  0.50624000  1.0
  O  O56  1  0.05524000  0.27571000  0.04271000  1.0
  O  O57  1  0.55523000  0.31842000  0.95735000  1.0
  O  O58  1  0.18288000  0.25097000  0.23224000  1.0
  O  O59  1  0.68294000  0.48309000  0.76777000  1.0
  O  O60  1  0.30642000  0.85451000  0.13861000  1.0
  O  O61  1  0.80664000  0.99312000  0.86136000  1.0
  O  O62  1  0.52522000  0.72752000  0.30429000  1.0
  O  O63  1  0.02492000  0.03157000  0.69549000  1.0
