# generated using pymatgen
data_CuH20C18S2(NO4)2
_symmetry_space_group_name_H-M   'P 1'
_cell_length_a   7.65687000
_cell_length_b   12.23950000
_cell_length_c   24.53520000
_cell_angle_alpha   88.06400000
_cell_angle_beta   89.99970000
_cell_angle_gamma   89.99980000
_symmetry_Int_Tables_number   1
_chemical_formula_structural   CuH20C18S2(NO4)2
_chemical_formula_sum   'Cu4 H80 C72 S8 N8 O32'
_cell_volume   2298.03469318
_cell_formula_units_Z   4
loop_
 _symmetry_equiv_pos_site_id
 _symmetry_equiv_pos_as_xyz
  1  'x, y, z'
loop_
 _atom_site_type_symbol
 _atom_site_label
 _atom_site_symmetry_multiplicity
 _atom_site_fract_x
 _atom_site_fract_y
 _atom_site_fract_z
 _atom_site_occupancy
  Cu  Cu0  1  0.89777000  0.46960000  0.03786000  1.0
  Cu  Cu1  1  0.39777000  0.03041000  0.46213000  1.0
  Cu  Cu2  1  0.10225000  0.53041000  0.96213000  1.0
  Cu  Cu3  1  0.60224000  0.96960000  0.53787000  1.0
  H  H4  1  0.71389000  0.79102000  0.92346000  1.0
  H  H5  1  0.21387000  0.70899000  0.57654000  1.0
  H  H6  1  0.28614000  0.20898000  0.07655000  1.0
  H  H7  1  0.78612000  0.29102000  0.42345000  1.0
  H  H8  1  0.65113000  0.80262000  0.99316000  1.0
  H  H9  1  0.15112000  0.69739000  0.50685000  1.0
  H  H10  1  0.34887000  0.19738000  0.00685000  1.0
  H  H11  1  0.84886000  0.30262000  0.49315000  1.0
  H  H12  1  0.40229000  0.68644000  0.97921000  1.0
  H  H13  1  0.90229000  0.81356000  0.52079000  1.0
  H  H14  1  0.59770000  0.31355000  0.02079000  1.0
  H  H15  1  0.09770000  0.18645000  0.47921000  1.0
  H  H16  1  0.57521000  0.63573000  0.78215000  1.0
  H  H17  1  0.07520000  0.86428000  0.71785000  1.0
  H  H18  1  0.42481000  0.36428000  0.21786000  1.0
  H  H19  1  0.92480000  0.13573000  0.28215000  1.0
  H  H20  1  0.54978000  0.77033000  0.70415000  1.0
  H  H21  1  0.04978000  0.72967000  0.79585000  1.0
  H  H22  1  0.45023000  0.22968000  0.29585000  1.0
  H  H23  1  0.95022000  0.27033000  0.20415000  1.0
  H  H24  1  0.31041000  0.00033000  0.80994000  1.0
  H  H25  1  0.81042000  0.49967000  0.69006000  1.0
  H  H26  1  0.68958000  0.99967000  0.19006000  1.0
  H  H27  1  0.18959000  0.50034000  0.30993000  1.0
  H  H28  1  0.33314000  0.86588000  0.88784000  1.0
  H  H29  1  0.83313000  0.63412000  0.61216000  1.0
  H  H30  1  0.66686000  0.13411000  0.11216000  1.0
  H  H31  1  0.16688000  0.36590000  0.38784000  1.0
  H  H32  1  0.45166000  0.05531000  0.71556000  1.0
  H  H33  1  0.95167000  0.44470000  0.78444000  1.0
  H  H34  1  0.54833000  0.94470000  0.28444000  1.0
  H  H35  1  0.04833000  0.55531000  0.21556000  1.0
  H  H36  1  0.47201000  0.94871000  0.66821000  1.0
  H  H37  1  0.97202000  0.55129000  0.83179000  1.0
  H  H38  1  0.52799000  0.05130000  0.33179000  1.0
  H  H39  1  0.02798000  0.44870000  0.16821000  1.0
  H  H40  1  0.26498000  0.98406000  0.69384000  1.0
  H  H41  1  0.76498000  0.51594000  0.80616000  1.0
  H  H42  1  0.73503000  0.01594000  0.30616000  1.0
  H  H43  1  0.23502000  0.48405000  0.19383000  1.0
  H  H44  1  0.80229000  0.24136000  0.88600000  1.0
  H  H45  1  0.30227000  0.25864000  0.61400000  1.0
  H  H46  1  0.19771000  0.75863000  0.11400000  1.0
  H  H47  1  0.69771000  0.74137000  0.38600000  1.0
  H  H48  1  0.73168000  0.36625000  0.85433000  1.0
  H  H49  1  0.23166000  0.13376000  0.64567000  1.0
  H  H50  1  0.26833000  0.63377000  0.14568000  1.0
  H  H51  1  0.76834000  0.86624000  0.35432000  1.0
  H  H52  1  0.48697000  0.35786000  0.92605000  1.0
  H  H53  1  0.98695000  0.14214000  0.57395000  1.0
  H  H54  1  0.51304000  0.64214000  0.07396000  1.0
  H  H55  1  0.01303000  0.85785000  0.42604000  1.0
  H  H56  1  0.59042000  0.19534000  0.76448000  1.0
  H  H57  1  0.09042000  0.30464000  0.73553000  1.0
  H  H58  1  0.40959000  0.80466000  0.23553000  1.0
  H  H59  1  0.90959000  0.69534000  0.26447000  1.0
  H  H60  1  0.57438000  0.31115000  0.67909000  1.0
  H  H61  1  0.07437000  0.18884000  0.82092000  1.0
  H  H62  1  0.42563000  0.68885000  0.32092000  1.0
  H  H63  1  0.92563000  0.81116000  0.17908000  1.0
  H  H64  1  0.24775000  0.54007000  0.76088000  1.0
  H  H65  1  0.74774000  0.95993000  0.73912000  1.0
  H  H66  1  0.75226000  0.45994000  0.23912000  1.0
  H  H67  1  0.25226000  0.04006000  0.26088000  1.0
  H  H68  1  0.25332000  0.42178000  0.84492000  1.0
  H  H69  1  0.75330000  0.07822000  0.65508000  1.0
  H  H70  1  0.74668000  0.57822000  0.15508000  1.0
  H  H71  1  0.24669000  0.92177000  0.34492000  1.0
  H  H72  1  0.29579000  0.56625000  0.66552000  1.0
  H  H73  1  0.79578000  0.93374000  0.83449000  1.0
  H  H74  1  0.70421000  0.43375000  0.33448000  1.0
  H  H75  1  0.20421000  0.06626000  0.16551000  1.0
  H  H76  1  0.52444000  0.54914000  0.65595000  1.0
  H  H77  1  0.02443000  0.95085000  0.84406000  1.0
  H  H78  1  0.47556000  0.45086000  0.34405000  1.0
  H  H79  1  0.97557000  0.04915000  0.15594000  1.0
  H  H80  1  0.37573000  0.45655000  0.62705000  1.0
  H  H81  1  0.87572000  0.04344000  0.87295000  1.0
  H  H82  1  0.62426000  0.54344000  0.37295000  1.0
  H  H83  1  0.12427000  0.95656000  0.12705000  1.0
  C  C84  1  0.78423000  0.65354000  0.97623000  1.0
  C  C85  1  0.28423000  0.84647000  0.52377000  1.0
  C  C86  1  0.21576000  0.34647000  0.02378000  1.0
  C  C87  1  0.71576000  0.15354000  0.47622000  1.0
  C  C88  1  0.65883000  0.74672000  0.95909000  1.0
  C  C89  1  0.15883000  0.75328000  0.54091000  1.0
  C  C90  1  0.34118000  0.25328000  0.04091000  1.0
  C  C91  1  0.84117000  0.24672000  0.45909000  1.0
  C  C92  1  0.45373000  0.74289000  0.83904000  1.0
  C  C93  1  0.95372000  0.75711000  0.66097000  1.0
  C  C94  1  0.54627000  0.25711000  0.16097000  1.0
  C  C95  1  0.04628000  0.24289000  0.33903000  1.0
  C  C96  1  0.51649000  0.71541000  0.78784000  1.0
  C  C97  1  0.01649000  0.78459000  0.71217000  1.0
  C  C98  1  0.48351000  0.28459000  0.21217000  1.0
  C  C99  1  0.98352000  0.21542000  0.28783000  1.0
  C  C100  1  0.50101000  0.79104000  0.74431000  1.0
  C  C101  1  0.00101000  0.70897000  0.75569000  1.0
  C  C102  1  0.49899000  0.20897000  0.25569000  1.0
  C  C103  1  0.99900000  0.29104000  0.24431000  1.0
  C  C104  1  0.42399000  0.89355000  0.75141000  1.0
  C  C105  1  0.92399000  0.60646000  0.74859000  1.0
  C  C106  1  0.57601000  0.10646000  0.24859000  1.0
  C  C107  1  0.07601000  0.39355000  0.25141000  1.0
  C  C108  1  0.36505000  0.91964000  0.80358000  1.0
  C  C109  1  0.86506000  0.58036000  0.69643000  1.0
  C  C110  1  0.63494000  0.08036000  0.19643000  1.0
  C  C111  1  0.13495000  0.41965000  0.30357000  1.0
  C  C112  1  0.37845000  0.84524000  0.84737000  1.0
  C  C113  1  0.87845000  0.65476000  0.65263000  1.0
  C  C114  1  0.62154000  0.15476000  0.15263000  1.0
  C  C115  1  0.12154000  0.34525000  0.34737000  1.0
  C  C116  1  0.40351000  0.97436000  0.70474000  1.0
  C  C117  1  0.90351000  0.52564000  0.79526000  1.0
  C  C118  1  0.59649000  0.02564000  0.29526000  1.0
  C  C119  1  0.09649000  0.47436000  0.20474000  1.0
  C  C120  1  0.83447000  0.38162000  0.93400000  1.0
  C  C121  1  0.33445000  0.11838000  0.56599000  1.0
  C  C122  1  0.16554000  0.61838000  0.06600000  1.0
  C  C123  1  0.66555000  0.88162000  0.43400000  1.0
  C  C124  1  0.73178000  0.31792000  0.89292000  1.0
  C  C125  1  0.23177000  0.18208000  0.60708000  1.0
  C  C126  1  0.26823000  0.68209000  0.10708000  1.0
  C  C127  1  0.76823000  0.81791000  0.39292000  1.0
  C  C128  1  0.42154000  0.30103000  0.80929000  1.0
  C  C129  1  0.92153000  0.19895000  0.69071000  1.0
  C  C130  1  0.57848000  0.69897000  0.19071000  1.0
  C  C131  1  0.07847000  0.80103000  0.30929000  1.0
  C  C132  1  0.51365000  0.27032000  0.76303000  1.0
  C  C133  1  0.01363000  0.22968000  0.73697000  1.0
  C  C134  1  0.48636000  0.72968000  0.23697000  1.0
  C  C135  1  0.98636000  0.77032000  0.26302000  1.0
  C  C136  1  0.50517000  0.33615000  0.71553000  1.0
  C  C137  1  0.00515000  0.16385000  0.78448000  1.0
  C  C138  1  0.49483000  0.66385000  0.28448000  1.0
  C  C139  1  0.99484000  0.83615000  0.21552000  1.0
  C  C140  1  0.40933000  0.43407000  0.71396000  1.0
  C  C141  1  0.90932000  0.06593000  0.78604000  1.0
  C  C142  1  0.59068000  0.56593000  0.28604000  1.0
  C  C143  1  0.09068000  0.93407000  0.21396000  1.0
  C  C144  1  0.32167000  0.46399000  0.76144000  1.0
  C  C145  1  0.82166000  0.03600000  0.73856000  1.0
  C  C146  1  0.67833000  0.53601000  0.23856000  1.0
  C  C147  1  0.17834000  0.96399000  0.26144000  1.0
  C  C148  1  0.32519000  0.39810000  0.80885000  1.0
  C  C149  1  0.82518000  0.10189000  0.69115000  1.0
  C  C150  1  0.67481000  0.60190000  0.19115000  1.0
  C  C151  1  0.17482000  0.89810000  0.30885000  1.0
  C  C152  1  0.40045000  0.50544000  0.66294000  1.0
  C  C153  1  0.90044000  0.99456000  0.83706000  1.0
  C  C154  1  0.59955000  0.49456000  0.33706000  1.0
  C  C155  1  0.09956000  0.00544000  0.16294000  1.0
  S  S156  1  0.44808000  0.64233000  0.89219000  1.0
  S  S157  1  0.94806000  0.85768000  0.60781000  1.0
  S  S158  1  0.55194000  0.35767000  0.10782000  1.0
  S  S159  1  0.05193000  0.14233000  0.39218000  1.0
  S  S160  1  0.43533000  0.22018000  0.87072000  1.0
  S  S161  1  0.93531000  0.27981000  0.62929000  1.0
  S  S162  1  0.56468000  0.77983000  0.12928000  1.0
  S  S163  1  0.06468000  0.72017000  0.37071000  1.0
  N  N164  1  0.48205000  0.71124000  0.94711000  1.0
  N  N165  1  0.98204000  0.78876000  0.55289000  1.0
  N  N166  1  0.51796000  0.28875000  0.05289000  1.0
  N  N167  1  0.01795000  0.21124000  0.44711000  1.0
  N  N168  1  0.55590000  0.29182000  0.91266000  1.0
  N  N169  1  0.05588000  0.20817000  0.58734000  1.0
  N  N170  1  0.44411000  0.70818000  0.08734000  1.0
  N  N171  1  0.94411000  0.79182000  0.41265000  1.0
  O  O172  1  0.73469000  0.59077000  0.01569000  1.0
  O  O173  1  0.23469000  0.90923000  0.48431000  1.0
  O  O174  1  0.26531000  0.40922000  0.98432000  1.0
  O  O175  1  0.76531000  0.09078000  0.51568000  1.0
  O  O176  1  0.07381000  0.35115000  0.05033000  1.0
  O  O177  1  0.57381000  0.14885000  0.44967000  1.0
  O  O178  1  0.92618000  0.64886000  0.94968000  1.0
  O  O179  1  0.42617000  0.85115000  0.55032000  1.0
  O  O180  1  0.58363000  0.56242000  0.88293000  1.0
  O  O181  1  0.08361000  0.93759000  0.61707000  1.0
  O  O182  1  0.41640000  0.43759000  0.11707000  1.0
  O  O183  1  0.91638000  0.06243000  0.38293000  1.0
  O  O184  1  0.26823000  0.60302000  0.89605000  1.0
  O  O185  1  0.76821000  0.89698000  0.60395000  1.0
  O  O186  1  0.73180000  0.39697000  0.10395000  1.0
  O  O187  1  0.23179000  0.10303000  0.39605000  1.0
  O  O188  1  0.77791000  0.38051000  0.98289000  1.0
  O  O189  1  0.27790000  0.11949000  0.51711000  1.0
  O  O190  1  0.22209000  0.61949000  0.01711000  1.0
  O  O191  1  0.72209000  0.88052000  0.48289000  1.0
  O  O192  1  0.03112000  0.56906000  0.08412000  1.0
  O  O193  1  0.53113000  0.93094000  0.41588000  1.0
  O  O194  1  0.96889000  0.43095000  0.91588000  1.0
  O  O195  1  0.46887000  0.06906000  0.58412000  1.0
  O  O196  1  0.26462000  0.21199000  0.89580000  1.0
  O  O197  1  0.76457000  0.28797000  0.60421000  1.0
  O  O198  1  0.73540000  0.78800000  0.10420000  1.0
  O  O199  1  0.23540000  0.71199000  0.39580000  1.0
  O  O200  1  0.53387000  0.12298000  0.85921000  1.0
  O  O201  1  0.03382000  0.37701000  0.64080000  1.0
  O  O202  1  0.46613000  0.87702000  0.14079000  1.0
  O  O203  1  0.96613000  0.62298000  0.35920000  1.0
