# generated using pymatgen
data_Ag2H12C7(SO5)2
_symmetry_space_group_name_H-M   'P 1'
_cell_length_a   7.51294000
_cell_length_b   8.42012000
_cell_length_c   11.08680000
_cell_angle_alpha   104.65400000
_cell_angle_beta   101.13300000
_cell_angle_gamma   90.46190000
_symmetry_Int_Tables_number   1
_chemical_formula_structural   Ag2H12C7(SO5)2
_chemical_formula_sum   'Ag4 H24 C14 S4 O20'
_cell_volume   664.56887949
_cell_formula_units_Z   2
loop_
 _symmetry_equiv_pos_site_id
 _symmetry_equiv_pos_as_xyz
  1  'x, y, z'
loop_
 _atom_site_type_symbol
 _atom_site_label
 _atom_site_symmetry_multiplicity
 _atom_site_fract_x
 _atom_site_fract_y
 _atom_site_fract_z
 _atom_site_occupancy
  Ag  Ag0  1  0.45962000  0.30704000  0.20111000  1.0
  Ag  Ag1  1  0.54038000  0.69296000  0.79889000  1.0
  Ag  Ag2  1  0.21545000  0.60231000  0.04791000  1.0
  Ag  Ag3  1  0.78454000  0.39769000  0.95209000  1.0
  H  H4  1  0.36552000  0.29618000  0.92528000  1.0
  H  H5  1  0.63448000  0.70381000  0.07471000  1.0
  H  H6  1  0.17842000  0.24330000  0.95365000  1.0
  H  H7  1  0.82158000  0.75670000  0.04635000  1.0
  H  H8  1  0.79703000  0.16926000  0.12367000  1.0
  H  H9  1  0.20297000  0.83074000  0.87633000  1.0
  H  H10  1  0.65395000  0.10353000  0.99791000  1.0
  H  H11  1  0.34605000  0.89646000  0.00209000  1.0
  H  H12  1  0.06445000  0.48520000  0.79315000  1.0
  H  H13  1  0.93554000  0.51480000  0.20685000  1.0
  H  H14  1  0.95560000  0.64454000  0.82582000  1.0
  H  H15  1  0.04440000  0.35547000  0.17418000  1.0
  H  H16  1  0.40672000  0.36130000  0.48348000  1.0
  H  H17  1  0.59328000  0.63870000  0.51652000  1.0
  H  H18  1  0.32879000  0.99433000  0.70654000  1.0
  H  H19  1  0.67121000  0.00568000  0.29346000  1.0
  H  H20  1  0.10068000  0.75621000  0.31400000  1.0
  H  H21  1  0.89932000  0.24379000  0.68600000  1.0
  H  H22  1  0.03891000  0.69668000  0.57541000  1.0
  H  H23  1  0.96109000  0.30332000  0.42459000  1.0
  H  H24  1  0.27294000  0.68255000  0.63067000  1.0
  H  H25  1  0.72706000  0.31745000  0.36933000  1.0
  H  H26  1  0.17247000  0.58988000  0.46853000  1.0
  H  H27  1  0.82753000  0.41012000  0.53148000  1.0
  C  C28  1  0.20403000  0.00556000  0.35331000  1.0
  C  C29  1  0.79597000  0.99444000  0.64669000  1.0
  C  C30  1  0.29040000  0.14610000  0.44484000  1.0
  C  C31  1  0.70960000  0.85390000  0.55516000  1.0
  C  C32  1  0.32830000  0.13921000  0.57277000  1.0
  C  C33  1  0.67170000  0.86079000  0.42723000  1.0
  C  C34  1  0.29265000  0.99475000  0.60648000  1.0
  C  C35  1  0.70735000  0.00526000  0.39352000  1.0
  C  C36  1  0.21245000  0.85359000  0.51443000  1.0
  C  C37  1  0.78755000  0.14642000  0.48557000  1.0
  C  C38  1  0.16623000  0.86283000  0.38792000  1.0
  C  C39  1  0.83377000  0.13717000  0.61208000  1.0
  C  C40  1  0.17207000  0.69748000  0.54848000  1.0
  C  C41  1  0.82793000  0.30252000  0.45151000  1.0
  S  S42  1  0.13578000  0.01165000  0.19219000  1.0
  S  S43  1  0.86421000  0.98835000  0.80781000  1.0
  S  S44  1  0.39391000  0.32339000  0.69391000  1.0
  S  S45  1  0.60609000  0.67661000  0.30609000  1.0
  O  O46  1  0.29074000  0.31468000  0.99155000  1.0
  O  O47  1  0.70926000  0.68532000  0.00845000  1.0
  O  O48  1  0.30298000  0.03603000  0.14579000  1.0
  O  O49  1  0.69702000  0.96397000  0.85421000  1.0
  O  O50  1  0.67732000  0.19230000  0.07777000  1.0
  O  O51  1  0.32267000  0.80769000  0.92223000  1.0
  O  O52  1  0.03741000  0.85288000  0.12389000  1.0
  O  O53  1  0.96259000  0.14712000  0.87611000  1.0
  O  O54  1  0.97732000  0.53738000  0.84510000  1.0
  O  O55  1  0.02268000  0.46263000  0.15490000  1.0
  O  O56  1  0.01858000  0.15160000  0.19395000  1.0
  O  O57  1  0.98141000  0.84840000  0.80605000  1.0
  O  O58  1  0.22519000  0.40355000  0.71089000  1.0
  O  O59  1  0.77481000  0.59645000  0.28911000  1.0
  O  O60  1  0.49037000  0.27820000  0.80846000  1.0
  O  O61  1  0.50963000  0.72180000  0.19154000  1.0
  O  O62  1  0.51404000  0.42232000  0.64411000  1.0
  O  O63  1  0.48596000  0.57768000  0.35589000  1.0
  O  O64  1  0.33161000  0.28190000  0.40806000  1.0
  O  O65  1  0.66839000  0.71810000  0.59193000  1.0
