# generated using pymatgen
data_CuPH9C11(NO3)2
_symmetry_space_group_name_H-M   'P 1'
_cell_length_a   8.16787000
_cell_length_b   8.72987000
_cell_length_c   9.44412000
_cell_angle_alpha   103.43100000
_cell_angle_beta   105.59600000
_cell_angle_gamma   103.98900000
_symmetry_Int_Tables_number   1
_chemical_formula_structural   CuPH9C11(NO3)2
_chemical_formula_sum   'Cu2 P2 H18 C22 N4 O12'
_cell_volume   596.69369827
_cell_formula_units_Z   2
loop_
 _symmetry_equiv_pos_site_id
 _symmetry_equiv_pos_as_xyz
  1  'x, y, z'
loop_
 _atom_site_type_symbol
 _atom_site_label
 _atom_site_symmetry_multiplicity
 _atom_site_fract_x
 _atom_site_fract_y
 _atom_site_fract_z
 _atom_site_occupancy
  Cu  Cu0  1  0.60479000  0.75023000  0.74827000  1.0
  Cu  Cu1  1  0.39522000  0.24977000  0.25173000  1.0
  P  P2  1  0.71349000  0.46019000  0.58064000  1.0
  P  P3  1  0.28651000  0.53981000  0.41936000  1.0
  H  H4  1  0.75779000  0.52156000  0.37969000  1.0
  H  H5  1  0.24221000  0.47844000  0.62031000  1.0
  H  H6  1  0.95787000  0.43424000  0.72778000  1.0
  H  H7  1  0.04213000  0.56576000  0.27222000  1.0
  H  H8  1  0.87266000  0.67359000  0.98534000  1.0
  H  H9  1  0.12734000  0.32641000  0.01466000  1.0
  H  H10  1  0.07076000  0.82207000  0.26399000  1.0
  H  H11  1  0.92924000  0.17793000  0.73601000  1.0
  H  H12  1  0.06403000  0.10958000  0.39191000  1.0
  H  H13  1  0.93597000  0.89042000  0.60808000  1.0
  H  H14  1  0.86658000  0.22941000  0.24385000  1.0
  H  H15  1  0.13342000  0.77059000  0.75615000  1.0
  H  H16  1  0.49988000  0.39997000  0.86437000  1.0
  H  H17  1  0.50012000  0.60003000  0.13563000  1.0
  H  H18  1  0.33526000  0.18771000  0.60491000  1.0
  H  H19  1  0.66474000  0.81229000  0.39509000  1.0
  H  H20  1  0.37799000  0.90374000  0.56022000  1.0
  H  H21  1  0.62200000  0.09626000  0.43978000  1.0
  C  C22  1  0.87543000  0.79671000  0.04753000  1.0
  C  C23  1  0.12457000  0.20329000  0.95247000  1.0
  C  C24  1  0.98492000  0.88046000  0.20192000  1.0
  C  C25  1  0.01509000  0.11954000  0.79808000  1.0
  C  C26  1  0.98102000  0.03775000  0.27200000  1.0
  C  C27  1  0.01898000  0.96225000  0.72800000  1.0
  C  C28  1  0.86961000  0.10749000  0.18718000  1.0
  C  C29  1  0.13039000  0.89251000  0.81282000  1.0
  C  C30  1  0.76621000  0.01989000  0.03180000  1.0
  C  C31  1  0.23379000  0.98011000  0.96820000  1.0
  C  C32  1  0.64925000  0.08032000  0.92471000  1.0
  C  C33  1  0.35075000  0.91968000  0.07529000  1.0
  C  C34  1  0.63109000  0.23945000  0.95766000  1.0
  C  C35  1  0.36890000  0.76055000  0.04234000  1.0
  C  C36  1  0.51457000  0.27676000  0.84203000  1.0
  C  C37  1  0.48543000  0.72324000  0.15797000  1.0
  C  C38  1  0.42155000  0.15814000  0.69712000  1.0
  C  C39  1  0.57845000  0.84185000  0.30288000  1.0
  C  C40  1  0.44620000  0.00302000  0.67078000  1.0
  C  C41  1  0.55380000  0.99698000  0.32922000  1.0
  C  C42  1  0.73787000  0.37837000  0.10798000  1.0
  C  C43  1  0.26213000  0.62163000  0.89202000  1.0
  N  N44  1  0.77021000  0.86521000  0.96608000  1.0
  N  N45  1  0.22979000  0.13479000  0.03392000  1.0
  N  N46  1  0.55636000  0.96653000  0.78164000  1.0
  N  N47  1  0.44364000  0.03347000  0.21836000  1.0
  O  O48  1  0.70503000  0.56922000  0.72901000  1.0
  O  O49  1  0.29497000  0.43078000  0.27099000  1.0
  O  O50  1  0.53771000  0.32701000  0.47094000  1.0
  O  O51  1  0.46229000  0.67299000  0.52906000  1.0
  O  O52  1  0.79759000  0.57909000  0.49616000  1.0
  O  O53  1  0.20241000  0.42090000  0.50384000  1.0
  O  O54  1  0.84661000  0.36168000  0.63111000  1.0
  O  O55  1  0.15340000  0.63831000  0.36889000  1.0
  O  O56  1  0.65803000  0.40949000  0.20464000  1.0
  O  O57  1  0.34196000  0.59051000  0.79536000  1.0
  O  O58  1  0.89589000  0.45481000  0.12109000  1.0
  O  O59  1  0.10411000  0.54519000  0.87891000  1.0
