# generated using pymatgen
data_ZnH3C8NO4
_symmetry_space_group_name_H-M   'P 1'
_cell_length_a   8.15770000
_cell_length_b   9.32617000
_cell_length_c   13.16180000
_cell_angle_alpha   89.99890000
_cell_angle_beta   77.02500000
_cell_angle_gamma   89.99720000
_symmetry_Int_Tables_number   1
_chemical_formula_structural   ZnH3C8NO4
_chemical_formula_sum   'Zn2 H6 C16 N2 O8'
_cell_volume   975.78465096
_cell_formula_units_Z   2
loop_
 _symmetry_equiv_pos_site_id
 _symmetry_equiv_pos_as_xyz
  1  'x, y, z'
loop_
 _atom_site_type_symbol
 _atom_site_label
 _atom_site_symmetry_multiplicity
 _atom_site_fract_x
 _atom_site_fract_y
 _atom_site_fract_z
 _atom_site_occupancy
  Zn  Zn0  1  0.33633000  0.50001000  0.51533000  1.0
  Zn  Zn1  1  0.66365000  0.49999000  0.48467000  1.0
  H  H2  1  0.71652000  0.50000000  0.80307000  1.0
  H  H3  1  0.28349000  0.50000000  0.19693000  1.0
  H  H4  1  0.17782000  0.50000000  0.85173000  1.0
  H  H5  1  0.82218000  0.50000000  0.14827000  1.0
  H  H6  1  0.85082000  0.49999000  0.95555000  1.0
  H  H7  1  0.14919000  0.50000000  0.04445000  1.0
  C  C8  1  0.50000000  0.22029000  0.50000000  1.0
  C  C9  1  0.28823000  0.50000000  0.88537000  1.0
  C  C10  1  0.40669000  0.50000000  0.14341000  1.0
  C  C11  1  0.59330000  0.50000000  0.85659000  1.0
  C  C12  1  0.41822000  0.50000000  0.03460000  1.0
  C  C13  1  0.58179000  0.50000000  0.96540000  1.0
  C  C14  1  0.50000000  0.06508000  0.49999000  1.0
  C  C15  1  0.50000000  0.93492000  0.50000000  1.0
  C  C16  1  0.50000000  0.77971000  0.50000000  1.0
  C  C17  1  0.53515000  0.50000000  0.29838000  1.0
  C  C18  1  0.46485000  0.50000000  0.70162000  1.0
  C  C19  1  0.44986000  0.50000000  0.81676000  1.0
  C  C20  1  0.55015000  0.50000000  0.18324000  1.0
  C  C21  1  0.72684000  0.50000000  0.00845000  1.0
  C  C22  1  0.27317000  0.50000000  0.99155000  1.0
  C  C23  1  0.71177000  0.50000000  0.11463000  1.0
  N  N24  1  0.93839000  0.50000000  0.48889000  1.0
  N  N25  1  0.06161000  0.50001000  0.51112000  1.0
  O  O26  1  0.35692000  0.28117000  0.51245000  1.0
  O  O27  1  0.64307000  0.71882000  0.48756000  1.0
  O  O28  1  0.64308000  0.28116000  0.48754000  1.0
  O  O29  1  0.35692000  0.71884000  0.51244000  1.0
  O  O30  1  0.38705000  0.50000000  0.35696000  1.0
  O  O31  1  0.61294000  0.49999000  0.64304000  1.0
  O  O32  1  0.67172000  0.50000000  0.33077000  1.0
  O  O33  1  0.32828000  0.50001000  0.66923000  1.0
