# generated using pymatgen
data_CoH21C20N4O5
_symmetry_space_group_name_H-M   'P 1'
_cell_length_a   8.09968000
_cell_length_b   17.21550000
_cell_length_c   17.58720000
_cell_angle_alpha   90.00030000
_cell_angle_beta   90.00010000
_cell_angle_gamma   81.81170000
_symmetry_Int_Tables_number   1
_chemical_formula_structural   CoH21C20N4O5
_chemical_formula_sum   'Co4 H84 C80 N16 O20'
_cell_volume   2427.35890368
_cell_formula_units_Z   4
loop_
 _symmetry_equiv_pos_site_id
 _symmetry_equiv_pos_as_xyz
  1  'x, y, z'
loop_
 _atom_site_type_symbol
 _atom_site_label
 _atom_site_symmetry_multiplicity
 _atom_site_fract_x
 _atom_site_fract_y
 _atom_site_fract_z
 _atom_site_occupancy
  Co  Co0  1  0.11093000  0.76590000  0.18985000  1.0
  Co  Co1  1  0.38907000  0.73410000  0.68985000  1.0
  Co  Co2  1  0.88907000  0.23410000  0.81015000  1.0
  Co  Co3  1  0.61093000  0.26590000  0.31015000  1.0
  H  H4  1  0.33465000  0.49037000  0.27814000  1.0
  H  H5  1  0.16534000  0.00963000  0.77814000  1.0
  H  H6  1  0.66535000  0.50963000  0.72186000  1.0
  H  H7  1  0.83465000  0.99037000  0.22186000  1.0
  H  H8  1  0.00520000  0.38199000  0.42256000  1.0
  H  H9  1  0.49480000  0.11801000  0.92256000  1.0
  H  H10  1  0.99480000  0.61802000  0.57744000  1.0
  H  H11  1  0.50519000  0.88198000  0.07744000  1.0
  H  H12  1  0.85142000  0.61543000  0.33426000  1.0
  H  H13  1  0.64857000  0.88457000  0.83426000  1.0
  H  H14  1  0.14858000  0.38457000  0.66574000  1.0
  H  H15  1  0.35142000  0.11543000  0.16574000  1.0
  H  H16  1  0.72514000  0.39294000  0.41809000  1.0
  H  H17  1  0.77485000  0.10706000  0.91809000  1.0
  H  H18  1  0.27486000  0.60706000  0.58191000  1.0
  H  H19  1  0.22514000  0.89294000  0.08191000  1.0
  H  H20  1  0.77643000  0.43139000  0.50844000  1.0
  H  H21  1  0.72357000  0.06861000  0.00845000  1.0
  H  H22  1  0.22357000  0.56861000  0.49155000  1.0
  H  H23  1  0.27643000  0.93139000  0.99155000  1.0
  H  H24  1  0.45935000  0.68879000  0.11197000  1.0
  H  H25  1  0.04066000  0.81121000  0.61197000  1.0
  H  H26  1  0.54065000  0.31121000  0.88803000  1.0
  H  H27  1  0.95935000  0.18879000  0.38803000  1.0
  H  H28  1  0.21693000  0.73087000  0.89971000  1.0
  H  H29  1  0.28308000  0.76913000  0.39971000  1.0
  H  H30  1  0.78307000  0.26913000  0.10029000  1.0
  H  H31  1  0.71692000  0.23087000  0.60029000  1.0
  H  H32  1  0.99046000  0.77558000  0.01892000  1.0
  H  H33  1  0.50955000  0.72442000  0.51892000  1.0
  H  H34  1  0.00954000  0.22442000  0.98108000  1.0
  H  H35  1  0.49045000  0.27558000  0.48108000  1.0
  H  H36  1  0.61808000  0.63606000  0.99431000  1.0
  H  H37  1  0.88193000  0.86394000  0.49431000  1.0
  H  H38  1  0.38193000  0.36394000  0.00569000  1.0
  H  H39  1  0.11807000  0.13606000  0.50569000  1.0
  H  H40  1  0.51197000  0.64212000  0.90546000  1.0
  H  H41  1  0.98803000  0.85788000  0.40546000  1.0
  H  H42  1  0.48803000  0.35788000  0.09454000  1.0
  H  H43  1  0.01197000  0.14212000  0.59454000  1.0
  H  H44  1  0.63430000  0.78099000  0.98780000  1.0
  H  H45  1  0.86570000  0.71901000  0.48780000  1.0
  H  H46  1  0.36570000  0.21901000  0.01220000  1.0
  H  H47  1  0.13430000  0.28099000  0.51220000  1.0
  H  H48  1  0.54555000  0.78384000  0.89495000  1.0
  H  H49  1  0.95445000  0.71616000  0.39494000  1.0
  H  H50  1  0.45445000  0.21616000  0.10506000  1.0
  H  H51  1  0.04555000  0.28384000  0.60506000  1.0
  H  H52  1  0.01061000  0.77909000  0.75097000  1.0
  H  H53  1  0.48939000  0.72091000  0.25097000  1.0
  H  H54  1  0.98940000  0.22091000  0.24903000  1.0
  H  H55  1  0.51061000  0.27909000  0.74903000  1.0
  H  H56  1  0.34483000  0.56816000  0.76593000  1.0
  H  H57  1  0.15517000  0.93184000  0.26593000  1.0
  H  H58  1  0.65517000  0.43184000  0.23407000  1.0
  H  H59  1  0.84483000  0.06816000  0.73407000  1.0
  H  H60  1  0.03946000  0.54510000  0.82979000  1.0
  H  H61  1  0.46053000  0.95490000  0.32979000  1.0
  H  H62  1  0.96053000  0.45490000  0.17021000  1.0
  H  H63  1  0.53946000  0.04510000  0.67021000  1.0
  H  H64  1  0.73037000  0.72190000  0.78412000  1.0
  H  H65  1  0.76963000  0.77811000  0.28412000  1.0
  H  H66  1  0.26963000  0.27811000  0.21588000  1.0
  H  H67  1  0.23038000  0.22190000  0.71588000  1.0
  H  H68  1  0.75306000  0.62826000  0.82717000  1.0
  H  H69  1  0.74693000  0.87174000  0.32717000  1.0
  H  H70  1  0.24693000  0.37174000  0.17283000  1.0
  H  H71  1  0.25306000  0.12826000  0.67283000  1.0
  H  H72  1  0.85758000  0.77770000  0.89771000  1.0
  H  H73  1  0.64243000  0.72230000  0.39771000  1.0
  H  H74  1  0.14242000  0.22230000  0.10229000  1.0
  H  H75  1  0.35757000  0.27770000  0.60229000  1.0
  H  H76  1  0.87637000  0.68592000  0.94384000  1.0
  H  H77  1  0.62363000  0.81408000  0.44384000  1.0
  H  H78  1  0.12363000  0.31408000  0.05616000  1.0
  H  H79  1  0.37637000  0.18592000  0.55616000  1.0
  H  H80  1  0.47031000  0.41415000  0.49295000  1.0
  H  H81  1  0.02969000  0.08584000  0.99295000  1.0
  H  H82  1  0.52970000  0.58585000  0.50705000  1.0
  H  H83  1  0.97030000  0.91415000  0.00705000  1.0
  H  H84  1  0.45566000  0.48219000  0.41740000  1.0
  H  H85  1  0.04434000  0.01781000  0.91740000  1.0
  H  H86  1  0.54434000  0.51781000  0.58260000  1.0
  H  H87  1  0.95566000  0.98219000  0.08260000  1.0
  C  C88  1  0.09816000  0.56053000  0.30229000  1.0
  C  C89  1  0.40184000  0.93947000  0.80229000  1.0
  C  C90  1  0.90185000  0.43947000  0.69771000  1.0
  C  C91  1  0.59815000  0.06053000  0.19771000  1.0
  C  C92  1  0.21560000  0.49267000  0.30723000  1.0
  C  C93  1  0.28440000  0.00733000  0.80723000  1.0
  C  C94  1  0.78440000  0.50733000  0.69276000  1.0
  C  C95  1  0.71560000  0.99267000  0.19276000  1.0
  C  C96  1  0.17966000  0.42878000  0.34998000  1.0
  C  C97  1  0.32034000  0.07122000  0.84998000  1.0
  C  C98  1  0.82034000  0.57122000  0.65002000  1.0
  C  C99  1  0.67966000  0.92878000  0.15002000  1.0
  C  C100  1  0.02775000  0.43258000  0.38910000  1.0
  C  C101  1  0.47225000  0.06742000  0.88911000  1.0
  C  C102  1  0.97226000  0.56742000  0.61089000  1.0
  C  C103  1  0.52774000  0.93258000  0.11089000  1.0
  C  C104  1  0.91013000  0.50035000  0.38367000  1.0
  C  C105  1  0.58987000  0.99965000  0.88368000  1.0
  C  C106  1  0.08988000  0.49965000  0.61632000  1.0
  C  C107  1  0.41012000  0.00035000  0.11632000  1.0
  C  C108  1  0.94526000  0.56379000  0.33954000  1.0
  C  C109  1  0.55473000  0.93621000  0.83955000  1.0
  C  C110  1  0.05474000  0.43621000  0.66045000  1.0
  C  C111  1  0.44526000  0.06379000  0.16045000  1.0
  C  C112  1  0.70348000  0.44446000  0.45570000  1.0
  C  C113  1  0.79652000  0.05554000  0.95570000  1.0
  C  C114  1  0.29652000  0.55555000  0.54429000  1.0
  C  C115  1  0.20348000  0.94445000  0.04430000  1.0
  C  C116  1  0.36074000  0.70666000  0.07132000  1.0
  C  C117  1  0.13927000  0.79334000  0.57132000  1.0
  C  C118  1  0.63926000  0.29334000  0.92868000  1.0
  C  C119  1  0.86074000  0.20666000  0.42868000  1.0
  C  C120  1  0.23076000  0.72904000  0.96102000  1.0
  C  C121  1  0.26924000  0.77096000  0.46102000  1.0
  C  C122  1  0.76924000  0.27096000  0.03898000  1.0
  C  C123  1  0.73076000  0.22904000  0.53898000  1.0
  C  C124  1  0.12154000  0.75157000  0.01933000  1.0
  C  C125  1  0.37847000  0.74842000  0.51933000  1.0
  C  C126  1  0.87846000  0.24842000  0.98067000  1.0
  C  C127  1  0.62154000  0.25157000  0.48067000  1.0
  C  C128  1  0.53888000  0.67581000  0.95597000  1.0
  C  C129  1  0.96113000  0.82419000  0.45597000  1.0
  C  C130  1  0.46112000  0.32419000  0.04403000  1.0
  C  C131  1  0.03887000  0.17581000  0.54403000  1.0
  C  C132  1  0.62406000  0.74669000  0.93563000  1.0
  C  C133  1  0.87594000  0.75331000  0.43562000  1.0
  C  C134  1  0.37594000  0.25331000  0.06438000  1.0
  C  C135  1  0.12406000  0.24669000  0.56438000  1.0
  C  C136  1  0.06108000  0.71860000  0.76302000  1.0
  C  C137  1  0.43892000  0.78140000  0.26302000  1.0
  C  C138  1  0.93892000  0.28140000  0.23698000  1.0
  C  C139  1  0.56108000  0.21860000  0.73698000  1.0
  C  C140  1  0.23074000  0.60865000  0.77365000  1.0
  C  C141  1  0.26926000  0.89135000  0.27365000  1.0
  C  C142  1  0.76926000  0.39134000  0.22635000  1.0
  C  C143  1  0.73074000  0.10865000  0.72635000  1.0
  C  C144  1  0.08115000  0.59665000  0.80523000  1.0
  C  C145  1  0.41885000  0.90335000  0.30523000  1.0
  C  C146  1  0.91885000  0.40335000  0.19477000  1.0
  C  C147  1  0.58115000  0.09665000  0.69477000  1.0
  C  C148  1  0.80398000  0.68401000  0.82568000  1.0
  C  C149  1  0.69602000  0.81599000  0.32568000  1.0
  C  C150  1  0.19602000  0.31599000  0.17432000  1.0
  C  C151  1  0.30398000  0.18401000  0.67432000  1.0
  C  C152  1  0.79906000  0.72405000  0.90333000  1.0
  C  C153  1  0.70095000  0.77595000  0.40333000  1.0
  C  C154  1  0.20094000  0.27595000  0.09667000  1.0
  C  C155  1  0.29906000  0.22405000  0.59667000  1.0
  C  C156  1  0.30405000  0.35518000  0.35474000  1.0
  C  C157  1  0.19596000  0.14483000  0.85474000  1.0
  C  C158  1  0.69595000  0.64483000  0.64526000  1.0
  C  C159  1  0.80405000  0.85517000  0.14526000  1.0
  C  C160  1  0.13771000  0.62947000  0.25778000  1.0
  C  C161  1  0.36229000  0.87053000  0.75779000  1.0
  C  C162  1  0.86230000  0.37054000  0.74221000  1.0
  C  C163  1  0.63771000  0.12947000  0.24222000  1.0
  C  C164  1  0.51910000  0.46645000  0.47166000  1.0
  C  C165  1  0.98090000  0.03355000  0.97166000  1.0
  C  C166  1  0.48090000  0.53355000  0.52833000  1.0
  C  C167  1  0.01910000  0.96645000  0.02834000  1.0
  N  N168  1  0.20421000  0.73737000  0.08780000  1.0
  N  N169  1  0.29580000  0.76262000  0.58780000  1.0
  N  N170  1  0.79579000  0.26263000  0.91220000  1.0
  N  N171  1  0.70421000  0.23737000  0.41220000  1.0
  N  N172  1  0.38104000  0.70025000  0.99501000  1.0
  N  N173  1  0.11897000  0.79975000  0.49501000  1.0
  N  N174  1  0.61896000  0.29975000  0.00499000  1.0
  N  N175  1  0.88103000  0.20025000  0.50499000  1.0
  N  N176  1  0.21671000  0.68521000  0.74759000  1.0
  N  N177  1  0.28328000  0.81479000  0.24759000  1.0
  N  N178  1  0.78328000  0.31479000  0.25242000  1.0
  N  N179  1  0.71672000  0.18521000  0.75242000  1.0
  N  N180  1  0.97525000  0.66647000  0.79756000  1.0
  N  N181  1  0.52475000  0.83353000  0.29756000  1.0
  N  N182  1  0.02474000  0.33353000  0.20244000  1.0
  N  N183  1  0.47525000  0.16647000  0.70244000  1.0
  O  O184  1  0.01701000  0.68767000  0.24992000  1.0
  O  O185  1  0.48298000  0.81232000  0.74993000  1.0
  O  O186  1  0.98299000  0.31232000  0.75007000  1.0
  O  O187  1  0.51701000  0.18767000  0.25008000  1.0
  O  O188  1  0.28013000  0.63137000  0.23008000  1.0
  O  O189  1  0.21986000  0.86863000  0.73008000  1.0
  O  O190  1  0.71987000  0.36863000  0.76992000  1.0
  O  O191  1  0.78013000  0.13137000  0.26992000  1.0
  O  O192  1  0.75793000  0.51065000  0.41791000  1.0
  O  O193  1  0.74207000  0.98935000  0.91792000  1.0
  O  O194  1  0.24207000  0.48936000  0.58208000  1.0
  O  O195  1  0.25793000  0.01064000  0.08208000  1.0
  O  O196  1  0.44086000  0.35765000  0.31615000  1.0
  O  O197  1  0.05914000  0.14236000  0.81615000  1.0
  O  O198  1  0.55914000  0.64235000  0.68384000  1.0
  O  O199  1  0.94086000  0.85764000  0.18385000  1.0
  O  O200  1  0.27388000  0.29748000  0.39293000  1.0
  O  O201  1  0.22613000  0.20253000  0.89292000  1.0
  O  O202  1  0.72611000  0.70253000  0.60707000  1.0
  O  O203  1  0.77388000  0.79747000  0.10708000  1.0
