# generated using pymatgen
data_AlH7C12O5
_symmetry_space_group_name_H-M   'P 1'
_cell_length_a   6.68991000
_cell_length_b   17.28480000
_cell_length_c   19.44180000
_cell_angle_alpha   108.12100000
_cell_angle_beta   89.99890000
_cell_angle_gamma   90.00000000
_symmetry_Int_Tables_number   1
_chemical_formula_structural   AlH7C12O5
_chemical_formula_sum   'Al4 H28 C48 O20'
_cell_volume   2136.62524146
_cell_formula_units_Z   4
loop_
 _symmetry_equiv_pos_site_id
 _symmetry_equiv_pos_as_xyz
  1  'x, y, z'
loop_
 _atom_site_type_symbol
 _atom_site_label
 _atom_site_symmetry_multiplicity
 _atom_site_fract_x
 _atom_site_fract_y
 _atom_site_fract_z
 _atom_site_occupancy
  Al  Al0  1  0.89535000  0.50044000  0.50014000  1.0
  Al  Al1  1  0.39535000  0.49956000  0.49987000  1.0
  Al  Al2  1  0.36902000  0.00028000  0.00080000  1.0
  Al  Al3  1  0.86902000  0.99972000  0.99920000  1.0
  H  H4  1  0.42502000  0.18834000  0.19041000  1.0
  H  H5  1  0.92503000  0.81162000  0.80961000  1.0
  H  H6  1  0.96585000  0.20077000  0.20096000  1.0
  H  H7  1  0.46586000  0.79928000  0.79901000  1.0
  H  H8  1  0.44054000  0.30126000  0.30493000  1.0
  H  H9  1  0.94052000  0.69873000  0.69507000  1.0
  H  H10  1  0.98017000  0.30269000  0.30121000  1.0
  H  H11  1  0.48016000  0.69731000  0.69881000  1.0
  H  H12  1  0.42885000  0.41315000  0.67946000  1.0
  H  H13  1  0.92886000  0.58684000  0.32054000  1.0
  H  H14  1  0.85680000  0.31620000  0.59394000  1.0
  H  H15  1  0.35680000  0.68379000  0.40607000  1.0
  H  H16  1  0.69339000  0.20889000  0.63560000  1.0
  H  H17  1  0.19339000  0.79110000  0.36441000  1.0
  H  H18  1  0.68667000  0.12499000  0.71786000  1.0
  H  H19  1  0.18666000  0.87500000  0.28214000  1.0
  H  H20  1  0.83786000  0.08659000  0.82031000  1.0
  H  H21  1  0.33784000  0.91339000  0.17969000  1.0
  H  H22  1  0.40870000  0.18431000  0.90659000  1.0
  H  H23  1  0.90869000  0.81568000  0.09341000  1.0
  H  H24  1  0.57349000  0.29076000  0.86415000  1.0
  H  H25  1  0.07348000  0.70923000  0.13584000  1.0
  H  H26  1  0.58083000  0.37433000  0.78167000  1.0
  H  H27  1  0.08083000  0.62566000  0.21833000  1.0
  H  H28  1  0.64667000  0.39285000  0.47870000  1.0
  H  H29  1  0.14667000  0.60715000  0.52129000  1.0
  H  H30  1  0.61916000  0.10703000  0.01906000  1.0
  H  H31  1  0.11916000  0.89297000  0.98095000  1.0
  C  C32  1  0.64563000  0.58150000  0.41844000  1.0
  C  C33  1  0.14561000  0.41849000  0.58156000  1.0
  C  C34  1  0.64411000  0.61310000  0.61140000  1.0
  C  C35  1  0.14413000  0.38690000  0.38860000  1.0
  C  C36  1  0.28336000  0.21391000  0.21542000  1.0
  C  C37  1  0.78337000  0.78608000  0.78458000  1.0
  C  C38  1  0.11479000  0.18005000  0.18061000  1.0
  C  C39  1  0.61481000  0.81996000  0.81939000  1.0
  C  C40  1  0.29261000  0.28072000  0.28273000  1.0
  C  C41  1  0.79260000  0.71928000  0.71727000  1.0
  C  C42  1  0.13243000  0.31959000  0.31993000  1.0
  C  C43  1  0.63242000  0.68041000  0.68008000  1.0
  C  C44  1  0.30271000  0.37328000  0.67988000  1.0
  C  C45  1  0.80272000  0.62672000  0.32012000  1.0
  C  C46  1  0.14298000  0.36903000  0.63232000  1.0
  C  C47  1  0.64299000  0.63097000  0.36768000  1.0
  C  C48  1  0.97991000  0.31791000  0.63116000  1.0
  C  C49  1  0.47991000  0.68208000  0.36884000  1.0
  C  C50  1  0.97520000  0.26841000  0.67617000  1.0
  C  C51  1  0.47520000  0.73159000  0.32384000  1.0
  C  C52  1  0.13541000  0.27396000  0.72623000  1.0
  C  C53  1  0.63541000  0.72603000  0.27377000  1.0
  C  C54  1  0.29963000  0.32786000  0.72849000  1.0
  C  C55  1  0.79963000  0.67214000  0.27151000  1.0
  C  C56  1  0.81485000  0.21261000  0.67395000  1.0
  C  C57  1  0.31485000  0.78739000  0.32606000  1.0
  C  C58  1  0.81112000  0.16629000  0.71939000  1.0
  C  C59  1  0.31112000  0.83371000  0.28061000  1.0
  C  C60  1  0.96724000  0.17182000  0.77128000  1.0
  C  C61  1  0.46723000  0.82818000  0.22873000  1.0
  C  C62  1  0.13126000  0.22584000  0.77364000  1.0
  C  C63  1  0.63126000  0.77415000  0.22636000  1.0
  C  C64  1  0.29125000  0.23148000  0.82381000  1.0
  C  C65  1  0.79124000  0.76852000  0.17618000  1.0
  C  C66  1  0.45192000  0.28708000  0.82585000  1.0
  C  C67  1  0.95192000  0.71292000  0.17415000  1.0
  C  C68  1  0.45599000  0.33322000  0.78025000  1.0
  C  C69  1  0.95598000  0.66677000  0.21975000  1.0
  C  C70  1  0.96384000  0.12659000  0.82002000  1.0
  C  C71  1  0.46382000  0.87340000  0.17998000  1.0
  C  C72  1  0.12285000  0.13120000  0.86795000  1.0
  C  C73  1  0.62284000  0.86880000  0.13205000  1.0
  C  C74  1  0.28599000  0.18231000  0.86915000  1.0
  C  C75  1  0.78598000  0.81768000  0.13085000  1.0
  C  C76  1  0.61901000  0.88740000  0.88826000  1.0
  C  C77  1  0.11900000  0.11260000  0.11174000  1.0
  C  C78  1  0.61926000  0.91806000  0.08115000  1.0
  C  C79  1  0.11926000  0.08194000  0.91886000  1.0
  O  O80  1  0.47469000  0.58603000  0.58400000  1.0
  O  O81  1  0.97470000  0.41397000  0.41601000  1.0
  O  O82  1  0.81601000  0.56192000  0.43716000  1.0
  O  O83  1  0.31599000  0.43808000  0.56284000  1.0
  O  O84  1  0.81491000  0.58783000  0.58447000  1.0
  O  O85  1  0.31492000  0.41217000  0.41554000  1.0
  O  O86  1  0.97644000  0.43612000  0.56023000  1.0
  O  O87  1  0.47645000  0.56388000  0.43978000  1.0
  O  O88  1  0.64552000  0.45166000  0.49277000  1.0
  O  O89  1  0.14552000  0.54834000  0.50723000  1.0
  O  O90  1  0.78788000  0.93493000  0.05886000  1.0
  O  O91  1  0.28787000  0.06509000  0.94118000  1.0
  O  O92  1  0.44892000  0.91309000  0.91610000  1.0
  O  O93  1  0.94891000  0.08692000  0.08390000  1.0
  O  O94  1  0.44856000  0.93835000  0.06328000  1.0
  O  O95  1  0.94857000  0.06163000  0.93671000  1.0
  O  O96  1  0.28902000  0.08602000  0.08521000  1.0
  O  O97  1  0.78902000  0.91396000  0.91481000  1.0
  O  O98  1  0.61924000  0.04842000  0.00754000  1.0
  O  O99  1  0.11924000  0.95158000  0.99247000  1.0
