# generated using pymatgen
data_AgH28C15S2N5O7
_symmetry_space_group_name_H-M   'P 1'
_cell_length_a   9.48560000
_cell_length_b   14.99020000
_cell_length_c   19.03612365
_cell_angle_alpha   112.87313872
_cell_angle_beta   90.00010040
_cell_angle_gamma   90.00000000
_symmetry_Int_Tables_number   1
_chemical_formula_structural   AgH28C15S2N5O7
_chemical_formula_sum   'Ag4 H112 C60 S8 N20 O28'
_cell_volume   2493.92707435
_cell_formula_units_Z   4
loop_
 _symmetry_equiv_pos_site_id
 _symmetry_equiv_pos_as_xyz
  1  'x, y, z'
loop_
 _atom_site_type_symbol
 _atom_site_label
 _atom_site_symmetry_multiplicity
 _atom_site_fract_x
 _atom_site_fract_y
 _atom_site_fract_z
 _atom_site_occupancy
  Ag  Ag0  1  0.00116000  0.04753000  0.60714000  1.0
  Ag  Ag1  1  0.50117000  0.45247000  0.89287000  1.0
  Ag  Ag2  1  0.99884000  0.95248000  0.39287000  1.0
  Ag  Ag3  1  0.49884000  0.54753000  0.10713000  1.0
  H  H4  1  0.24563000  0.06483000  0.70824000  1.0
  H  H5  1  0.74563000  0.43516000  0.79176000  1.0
  H  H6  1  0.75438000  0.93517000  0.29176000  1.0
  H  H7  1  0.25437000  0.56483000  0.20824000  1.0
  H  H8  1  0.22846000  0.26183000  0.88566000  1.0
  H  H9  1  0.72846000  0.23817000  0.61434000  1.0
  H  H10  1  0.77154000  0.73818000  0.11435000  1.0
  H  H11  1  0.27155000  0.76183000  0.38566000  1.0
  H  H12  1  0.74034000  0.19475000  0.97417000  1.0
  H  H13  1  0.24035000  0.30526000  0.52583000  1.0
  H  H14  1  0.25966000  0.80525000  0.02583000  1.0
  H  H15  1  0.75966000  0.69474000  0.47417000  1.0
  H  H16  1  0.43888000  0.33034000  0.03100000  1.0
  H  H17  1  0.93889000  0.16967000  0.46900000  1.0
  H  H18  1  0.56112000  0.66966000  0.96900000  1.0
  H  H19  1  0.06111000  0.83033000  0.53100000  1.0
  H  H20  1  0.70657000  0.02794000  0.69815000  1.0
  H  H21  1  0.20658000  0.47206000  0.80185000  1.0
  H  H22  1  0.29342000  0.97206000  0.30185000  1.0
  H  H23  1  0.79342000  0.52794000  0.19815000  1.0
  H  H24  1  0.54491000  0.88789000  0.66587000  1.0
  H  H25  1  0.04491000  0.61211000  0.83413000  1.0
  H  H26  1  0.45509000  0.11211000  0.33413000  1.0
  H  H27  1  0.95509000  0.38789000  0.16587000  1.0
  H  H28  1  0.62986000  0.85031000  0.73338000  1.0
  H  H29  1  0.12986000  0.64968000  0.76662000  1.0
  H  H30  1  0.37014000  0.14969000  0.26662000  1.0
  H  H31  1  0.87015000  0.35031000  0.23338000  1.0
  H  H32  1  0.72271000  0.84758000  0.65153000  1.0
  H  H33  1  0.22271000  0.65242000  0.84847000  1.0
  H  H34  1  0.27728000  0.15242000  0.34847000  1.0
  H  H35  1  0.77729000  0.34758000  0.15153000  1.0
  H  H36  1  0.91929000  0.95552000  0.73184000  1.0
  H  H37  1  0.41929000  0.54447000  0.76816000  1.0
  H  H38  1  0.08071000  0.04449000  0.26817000  1.0
  H  H39  1  0.58071000  0.45552000  0.23183000  1.0
  H  H40  1  0.83652000  0.95977000  0.81674000  1.0
  H  H41  1  0.33653000  0.54023000  0.68326000  1.0
  H  H42  1  0.16348000  0.04023000  0.18326000  1.0
  H  H43  1  0.66347000  0.45977000  0.31674000  1.0
  H  H44  1  0.87923000  0.06904000  0.80514000  1.0
  H  H45  1  0.37924000  0.43096000  0.69486000  1.0
  H  H46  1  0.12077000  0.93096000  0.19486000  1.0
  H  H47  1  0.62076000  0.56904000  0.30514000  1.0
  H  H48  1  0.57719000  0.01951000  0.84331000  1.0
  H  H49  1  0.07719000  0.48049000  0.65669000  1.0
  H  H50  1  0.42281000  0.98048000  0.15669000  1.0
  H  H51  1  0.92281000  0.51951000  0.34331000  1.0
  H  H52  1  0.62875000  0.12636000  0.82991000  1.0
  H  H53  1  0.12875000  0.37363000  0.67009000  1.0
  H  H54  1  0.37125000  0.87363000  0.17009000  1.0
  H  H55  1  0.87125000  0.62637000  0.32991000  1.0
  H  H56  1  0.03967000  0.37339000  0.82975000  1.0
  H  H57  1  0.53967000  0.12661000  0.67025000  1.0
  H  H58  1  0.96033000  0.62661000  0.17025000  1.0
  H  H59  1  0.46033000  0.87339000  0.32975000  1.0
  H  H60  1  0.09059000  0.39912000  0.92527000  1.0
  H  H61  1  0.59059000  0.10087000  0.57473000  1.0
  H  H62  1  0.90940000  0.60088000  0.07473000  1.0
  H  H63  1  0.40941000  0.89912000  0.42527000  1.0
  H  H64  1  0.82781000  0.36766000  0.89309000  1.0
  H  H65  1  0.32781000  0.13235000  0.60691000  1.0
  H  H66  1  0.17219000  0.63235000  0.10691000  1.0
  H  H67  1  0.67219000  0.86765000  0.39309000  1.0
  H  H68  1  0.86951000  0.24515000  0.83951000  1.0
  H  H69  1  0.36951000  0.25485000  0.66049000  1.0
  H  H70  1  0.13049000  0.75486000  0.16049000  1.0
  H  H71  1  0.63050000  0.74515000  0.33952000  1.0
  H  H72  1  0.97165000  0.23315000  0.95844000  1.0
  H  H73  1  0.47166000  0.26685000  0.54156000  1.0
  H  H74  1  0.02835000  0.76686000  0.04156000  1.0
  H  H75  1  0.52834000  0.73314000  0.45844000  1.0
  H  H76  1  0.93401000  0.35759000  0.00984000  1.0
  H  H77  1  0.43401000  0.14241000  0.49016000  1.0
  H  H78  1  0.06599000  0.64240000  0.99015000  1.0
  H  H79  1  0.56599000  0.85760000  0.50985000  1.0
  H  H80  1  0.37153000  0.09107000  0.09562000  1.0
  H  H81  1  0.87153000  0.40894000  0.40438000  1.0
  H  H82  1  0.62847000  0.90893000  0.90438000  1.0
  H  H83  1  0.12847000  0.59107000  0.59562000  1.0
  H  H84  1  0.39953000  0.03628000  0.99519000  1.0
  H  H85  1  0.89953000  0.46373000  0.50481000  1.0
  H  H86  1  0.60047000  0.96374000  0.00482000  1.0
  H  H87  1  0.10047000  0.53626000  0.49518000  1.0
  H  H88  1  0.15973000  0.01060000  0.03326000  1.0
  H  H89  1  0.65972000  0.48940000  0.46674000  1.0
  H  H90  1  0.84027000  0.98940000  0.96674000  1.0
  H  H91  1  0.34028000  0.51060000  0.53326000  1.0
  H  H92  1  0.19811000  0.00707000  0.90342000  1.0
  H  H93  1  0.69811000  0.49294000  0.59659000  1.0
  H  H94  1  0.80189000  0.99294000  0.09659000  1.0
  H  H95  1  0.30189000  0.50706000  0.40341000  1.0
  H  H96  1  0.17140000  0.13415000  0.93725000  1.0
  H  H97  1  0.67140000  0.36585000  0.56275000  1.0
  H  H98  1  0.82860000  0.86585000  0.06275000  1.0
  H  H99  1  0.32860000  0.63415000  0.43725000  1.0
  H  H100  1  0.02919000  0.05633000  0.93670000  1.0
  H  H101  1  0.52919000  0.44367000  0.56330000  1.0
  H  H102  1  0.97081000  0.94367000  0.06330000  1.0
  H  H103  1  0.47081000  0.55633000  0.43670000  1.0
  H  H104  1  0.12710000  0.16874000  0.14590000  1.0
  H  H105  1  0.62710000  0.33126000  0.35410000  1.0
  H  H106  1  0.87290000  0.83126000  0.85410000  1.0
  H  H107  1  0.37290000  0.66874000  0.64590000  1.0
  H  H108  1  0.98451000  0.14540000  0.08072000  1.0
  H  H109  1  0.48451000  0.35460000  0.41928000  1.0
  H  H110  1  0.01549000  0.85460000  0.91928000  1.0
  H  H111  1  0.51549000  0.64540000  0.58072000  1.0
  H  H112  1  0.11723000  0.23033000  0.08310000  1.0
  H  H113  1  0.61723000  0.26968000  0.41691000  1.0
  H  H114  1  0.88277000  0.76968000  0.91691000  1.0
  H  H115  1  0.38277000  0.73032000  0.58309000  1.0
  C  C116  1  0.69644000  0.99215000  0.73875000  1.0
  C  C117  1  0.19645000  0.50785000  0.76125000  1.0
  C  C118  1  0.30356000  0.00785000  0.26125000  1.0
  C  C119  1  0.80355000  0.49215000  0.23875000  1.0
  C  C120  1  0.64505000  0.88855000  0.69487000  1.0
  C  C121  1  0.14504000  0.61145000  0.80513000  1.0
  C  C122  1  0.35495000  0.11145000  0.30513000  1.0
  C  C123  1  0.85496000  0.38855000  0.19487000  1.0
  C  C124  1  0.84081000  0.99454000  0.77541000  1.0
  C  C125  1  0.34081000  0.50546000  0.72459000  1.0
  C  C126  1  0.15919000  0.00546000  0.22459000  1.0
  C  C127  1  0.65918000  0.49454000  0.27541000  1.0
  C  C128  1  0.59305000  0.05116000  0.80045000  1.0
  C  C129  1  0.09305000  0.44884000  0.69955000  1.0
  C  C130  1  0.40695000  0.94884000  0.19955000  1.0
  C  C131  1  0.90695000  0.55116000  0.30045000  1.0
  C  C132  1  0.36778000  0.12276000  0.80582000  1.0
  C  C133  1  0.86778000  0.37725000  0.69418000  1.0
  C  C134  1  0.63223000  0.87725000  0.19419000  1.0
  C  C135  1  0.13222000  0.62275000  0.30581000  1.0
  C  C136  1  0.15266000  0.19454000  0.77878000  1.0
  C  C137  1  0.65266000  0.30546000  0.72122000  1.0
  C  C138  1  0.84734000  0.80546000  0.22122000  1.0
  C  C139  1  0.34734000  0.69453000  0.27878000  1.0
  C  C140  1  0.04846000  0.34280000  0.87333000  1.0
  C  C141  1  0.54846000  0.15720000  0.62667000  1.0
  C  C142  1  0.95154000  0.65720000  0.12667000  1.0
  C  C143  1  0.45154000  0.84280000  0.37333000  1.0
  C  C144  1  0.90297000  0.31003000  0.88835000  1.0
  C  C145  1  0.40298000  0.18997000  0.61165000  1.0
  C  C146  1  0.09702000  0.68997000  0.11165000  1.0
  C  C147  1  0.59703000  0.81002000  0.38835000  1.0
  C  C148  1  0.89962000  0.29202000  0.96194000  1.0
  C  C149  1  0.39962000  0.20798000  0.53806000  1.0
  C  C150  1  0.10038000  0.70798000  0.03806000  1.0
  C  C151  1  0.60038000  0.79201000  0.46194000  1.0
  C  C152  1  0.65375000  0.32546000  0.00687000  1.0
  C  C153  1  0.15375000  0.17454000  0.49313000  1.0
  C  C154  1  0.34625000  0.67454000  0.99313000  1.0
  C  C155  1  0.84625000  0.82546000  0.50687000  1.0
  C  C156  1  0.51255000  0.19707000  0.02127000  1.0
  C  C157  1  0.01255000  0.30293000  0.47873000  1.0
  C  C158  1  0.48745000  0.80293000  0.97873000  1.0
  C  C159  1  0.98745000  0.69707000  0.52127000  1.0
  C  C160  1  0.34081000  0.09272000  0.04034000  1.0
  C  C161  1  0.84081000  0.40728000  0.45966000  1.0
  C  C162  1  0.65919000  0.90728000  0.95966000  1.0
  C  C163  1  0.15919000  0.59272000  0.54034000  1.0
  C  C164  1  0.18249000  0.07964000  0.02745000  1.0
  C  C165  1  0.68249000  0.42036000  0.47255000  1.0
  C  C166  1  0.81751000  0.92036000  0.97255000  1.0
  C  C167  1  0.31751000  0.57964000  0.52745000  1.0
  C  C168  1  0.14296000  0.06857000  0.94651000  1.0
  C  C169  1  0.64297000  0.43143000  0.55349000  1.0
  C  C170  1  0.85703000  0.93143000  0.05349000  1.0
  C  C171  1  0.35704000  0.56857000  0.44651000  1.0
  C  C172  1  0.09816000  0.16055000  0.08776000  1.0
  C  C173  1  0.59816000  0.33945000  0.41224000  1.0
  C  C174  1  0.90184000  0.83945000  0.91224000  1.0
  C  C175  1  0.40184000  0.66055000  0.58776000  1.0
  S  S176  1  0.03610000  0.19874000  0.71195000  1.0
  S  S177  1  0.53610000  0.30126000  0.78805000  1.0
  S  S178  1  0.96391000  0.80127000  0.28805000  1.0
  S  S179  1  0.46391000  0.69874000  0.21195000  1.0
  S  S180  1  0.66977000  0.44426000  0.02000000  1.0
  S  S181  1  0.16977000  0.05575000  0.48000000  1.0
  S  S182  1  0.33023000  0.55574000  0.97999000  1.0
  S  S183  1  0.83023000  0.94426000  0.52001000  1.0
  N  N184  1  0.25265000  0.12254000  0.76104000  1.0
  N  N185  1  0.75265000  0.37747000  0.73896000  1.0
  N  N186  1  0.74736000  0.87747000  0.23896000  1.0
  N  N187  1  0.24735000  0.62253000  0.26104000  1.0
  N  N188  1  0.15148000  0.26417000  0.84845000  1.0
  N  N189  1  0.65149000  0.23583000  0.65154000  1.0
  N  N190  1  0.84851000  0.73584000  0.15155000  1.0
  N  N191  1  0.34852000  0.76416000  0.34845000  1.0
  N  N192  1  0.76049000  0.26428000  0.97882000  1.0
  N  N193  1  0.26049000  0.23573000  0.52118000  1.0
  N  N194  1  0.23951000  0.73573000  0.02118000  1.0
  N  N195  1  0.73951000  0.76427000  0.47882000  1.0
  N  N196  1  0.53131000  0.29021000  0.02493000  1.0
  N  N197  1  0.03132000  0.20980000  0.47507000  1.0
  N  N198  1  0.46869000  0.70979000  0.97507000  1.0
  N  N199  1  0.96868000  0.79020000  0.52493000  1.0
  N  N200  1  0.28324000  0.92380000  0.57559000  1.0
  N  N201  1  0.78324000  0.57620000  0.92441000  1.0
  N  N202  1  0.71676000  0.07620000  0.42441000  1.0
  N  N203  1  0.21676000  0.42380000  0.07559000  1.0
  O  O204  1  0.45784000  0.05266000  0.76475000  1.0
  O  O205  1  0.95785000  0.44735000  0.73526000  1.0
  O  O206  1  0.54216000  0.94735000  0.23526000  1.0
  O  O207  1  0.04215000  0.55265000  0.26474000  1.0
  O  O208  1  0.38564000  0.17873000  0.87250000  1.0
  O  O209  1  0.88564000  0.32127000  0.62749000  1.0
  O  O210  1  0.61437000  0.82128000  0.12750000  1.0
  O  O211  1  0.11437000  0.67872000  0.37250000  1.0
  O  O212  1  0.38031000  0.18719000  0.04174000  1.0
  O  O213  1  0.88031000  0.31282000  0.45826000  1.0
  O  O214  1  0.61969000  0.81281000  0.95826000  1.0
  O  O215  1  0.11969000  0.68718000  0.54174000  1.0
  O  O216  1  0.60406000  0.13326000  0.00347000  1.0
  O  O217  1  0.10407000  0.36675000  0.49654000  1.0
  O  O218  1  0.39594000  0.86674000  0.99653000  1.0
  O  O219  1  0.89593000  0.63326000  0.50347000  1.0
  O  O220  1  0.20044000  0.95481000  0.63400000  1.0
  O  O221  1  0.70044000  0.54520000  0.86601000  1.0
  O  O222  1  0.79956000  0.04520000  0.36601000  1.0
  O  O223  1  0.29956000  0.45480000  0.13399000  1.0
  O  O224  1  0.23513000  0.86064000  0.51389000  1.0
  O  O225  1  0.73513000  0.63936000  0.98612000  1.0
  O  O226  1  0.76487000  0.13937000  0.48612000  1.0
  O  O227  1  0.26487000  0.36064000  0.01388000  1.0
  O  O228  1  0.40523000  0.95629000  0.58013000  1.0
  O  O229  1  0.90523000  0.54371000  0.91987000  1.0
  O  O230  1  0.59477000  0.04371000  0.41987000  1.0
  O  O231  1  0.09477000  0.45629000  0.08013000  1.0
