# generated using pymatgen
data_Zn2H16C24N8O5
_symmetry_space_group_name_H-M   'P 1'
_cell_length_a   9.89732000
_cell_length_b   18.86520000
_cell_length_c   32.85000000
_cell_angle_alpha   90.00000000
_cell_angle_beta   90.00020000
_cell_angle_gamma   89.99980000
_symmetry_Int_Tables_number   1
_chemical_formula_structural   Zn2H16C24N8O5
_chemical_formula_sum   'Zn16 H128 C192 N64 O40'
_cell_volume   6133.58516345
_cell_formula_units_Z   8
loop_
 _symmetry_equiv_pos_site_id
 _symmetry_equiv_pos_as_xyz
  1  'x, y, z'
loop_
 _atom_site_type_symbol
 _atom_site_label
 _atom_site_symmetry_multiplicity
 _atom_site_fract_x
 _atom_site_fract_y
 _atom_site_fract_z
 _atom_site_occupancy
  Zn  Zn0  1  0.72463000  0.91436000  0.94132000  1.0
  Zn  Zn1  1  0.27537000  0.58564000  0.44132000  1.0
  Zn  Zn2  1  0.77537000  0.41437000  0.05868000  1.0
  Zn  Zn3  1  0.22463000  0.08563000  0.55868000  1.0
  Zn  Zn4  1  0.27537000  0.08563000  0.05868000  1.0
  Zn  Zn5  1  0.72463000  0.41437000  0.55868000  1.0
  Zn  Zn6  1  0.22463000  0.58564000  0.94132000  1.0
  Zn  Zn7  1  0.77537000  0.91437000  0.44132000  1.0
  Zn  Zn8  1  0.97024000  0.93585000  0.78071000  1.0
  Zn  Zn9  1  0.02976000  0.56415000  0.28071000  1.0
  Zn  Zn10  1  0.52976000  0.43584000  0.21929000  1.0
  Zn  Zn11  1  0.47025000  0.06415000  0.71930000  1.0
  Zn  Zn12  1  0.02976000  0.06415000  0.21929000  1.0
  Zn  Zn13  1  0.97025000  0.43585000  0.71929000  1.0
  Zn  Zn14  1  0.47025000  0.56415000  0.78071000  1.0
  Zn  Zn15  1  0.52976000  0.93584000  0.28071000  1.0
  H  H16  1  0.66126000  0.05028000  0.92506000  1.0
  H  H17  1  0.33874000  0.44972000  0.42506000  1.0
  H  H18  1  0.83874000  0.55028000  0.07494000  1.0
  H  H19  1  0.16126000  0.94972000  0.57494000  1.0
  H  H20  1  0.33874000  0.94972000  0.07494000  1.0
  H  H21  1  0.66126000  0.55028000  0.57494000  1.0
  H  H22  1  0.16126000  0.44972000  0.92506000  1.0
  H  H23  1  0.83874000  0.05028000  0.42506000  1.0
  H  H24  1  0.52324000  0.02706000  0.94607000  1.0
  H  H25  1  0.47677000  0.47294000  0.44607000  1.0
  H  H26  1  0.97677000  0.52707000  0.05393000  1.0
  H  H27  1  0.02324000  0.97293000  0.55393000  1.0
  H  H28  1  0.47677000  0.97293000  0.05393000  1.0
  H  H29  1  0.52323000  0.52707000  0.55393000  1.0
  H  H30  1  0.02323000  0.47294000  0.94607000  1.0
  H  H31  1  0.97677000  0.02707000  0.44607000  1.0
  H  H32  1  0.92031000  0.83457000  0.00416000  1.0
  H  H33  1  0.07969000  0.66543000  0.50416000  1.0
  H  H34  1  0.57969000  0.33457000  0.99584000  1.0
  H  H35  1  0.42031000  0.16542000  0.49584000  1.0
  H  H36  1  0.07969000  0.16543000  0.99584000  1.0
  H  H37  1  0.92030000  0.33457000  0.49584000  1.0
  H  H38  1  0.42031000  0.66543000  0.00416000  1.0
  H  H39  1  0.57969000  0.83457000  0.50416000  1.0
  H  H40  1  0.98108000  0.70717000  0.02022000  1.0
  H  H41  1  0.01892000  0.79282000  0.52022000  1.0
  H  H42  1  0.51892000  0.20718000  0.97978000  1.0
  H  H43  1  0.48107000  0.29282000  0.47978000  1.0
  H  H44  1  0.01893000  0.29283000  0.97978000  1.0
  H  H45  1  0.98107000  0.20718000  0.47978000  1.0
  H  H46  1  0.48108000  0.79283000  0.02022000  1.0
  H  H47  1  0.51892000  0.70717000  0.52022000  1.0
  H  H48  1  0.85744000  0.61072000  0.98337000  1.0
  H  H49  1  0.14256000  0.88927000  0.48337000  1.0
  H  H50  1  0.64256000  0.11073000  0.01663000  1.0
  H  H51  1  0.35743000  0.38927000  0.51663000  1.0
  H  H52  1  0.14257000  0.38927000  0.01663000  1.0
  H  H53  1  0.85744000  0.11073000  0.51663000  1.0
  H  H54  1  0.35743000  0.88928000  0.98337000  1.0
  H  H55  1  0.64257000  0.61073000  0.48337000  1.0
  H  H56  1  0.68120000  0.64290000  0.93264000  1.0
  H  H57  1  0.31880000  0.85710000  0.43264000  1.0
  H  H58  1  0.81880000  0.14290000  0.06736000  1.0
  H  H59  1  0.18118000  0.35709000  0.56736000  1.0
  H  H60  1  0.31881000  0.35710000  0.06736000  1.0
  H  H61  1  0.68119000  0.14290000  0.56736000  1.0
  H  H62  1  0.18119000  0.85710000  0.93264000  1.0
  H  H63  1  0.81881000  0.64290000  0.43264000  1.0
  H  H64  1  0.54316000  0.67826000  0.88990000  1.0
  H  H65  1  0.45684000  0.82174000  0.38990000  1.0
  H  H66  1  0.95684000  0.17826000  0.11010000  1.0
  H  H67  1  0.04316000  0.32173000  0.61010000  1.0
  H  H68  1  0.45684000  0.32174000  0.11010000  1.0
  H  H69  1  0.54316000  0.17827000  0.61010000  1.0
  H  H70  1  0.04316000  0.82174000  0.88990000  1.0
  H  H71  1  0.95684000  0.67826000  0.38990000  1.0
  H  H72  1  0.37253000  0.72820000  0.84241000  1.0
  H  H73  1  0.62747000  0.77180000  0.34241000  1.0
  H  H74  1  0.12748000  0.22819000  0.15759000  1.0
  H  H75  1  0.87252000  0.27180000  0.65759000  1.0
  H  H76  1  0.62747000  0.27180000  0.15759000  1.0
  H  H77  1  0.37252000  0.22820000  0.65759000  1.0
  H  H78  1  0.87252000  0.77180000  0.84241000  1.0
  H  H79  1  0.12747000  0.72820000  0.34241000  1.0
  H  H80  1  0.35279000  0.85894000  0.83468000  1.0
  H  H81  1  0.64722000  0.64106000  0.33468000  1.0
  H  H82  1  0.14722000  0.35894000  0.16532000  1.0
  H  H83  1  0.85277000  0.14105000  0.66532000  1.0
  H  H84  1  0.64722000  0.14106000  0.16532000  1.0
  H  H85  1  0.35277000  0.35894000  0.66532000  1.0
  H  H86  1  0.85278000  0.64106000  0.83468000  1.0
  H  H87  1  0.14722000  0.85894000  0.33468000  1.0
  H  H88  1  0.50443000  0.93691000  0.87838000  1.0
  H  H89  1  0.49558000  0.56309000  0.37838000  1.0
  H  H90  1  0.99558000  0.43691000  0.12162000  1.0
  H  H91  1  0.00441000  0.06308000  0.62162000  1.0
  H  H92  1  0.49558000  0.06308000  0.12162000  1.0
  H  H93  1  0.50441000  0.43692000  0.62162000  1.0
  H  H94  1  0.00442000  0.56309000  0.87838000  1.0
  H  H95  1  0.99558000  0.93691000  0.37838000  1.0
  H  H96  1  0.02585000  0.98707000  0.97226000  1.0
  H  H97  1  0.97416000  0.51293000  0.47226000  1.0
  H  H98  1  0.47416000  0.48706000  0.02774000  1.0
  H  H99  1  0.52585000  0.01293000  0.52774000  1.0
  H  H100  1  0.97415000  0.01293000  0.02774000  1.0
  H  H101  1  0.02584000  0.48707000  0.52774000  1.0
  H  H102  1  0.52584000  0.51294000  0.97226000  1.0
  H  H103  1  0.47415000  0.98707000  0.47226000  1.0
  H  H104  1  0.36492000  0.04049000  0.89519000  1.0
  H  H105  1  0.63508000  0.45951000  0.39519000  1.0
  H  H106  1  0.13508000  0.54049000  0.10481000  1.0
  H  H107  1  0.86493000  0.95950000  0.60481000  1.0
  H  H108  1  0.63508000  0.95951000  0.10481000  1.0
  H  H109  1  0.36492000  0.54049000  0.60481000  1.0
  H  H110  1  0.86492000  0.45951000  0.89519000  1.0
  H  H111  1  0.13508000  0.04049000  0.39519000  1.0
  H  H112  1  0.24160000  0.99897000  0.83313000  1.0
  H  H113  1  0.75840000  0.50102000  0.33313000  1.0
  H  H114  1  0.25840000  0.49897000  0.16687000  1.0
  H  H115  1  0.74161000  0.00102000  0.66688000  1.0
  H  H116  1  0.75840000  0.00103000  0.16687000  1.0
  H  H117  1  0.24161000  0.49898000  0.66687000  1.0
  H  H118  1  0.74160000  0.50103000  0.83313000  1.0
  H  H119  1  0.25840000  0.99898000  0.33313000  1.0
  H  H120  1  0.88487000  0.73358000  0.73980000  1.0
  H  H121  1  0.11513000  0.76643000  0.23980000  1.0
  H  H122  1  0.61513000  0.23357000  0.26020000  1.0
  H  H123  1  0.38487000  0.26643000  0.76020000  1.0
  H  H124  1  0.11514000  0.26642000  0.26020000  1.0
  H  H125  1  0.88487000  0.23358000  0.76020000  1.0
  H  H126  1  0.38488000  0.76642000  0.73980000  1.0
  H  H127  1  0.61513000  0.73357000  0.23980000  1.0
  H  H128  1  0.85873000  0.60395000  0.72595000  1.0
  H  H129  1  0.14128000  0.89605000  0.22595000  1.0
  H  H130  1  0.64128000  0.10395000  0.27405000  1.0
  H  H131  1  0.35873000  0.39605000  0.77405000  1.0
  H  H132  1  0.14128000  0.39605000  0.27405000  1.0
  H  H133  1  0.85872000  0.10395000  0.77405000  1.0
  H  H134  1  0.35873000  0.89605000  0.72595000  1.0
  H  H135  1  0.64127000  0.60395000  0.22595000  1.0
  H  H136  1  0.28577000  0.70353000  0.78755000  1.0
  H  H137  1  0.71424000  0.79647000  0.28755000  1.0
  H  H138  1  0.21424000  0.20353000  0.21245000  1.0
  H  H139  1  0.78577000  0.29647000  0.71245000  1.0
  H  H140  1  0.71424000  0.29646000  0.21245000  1.0
  H  H141  1  0.28576000  0.20353000  0.71245000  1.0
  H  H142  1  0.78577000  0.79647000  0.78755000  1.0
  H  H143  1  0.21424000  0.70353000  0.28755000  1.0
  C  C144  1  0.87031000  0.79008000  0.98915000  1.0
  C  C145  1  0.12970000  0.70992000  0.48915000  1.0
  C  C146  1  0.62969000  0.29008000  0.01085000  1.0
  C  C147  1  0.37030000  0.20991000  0.51086000  1.0
  C  C148  1  0.12970000  0.20992000  0.01085000  1.0
  C  C149  1  0.87030000  0.29008000  0.51086000  1.0
  C  C150  1  0.37030000  0.70992000  0.98914000  1.0
  C  C151  1  0.62970000  0.79008000  0.48914000  1.0
  C  C152  1  0.90268000  0.71986000  0.99808000  1.0
  C  C153  1  0.09732000  0.78013000  0.49808000  1.0
  C  C154  1  0.59732000  0.21987000  0.00192000  1.0
  C  C155  1  0.40268000  0.28013000  0.50192000  1.0
  C  C156  1  0.09732000  0.28013000  0.00192000  1.0
  C  C157  1  0.90267000  0.21987000  0.50192000  1.0
  C  C158  1  0.40268000  0.78014000  0.99808000  1.0
  C  C159  1  0.59732000  0.71987000  0.49808000  1.0
  C  C160  1  0.83354000  0.66623000  0.97744000  1.0
  C  C161  1  0.16645000  0.83377000  0.47744000  1.0
  C  C162  1  0.66645000  0.16623000  0.02256000  1.0
  C  C163  1  0.33353000  0.33377000  0.52257000  1.0
  C  C164  1  0.16646000  0.33377000  0.02256000  1.0
  C  C165  1  0.83354000  0.16623000  0.52257000  1.0
  C  C166  1  0.33354000  0.83377000  0.97743000  1.0
  C  C167  1  0.66646000  0.66623000  0.47744000  1.0
  C  C168  1  0.73528000  0.68438000  0.94891000  1.0
  C  C169  1  0.26472000  0.81562000  0.44891000  1.0
  C  C170  1  0.76472000  0.18438000  0.05109000  1.0
  C  C171  1  0.23527000  0.31562000  0.55109000  1.0
  C  C172  1  0.26473000  0.31562000  0.05109000  1.0
  C  C173  1  0.73527000  0.18438000  0.55109000  1.0
  C  C174  1  0.23527000  0.81562000  0.94891000  1.0
  C  C175  1  0.76473000  0.68438000  0.44891000  1.0
  C  C176  1  0.70891000  0.75622000  0.94132000  1.0
  C  C177  1  0.29109000  0.74378000  0.44132000  1.0
  C  C178  1  0.79109000  0.25622000  0.05868000  1.0
  C  C179  1  0.20890000  0.24377000  0.55868000  1.0
  C  C180  1  0.29110000  0.24378000  0.05868000  1.0
  C  C181  1  0.70889000  0.25623000  0.55868000  1.0
  C  C182  1  0.20890000  0.74378000  0.94132000  1.0
  C  C183  1  0.79110000  0.75622000  0.44132000  1.0
  C  C184  1  0.60812000  0.78128000  0.91117000  1.0
  C  C185  1  0.39188000  0.71872000  0.41117000  1.0
  C  C186  1  0.89188000  0.28129000  0.08883000  1.0
  C  C187  1  0.10811000  0.21871000  0.58883000  1.0
  C  C188  1  0.39188000  0.21871000  0.08883000  1.0
  C  C189  1  0.60811000  0.28129000  0.58883000  1.0
  C  C190  1  0.10812000  0.71872000  0.91117000  1.0
  C  C191  1  0.89188000  0.78129000  0.41117000  1.0
  C  C192  1  0.53034000  0.73530000  0.88750000  1.0
  C  C193  1  0.46967000  0.76470000  0.38750000  1.0
  C  C194  1  0.96967000  0.23531000  0.11250000  1.0
  C  C195  1  0.03033000  0.26469000  0.61250000  1.0
  C  C196  1  0.46967000  0.26469000  0.11250000  1.0
  C  C197  1  0.53033000  0.23531000  0.61250000  1.0
  C  C198  1  0.03033000  0.76470000  0.88750000  1.0
  C  C199  1  0.96967000  0.73531000  0.38750000  1.0
  C  C200  1  0.43643000  0.76330000  0.86033000  1.0
  C  C201  1  0.56357000  0.73670000  0.36033000  1.0
  C  C202  1  0.06357000  0.26330000  0.13966000  1.0
  C  C203  1  0.93642000  0.23669000  0.63967000  1.0
  C  C204  1  0.56357000  0.23670000  0.13967000  1.0
  C  C205  1  0.43642000  0.26331000  0.63966000  1.0
  C  C206  1  0.93642000  0.73670000  0.86033000  1.0
  C  C207  1  0.06357000  0.76330000  0.36033000  1.0
  C  C208  1  0.42501000  0.83653000  0.85614000  1.0
  C  C209  1  0.57499000  0.66347000  0.35615000  1.0
  C  C210  1  0.07499000  0.33653000  0.14385000  1.0
  C  C211  1  0.92500000  0.16347000  0.64385000  1.0
  C  C212  1  0.57499000  0.16347000  0.14386000  1.0
  C  C213  1  0.42500000  0.33653000  0.64385000  1.0
  C  C214  1  0.92501000  0.66347000  0.85615000  1.0
  C  C215  1  0.07499000  0.83653000  0.35615000  1.0
  C  C216  1  0.50731000  0.87930000  0.88019000  1.0
  C  C217  1  0.49269000  0.62070000  0.38020000  1.0
  C  C218  1  0.99269000  0.37930000  0.11980000  1.0
  C  C219  1  0.00730000  0.12069000  0.61980000  1.0
  C  C220  1  0.49269000  0.12069000  0.11981000  1.0
  C  C221  1  0.50730000  0.37931000  0.61980000  1.0
  C  C222  1  0.00731000  0.62070000  0.88020000  1.0
  C  C223  1  0.99270000  0.87931000  0.38020000  1.0
  C  C224  1  0.00317000  0.96745000  0.90760000  1.0
  C  C225  1  0.99683000  0.53255000  0.40760000  1.0
  C  C226  1  0.49683000  0.46745000  0.09240000  1.0
  C  C227  1  0.50318000  0.03255000  0.59240000  1.0
  C  C228  1  0.99683000  0.03256000  0.09240000  1.0
  C  C229  1  0.00317000  0.46745000  0.59240000  1.0
  C  C230  1  0.50317000  0.53256000  0.90760000  1.0
  C  C231  1  0.49683000  0.96745000  0.40760000  1.0
  C  C232  1  0.07252000  0.98980000  0.94239000  1.0
  C  C233  1  0.92748000  0.51020000  0.44238000  1.0
  C  C234  1  0.42748000  0.48980000  0.05762000  1.0
  C  C235  1  0.57253000  0.01020000  0.55762000  1.0
  C  C236  1  0.92747000  0.01020000  0.05762000  1.0
  C  C237  1  0.07252000  0.48980000  0.55762000  1.0
  C  C238  1  0.57252000  0.51020000  0.94238000  1.0
  C  C239  1  0.42748000  0.98980000  0.44238000  1.0
  C  C240  1  0.20348000  0.01569000  0.93724000  1.0
  C  C241  1  0.79652000  0.48431000  0.43724000  1.0
  C  C242  1  0.29652000  0.51569000  0.06276000  1.0
  C  C243  1  0.70348000  0.98431000  0.56276000  1.0
  C  C244  1  0.79652000  0.98431000  0.06276000  1.0
  C  C245  1  0.20348000  0.51569000  0.56276000  1.0
  C  C246  1  0.70348000  0.48432000  0.93724000  1.0
  C  C247  1  0.29652000  0.01569000  0.43724000  1.0
  C  C248  1  0.27863000  0.04144000  0.97421000  1.0
  C  C249  1  0.72137000  0.45857000  0.47421000  1.0
  C  C250  1  0.22137000  0.54144000  0.02579000  1.0
  C  C251  1  0.77863000  0.95856000  0.52579000  1.0
  C  C252  1  0.72136000  0.95856000  0.02579000  1.0
  C  C253  1  0.27863000  0.54143000  0.52579000  1.0
  C  C254  1  0.77863000  0.45856000  0.97421000  1.0
  C  C255  1  0.22137000  0.04144000  0.47421000  1.0
  C  C256  1  0.26312000  0.01901000  0.89783000  1.0
  C  C257  1  0.73688000  0.48099000  0.39783000  1.0
  C  C258  1  0.23688000  0.51901000  0.10217000  1.0
  C  C259  1  0.76312000  0.98099000  0.60217000  1.0
  C  C260  1  0.73688000  0.98099000  0.10217000  1.0
  C  C261  1  0.26312000  0.51901000  0.60217000  1.0
  C  C262  1  0.76312000  0.48099000  0.89783000  1.0
  C  C263  1  0.23688000  0.01901000  0.39783000  1.0
  C  C264  1  0.19537000  0.99652000  0.86320000  1.0
  C  C265  1  0.80463000  0.50348000  0.36320000  1.0
  C  C266  1  0.30463000  0.49652000  0.13680000  1.0
  C  C267  1  0.69538000  0.00347000  0.63680000  1.0
  C  C268  1  0.80462000  0.00348000  0.13680000  1.0
  C  C269  1  0.19538000  0.49652000  0.63680000  1.0
  C  C270  1  0.69537000  0.50348000  0.86320000  1.0
  C  C271  1  0.30463000  0.99652000  0.36320000  1.0
  C  C272  1  0.06330000  0.97050000  0.86855000  1.0
  C  C273  1  0.93670000  0.52949000  0.36854000  1.0
  C  C274  1  0.43670000  0.47050000  0.13145000  1.0
  C  C275  1  0.56331000  0.02949000  0.63146000  1.0
  C  C276  1  0.93669000  0.02950000  0.13145000  1.0
  C  C277  1  0.06330000  0.47050000  0.63146000  1.0
  C  C278  1  0.56330000  0.52950000  0.86854000  1.0
  C  C279  1  0.43670000  0.97050000  0.36855000  1.0
  C  C280  1  0.09058000  0.80189000  0.77715000  1.0
  C  C281  1  0.90942000  0.69811000  0.27715000  1.0
  C  C282  1  0.40941000  0.30189000  0.22285000  1.0
  C  C283  1  0.59059000  0.19811000  0.72285000  1.0
  C  C284  1  0.90942000  0.19811000  0.22285000  1.0
  C  C285  1  0.09058000  0.30189000  0.72285000  1.0
  C  C286  1  0.59059000  0.69811000  0.77715000  1.0
  C  C287  1  0.40942000  0.80189000  0.27715000  1.0
  C  C288  1  0.08556000  0.72516000  0.76495000  1.0
  C  C289  1  0.91444000  0.77484000  0.26495000  1.0
  C  C290  1  0.41444000  0.22516000  0.23505000  1.0
  C  C291  1  0.58556000  0.27484000  0.73505000  1.0
  C  C292  1  0.91444000  0.27483000  0.23505000  1.0
  C  C293  1  0.08556000  0.22516000  0.73505000  1.0
  C  C294  1  0.58556000  0.77484000  0.76495000  1.0
  C  C295  1  0.41444000  0.72516000  0.26495000  1.0
  C  C296  1  0.96715000  0.69710000  0.74633000  1.0
  C  C297  1  0.03285000  0.80290000  0.24633000  1.0
  C  C298  1  0.53285000  0.19710000  0.25367000  1.0
  C  C299  1  0.46716000  0.30290000  0.75367000  1.0
  C  C300  1  0.03285000  0.30290000  0.25367000  1.0
  C  C301  1  0.96715000  0.19710000  0.75367000  1.0
  C  C302  1  0.46716000  0.80290000  0.74633000  1.0
  C  C303  1  0.53285000  0.69710000  0.24633000  1.0
  C  C304  1  0.95292000  0.62573000  0.73766000  1.0
  C  C305  1  0.04709000  0.87427000  0.23766000  1.0
  C  C306  1  0.54708000  0.12573000  0.26234000  1.0
  C  C307  1  0.45292000  0.37427000  0.76234000  1.0
  C  C308  1  0.04709000  0.37427000  0.26234000  1.0
  C  C309  1  0.95292000  0.12573000  0.76234000  1.0
  C  C310  1  0.45292000  0.87427000  0.73766000  1.0
  C  C311  1  0.54708000  0.62573000  0.23766000  1.0
  C  C312  1  0.06465000  0.58225000  0.74627000  1.0
  C  C313  1  0.93535000  0.91776000  0.24627000  1.0
  C  C314  1  0.43535000  0.08224000  0.25373000  1.0
  C  C315  1  0.56465000  0.41776000  0.75373000  1.0
  C  C316  1  0.93535000  0.41776000  0.25373000  1.0
  C  C317  1  0.06465000  0.08224000  0.75373000  1.0
  C  C318  1  0.56465000  0.91776000  0.74627000  1.0
  C  C319  1  0.43535000  0.58224000  0.24627000  1.0
  C  C320  1  0.18474000  0.61044000  0.76292000  1.0
  C  C321  1  0.81526000  0.88957000  0.26292000  1.0
  C  C322  1  0.31526000  0.11043000  0.23708000  1.0
  C  C323  1  0.68474000  0.38957000  0.73708000  1.0
  C  C324  1  0.81526000  0.38956000  0.23708000  1.0
  C  C325  1  0.18474000  0.11043000  0.73708000  1.0
  C  C326  1  0.68474000  0.88957000  0.76292000  1.0
  C  C327  1  0.31526000  0.61043000  0.26292000  1.0
  C  C328  1  0.19529000  0.68194000  0.77365000  1.0
  C  C329  1  0.80471000  0.81806000  0.27364000  1.0
  C  C330  1  0.30471000  0.18194000  0.22635000  1.0
  C  C331  1  0.69529000  0.31806000  0.72635000  1.0
  C  C332  1  0.80471000  0.31806000  0.22636000  1.0
  C  C333  1  0.19529000  0.18194000  0.72635000  1.0
  C  C334  1  0.69529000  0.81806000  0.77365000  1.0
  C  C335  1  0.30471000  0.68194000  0.27365000  1.0
  N  N336  1  0.59441000  0.85250000  0.90751000  1.0
  N  N337  1  0.40560000  0.64749000  0.40751000  1.0
  N  N338  1  0.90560000  0.35251000  0.09249000  1.0
  N  N339  1  0.09440000  0.14749000  0.59248000  1.0
  N  N340  1  0.40560000  0.14749000  0.09249000  1.0
  N  N341  1  0.59440000  0.35251000  0.59249000  1.0
  N  N342  1  0.09440000  0.64749000  0.90751000  1.0
  N  N343  1  0.90560000  0.85251000  0.40751000  1.0
  N  N344  1  0.77649000  0.80753000  0.96145000  1.0
  N  N345  1  0.22351000  0.69247000  0.46145000  1.0
  N  N346  1  0.72351000  0.30753000  0.03854000  1.0
  N  N347  1  0.27648000  0.19247000  0.53855000  1.0
  N  N348  1  0.22351000  0.19247000  0.03855000  1.0
  N  N349  1  0.77648000  0.30753000  0.53855000  1.0
  N  N350  1  0.27649000  0.69247000  0.96145000  1.0
  N  N351  1  0.72351000  0.80753000  0.46145000  1.0
  N  N352  1  0.87564000  0.94006000  0.90218000  1.0
  N  N353  1  0.12436000  0.55994000  0.40218000  1.0
  N  N354  1  0.62436000  0.44006000  0.09782000  1.0
  N  N355  1  0.37565000  0.05994000  0.59782000  1.0
  N  N356  1  0.12435000  0.05994000  0.09782000  1.0
  N  N357  1  0.87564000  0.44006000  0.59782000  1.0
  N  N358  1  0.37564000  0.55994000  0.90218000  1.0
  N  N359  1  0.62435000  0.94006000  0.40218000  1.0
  N  N360  1  0.85795000  0.92722000  0.86259000  1.0
  N  N361  1  0.14205000  0.57278000  0.36259000  1.0
  N  N362  1  0.64205000  0.42722000  0.13741000  1.0
  N  N363  1  0.35796000  0.07278000  0.63741000  1.0
  N  N364  1  0.14205000  0.07278000  0.13741000  1.0
  N  N365  1  0.85795000  0.42722000  0.63741000  1.0
  N  N366  1  0.35795000  0.57278000  0.86259000  1.0
  N  N367  1  0.64205000  0.92722000  0.36259000  1.0
  N  N368  1  0.96866000  0.94491000  0.84192000  1.0
  N  N369  1  0.03134000  0.55509000  0.34192000  1.0
  N  N370  1  0.53134000  0.44491000  0.15808000  1.0
  N  N371  1  0.46867000  0.05509000  0.65808000  1.0
  N  N372  1  0.03133000  0.05509000  0.15808000  1.0
  N  N373  1  0.96867000  0.44491000  0.65808000  1.0
  N  N374  1  0.46866000  0.55509000  0.84192000  1.0
  N  N375  1  0.53133000  0.94491000  0.34192000  1.0
  N  N376  1  0.27414000  0.55505000  0.76578000  1.0
  N  N377  1  0.72586000  0.94495000  0.26578000  1.0
  N  N378  1  0.22586000  0.05505000  0.23422000  1.0
  N  N379  1  0.77414000  0.44495000  0.73422000  1.0
  N  N380  1  0.72586000  0.44495000  0.23422000  1.0
  N  N381  1  0.27414000  0.05505000  0.73422000  1.0
  N  N382  1  0.77414000  0.94495000  0.76578000  1.0
  N  N383  1  0.22586000  0.55505000  0.26578000  1.0
  N  N384  1  0.21445000  0.49632000  0.75266000  1.0
  N  N385  1  0.78555000  0.00368000  0.25266000  1.0
  N  N386  1  0.28556000  0.99632000  0.24734000  1.0
  N  N387  1  0.71445000  0.50368000  0.74734000  1.0
  N  N388  1  0.78555000  0.50368000  0.24734000  1.0
  N  N389  1  0.21445000  0.99632000  0.74734000  1.0
  N  N390  1  0.71445000  0.00369000  0.75266000  1.0
  N  N391  1  0.28555000  0.49632000  0.25266000  1.0
  N  N392  1  0.08805000  0.51123000  0.74096000  1.0
  N  N393  1  0.91195000  0.98877000  0.24096000  1.0
  N  N394  1  0.41195000  0.01123000  0.25904000  1.0
  N  N395  1  0.58805000  0.48877000  0.75904000  1.0
  N  N396  1  0.91195000  0.48877000  0.25904000  1.0
  N  N397  1  0.08805000  0.01123000  0.75904000  1.0
  N  N398  1  0.58805000  0.98877000  0.74096000  1.0
  N  N399  1  0.41195000  0.51123000  0.24096000  1.0
  O  O400  1  0.00089000  0.84142000  0.75915000  1.0
  O  O401  1  0.99911000  0.65858000  0.25915000  1.0
  O  O402  1  0.49911000  0.34142000  0.24085000  1.0
  O  O403  1  0.50090000  0.15858000  0.74085000  1.0
  O  O404  1  0.99911000  0.15858000  0.24085000  1.0
  O  O405  1  0.00090000  0.34142000  0.74085000  1.0
  O  O406  1  0.50090000  0.65858000  0.75915000  1.0
  O  O407  1  0.49911000  0.84142000  0.25915000  1.0
  O  O408  1  0.60183000  0.00983000  0.92877000  1.0
  O  O409  1  0.39817000  0.49017000  0.42876000  1.0
  O  O410  1  0.89817000  0.50983000  0.07124000  1.0
  O  O411  1  0.10183000  0.99017000  0.57124000  1.0
  O  O412  1  0.39817000  0.99017000  0.07124000  1.0
  O  O413  1  0.60183000  0.50983000  0.57124000  1.0
  O  O414  1  0.10183000  0.49017000  0.92876000  1.0
  O  O415  1  0.89817000  0.00983000  0.42876000  1.0
  O  O416  1  0.17251000  0.82308000  0.80340000  1.0
  O  O417  1  0.82749000  0.67692000  0.30340000  1.0
  O  O418  1  0.32748000  0.32308000  0.19660000  1.0
  O  O419  1  0.67252000  0.17692000  0.69660000  1.0
  O  O420  1  0.82749000  0.17692000  0.19660000  1.0
  O  O421  1  0.17251000  0.32308000  0.69660000  1.0
  O  O422  1  0.67251000  0.67692000  0.80340000  1.0
  O  O423  1  0.32749000  0.82308000  0.30340000  1.0
  O  O424  1  0.40189000  0.05873000  0.97270000  1.0
  O  O425  1  0.59811000  0.44127000  0.47270000  1.0
  O  O426  1  0.09811000  0.55873000  0.02730000  1.0
  O  O427  1  0.90189000  0.94127000  0.52730000  1.0
  O  O428  1  0.59811000  0.94127000  0.02730000  1.0
  O  O429  1  0.40189000  0.55873000  0.52730000  1.0
  O  O430  1  0.90189000  0.44127000  0.97270000  1.0
  O  O431  1  0.09811000  0.05873000  0.47270000  1.0
  O  O432  1  0.20666000  0.04504000  0.00688000  1.0
  O  O433  1  0.79334000  0.45496000  0.50687000  1.0
  O  O434  1  0.29334000  0.54504000  0.99313000  1.0
  O  O435  1  0.70666000  0.95496000  0.49313000  1.0
  O  O436  1  0.79334000  0.95496000  0.99313000  1.0
  O  O437  1  0.20666000  0.54504000  0.49312000  1.0
  O  O438  1  0.70666000  0.45496000  0.00687000  1.0
  O  O439  1  0.29334000  0.04504000  0.50688000  1.0
