# generated using pymatgen
data_CdH10C15O7
_symmetry_space_group_name_H-M   'P 1'
_cell_length_a   6.56424000
_cell_length_b   7.55043000
_cell_length_c   28.50570000
_cell_angle_alpha   90.00000000
_cell_angle_beta   90.00000000
_cell_angle_gamma   105.18700000
_symmetry_Int_Tables_number   1
_chemical_formula_structural   CdH10C15O7
_chemical_formula_sum   'Cd4 H40 C60 O28'
_cell_volume   1363.48179549
_cell_formula_units_Z   4
loop_
 _symmetry_equiv_pos_site_id
 _symmetry_equiv_pos_as_xyz
  1  'x, y, z'
loop_
 _atom_site_type_symbol
 _atom_site_label
 _atom_site_symmetry_multiplicity
 _atom_site_fract_x
 _atom_site_fract_y
 _atom_site_fract_z
 _atom_site_occupancy
  Cd  Cd0  1  0.31453000  0.78625000  0.52216000  1.0
  Cd  Cd1  1  0.18547000  0.21375000  0.02216000  1.0
  Cd  Cd2  1  0.68547000  0.21375000  0.47784000  1.0
  Cd  Cd3  1  0.81452000  0.78624000  0.97784000  1.0
  H  H4  1  0.34105000  0.26341000  0.18145000  1.0
  H  H5  1  0.15895000  0.73658000  0.68145000  1.0
  H  H6  1  0.65896000  0.73659000  0.81855000  1.0
  H  H7  1  0.84105000  0.26342000  0.31855000  1.0
  H  H8  1  0.47692000  0.79377000  0.11476000  1.0
  H  H9  1  0.02309000  0.20622000  0.61476000  1.0
  H  H10  1  0.52309000  0.20622000  0.88524000  1.0
  H  H11  1  0.97692000  0.79379000  0.38524000  1.0
  H  H12  1  0.54916000  0.95122000  0.19245000  1.0
  H  H13  1  0.95084000  0.04877000  0.69245000  1.0
  H  H14  1  0.45084000  0.04877000  0.80755000  1.0
  H  H15  1  0.04916000  0.95124000  0.30755000  1.0
  H  H16  1  0.57476000  0.04170000  0.28214000  1.0
  H  H17  1  0.92526000  0.95830000  0.78214000  1.0
  H  H18  1  0.42524000  0.95830000  0.71786000  1.0
  H  H19  1  0.07475000  0.04171000  0.21786000  1.0
  H  H20  1  0.56486000  0.05144000  0.36970000  1.0
  H  H21  1  0.93516000  0.94856000  0.86970000  1.0
  H  H22  1  0.43514000  0.94856000  0.63030000  1.0
  H  H23  1  0.06484000  0.05144000  0.13030000  1.0
  H  H24  1  0.37676000  0.45973000  0.37578000  1.0
  H  H25  1  0.12324000  0.54026000  0.87578000  1.0
  H  H26  1  0.62324000  0.54026000  0.62422000  1.0
  H  H27  1  0.87678000  0.45974000  0.12422000  1.0
  H  H28  1  0.64986000  0.60390000  0.54925000  1.0
  H  H29  1  0.85013000  0.39610000  0.04925000  1.0
  H  H30  1  0.35014000  0.39611000  0.45075000  1.0
  H  H31  1  0.14986000  0.60389000  0.95075000  1.0
  H  H32  1  0.71007000  0.80291000  0.57317000  1.0
  H  H33  1  0.78992000  0.19708000  0.07317000  1.0
  H  H34  1  0.28992000  0.19709000  0.42682000  1.0
  H  H35  1  0.21007000  0.80291000  0.92683000  1.0
  H  H36  1  0.95434000  0.70780000  0.46432000  1.0
  H  H37  1  0.54565000  0.29220000  0.96432000  1.0
  H  H38  1  0.04565000  0.29220000  0.53568000  1.0
  H  H39  1  0.45434000  0.70779000  0.03568000  1.0
  H  H40  1  0.89718000  0.81669000  0.50652000  1.0
  H  H41  1  0.60281000  0.18331000  0.00652000  1.0
  H  H42  1  0.10281000  0.18331000  0.49348000  1.0
  H  H43  1  0.39718000  0.81668000  0.99348000  1.0
  C  C44  1  0.38426000  0.41242000  0.18426000  1.0
  C  C45  1  0.11574000  0.58757000  0.68426000  1.0
  C  C46  1  0.61574000  0.58758000  0.81574000  1.0
  C  C47  1  0.88426000  0.41243000  0.31574000  1.0
  C  C48  1  0.40719000  0.52079000  0.14360000  1.0
  C  C49  1  0.09281000  0.47920000  0.64360000  1.0
  C  C50  1  0.59281000  0.47920000  0.85640000  1.0
  C  C51  1  0.90719000  0.52081000  0.35640000  1.0
  C  C52  1  0.46413000  0.71321000  0.14688000  1.0
  C  C53  1  0.03588000  0.28678000  0.64688000  1.0
  C  C54  1  0.53588000  0.28678000  0.85312000  1.0
  C  C55  1  0.96412000  0.71322000  0.35312000  1.0
  C  C56  1  0.50146000  0.80187000  0.19030000  1.0
  C  C57  1  0.99855000  0.19812000  0.69030000  1.0
  C  C58  1  0.49855000  0.19812000  0.80970000  1.0
  C  C59  1  0.00146000  0.80189000  0.30970000  1.0
  C  C60  1  0.47305000  0.69403000  0.23060000  1.0
  C  C61  1  0.02695000  0.30597000  0.73060000  1.0
  C  C62  1  0.52696000  0.30597000  0.76940000  1.0
  C  C63  1  0.97305000  0.69403000  0.26940000  1.0
  C  C64  1  0.48748000  0.74496000  0.28052000  1.0
  C  C65  1  0.01252000  0.25503000  0.78052000  1.0
  C  C66  1  0.51253000  0.25504000  0.71948000  1.0
  C  C67  1  0.98749000  0.74496000  0.21948000  1.0
  C  C68  1  0.53570000  0.91520000  0.30251000  1.0
  C  C69  1  0.96430000  0.08480000  0.80251000  1.0
  C  C70  1  0.46430000  0.08480000  0.69749000  1.0
  C  C71  1  0.03569000  0.91520000  0.19749000  1.0
  C  C72  1  0.52674000  0.92000000  0.35155000  1.0
  C  C73  1  0.97327000  0.08000000  0.85155000  1.0
  C  C74  1  0.47326000  0.08000000  0.64845000  1.0
  C  C75  1  0.02673000  0.92000000  0.14845000  1.0
  C  C76  1  0.47031000  0.75799000  0.37823000  1.0
  C  C77  1  0.02970000  0.24200000  0.87823000  1.0
  C  C78  1  0.52970000  0.24200000  0.62177000  1.0
  C  C79  1  0.97031000  0.75799000  0.12177000  1.0
  C  C80  1  0.42378000  0.58638000  0.35571000  1.0
  C  C81  1  0.07622000  0.41362000  0.85571000  1.0
  C  C82  1  0.57623000  0.41362000  0.64430000  1.0
  C  C83  1  0.92378000  0.58638000  0.14429000  1.0
  C  C84  1  0.43374000  0.58194000  0.30748000  1.0
  C  C85  1  0.06626000  0.41806000  0.80748000  1.0
  C  C86  1  0.56626000  0.41807000  0.69252000  1.0
  C  C87  1  0.93375000  0.58193000  0.19252000  1.0
  C  C88  1  0.38471000  0.42038000  0.27542000  1.0
  C  C89  1  0.11529000  0.57962000  0.77542000  1.0
  C  C90  1  0.61529000  0.57963000  0.72458000  1.0
  C  C91  1  0.88472000  0.42038000  0.22458000  1.0
  C  C92  1  0.41352000  0.50011000  0.22728000  1.0
  C  C93  1  0.08648000  0.49988000  0.72728000  1.0
  C  C94  1  0.58648000  0.49988000  0.77272000  1.0
  C  C95  1  0.91353000  0.50012000  0.27272000  1.0
  C  C96  1  0.35586000  0.42739000  0.09752000  1.0
  C  C97  1  0.14413000  0.57260000  0.59752000  1.0
  C  C98  1  0.64414000  0.57260000  0.90248000  1.0
  C  C99  1  0.85586000  0.42740000  0.40248000  1.0
  C  C100  1  0.44130000  0.76458000  0.42980000  1.0
  C  C101  1  0.05871000  0.23542000  0.92980000  1.0
  C  C102  1  0.55870000  0.23542000  0.57020000  1.0
  C  C103  1  0.94130000  0.76458000  0.07020000  1.0
  O  O104  1  0.32777000  0.25695000  0.28642000  1.0
  O  O105  1  0.17223000  0.74304000  0.78642000  1.0
  O  O106  1  0.67224000  0.74306000  0.71358000  1.0
  O  O107  1  0.82777000  0.25695000  0.21358000  1.0
  O  O108  1  0.32509000  0.51732000  0.06148000  1.0
  O  O109  1  0.17490000  0.48268000  0.56148000  1.0
  O  O110  1  0.67490000  0.48268000  0.93852000  1.0
  O  O111  1  0.82509000  0.51732000  0.43852000  1.0
  O  O112  1  0.33087000  0.25348000  0.09600000  1.0
  O  O113  1  0.16911000  0.74651000  0.59600000  1.0
  O  O114  1  0.66912000  0.74652000  0.90400000  1.0
  O  O115  1  0.83088000  0.25349000  0.40400000  1.0
  O  O116  1  0.48115000  0.91957000  0.45108000  1.0
  O  O117  1  0.01885000  0.08043000  0.95109000  1.0
  O  O118  1  0.51883000  0.08043000  0.54891000  1.0
  O  O119  1  0.98115000  0.91957000  0.04891000  1.0
  O  O120  1  0.36202000  0.61638000  0.45241000  1.0
  O  O121  1  0.13798000  0.38361000  0.95241000  1.0
  O  O122  1  0.63798000  0.38362000  0.54759000  1.0
  O  O123  1  0.86202000  0.61638000  0.04759000  1.0
  O  O124  1  0.65844000  0.73785000  0.54428000  1.0
  O  O125  1  0.84155000  0.26215000  0.04428000  1.0
  O  O126  1  0.34155000  0.26215000  0.45572000  1.0
  O  O127  1  0.15844000  0.73785000  0.95572000  1.0
  O  O128  1  0.01355000  0.81844000  0.48434000  1.0
  O  O129  1  0.48644000  0.18156000  0.98434000  1.0
  O  O130  1  0.98644000  0.18156000  0.51566000  1.0
  O  O131  1  0.51355000  0.81844000  0.01566000  1.0
