# generated using pymatgen
data_CaH18C16N2O11
_symmetry_space_group_name_H-M   'P 1'
_cell_length_a   6.90071000
_cell_length_b   12.03872316
_cell_length_c   12.16480000
_cell_angle_alpha   100.80726406
_cell_angle_beta   106.44760000
_cell_angle_gamma   106.65239565
_symmetry_Int_Tables_number   1
_chemical_formula_structural   CaH18C16N2O11
_chemical_formula_sum   'Ca2 H36 C32 N4 O22'
_cell_volume   888.02191100
_cell_formula_units_Z   2
loop_
 _symmetry_equiv_pos_site_id
 _symmetry_equiv_pos_as_xyz
  1  'x, y, z'
loop_
 _atom_site_type_symbol
 _atom_site_label
 _atom_site_symmetry_multiplicity
 _atom_site_fract_x
 _atom_site_fract_y
 _atom_site_fract_z
 _atom_site_occupancy
  Ca  Ca0  1  0.10470000  0.24996000  0.24998000  1.0
  Ca  Ca1  1  0.89530000  0.75004000  0.75002000  1.0
  H  H2  1  0.58317000  0.27276000  0.32001000  1.0
  H  H3  1  0.49086000  0.22692000  0.18020000  1.0
  H  H4  1  0.41683000  0.72724000  0.67999000  1.0
  H  H5  1  0.50914000  0.77308000  0.81979000  1.0
  H  H6  1  0.20728000  0.58036000  0.73325000  1.0
  H  H7  1  0.39395000  0.91981000  0.76674000  1.0
  H  H8  1  0.79272000  0.41964000  0.26674000  1.0
  H  H9  1  0.60606000  0.08019000  0.23327000  1.0
  H  H10  1  0.23686000  0.60468000  0.94754000  1.0
  H  H11  1  0.18538000  0.89549000  0.55246000  1.0
  H  H12  1  0.76313000  0.39532000  0.05245000  1.0
  H  H13  1  0.81462000  0.10451000  0.44754000  1.0
  H  H14  1  0.17920000  0.23049000  0.89153000  1.0
  H  H15  1  0.55696000  0.26981000  0.60860000  1.0
  H  H16  1  0.82080000  0.76951000  0.10846000  1.0
  H  H17  1  0.44304000  0.73019000  0.39141000  1.0
  H  H18  1  0.14764000  0.21853000  0.67872000  1.0
  H  H19  1  0.75009000  0.28173000  0.82132000  1.0
  H  H20  1  0.85236000  0.78147000  0.32128000  1.0
  H  H21  1  0.24991000  0.71827000  0.17868000  1.0
  H  H22  1  0.24016000  0.32169000  0.55054000  1.0
  H  H23  1  0.86790000  0.17858000  0.94934000  1.0
  H  H24  1  0.75984000  0.67831000  0.44945000  1.0
  H  H25  1  0.13210000  0.82142000  0.05066000  1.0
  H  H26  1  0.27176000  0.47675000  0.57436000  1.0
  H  H27  1  0.72090000  0.02350000  0.92558000  1.0
  H  H28  1  0.72824000  0.52325000  0.42564000  1.0
  H  H29  1  0.27910000  0.97650000  0.07443000  1.0
  H  H30  1  0.25627000  0.52253000  0.38779000  1.0
  H  H31  1  0.84622000  0.97749000  0.11213000  1.0
  H  H32  1  0.74374000  0.47747000  0.61221000  1.0
  H  H33  1  0.15378000  0.02251000  0.88787000  1.0
  H  H34  1  0.30557000  0.49774000  0.26777000  1.0
  H  H35  1  0.03995000  0.00233000  0.23225000  1.0
  H  H36  1  0.69443000  0.50226000  0.73223000  1.0
  H  H37  1  0.96004000  0.99767000  0.76775000  1.0
  C  C38  1  0.20395000  0.50677000  0.77357000  1.0
  C  C39  1  0.42396000  0.99343000  0.72644000  1.0
  C  C40  1  0.79604000  0.49323000  0.22643000  1.0
  C  C41  1  0.57605000  0.00657000  0.27356000  1.0
  C  C42  1  0.21885000  0.51816000  0.89121000  1.0
  C  C43  1  0.31000000  0.98203000  0.60883000  1.0
  C  C44  1  0.78115000  0.48184000  0.10879000  1.0
  C  C45  1  0.69001000  0.01798000  0.39117000  1.0
  C  C46  1  0.20868000  0.41864000  0.93575000  1.0
  C  C47  1  0.35456000  0.08155000  0.56428000  1.0
  C  C48  1  0.79133000  0.58136000  0.06425000  1.0
  C  C49  1  0.64543000  0.91845000  0.43572000  1.0
  C  C50  1  0.18428000  0.30918000  0.85914000  1.0
  C  C51  1  0.51584000  0.19107000  0.64092000  1.0
  C  C52  1  0.81573000  0.69082000  0.14086000  1.0
  C  C53  1  0.48417000  0.80894000  0.35908000  1.0
  C  C54  1  0.17214000  0.30212000  0.74270000  1.0
  C  C55  1  0.62714000  0.19814000  0.75734000  1.0
  C  C56  1  0.82785000  0.69788000  0.25730000  1.0
  C  C57  1  0.37286000  0.80186000  0.24266000  1.0
  C  C58  1  0.17158000  0.38921000  0.57773000  1.0
  C  C59  1  0.70475000  0.11101000  0.92219000  1.0
  C  C60  1  0.82842000  0.61079000  0.42227000  1.0
  C  C61  1  0.29526000  0.88899000  0.07781000  1.0
  C  C62  1  0.93927000  0.35113000  0.48807000  1.0
  C  C63  1  0.59996000  0.14889000  0.01191000  1.0
  C  C64  1  0.06073000  0.64887000  0.51192000  1.0
  C  C65  1  0.40005000  0.85111000  0.98809000  1.0
  C  C66  1  0.21742000  0.42647000  0.06297000  1.0
  C  C67  1  0.22801000  0.07364000  0.43711000  1.0
  C  C68  1  0.78258000  0.57353000  0.93703000  1.0
  C  C69  1  0.77200000  0.92637000  0.56290000  1.0
  N  N70  1  0.18390000  0.40026000  0.70196000  1.0
  N  N71  1  0.58175000  0.09998000  0.79806000  1.0
  N  N72  1  0.81608000  0.59973000  0.29804000  1.0
  N  N73  1  0.41826000  0.90002000  0.20194000  1.0
  O  O74  1  0.91335000  0.30731000  0.37909000  1.0
  O  O75  1  0.72666000  0.19286000  0.12088000  1.0
  O  O76  1  0.08665000  0.69269000  0.62091000  1.0
  O  O77  1  0.27334000  0.80714000  0.87912000  1.0
  O  O78  1  0.29692000  0.46563000  0.33719000  1.0
  O  O79  1  0.99429000  0.03435000  0.16274000  1.0
  O  O80  1  0.70308000  0.53437000  0.66281000  1.0
  O  O81  1  0.00572000  0.96565000  0.83726000  1.0
  O  O82  1  0.79222000  0.36558000  0.52454000  1.0
  O  O83  1  0.40198000  0.13422000  0.97544000  1.0
  O  O84  1  0.20778000  0.63442000  0.47545000  1.0
  O  O85  1  0.59802000  0.86578000  0.02456000  1.0
  O  O86  1  0.45033000  0.24970000  0.25003000  1.0
  O  O87  1  0.54967000  0.75030000  0.74997000  1.0
  O  O88  1  0.30391000  0.53101000  0.13838000  1.0
  O  O89  1  0.13358000  0.96908000  0.36179000  1.0
  O  O90  1  0.69609000  0.46899000  0.86162000  1.0
  O  O91  1  0.86642000  0.03092000  0.63822000  1.0
  O  O92  1  0.13409000  0.32674000  0.08188000  1.0
  O  O93  1  0.22593000  0.17345000  0.41820000  1.0
  O  O94  1  0.86591000  0.67326000  0.91812000  1.0
  O  O95  1  0.77408000  0.82656000  0.58180000  1.0
