# generated using pymatgen
data_CuH12C14(NO2)2
_symmetry_space_group_name_H-M   'P 1'
_cell_length_a   8.47590000
_cell_length_b   14.06349219
_cell_length_c   15.62795043
_cell_angle_alpha   115.32711846
_cell_angle_beta   90.08725742
_cell_angle_gamma   107.51347945
_symmetry_Int_Tables_number   1
_chemical_formula_structural   CuH12C14(NO2)2
_chemical_formula_sum   'Cu4 H48 C56 N8 O16'
_cell_volume   1587.31489117
_cell_formula_units_Z   4
loop_
 _symmetry_equiv_pos_site_id
 _symmetry_equiv_pos_as_xyz
  1  'x, y, z'
loop_
 _atom_site_type_symbol
 _atom_site_label
 _atom_site_symmetry_multiplicity
 _atom_site_fract_x
 _atom_site_fract_y
 _atom_site_fract_z
 _atom_site_occupancy
  Cu  Cu0  1  0.00001000  0.00001000  1.00000000  1.0
  Cu  Cu1  1  0.99998000  0.50000000  0.00000000  1.0
  Cu  Cu2  1  0.50000000  0.50000000  0.50000000  1.0
  Cu  Cu3  1  0.00001000  0.00001000  0.50001000  1.0
  H  H4  1  0.05562000  0.46761000  0.37601000  1.0
  H  H5  1  0.48997000  0.16125000  0.62327000  1.0
  H  H6  1  0.41976000  0.58402000  0.14740000  1.0
  H  H7  1  0.02859000  0.60396000  0.86804000  1.0
  H  H8  1  0.42437000  0.39610000  0.63208000  1.0
  H  H9  1  0.25179000  0.30314000  0.34404000  1.0
  H  H10  1  0.03050000  0.80909000  0.01929000  1.0
  H  H11  1  0.83463000  0.41540000  0.35188000  1.0
  H  H12  1  0.93944000  0.64599000  0.40816000  1.0
  H  H13  1  0.51001000  0.83873000  0.37672000  1.0
  H  H14  1  0.64674000  0.10938000  0.36144000  1.0
  H  H15  1  0.24616000  0.87936000  0.41822000  1.0
  H  H16  1  0.97140000  0.39604000  0.13195000  1.0
  H  H17  1  0.70659000  0.64625000  0.90845000  1.0
  H  H18  1  0.66596000  0.92203000  0.33795000  1.0
  H  H19  1  0.74821000  0.69685000  0.65595000  1.0
  H  H20  1  0.74515000  0.07837000  0.16260000  1.0
  H  H21  1  0.33403000  0.07796000  0.66205000  1.0
  H  H22  1  0.41150000  0.46825000  0.87611000  1.0
  H  H23  1  0.58022000  0.41598000  0.85261000  1.0
  H  H24  1  0.77964000  0.80913000  0.51955000  1.0
  H  H25  1  0.47269000  0.83169000  0.26259000  1.0
  H  H26  1  0.39805000  0.35047000  0.76601000  1.0
  H  H27  1  0.06056000  0.35400000  0.59185000  1.0
  H  H28  1  0.64187000  0.16836000  0.23784000  1.0
  H  H29  1  0.57564000  0.60391000  0.36793000  1.0
  H  H30  1  0.04842000  0.64988000  0.73437000  1.0
  H  H31  1  0.58851000  0.53178000  0.12390000  1.0
  H  H32  1  0.22036000  0.19086000  0.48044000  1.0
  H  H33  1  0.53863000  0.89077000  0.13883000  1.0
  H  H34  1  0.94436000  0.53236000  0.62398000  1.0
  H  H35  1  0.16535000  0.58458000  0.64810000  1.0
  H  H36  1  0.94878000  0.69693000  0.15578000  1.0
  H  H37  1  0.29343000  0.35376000  0.09155000  1.0
  H  H38  1  0.25487000  0.92164000  0.83741000  1.0
  H  H39  1  0.60194000  0.64954000  0.23399000  1.0
  H  H40  1  0.52729000  0.16830000  0.73740000  1.0
  H  H41  1  0.05121000  0.30308000  0.84423000  1.0
  H  H42  1  0.96951000  0.19092000  0.98070000  1.0
  H  H43  1  0.35816000  0.83166000  0.76217000  1.0
  H  H44  1  0.35326000  0.89060000  0.63855000  1.0
  H  H45  1  0.46136000  0.10923000  0.86117000  1.0
  H  H46  1  0.67211000  0.16169000  0.12386000  1.0
  H  H47  1  0.36764000  0.12073000  0.08185000  1.0
  H  H48  1  0.75383000  0.12062000  0.58177000  1.0
  H  H49  1  0.63238000  0.87929000  0.91816000  1.0
  H  H50  1  0.32790000  0.83831000  0.87614000  1.0
  H  H51  1  0.95156000  0.35010000  0.26561000  1.0
  C  C52  1  0.94415000  0.61559000  0.33152000  1.0
  C  C53  1  0.48247000  0.43153000  0.81940000  1.0
  C  C54  1  0.86702000  0.79966000  0.84361000  1.0
  C  C55  1  0.48607000  0.52242000  0.32057000  1.0
  C  C56  1  0.93200000  0.79941000  0.34324000  1.0
  C  C57  1  0.94134000  0.68399000  0.28852000  1.0
  C  C58  1  0.45432000  0.97946000  0.37965000  1.0
  C  C59  1  0.46911000  0.11082000  0.66252000  1.0
  C  C60  1  0.96348000  0.47752000  0.17930000  1.0
  C  C61  1  0.55652000  0.50878000  0.77640000  1.0
  C  C62  1  0.25731000  0.31593000  0.21124000  1.0
  C  C63  1  0.67145000  0.61576000  0.83177000  1.0
  C  C64  1  0.34604000  0.04150000  0.08401000  1.0
  C  C65  1  0.15751000  0.86673000  0.04739000  1.0
  C  C66  1  0.05184000  0.56892000  0.68095000  1.0
  C  C67  1  0.48224000  0.71849000  0.56622000  1.0
  C  C68  1  0.04809000  0.49140000  0.72381000  1.0
  C  C69  1  0.30368000  0.95855000  0.41599000  1.0
  C  C70  1  0.32858000  0.38425000  0.16823000  1.0
  C  C71  1  0.06800000  0.20059000  0.65678000  1.0
  C  C72  1  0.04925000  0.35483000  0.80902000  1.0
  C  C73  1  0.52411000  0.97940000  0.87953000  1.0
  C  C74  1  0.47389000  0.91414000  0.61503000  1.0
  C  C75  1  0.71021000  0.86673000  0.54755000  1.0
  C  C76  1  0.55861000  0.08577000  0.88480000  1.0
  C  C77  1  0.44357000  0.16409000  0.42239000  1.0
  C  C78  1  0.64272000  0.11106000  0.16295000  1.0
  C  C79  1  0.74271000  0.68407000  0.78875000  1.0
  C  C80  1  0.95191000  0.50861000  0.27620000  1.0
  C  C81  1  0.23706000  0.71868000  0.06663000  1.0
  C  C82  1  0.28978000  0.13326000  0.45245000  1.0
  C  C83  1  0.35728000  0.88894000  0.83705000  1.0
  C  C84  1  0.69631000  0.04144000  0.58401000  1.0
  C  C85  1  0.05586000  0.38441000  0.66848000  1.0
  C  C86  1  0.52609000  0.08583000  0.38496000  1.0
  C  C87  1  0.55644000  0.83590000  0.57760000  1.0
  C  C88  1  0.94816000  0.43107000  0.31904000  1.0
  C  C89  1  0.69453000  0.64512000  0.69114000  1.0
  C  C90  1  0.54567000  0.02052000  0.62034000  1.0
  C  C91  1  0.65398000  0.95852000  0.91600000  1.0
  C  C92  1  0.71949000  0.16405000  0.92234000  1.0
  C  C93  1  0.47589000  0.02061000  0.12048000  1.0
  C  C94  1  0.30547000  0.35487000  0.30885000  1.0
  C  C95  1  0.76293000  0.28133000  0.93337000  1.0
  C  C96  1  0.95075000  0.64518000  0.19099000  1.0
  C  C97  1  0.53090000  0.88918000  0.33748000  1.0
  C  C98  1  0.03651000  0.52248000  0.82070000  1.0
  C  C99  1  0.84250000  0.13328000  0.95261000  1.0
  C  C100  1  0.28052000  0.83596000  0.07766000  1.0
  C  C101  1  0.51392000  0.47757000  0.67943000  1.0
  C  C102  1  0.51753000  0.56848000  0.18060000  1.0
  C  C103  1  0.05866000  0.31601000  0.71149000  1.0
  C  C104  1  0.44349000  0.49122000  0.22360000  1.0
  C  C105  1  0.13299000  0.20035000  0.15638000  1.0
  C  C106  1  0.44140000  0.91424000  0.11520000  1.0
  C  C107  1  0.51776000  0.28150000  0.43378000  1.0
  N  N108  1  0.57992000  0.54454000  0.63797000  1.0
  N  N109  1  0.03525000  0.45539000  0.86212000  1.0
  N  N110  1  0.22229000  0.03284000  0.45067000  1.0
  N  N111  1  0.80968000  0.03288000  0.95087000  1.0
  N  N112  1  0.19032000  0.96713000  0.04913000  1.0
  N  N113  1  0.42009000  0.45546000  0.36203000  1.0
  N  N114  1  0.96473000  0.54462000  0.13789000  1.0
  N  N115  1  0.77771000  0.96715000  0.54932000  1.0
  O  O116  1  0.10540000  0.15167000  0.69961000  1.0
  O  O117  1  0.34711000  0.68885000  0.59404000  1.0
  O  O118  1  0.65761000  0.31069000  0.90487000  1.0
  O  O119  1  0.97091000  0.84063000  0.43570000  1.0
  O  O120  1  0.08393000  0.65611000  0.02495000  1.0
  O  O121  1  0.86953000  0.84072000  0.93605000  1.0
  O  O122  1  0.95271000  0.84894000  0.80092000  1.0
  O  O123  1  0.04729000  0.15107000  0.19906000  1.0
  O  O124  1  0.65289000  0.31113000  0.40596000  1.0
  O  O125  1  0.02911000  0.15938000  0.56432000  1.0
  O  O126  1  0.13048000  0.15928000  0.06393000  1.0
  O  O127  1  0.57290000  0.65599000  0.52485000  1.0
  O  O128  1  0.42709000  0.34400000  0.47515000  1.0
  O  O129  1  0.91607000  0.34391000  0.97506000  1.0
  O  O130  1  0.89459000  0.84833000  0.30041000  1.0
  O  O131  1  0.34238000  0.68931000  0.09512000  1.0
