# generated using pymatgen
data_CdH11C14NO6
_symmetry_space_group_name_H-M   'P 1'
_cell_length_a   8.35579000
_cell_length_b   8.90879000
_cell_length_c   10.15610000
_cell_angle_alpha   70.48570000
_cell_angle_beta   66.44160000
_cell_angle_gamma   80.91680000
_symmetry_Int_Tables_number   1
_chemical_formula_structural   CdH11C14NO6
_chemical_formula_sum   'Cd2 H22 C28 N2 O12'
_cell_volume   652.94071944
_cell_formula_units_Z   2
loop_
 _symmetry_equiv_pos_site_id
 _symmetry_equiv_pos_as_xyz
  1  'x, y, z'
loop_
 _atom_site_type_symbol
 _atom_site_label
 _atom_site_symmetry_multiplicity
 _atom_site_fract_x
 _atom_site_fract_y
 _atom_site_fract_z
 _atom_site_occupancy
  Cd  Cd0  1  0.81821000  0.57991000  0.41308000  1.0
  Cd  Cd1  1  0.18179000  0.42009000  0.58692000  1.0
  H  H2  1  0.27512000  0.14567000  0.35604000  1.0
  H  H3  1  0.72488000  0.85433000  0.64396000  1.0
  H  H4  1  0.31669000  0.93544000  0.42068000  1.0
  H  H5  1  0.68331000  0.06456000  0.57932000  1.0
  H  H6  1  0.55418000  0.20172000  0.32737000  1.0
  H  H7  1  0.44582000  0.79828000  0.67263000  1.0
  H  H8  1  0.55370000  0.18586000  0.90862000  1.0
  H  H9  1  0.44630000  0.81414000  0.09138000  1.0
  H  H10  1  0.83876000  0.54754000  0.91246000  1.0
  H  H11  1  0.16124000  0.45246000  0.08754000  1.0
  H  H12  1  0.78862000  0.90246000  0.19310000  1.0
  H  H13  1  0.21138000  0.09754000  0.80689000  1.0
  H  H14  1  0.94596000  0.16090000  0.04375000  1.0
  H  H15  1  0.05404000  0.83910000  0.95625000  1.0
  H  H16  1  0.18294000  0.21896000  0.10554000  1.0
  H  H17  1  0.81706000  0.78104000  0.89446000  1.0
  H  H18  1  0.07868000  0.77459000  0.46564000  1.0
  H  H19  1  0.92132000  0.22541000  0.53436000  1.0
  H  H20  1  0.51424000  0.68674000  0.34485000  1.0
  H  H21  1  0.48577000  0.31327000  0.65515000  1.0
  H  H22  1  0.45077000  0.68040000  0.51115000  1.0
  H  H23  1  0.54923000  0.31960000  0.48885000  1.0
  C  C24  1  0.29645000  0.03315000  0.32809000  1.0
  C  C25  1  0.70354000  0.96685000  0.67191000  1.0
  C  C26  1  0.75572000  0.46252000  0.21275000  1.0
  C  C27  1  0.24429000  0.53748000  0.78725000  1.0
  C  C28  1  0.59249000  0.25237000  0.20591000  1.0
  C  C29  1  0.40751000  0.74763000  0.79409000  1.0
  C  C30  1  0.54363000  0.18022000  0.12520000  1.0
  C  C31  1  0.45636000  0.81978000  0.87480000  1.0
  C  C32  1  0.59553000  0.24268000  0.96886000  1.0
  C  C33  1  0.40446000  0.75732000  0.03114000  1.0
  C  C34  1  0.69740000  0.38647000  0.12899000  1.0
  C  C35  1  0.30260000  0.61353000  0.87101000  1.0
  C  C36  1  0.75303000  0.44686000  0.97252000  1.0
  C  C37  1  0.24698000  0.55314000  0.02748000  1.0
  C  C38  1  0.70068000  0.37634000  0.89263000  1.0
  C  C39  1  0.29932000  0.62365000  0.10737000  1.0
  C  C40  1  0.75098000  0.44851000  0.72669000  1.0
  C  C41  1  0.24902000  0.55149000  0.27331000  1.0
  C  C42  1  0.89080000  0.93523000  0.21867000  1.0
  C  C43  1  0.10920000  0.06477000  0.78132000  1.0
  C  C44  1  0.97775000  0.07798000  0.13679000  1.0
  C  C45  1  0.02226000  0.92202000  0.86321000  1.0
  C  C46  1  0.10872000  0.11105000  0.17350000  1.0
  C  C47  1  0.89129000  0.88895000  0.82650000  1.0
  C  C48  1  0.14703000  0.00301000  0.29427000  1.0
  C  C49  1  0.85297000  0.99699000  0.70573000  1.0
  C  C50  1  0.05348000  0.86324000  0.37121000  1.0
  C  C51  1  0.94652000  0.13676000  0.62879000  1.0
  N  N52  1  0.92964000  0.82908000  0.33254000  1.0
  N  N53  1  0.07036000  0.17092000  0.66746000  1.0
  O  O54  1  0.73710000  0.38263000  0.35042000  1.0
  O  O55  1  0.26291000  0.61737000  0.64959000  1.0
  O  O56  1  0.82029000  0.59892000  0.14994000  1.0
  O  O57  1  0.17971000  0.40107000  0.85006000  1.0
  O  O58  1  0.65708000  0.42410000  0.66350000  1.0
  O  O59  1  0.34292000  0.57590000  0.33649000  1.0
  O  O60  1  0.88559000  0.53612000  0.65068000  1.0
  O  O61  1  0.11441000  0.46388000  0.34932000  1.0
  O  O62  1  0.45033000  0.04297000  0.19221000  1.0
  O  O63  1  0.54966000  0.95703000  0.80779000  1.0
  O  O64  1  0.55115000  0.71689000  0.41309000  1.0
  O  O65  1  0.44885000  0.28311000  0.58691000  1.0
