# generated using pymatgen
data_CuH10C7NO4
_symmetry_space_group_name_H-M   'P 1'
_cell_length_a   8.42369000
_cell_length_b   9.79590000
_cell_length_c   11.97360000
_cell_angle_alpha   90.02050000
_cell_angle_beta   90.00890000
_cell_angle_gamma   107.68300000
_symmetry_Int_Tables_number   1
_chemical_formula_structural   CuH10C7NO4
_chemical_formula_sum   'Cu4 H40 C28 N4 O16'
_cell_volume   941.35000397
_cell_formula_units_Z   4
loop_
 _symmetry_equiv_pos_site_id
 _symmetry_equiv_pos_as_xyz
  1  'x, y, z'
loop_
 _atom_site_type_symbol
 _atom_site_label
 _atom_site_symmetry_multiplicity
 _atom_site_fract_x
 _atom_site_fract_y
 _atom_site_fract_z
 _atom_site_occupancy
  Cu  Cu0  1  0.98567000  0.36396000  0.48997000  1.0
  Cu  Cu1  1  0.51429000  0.13448000  0.99020000  1.0
  Cu  Cu2  1  0.01435000  0.63624000  0.51003000  1.0
  Cu  Cu3  1  0.48571000  0.86551000  0.00981000  1.0
  H  H4  1  0.81110000  0.40349000  0.13976000  1.0
  H  H5  1  0.68905000  0.09659000  0.63969000  1.0
  H  H6  1  0.18883000  0.59655000  0.86012000  1.0
  H  H7  1  0.31096000  0.90343000  0.36031000  1.0
  H  H8  1  0.84921000  0.59591000  0.14814000  1.0
  H  H9  1  0.65114000  0.90421000  0.64769000  1.0
  H  H10  1  0.15085000  0.40414000  0.85195000  1.0
  H  H11  1  0.34887000  0.09581000  0.35233000  1.0
  H  H12  1  0.66416000  0.47517000  0.20298000  1.0
  H  H13  1  0.83593000  0.02498000  0.70312000  1.0
  H  H14  1  0.33585000  0.52486000  0.79701000  1.0
  H  H15  1  0.16407000  0.97505000  0.29690000  1.0
  H  H16  1  0.44089000  0.36978000  0.56452000  1.0
  H  H17  1  0.06016000  0.13015000  0.06499000  1.0
  H  H18  1  0.55907000  0.63023000  0.43550000  1.0
  H  H19  1  0.93984000  0.86985000  0.93502000  1.0
  H  H20  1  0.51532000  0.48852000  0.67828000  1.0
  H  H21  1  0.98497000  0.01139000  0.17854000  1.0
  H  H22  1  0.48484000  0.51154000  0.32167000  1.0
  H  H23  1  0.01502000  0.98861000  0.82147000  1.0
  H  H24  1  0.51003000  0.30393000  0.68865000  1.0
  H  H25  1  0.99020000  0.19599000  0.18889000  1.0
  H  H26  1  0.48984000  0.69607000  0.31139000  1.0
  H  H27  1  0.00982000  0.80402000  0.81112000  1.0
  H  H28  1  0.19996000  0.20856000  0.57995000  1.0
  H  H29  1  0.30030000  0.29153000  0.08015000  1.0
  H  H30  1  0.80004000  0.79138000  0.42004000  1.0
  H  H31  1  0.69969000  0.70848000  0.91985000  1.0
  H  H32  1  0.62440000  0.04309000  0.44584000  1.0
  H  H33  1  0.87562000  0.45683000  0.94590000  1.0
  H  H34  1  0.37564000  0.95689000  0.55416000  1.0
  H  H35  1  0.12437000  0.54318000  0.05410000  1.0
  H  H36  1  0.66627000  0.95142000  0.32658000  1.0
  H  H37  1  0.83364000  0.54840000  0.82668000  1.0
  H  H38  1  0.33374000  0.04856000  0.67341000  1.0
  H  H39  1  0.16636000  0.45161000  0.17332000  1.0
  H  H40  1  0.75267000  0.14252000  0.33925000  1.0
  H  H41  1  0.74731000  0.35729000  0.83928000  1.0
  H  H42  1  0.24737000  0.85745000  0.66075000  1.0
  H  H43  1  0.25268000  0.64272000  0.16072000  1.0
  C  C44  1  0.87815000  0.49557000  0.30335000  1.0
  C  C45  1  0.62187000  0.00433000  0.80292000  1.0
  C  C46  1  0.12183000  0.50438000  0.69663000  1.0
  C  C47  1  0.37814000  0.99569000  0.19709000  1.0
  C  C48  1  0.79797000  0.49258000  0.19012000  1.0
  C  C49  1  0.70211000  0.00744000  0.69005000  1.0
  C  C50  1  0.20202000  0.50740000  0.80986000  1.0
  C  C51  1  0.29790000  0.99259000  0.30996000  1.0
  C  C52  1  0.70516000  0.43513000  0.58325000  1.0
  C  C53  1  0.79585000  0.06499000  0.08324000  1.0
  C  C54  1  0.29483000  0.56482000  0.41673000  1.0
  C  C55  1  0.20415000  0.93502000  0.91677000  1.0
  C  C56  1  0.53183000  0.39675000  0.63310000  1.0
  C  C57  1  0.96867000  0.10318000  0.13324000  1.0
  C  C58  1  0.46816000  0.60322000  0.36690000  1.0
  C  C59  1  0.03133000  0.89682000  0.86677000  1.0
  C  C60  1  0.86870000  0.02139000  0.44310000  1.0
  C  C61  1  0.63129000  0.47851000  0.94315000  1.0
  C  C62  1  0.13130000  0.97856000  0.55690000  1.0
  C  C63  1  0.36870000  0.52151000  0.05686000  1.0
  C  C64  1  0.11103000  0.11418000  0.54342000  1.0
  C  C65  1  0.38911000  0.38586000  0.04353000  1.0
  C  C66  1  0.88897000  0.88577000  0.45658000  1.0
  C  C67  1  0.61089000  0.61416000  0.95646000  1.0
  C  C68  1  0.72042000  0.04037000  0.38427000  1.0
  C  C69  1  0.77954000  0.45948000  0.88433000  1.0
  C  C70  1  0.27959000  0.95960000  0.61573000  1.0
  C  C71  1  0.22046000  0.54053000  0.11567000  1.0
  N  N72  1  0.98310000  0.13617000  0.48770000  1.0
  N  N73  1  0.51702000  0.36382000  0.98787000  1.0
  N  N74  1  0.01690000  0.86379000  0.51230000  1.0
  N  N75  1  0.48298000  0.63619000  0.01213000  1.0
  O  O76  1  0.89718000  0.37823000  0.33726000  1.0
  O  O77  1  0.60236000  0.12142000  0.83757000  1.0
  O  O78  1  0.10284000  0.62173000  0.66273000  1.0
  O  O79  1  0.39764000  0.87859000  0.16245000  1.0
  O  O80  1  0.75744000  0.33105000  0.55490000  1.0
  O  O81  1  0.74286000  0.16874000  0.05467000  1.0
  O  O82  1  0.24257000  0.66891000  0.44506000  1.0
  O  O83  1  0.25714000  0.83126000  0.94535000  1.0
  O  O84  1  0.91704000  0.61424000  0.35565000  1.0
  O  O85  1  0.58237000  0.88586000  0.85568000  1.0
  O  O86  1  0.08288000  0.38570000  0.64434000  1.0
  O  O87  1  0.41763000  0.11416000  0.14433000  1.0
  O  O88  1  0.78201000  0.56833000  0.57288000  1.0
  O  O89  1  0.71797000  0.93188000  0.07237000  1.0
  O  O90  1  0.21796000  0.43162000  0.42712000  1.0
  O  O91  1  0.28203000  0.06813000  0.92763000  1.0
