# generated using pymatgen
data_NiH8(C3N)4
_symmetry_space_group_name_H-M   'P 1'
_cell_length_a   6.72310000
_cell_length_b   13.23640000
_cell_length_c   13.63517043
_cell_angle_alpha   60.96246687
_cell_angle_beta   75.75599390
_cell_angle_gamma   90.01190000
_symmetry_Int_Tables_number   1
_chemical_formula_structural   NiH8(C3N)4
_chemical_formula_sum   'Ni2 H16 C24 N8'
_cell_volume   1017.95497241
_cell_formula_units_Z   2
loop_
 _symmetry_equiv_pos_site_id
 _symmetry_equiv_pos_as_xyz
  1  'x, y, z'
loop_
 _atom_site_type_symbol
 _atom_site_label
 _atom_site_symmetry_multiplicity
 _atom_site_fract_x
 _atom_site_fract_y
 _atom_site_fract_z
 _atom_site_occupancy
  Ni  Ni0  1  0.00000000  1.00000000  0.50000000  1.0
  Ni  Ni1  1  0.50000000  1.00000000  0.50000000  1.0
  H  H2  1  0.86779000  0.00372000  0.90595000  1.0
  H  H3  1  0.77359000  0.99612000  0.09431000  1.0
  H  H4  1  0.72645000  0.59041000  0.90562000  1.0
  H  H5  1  0.63217000  0.40959000  0.09403000  1.0
  H  H6  1  0.13220000  0.99627000  0.09406000  1.0
  H  H7  1  0.22641000  0.00389000  0.90568000  1.0
  H  H8  1  0.27355000  0.40960000  0.09437000  1.0
  H  H9  1  0.36783000  0.59041000  0.90597000  1.0
  H  H10  1  0.31352000  0.00527000  0.72925000  1.0
  H  H11  1  0.04203000  0.99405000  0.27077000  1.0
  H  H12  1  0.45788000  0.76484000  0.72928000  1.0
  H  H13  1  0.18654000  0.23472000  0.27066000  1.0
  H  H14  1  0.68648000  0.99473000  0.27075000  1.0
  H  H15  1  0.95798000  0.00594000  0.72923000  1.0
  H  H16  1  0.54212000  0.23517000  0.27072000  1.0
  H  H17  1  0.81346000  0.76528000  0.72934000  1.0
  C  C18  1  0.47994000  0.00713000  0.71209000  1.0
  C  C19  1  0.19129000  0.99248000  0.28795000  1.0
  C  C20  1  0.30870000  0.78040000  0.71200000  1.0
  C  C21  1  0.02009000  0.21938000  0.28793000  1.0
  C  C22  1  0.52006000  0.99287000  0.28791000  1.0
  C  C23  1  0.80871000  0.00752000  0.71205000  1.0
  C  C24  1  0.69130000  0.21960000  0.28800000  1.0
  C  C25  1  0.97991000  0.78063000  0.71207000  1.0
  C  C26  1  0.61140000  0.00754000  0.77777000  1.0
  C  C27  1  0.38860000  0.99246000  0.22223000  1.0
  C  C28  1  0.11143000  0.71459000  0.77772000  1.0
  C  C29  1  0.88857000  0.28541000  0.22228000  1.0
  C  C30  1  0.55517000  0.00457000  0.88975000  1.0
  C  C31  1  0.44483000  0.99543000  0.11025000  1.0
  C  C32  1  0.05523000  0.60559000  0.88970000  1.0
  C  C33  1  0.94477000  0.39441000  0.11030000  1.0
  C  C34  1  0.70542000  0.00217000  0.94646000  1.0
  C  C35  1  0.65178000  0.99770000  0.05372000  1.0
  C  C36  1  0.84823000  0.55138000  0.94624000  1.0
  C  C37  1  0.79452000  0.44865000  0.05357000  1.0
  C  C38  1  0.29458000  0.99783000  0.05354000  1.0
  C  C39  1  0.34822000  0.00230000  0.94628000  1.0
  C  C40  1  0.15177000  0.44862000  0.05376000  1.0
  C  C41  1  0.20549000  0.55135000  0.94643000  1.0
  N  N42  1  0.59177000  0.00708000  0.61532000  1.0
  N  N43  1  0.20625000  0.99269000  0.38471000  1.0
  N  N44  1  0.29369000  0.87737000  0.61528000  1.0
  N  N45  1  0.90830000  0.12248000  0.38469000  1.0
  N  N46  1  0.40823000  0.99292000  0.38468000  1.0
  N  N47  1  0.79375000  0.00731000  0.61529000  1.0
  N  N48  1  0.70631000  0.12263000  0.38472000  1.0
  N  N49  1  0.09170000  0.87751000  0.61531000  1.0
