# generated using pymatgen
data_HgH6C7(BrN)2
_symmetry_space_group_name_H-M   'P 1'
_cell_length_a   7.46310000
_cell_length_b   9.16144000
_cell_length_c   15.66860000
_cell_angle_alpha   106.45700000
_cell_angle_beta   93.53180000
_cell_angle_gamma   107.72600000
_symmetry_Int_Tables_number   1
_chemical_formula_structural   HgH6C7(BrN)2
_chemical_formula_sum   'Hg4 H24 C28 Br8 N8'
_cell_volume   965.73430849
_cell_formula_units_Z   4
loop_
 _symmetry_equiv_pos_site_id
 _symmetry_equiv_pos_as_xyz
  1  'x, y, z'
loop_
 _atom_site_type_symbol
 _atom_site_label
 _atom_site_symmetry_multiplicity
 _atom_site_fract_x
 _atom_site_fract_y
 _atom_site_fract_z
 _atom_site_occupancy
  Hg  Hg0  1  0.14635000  0.06286000  0.63533000  1.0
  Hg  Hg1  1  0.85364000  0.93714000  0.36467000  1.0
  Hg  Hg2  1  0.38258000  0.36139000  0.87485000  1.0
  Hg  Hg3  1  0.61742000  0.63862000  0.12515000  1.0
  H  H4  1  0.85976000  0.75517000  0.67705000  1.0
  H  H5  1  0.14024000  0.24483000  0.32295000  1.0
  H  H6  1  0.88440000  0.60384000  0.72321000  1.0
  H  H7  1  0.11560000  0.39616000  0.27679000  1.0
  H  H8  1  0.04666000  0.43182000  0.64769000  1.0
  H  H9  1  0.95333000  0.56818000  0.35230000  1.0
  H  H10  1  0.25166000  0.36744000  0.53235000  1.0
  H  H11  1  0.74834000  0.63256000  0.46765000  1.0
  H  H12  1  0.41168000  0.58199000  0.46229000  1.0
  H  H13  1  0.58832000  0.41801000  0.53771000  1.0
  H  H14  1  0.35419000  0.84420000  0.51014000  1.0
  H  H15  1  0.64580000  0.15580000  0.48986000  1.0
  H  H16  1  0.03226000  0.70965000  0.88711000  1.0
  H  H17  1  0.96774000  0.29034000  0.11289000  1.0
  H  H18  1  0.48634000  0.25775000  0.02489000  1.0
  H  H19  1  0.51366000  0.74225000  0.97510000  1.0
  H  H20  1  0.60724000  0.35102000  0.18819000  1.0
  H  H21  1  0.39277000  0.64899000  0.81181000  1.0
  H  H22  1  0.48050000  0.17413000  0.28173000  1.0
  H  H23  1  0.51951000  0.82588000  0.71827000  1.0
  H  H24  1  0.23102000  0.90527000  0.20924000  1.0
  H  H25  1  0.76899000  0.09474000  0.79076000  1.0
  H  H26  1  0.10162000  0.81601000  0.04793000  1.0
  H  H27  1  0.89839000  0.18399000  0.95207000  1.0
  C  C28  1  0.96277000  0.71093000  0.70588000  1.0
  C  C29  1  0.03723000  0.28907000  0.29412000  1.0
  C  C30  1  0.09261000  0.67093000  0.63901000  1.0
  C  C31  1  0.90739000  0.32907000  0.36099000  1.0
  C  C32  1  0.11707000  0.52033000  0.61580000  1.0
  C  C33  1  0.88292000  0.47967000  0.38420000  1.0
  C  C34  1  0.23332000  0.48556000  0.55207000  1.0
  C  C35  1  0.76667000  0.51444000  0.44793000  1.0
  C  C36  1  0.32158000  0.60274000  0.51340000  1.0
  C  C37  1  0.67842000  0.39726000  0.48660000  1.0
  C  C38  1  0.29014000  0.75035000  0.53998000  1.0
  C  C39  1  0.70985000  0.24965000  0.46002000  1.0
  C  C40  1  0.20746000  0.97693000  0.92841000  1.0
  C  C41  1  0.79254000  0.02307000  0.07159000  1.0
  C  C42  1  0.09361000  0.82293000  0.87373000  1.0
  C  C43  1  0.90639000  0.17706000  0.12627000  1.0
  C  C44  1  0.28198000  0.03258000  0.02477000  1.0
  C  C45  1  0.71804000  0.96742000  0.97524000  1.0
  C  C46  1  0.42563000  0.18257000  0.06568000  1.0
  C  C47  1  0.57438000  0.81743000  0.93432000  1.0
  C  C48  1  0.49534000  0.23410000  0.15766000  1.0
  C  C49  1  0.50467000  0.76590000  0.84234000  1.0
  C  C50  1  0.42536000  0.13524000  0.20993000  1.0
  C  C51  1  0.57466000  0.86476000  0.79007000  1.0
  C  C52  1  0.28502000  0.98430000  0.16947000  1.0
  C  C53  1  0.71500000  0.01570000  0.83053000  1.0
  C  C54  1  0.21261000  0.93368000  0.07792000  1.0
  C  C55  1  0.78740000  0.06632000  0.92209000  1.0
  Br  Br56  1  0.79212000  0.96306000  0.57901000  1.0
  Br  Br57  1  0.20786000  0.03693000  0.42099000  1.0
  Br  Br58  1  0.48986000  0.24767000  0.67840000  1.0
  Br  Br59  1  0.51014000  0.75233000  0.32159000  1.0
  Br  Br60  1  0.07341000  0.36466000  0.80068000  1.0
  Br  Br61  1  0.92658000  0.63534000  0.19932000  1.0
  Br  Br62  1  0.73064000  0.47255000  0.94309000  1.0
  Br  Br63  1  0.26936000  0.52745000  0.05691000  1.0
  N  N64  1  0.06688000  0.83593000  0.79040000  1.0
  N  N65  1  0.93311000  0.16407000  0.20960000  1.0
  N  N66  1  0.15577000  0.98714000  0.79084000  1.0
  N  N67  1  0.84423000  0.01286000  0.20916000  1.0
  N  N68  1  0.24129000  0.07253000  0.87374000  1.0
  N  N69  1  0.75871000  0.92747000  0.12626000  1.0
  N  N70  1  0.17810000  0.78368000  0.60114000  1.0
  N  N71  1  0.82189000  0.21631000  0.39886000  1.0
