# generated using pymatgen
data_H4Pb(C2O3)2
_symmetry_space_group_name_H-M   'P 1'
_cell_length_a   10.12620000
_cell_length_b   12.27234075
_cell_length_c   12.30377413
_cell_angle_alpha   80.28525614
_cell_angle_beta   65.72416049
_cell_angle_gamma   65.71712780
_symmetry_Int_Tables_number   1
_chemical_formula_structural   H4Pb(C2O3)2
_chemical_formula_sum   'H32 Pb8 C32 O48'
_cell_volume   1270.49988329
_cell_formula_units_Z   8
loop_
 _symmetry_equiv_pos_site_id
 _symmetry_equiv_pos_as_xyz
  1  'x, y, z'
loop_
 _atom_site_type_symbol
 _atom_site_label
 _atom_site_symmetry_multiplicity
 _atom_site_fract_x
 _atom_site_fract_y
 _atom_site_fract_z
 _atom_site_occupancy
  H  H0  1  0.31644000  0.87385000  0.08366000  1.0
  H  H1  1  0.27377000  0.62625000  0.41647000  1.0
  H  H2  1  0.69024000  0.08368000  0.62623000  1.0
  H  H3  1  0.40012000  0.41638000  0.87372000  1.0
  H  H4  1  0.18355000  0.41627000  0.62624000  1.0
  H  H5  1  0.22624000  0.08359000  0.87367000  1.0
  H  H6  1  0.80971000  0.87382000  0.41647000  1.0
  H  H7  1  0.09989000  0.62614000  0.08364000  1.0
  H  H8  1  0.68356000  0.12615000  0.91634000  1.0
  H  H9  1  0.72623000  0.37375000  0.58353000  1.0
  H  H10  1  0.30974000  0.91633000  0.37378000  1.0
  H  H11  1  0.59988000  0.58362000  0.12628000  1.0
  H  H12  1  0.81645000  0.58373000  0.37376000  1.0
  H  H13  1  0.77375000  0.91642000  0.12633000  1.0
  H  H14  1  0.19030000  0.12618000  0.58353000  1.0
  H  H15  1  0.90012000  0.37386000  0.91636000  1.0
  H  H16  1  0.27312000  0.85128000  0.92152000  1.0
  H  H17  1  0.04590000  0.64881000  0.57849000  1.0
  H  H18  1  0.62423000  0.92119000  0.64899000  1.0
  H  H19  1  0.19466000  0.57884000  0.85106000  1.0
  H  H20  1  0.22677000  0.57876000  0.64905000  1.0
  H  H21  1  0.45435000  0.92121000  0.85091000  1.0
  H  H22  1  0.87558000  0.85129000  0.57854000  1.0
  H  H23  1  0.30534000  0.64857000  0.92150000  1.0
  H  H24  1  0.72687000  0.14872000  0.07849000  1.0
  H  H25  1  0.95410000  0.35119000  0.42151000  1.0
  H  H26  1  0.37578000  0.07880000  0.35101000  1.0
  H  H27  1  0.80534000  0.42116000  0.14894000  1.0
  H  H28  1  0.77322000  0.42124000  0.35095000  1.0
  H  H29  1  0.54564000  0.07880000  0.14909000  1.0
  H  H30  1  0.12440000  0.14872000  0.42146000  1.0
  H  H31  1  0.69465000  0.35143000  0.07851000  1.0
  Pb  Pb32  1  0.99132000  0.01738000  0.25001000  1.0
  Pb  Pb33  1  0.25864000  0.48266000  0.24994000  1.0
  Pb  Pb34  1  0.50872000  0.24995000  0.48269000  1.0
  Pb  Pb35  1  0.24137000  0.25003000  0.01725000  1.0
  Pb  Pb36  1  0.00863000  0.98264000  0.74998000  1.0
  Pb  Pb37  1  0.74139000  0.51734000  0.75005000  1.0
  Pb  Pb38  1  0.49132000  0.75000000  0.51726000  1.0
  Pb  Pb39  1  0.75868000  0.74996000  0.98272000  1.0
  C  C40  1  0.04010000  0.85726000  0.01849000  1.0
  C  C41  1  0.91594000  0.64263000  0.48144000  1.0
  C  C42  1  0.39726000  0.01848000  0.64283000  1.0
  C  C43  1  0.05880000  0.48140000  0.85716000  1.0
  C  C44  1  0.45986000  0.48153000  0.64289000  1.0
  C  C45  1  0.58409000  0.01856000  0.85717000  1.0
  C  C46  1  0.10263000  0.85743000  0.48148000  1.0
  C  C47  1  0.44132000  0.64272000  0.01857000  1.0
  C  C48  1  0.95990000  0.14275000  0.98151000  1.0
  C  C49  1  0.08407000  0.35737000  0.51856000  1.0
  C  C50  1  0.60273000  0.98152000  0.35717000  1.0
  C  C51  1  0.94120000  0.51860000  0.14284000  1.0
  C  C52  1  0.54014000  0.51847000  0.35710000  1.0
  C  C53  1  0.41591000  0.98144000  0.14283000  1.0
  C  C54  1  0.89738000  0.14257000  0.51851000  1.0
  C  C55  1  0.55868000  0.35727000  0.98142000  1.0
  C  C56  1  0.20882000  0.81876000  0.00805000  1.0
  C  C57  1  0.03566000  0.68124000  0.49195000  1.0
  C  C58  1  0.52754000  0.00802000  0.68134000  1.0
  C  C59  1  0.21703000  0.49199000  0.81864000  1.0
  C  C60  1  0.29114000  0.49196000  0.68140000  1.0
  C  C61  1  0.46440000  0.00803000  0.81858000  1.0
  C  C62  1  0.97233000  0.81885000  0.49199000  1.0
  C  C63  1  0.28306000  0.68116000  0.00805000  1.0
  C  C64  1  0.79118000  0.18124000  0.99196000  1.0
  C  C65  1  0.96434000  0.31876000  0.50805000  1.0
  C  C66  1  0.47245000  0.99198000  0.31866000  1.0
  C  C67  1  0.78297000  0.50801000  0.18136000  1.0
  C  C68  1  0.70886000  0.50803000  0.31860000  1.0
  C  C69  1  0.53559000  0.99198000  0.18141000  1.0
  C  C70  1  0.02768000  0.18115000  0.50801000  1.0
  C  C71  1  0.71693000  0.31884000  0.99196000  1.0
  O  O72  1  0.21216000  0.86588000  0.10414000  1.0
  O  O73  1  0.18208000  0.63428000  0.39591000  1.0
  O  O74  1  0.57791000  0.10428000  0.63442000  1.0
  O  O75  1  0.31651000  0.39576000  0.86559000  1.0
  O  O76  1  0.28771000  0.39566000  0.63443000  1.0
  O  O77  1  0.31794000  0.10424000  0.86553000  1.0
  O  O78  1  0.92191000  0.86582000  0.39597000  1.0
  O  O79  1  0.18370000  0.63409000  0.10412000  1.0
  O  O80  1  0.78783000  0.13412000  0.89587000  1.0
  O  O81  1  0.81791000  0.36573000  0.60409000  1.0
  O  O82  1  0.42209000  0.89572000  0.36558000  1.0
  O  O83  1  0.68348000  0.60424000  0.13442000  1.0
  O  O84  1  0.71228000  0.60433000  0.36558000  1.0
  O  O85  1  0.68205000  0.89576000  0.13447000  1.0
  O  O86  1  0.07808000  0.13419000  0.60404000  1.0
  O  O87  1  0.81628000  0.36592000  0.89589000  1.0
  O  O88  1  0.93102000  0.92253000  0.10758000  1.0
  O  O89  1  0.96104000  0.57730000  0.39234000  1.0
  O  O90  1  0.35355000  0.10755000  0.57743000  1.0
  O  O91  1  0.03854000  0.39235000  0.92264000  1.0
  O  O92  1  0.56896000  0.39244000  0.57745000  1.0
  O  O93  1  0.53886000  0.10768000  0.92265000  1.0
  O  O94  1  0.14657000  0.92268000  0.39241000  1.0
  O  O95  1  0.46144000  0.57742000  0.10760000  1.0
  O  O96  1  0.06897000  0.07748000  0.89242000  1.0
  O  O97  1  0.03896000  0.42271000  0.60765000  1.0
  O  O98  1  0.64645000  0.89245000  0.42257000  1.0
  O  O99  1  0.96145000  0.60765000  0.07736000  1.0
  O  O100  1  0.43105000  0.60756000  0.42254000  1.0
  O  O101  1  0.46113000  0.89233000  0.07735000  1.0
  O  O102  1  0.85342000  0.07732000  0.60760000  1.0
  O  O103  1  0.53857000  0.42257000  0.89240000  1.0
  O  O104  1  0.01922000  0.82013000  0.93912000  1.0
  O  O105  1  0.77873000  0.67980000  0.56075000  1.0
  O  O106  1  0.33911000  0.93911000  0.68009000  1.0
  O  O107  1  0.95871000  0.56076000  0.81993000  1.0
  O  O108  1  0.48077000  0.56096000  0.68012000  1.0
  O  O109  1  0.72138000  0.93916000  0.81995000  1.0
  O  O110  1  0.16066000  0.82023000  0.56073000  1.0
  O  O111  1  0.54143000  0.67992000  0.93926000  1.0
  O  O112  1  0.98078000  0.17987000  0.06088000  1.0
  O  O113  1  0.22129000  0.32019000  0.43925000  1.0
  O  O114  1  0.66090000  0.06089000  0.31990000  1.0
  O  O115  1  0.04129000  0.43924000  0.18007000  1.0
  O  O116  1  0.51923000  0.43905000  0.31987000  1.0
  O  O117  1  0.27861000  0.06084000  0.18006000  1.0
  O  O118  1  0.83934000  0.17977000  0.43926000  1.0
  O  O119  1  0.45859000  0.32008000  0.06074000  1.0
