# generated using pymatgen
data_ZnH11C18IN3O4
_symmetry_space_group_name_H-M   'P 1'
_cell_length_a   14.41070000
_cell_length_b   15.98990000
_cell_length_c   17.06380000
_cell_angle_alpha   86.30820000
_cell_angle_beta   87.80380000
_cell_angle_gamma   87.63550000
_symmetry_Int_Tables_number   1
_chemical_formula_structural   ZnH11C18IN3O4
_chemical_formula_sum   'Zn2 H22 C36 I2 N6 O8'
_cell_volume   3917.92824717
_cell_formula_units_Z   2
loop_
 _symmetry_equiv_pos_site_id
 _symmetry_equiv_pos_as_xyz
  1  'x, y, z'
loop_
 _atom_site_type_symbol
 _atom_site_label
 _atom_site_symmetry_multiplicity
 _atom_site_fract_x
 _atom_site_fract_y
 _atom_site_fract_z
 _atom_site_occupancy
  Zn  Zn0  1  0.49490000  0.58891000  0.50495000  1.0
  Zn  Zn1  1  0.50503000  0.41102000  0.49505000  1.0
  H  H2  1  0.37959000  0.57899000  0.74782000  1.0
  H  H3  1  0.39899000  0.71430000  0.60698000  1.0
  H  H4  1  0.37566000  0.69695000  0.21944000  1.0
  H  H5  1  0.37881000  0.63760000  0.31166000  1.0
  H  H6  1  0.46819000  0.70611000  0.28453000  1.0
  H  H7  1  0.62438000  0.30316000  0.78060000  1.0
  H  H8  1  0.53189000  0.29397000  0.71550000  1.0
  H  H9  1  0.62125000  0.36249000  0.68838000  1.0
  H  H10  1  0.65820000  0.93914000  0.42953000  1.0
  H  H11  1  0.66741000  0.84547000  0.37749000  1.0
  H  H12  1  0.58085000  0.92554000  0.35474000  1.0
  H  H13  1  0.62034000  0.42102000  0.25217000  1.0
  H  H14  1  0.34183000  0.06077000  0.57048000  1.0
  H  H15  1  0.41914000  0.07441000  0.64528000  1.0
  H  H16  1  0.33259000  0.15445000  0.62250000  1.0
  H  H17  1  0.42974000  0.63720000  0.10592000  1.0
  H  H18  1  0.57037000  0.36296000  0.89409000  1.0
  H  H19  1  0.59197000  0.72629000  0.42142000  1.0
  H  H20  1  0.40797000  0.27363000  0.57854000  1.0
  H  H21  1  0.60076000  0.12813000  0.38328000  1.0
  H  H22  1  0.39933000  0.87179000  0.61679000  1.0
  H  H23  1  0.60102000  0.28563000  0.39305000  1.0
  C  C24  1  0.53092000  0.52047000  0.34915000  1.0
  C  C25  1  0.55333000  0.84920000  0.46124000  1.0
  C  C26  1  0.50427000  0.11060000  0.48213000  1.0
  C  C27  1  0.49578000  0.88931000  0.51792000  1.0
  C  C28  1  0.55878000  0.15918000  0.42811000  1.0
  C  C29  1  0.44125000  0.84074000  0.57193000  1.0
  C  C30  1  0.55908000  0.24533000  0.43291000  1.0
  C  C31  1  0.44094000  0.75459000  0.56711000  1.0
  C  C32  1  0.67916000  0.49486000  0.52135000  1.0
  C  C33  1  0.32077000  0.50505000  0.47863000  1.0
  C  C34  1  0.77944000  0.49588000  0.51955000  1.0
  C  C35  1  0.46899000  0.47951000  0.65085000  1.0
  C  C36  1  0.22050000  0.50410000  0.48041000  1.0
  C  C37  1  0.86449000  0.49726000  0.51275000  1.0
  C  C38  1  0.13546000  0.50277000  0.48717000  1.0
  C  C39  1  0.95731000  0.49902000  0.50434000  1.0
  C  C40  1  0.04264000  0.50105000  0.49556000  1.0
  C  C41  1  0.52861000  0.52923000  0.26129000  1.0
  C  C42  1  0.47137000  0.47081000  0.73871000  1.0
  C  C43  1  0.57819000  0.46822000  0.21937000  1.0
  C  C44  1  0.42178000  0.53182000  0.78062000  1.0
  C  C45  1  0.57393000  0.46649000  0.13819000  1.0
  C  C46  1  0.47153000  0.59037000  0.13981000  1.0
  C  C47  1  0.42608000  0.53362000  0.86179000  1.0
  C  C48  1  0.51680000  0.52711000  0.09749000  1.0
  C  C49  1  0.48326000  0.47304000  0.90250000  1.0
  C  C50  1  0.42123000  0.66213000  0.26119000  1.0
  C  C51  1  0.57883000  0.33797000  0.73883000  1.0
  C  C52  1  0.61863000  0.89195000  0.40259000  1.0
  C  C53  1  0.38138000  0.10798000  0.59743000  1.0
  C  C54  1  0.52855000  0.40976000  0.86019000  1.0
  C  C55  1  0.47518000  0.59341000  0.22115000  1.0
  C  C56  1  0.52487000  0.40668000  0.77885000  1.0
  C  C57  1  0.45071000  0.23811000  0.53708000  1.0
  C  C58  1  0.54927000  0.76183000  0.46290000  1.0
  C  C59  1  0.44669000  0.15074000  0.53879000  1.0
  I  I60  1  0.33935000  0.62415000  0.91597000  1.0
  I  I61  1  0.66062000  0.37592000  0.08401000  1.0
  N  N62  1  0.50052000  0.53442000  0.01622000  1.0
  N  N63  1  0.49955000  0.46575000  0.98377000  1.0
  N  N64  1  0.50553000  0.28386000  0.48710000  1.0
  N  N65  1  0.49444000  0.71609000  0.51287000  1.0
  N  N66  1  0.51037000  0.02377000  0.47021000  1.0
  N  N67  1  0.48970000  0.97615000  0.52984000  1.0
  O  O68  1  0.52549000  0.58700000  0.38645000  1.0
  O  O69  1  0.47463000  0.41296000  0.61358000  1.0
  O  O70  1  0.53625000  0.44570000  0.38003000  1.0
  O  O71  1  0.46344000  0.55427000  0.61994000  1.0
  O  O72  1  0.63596000  0.56572000  0.52403000  1.0
  O  O73  1  0.36393000  0.43416000  0.47614000  1.0
  O  O74  1  0.64417000  0.42323000  0.51897000  1.0
  O  O75  1  0.35582000  0.57667000  0.48086000  1.0
