# generated using pymatgen
data_ZnH27C27N4O5
_symmetry_space_group_name_H-M   'P 1'
_cell_length_a   8.97391000
_cell_length_b   10.26800000
_cell_length_c   18.02110000
_cell_angle_alpha   100.57500000
_cell_angle_beta   90.94230000
_cell_angle_gamma   106.95500000
_symmetry_Int_Tables_number   1
_chemical_formula_structural   ZnH27C27N4O5
_chemical_formula_sum   'Zn2 H54 C54 N8 O10'
_cell_volume   1557.05561094
_cell_formula_units_Z   2
loop_
 _symmetry_equiv_pos_site_id
 _symmetry_equiv_pos_as_xyz
  1  'x, y, z'
loop_
 _atom_site_type_symbol
 _atom_site_label
 _atom_site_symmetry_multiplicity
 _atom_site_fract_x
 _atom_site_fract_y
 _atom_site_fract_z
 _atom_site_occupancy
  Zn  Zn0  1  0.31908000  0.29386000  0.13706000  1.0
  Zn  Zn1  1  0.68092000  0.70614000  0.86294000  1.0
  H  H2  1  0.53488000  0.10918000  0.30814000  1.0
  H  H3  1  0.46512000  0.89082000  0.69186000  1.0
  H  H4  1  0.26416000  0.78948000  0.12671000  1.0
  H  H5  1  0.73584000  0.21052000  0.87329000  1.0
  H  H6  1  0.50310000  0.67604000  0.30019000  1.0
  H  H7  1  0.49690000  0.32396000  0.69981000  1.0
  H  H8  1  0.76761000  0.79601000  0.34299000  1.0
  H  H9  1  0.23239000  0.20398000  0.65701000  1.0
  H  H10  1  0.65260000  0.76563000  0.41985000  1.0
  H  H11  1  0.34740000  0.23437000  0.58015000  1.0
  H  H12  1  0.92485000  0.96389000  0.30630000  1.0
  H  H13  1  0.07516000  0.03611000  0.69370000  1.0
  H  H14  1  0.06074000  0.86994000  0.31324000  1.0
  H  H15  1  0.93928000  0.13006000  0.68676000  1.0
  H  H16  1  0.12693000  0.05180000  0.32347000  1.0
  H  H17  1  0.87307000  0.94820000  0.67653000  1.0
  H  H18  1  0.59840000  0.88388000  0.51512000  1.0
  H  H19  1  0.40161000  0.11612000  0.48488000  1.0
  H  H20  1  0.67893000  0.97930000  0.60569000  1.0
  H  H21  1  0.32107000  0.02070000  0.39431000  1.0
  H  H22  1  0.67706000  0.80496000  0.57995000  1.0
  H  H23  1  0.32294000  0.19504000  0.42005000  1.0
  H  H24  1  0.76881000  0.08441000  0.00373000  1.0
  H  H25  1  0.23118000  0.91559000  0.99628000  1.0
  H  H26  1  0.62099000  0.06641000  0.11803000  1.0
  H  H27  1  0.37901000  0.93359000  0.88197000  1.0
  H  H28  1  0.76750000  0.14119000  0.24654000  1.0
  H  H29  1  0.23251000  0.85882000  0.75346000  1.0
  H  H30  1  0.06202000  0.23501000  0.25345000  1.0
  H  H31  1  0.93799000  0.76500000  0.74655000  1.0
  H  H32  1  0.90368000  0.10385000  0.91576000  1.0
  H  H33  1  0.09632000  0.89615000  0.08424000  1.0
  H  H34  1  0.08131000  0.14411000  0.81234000  1.0
  H  H35  1  0.91868000  0.85588000  0.18766000  1.0
  H  H36  1  0.37014000  0.25366000  0.84549000  1.0
  H  H37  1  0.62986000  0.74633000  0.15451000  1.0
  H  H38  1  0.46740000  0.31773000  0.98273000  1.0
  H  H39  1  0.53260000  0.68227000  0.01727000  1.0
  H  H40  1  0.63297000  0.44042000  0.21778000  1.0
  H  H41  1  0.36702000  0.55958000  0.78222000  1.0
  H  H42  1  0.98576000  0.47343000  0.07155000  1.0
  H  H43  1  0.01424000  0.52657000  0.92845000  1.0
  H  H44  1  0.83710000  0.54043000  0.04029000  1.0
  H  H45  1  0.16289000  0.45956000  0.95971000  1.0
  H  H46  1  0.79362000  0.36007000  0.03608000  1.0
  H  H47  1  0.20638000  0.63993000  0.96392000  1.0
  H  H48  1  0.99696000  0.65154000  0.19491000  1.0
  H  H49  1  0.00303000  0.34846000  0.80509000  1.0
  H  H50  1  0.00518000  0.49301000  0.21812000  1.0
  H  H51  1  0.99481000  0.50699000  0.78188000  1.0
  H  H52  1  0.86647000  0.57449000  0.25969000  1.0
  H  H53  1  0.13353000  0.42551000  0.74031000  1.0
  H  H54  1  0.69879000  0.04238000  0.39071000  1.0
  H  H55  1  0.30122000  0.95762000  0.60929000  1.0
  C  C56  1  0.53703000  0.89890000  0.31277000  1.0
  C  C57  1  0.46297000  0.10110000  0.68723000  1.0
  C  C58  1  0.49133000  0.99923000  0.28176000  1.0
  C  C59  1  0.50867000  0.00077000  0.71824000  1.0
  C  C60  1  0.39351000  0.96067000  0.21538000  1.0
  C  C61  1  0.60649000  0.03933000  0.78462000  1.0
  C  C62  1  0.33522000  0.82043000  0.18012000  1.0
  C  C63  1  0.66478000  0.17957000  0.81988000  1.0
  C  C64  1  0.37334000  0.71937000  0.21216000  1.0
  C  C65  1  0.62666000  0.28063000  0.78784000  1.0
  C  C66  1  0.47383000  0.75800000  0.27802000  1.0
  C  C67  1  0.52617000  0.24200000  0.72197000  1.0
  C  C68  1  0.72940000  0.84884000  0.39494000  1.0
  C  C69  1  0.27060000  0.15116000  0.60506000  1.0
  C  C70  1  0.01579000  0.98197000  0.42115000  1.0
  C  C71  1  0.98422000  0.01802000  0.57884000  1.0
  C  C72  1  0.86932000  0.92965000  0.44950000  1.0
  C  C73  1  0.13068000  0.07035000  0.55050000  1.0
  C  C74  1  0.85188000  0.94967000  0.52795000  1.0
  C  C75  1  0.14813000  0.05033000  0.47205000  1.0
  C  C76  1  0.03246000  0.96609000  0.33696000  1.0
  C  C77  1  0.96755000  0.03391000  0.66304000  1.0
  C  C78  1  0.69349000  0.90138000  0.55817000  1.0
  C  C79  1  0.30652000  0.09862000  0.44183000  1.0
  C  C80  1  0.35889000  0.06930000  0.17818000  1.0
  C  C81  1  0.64111000  0.93070000  0.82182000  1.0
  C  C82  1  0.31643000  0.56941000  0.17133000  1.0
  C  C83  1  0.68356000  0.43059000  0.82867000  1.0
  C  C84  1  0.99406000  0.17336000  0.06861000  1.0
  C  C85  1  0.00594000  0.82664000  0.93139000  1.0
  C  C86  1  0.83077000  0.11904000  0.05973000  1.0
  C  C87  1  0.16923000  0.88096000  0.94027000  1.0
  C  C88  1  0.74794000  0.10787000  0.12402000  1.0
  C  C89  1  0.25207000  0.89213000  0.87598000  1.0
  C  C90  1  0.82926000  0.14995000  0.19531000  1.0
  C  C91  1  0.17075000  0.85006000  0.80469000  1.0
  C  C92  1  0.99151000  0.20156000  0.19955000  1.0
  C  C93  1  0.00850000  0.79844000  0.80045000  1.0
  C  C94  1  0.09239000  0.19245000  0.00389000  1.0
  C  C95  1  0.90760000  0.80755000  0.99611000  1.0
  C  C96  1  0.02873000  0.15370000  0.92885000  1.0
  C  C97  1  0.97127000  0.84629000  0.07115000  1.0
  C  C98  1  0.12857000  0.17547000  0.87111000  1.0
  C  C99  1  0.87142000  0.82452000  0.12889000  1.0
  C  C100  1  0.28844000  0.23570000  0.88914000  1.0
  C  C101  1  0.71156000  0.76430000  0.11085000  1.0
  C  C102  1  0.34359000  0.27127000  0.96514000  1.0
  C  C103  1  0.65641000  0.72873000  0.03486000  1.0
  C  C104  1  0.66093000  0.42209000  0.15809000  1.0
  C  C105  1  0.33907000  0.57791000  0.84191000  1.0
  C  C106  1  0.86039000  0.46191000  0.06879000  1.0
  C  C107  1  0.13961000  0.53809000  0.93121000  1.0
  C  C108  1  0.92597000  0.55300000  0.20818000  1.0
  C  C109  1  0.07402000  0.44700000  0.79182000  1.0
  N  N110  1  0.64190000  0.93935000  0.37587000  1.0
  N  N111  1  0.35810000  0.06065000  0.62413000  1.0
  N  N112  1  0.07126000  0.21311000  0.13772000  1.0
  N  N113  1  0.92875000  0.78690000  0.86228000  1.0
  N  N114  1  0.24775000  0.24974000  0.02095000  1.0
  N  N115  1  0.75225000  0.75026000  0.97905000  1.0
  N  N116  1  0.81035000  0.47725000  0.14586000  1.0
  N  N117  1  0.18964000  0.52275000  0.85414000  1.0
  O  O118  1  0.31698000  0.03792000  0.10824000  1.0
  O  O119  1  0.68302000  0.96208000  0.89177000  1.0
  O  O120  1  0.37632000  0.19082000  0.21845000  1.0
  O  O121  1  0.62368000  0.80918000  0.78155000  1.0
  O  O122  1  0.35724000  0.48185000  0.20456000  1.0
  O  O123  1  0.64277000  0.51815000  0.79544000  1.0
  O  O124  1  0.23851000  0.53905000  0.10895000  1.0
  O  O125  1  0.76149000  0.46095000  0.89105000  1.0
  O  O126  1  0.55764000  0.35399000  0.10625000  1.0
  O  O127  1  0.44236000  0.64601000  0.89375000  1.0
