# generated using pymatgen
data_CdH26C18(NO)4
_symmetry_space_group_name_H-M   'P 1'
_cell_length_a   14.61120000
_cell_length_b   16.64340000
_cell_length_c   18.13900000
_cell_angle_alpha   89.99810000
_cell_angle_beta   89.99930000
_cell_angle_gamma   89.99930000
_symmetry_Int_Tables_number   1
_chemical_formula_structural   CdH26C18(NO)4
_chemical_formula_sum   'Cd8 H208 C144 N32 O32'
_cell_volume   4411.04285276
_cell_formula_units_Z   8
loop_
 _symmetry_equiv_pos_site_id
 _symmetry_equiv_pos_as_xyz
  1  'x, y, z'
loop_
 _atom_site_type_symbol
 _atom_site_label
 _atom_site_symmetry_multiplicity
 _atom_site_fract_x
 _atom_site_fract_y
 _atom_site_fract_z
 _atom_site_occupancy
  Cd  Cd0  1  0.84156000  0.74680000  0.73129000  1.0
  Cd  Cd1  1  0.65846000  0.75318000  0.23129000  1.0
  Cd  Cd2  1  0.65844000  0.24680000  0.26872000  1.0
  Cd  Cd3  1  0.84155000  0.25319000  0.76872000  1.0
  Cd  Cd4  1  0.15843000  0.25321000  0.26872000  1.0
  Cd  Cd5  1  0.34156000  0.24681000  0.76871000  1.0
  Cd  Cd6  1  0.34155000  0.75319000  0.73130000  1.0
  Cd  Cd7  1  0.15845000  0.74681000  0.23129000  1.0
  H  H8  1  0.69651000  0.81967000  0.95646000  1.0
  H  H9  1  0.80349000  0.68033000  0.45646000  1.0
  H  H10  1  0.80349000  0.31967000  0.04354000  1.0
  H  H11  1  0.69651000  0.18033000  0.54354000  1.0
  H  H12  1  0.30348000  0.18035000  0.04356000  1.0
  H  H13  1  0.19651000  0.31967000  0.54354000  1.0
  H  H14  1  0.19650000  0.68032000  0.95647000  1.0
  H  H15  1  0.30349000  0.81966000  0.45646000  1.0
  H  H16  1  0.61031000  0.81223000  0.88970000  1.0
  H  H17  1  0.88969000  0.68777000  0.38970000  1.0
  H  H18  1  0.88969000  0.31222000  0.11030000  1.0
  H  H19  1  0.61031000  0.18778000  0.61030000  1.0
  H  H20  1  0.38968000  0.18780000  0.11032000  1.0
  H  H21  1  0.11031000  0.31222000  0.61030000  1.0
  H  H22  1  0.11031000  0.68777000  0.88971000  1.0
  H  H23  1  0.38969000  0.81221000  0.38970000  1.0
  H  H24  1  0.68080000  0.67425000  0.98628000  1.0
  H  H25  1  0.81920000  0.82575000  0.48628000  1.0
  H  H26  1  0.81920000  0.17425000  0.01372000  1.0
  H  H27  1  0.68080000  0.32575000  0.51371000  1.0
  H  H28  1  0.31920000  0.32576000  0.01372000  1.0
  H  H29  1  0.18080000  0.17425000  0.51371000  1.0
  H  H30  1  0.18080000  0.82574000  0.98629000  1.0
  H  H31  1  0.31920000  0.67424000  0.48629000  1.0
  H  H32  1  0.60731000  0.66075000  0.91034000  1.0
  H  H33  1  0.89269000  0.83924000  0.41034000  1.0
  H  H34  1  0.89269000  0.16075000  0.08966000  1.0
  H  H35  1  0.60731000  0.33925000  0.58965000  1.0
  H  H36  1  0.39270000  0.33926000  0.08966000  1.0
  H  H37  1  0.10731000  0.16075000  0.58965000  1.0
  H  H38  1  0.10731000  0.83924000  0.91034000  1.0
  H  H39  1  0.39270000  0.66074000  0.41035000  1.0
  H  H40  1  0.52804000  0.67112000  0.03605000  1.0
  H  H41  1  0.97196000  0.82887000  0.53606000  1.0
  H  H42  1  0.97196000  0.17112000  0.96395000  1.0
  H  H43  1  0.52804000  0.32888000  0.46395000  1.0
  H  H44  1  0.47196000  0.32888000  0.96395000  1.0
  H  H45  1  0.02803000  0.17113000  0.46395000  1.0
  H  H46  1  0.02804000  0.82887000  0.03605000  1.0
  H  H47  1  0.47197000  0.67112000  0.53606000  1.0
  H  H48  1  0.56632000  0.77069000  0.04292000  1.0
  H  H49  1  0.93368000  0.72930000  0.54293000  1.0
  H  H50  1  0.93367000  0.27069000  0.95708000  1.0
  H  H51  1  0.56632000  0.22931000  0.45707000  1.0
  H  H52  1  0.43367000  0.22931000  0.95708000  1.0
  H  H53  1  0.06632000  0.27069000  0.45707000  1.0
  H  H54  1  0.06632000  0.72930000  0.04293000  1.0
  H  H55  1  0.43367000  0.77069000  0.54293000  1.0
  H  H56  1  0.43719000  0.70569000  0.92221000  1.0
  H  H57  1  0.06281000  0.79431000  0.42222000  1.0
  H  H58  1  0.06281000  0.20570000  0.07779000  1.0
  H  H59  1  0.43719000  0.29431000  0.57779000  1.0
  H  H60  1  0.56281000  0.29430000  0.07779000  1.0
  H  H61  1  0.93719000  0.20569000  0.57779000  1.0
  H  H62  1  0.93719000  0.79431000  0.92221000  1.0
  H  H63  1  0.56281000  0.70569000  0.42221000  1.0
  H  H64  1  0.48000000  0.80373000  0.92464000  1.0
  H  H65  1  0.02000000  0.69627000  0.42464000  1.0
  H  H66  1  0.01999000  0.30373000  0.07536000  1.0
  H  H67  1  0.48001000  0.19627000  0.57536000  1.0
  H  H68  1  0.51999000  0.19626000  0.07536000  1.0
  H  H69  1  0.98000000  0.30373000  0.57536000  1.0
  H  H70  1  0.98001000  0.69627000  0.92464000  1.0
  H  H71  1  0.51999000  0.80373000  0.42464000  1.0
  H  H72  1  0.40596000  0.82391000  0.05009000  1.0
  H  H73  1  0.09405000  0.67609000  0.55009000  1.0
  H  H74  1  0.09404000  0.32391000  0.94991000  1.0
  H  H75  1  0.40596000  0.17610000  0.44991000  1.0
  H  H76  1  0.59404000  0.17610000  0.94991000  1.0
  H  H77  1  0.90595000  0.32390000  0.44991000  1.0
  H  H78  1  0.90595000  0.67610000  0.05009000  1.0
  H  H79  1  0.59405000  0.82391000  0.55009000  1.0
  H  H80  1  0.32853000  0.80744000  0.97700000  1.0
  H  H81  1  0.17147000  0.69256000  0.47700000  1.0
  H  H82  1  0.17146000  0.30745000  0.02300000  1.0
  H  H83  1  0.32854000  0.19256000  0.52301000  1.0
  H  H84  1  0.67146000  0.19255000  0.02300000  1.0
  H  H85  1  0.82853000  0.30744000  0.52301000  1.0
  H  H86  1  0.82853000  0.69256000  0.97699000  1.0
  H  H87  1  0.67147000  0.80744000  0.47699000  1.0
  H  H88  1  0.31196000  0.66335000  0.01570000  1.0
  H  H89  1  0.18805000  0.83665000  0.51570000  1.0
  H  H90  1  0.18804000  0.16335000  0.98430000  1.0
  H  H91  1  0.31195000  0.33666000  0.48431000  1.0
  H  H92  1  0.68804000  0.33665000  0.98431000  1.0
  H  H93  1  0.81195000  0.16334000  0.48431000  1.0
  H  H94  1  0.81196000  0.83666000  0.01570000  1.0
  H  H95  1  0.68804000  0.66334000  0.51570000  1.0
  H  H96  1  0.39653000  0.67717000  0.08355000  1.0
  H  H97  1  0.10348000  0.82283000  0.58355000  1.0
  H  H98  1  0.10348000  0.17717000  0.91645000  1.0
  H  H99  1  0.39651000  0.32284000  0.41645000  1.0
  H  H100  1  0.60349000  0.32283000  0.91645000  1.0
  H  H101  1  0.89651000  0.17716000  0.41645000  1.0
  H  H102  1  0.89652000  0.82283000  0.08355000  1.0
  H  H103  1  0.60348000  0.67717000  0.58355000  1.0
  H  H104  1  0.07079000  0.83288000  0.74326000  1.0
  H  H105  1  0.42922000  0.66711000  0.24326000  1.0
  H  H106  1  0.42921000  0.33288000  0.25674000  1.0
  H  H107  1  0.07078000  0.16712000  0.75674000  1.0
  H  H108  1  0.92920000  0.16712000  0.25675000  1.0
  H  H109  1  0.57079000  0.33288000  0.75674000  1.0
  H  H110  1  0.57079000  0.66712000  0.74326000  1.0
  H  H111  1  0.92922000  0.83288000  0.24326000  1.0
  H  H112  1  0.10613000  0.97676000  0.67115000  1.0
  H  H113  1  0.39387000  0.52323000  0.17114000  1.0
  H  H114  1  0.39387000  0.47677000  0.32885000  1.0
  H  H115  1  0.10613000  0.02323000  0.82885000  1.0
  H  H116  1  0.89387000  0.02324000  0.32885000  1.0
  H  H117  1  0.60613000  0.47676000  0.82884000  1.0
  H  H118  1  0.60613000  0.52323000  0.67115000  1.0
  H  H119  1  0.89387000  0.97677000  0.17115000  1.0
  H  H120  1  0.82830000  0.91197000  0.63905000  1.0
  H  H121  1  0.67171000  0.58802000  0.13903000  1.0
  H  H122  1  0.67170000  0.41197000  0.36097000  1.0
  H  H123  1  0.82829000  0.08803000  0.86096000  1.0
  H  H124  1  0.17169000  0.08804000  0.36097000  1.0
  H  H125  1  0.32830000  0.41197000  0.86096000  1.0
  H  H126  1  0.32829000  0.58803000  0.63904000  1.0
  H  H127  1  0.17170000  0.91198000  0.13904000  1.0
  H  H128  1  0.00374000  0.07943000  0.60912000  1.0
  H  H129  1  0.49627000  0.42057000  0.10911000  1.0
  H  H130  1  0.49626000  0.57943000  0.39088000  1.0
  H  H131  1  0.00373000  0.92057000  0.89089000  1.0
  H  H132  1  0.99627000  0.92057000  0.39089000  1.0
  H  H133  1  0.50373000  0.57943000  0.89088000  1.0
  H  H134  1  0.50373000  0.42056000  0.60911000  1.0
  H  H135  1  0.99627000  0.07944000  0.10912000  1.0
  H  H136  1  0.88422000  0.06431000  0.60983000  1.0
  H  H137  1  0.61578000  0.43569000  0.10982000  1.0
  H  H138  1  0.61578000  0.56430000  0.39017000  1.0
  H  H139  1  0.88422000  0.93570000  0.89018000  1.0
  H  H140  1  0.11578000  0.93570000  0.39018000  1.0
  H  H141  1  0.38422000  0.56430000  0.89017000  1.0
  H  H142  1  0.38422000  0.43570000  0.60982000  1.0
  H  H143  1  0.11578000  0.06431000  0.10983000  1.0
  H  H144  1  0.90115000  0.96785000  0.50186000  1.0
  H  H145  1  0.59886000  0.53215000  0.00184000  1.0
  H  H146  1  0.59885000  0.46785000  0.49815000  1.0
  H  H147  1  0.90115000  0.03215000  0.99815000  1.0
  H  H148  1  0.09885000  0.03215000  0.49816000  1.0
  H  H149  1  0.40115000  0.46785000  0.99815000  1.0
  H  H150  1  0.40114000  0.53215000  0.50185000  1.0
  H  H151  1  0.09885000  0.96785000  0.00185000  1.0
  H  H152  1  0.93187000  0.06794000  0.48230000  1.0
  H  H153  1  0.56812000  0.43206000  0.98229000  1.0
  H  H154  1  0.56812000  0.56794000  0.51771000  1.0
  H  H155  1  0.93187000  0.93207000  0.01771000  1.0
  H  H156  1  0.06812000  0.93206000  0.51771000  1.0
  H  H157  1  0.43188000  0.56794000  0.01770000  1.0
  H  H158  1  0.43187000  0.43206000  0.48229000  1.0
  H  H159  1  0.06812000  0.06794000  0.98229000  1.0
  H  H160  1  0.07795000  0.67929000  0.71814000  1.0
  H  H161  1  0.42206000  0.82070000  0.21814000  1.0
  H  H162  1  0.42204000  0.17930000  0.28185000  1.0
  H  H163  1  0.07793000  0.32069000  0.78185000  1.0
  H  H164  1  0.92202000  0.32071000  0.28186000  1.0
  H  H165  1  0.57796000  0.17929000  0.78185000  1.0
  H  H166  1  0.57796000  0.82070000  0.71813000  1.0
  H  H167  1  0.92205000  0.67930000  0.21814000  1.0
  H  H168  1  0.13632000  0.55591000  0.80852000  1.0
  H  H169  1  0.36370000  0.94408000  0.30853000  1.0
  H  H170  1  0.36368000  0.05591000  0.19147000  1.0
  H  H171  1  0.13630000  0.44407000  0.69146000  1.0
  H  H172  1  0.86367000  0.44409000  0.19147000  1.0
  H  H173  1  0.63631000  0.05591000  0.69146000  1.0
  H  H174  1  0.63632000  0.94408000  0.80851000  1.0
  H  H175  1  0.86369000  0.55593000  0.30852000  1.0
  H  H176  1  0.84928000  0.58492000  0.83208000  1.0
  H  H177  1  0.65076000  0.91508000  0.33206000  1.0
  H  H178  1  0.65073000  0.08493000  0.16792000  1.0
  H  H179  1  0.84925000  0.41509000  0.66792000  1.0
  H  H180  1  0.15072000  0.41507000  0.16793000  1.0
  H  H181  1  0.34927000  0.08493000  0.66792000  1.0
  H  H182  1  0.34928000  0.91508000  0.83208000  1.0
  H  H183  1  0.15073000  0.58493000  0.33208000  1.0
  H  H184  1  0.04789000  0.44772000  0.88319000  1.0
  H  H185  1  0.45216000  0.05229000  0.38319000  1.0
  H  H186  1  0.45213000  0.94772000  0.11680000  1.0
  H  H187  1  0.04785000  0.55229000  0.61681000  1.0
  H  H188  1  0.95212000  0.55228000  0.11680000  1.0
  H  H189  1  0.54787000  0.94771000  0.61680000  1.0
  H  H190  1  0.54788000  0.05228000  0.88319000  1.0
  H  H191  1  0.95212000  0.44773000  0.38320000  1.0
  H  H192  1  0.92724000  0.45481000  0.88904000  1.0
  H  H193  1  0.57281000  0.04517000  0.38904000  1.0
  H  H194  1  0.57278000  0.95482000  0.11095000  1.0
  H  H195  1  0.92720000  0.54517000  0.61095000  1.0
  H  H196  1  0.07277000  0.54518000  0.11096000  1.0
  H  H197  1  0.42722000  0.95482000  0.61095000  1.0
  H  H198  1  0.42723000  0.04518000  0.88903000  1.0
  H  H199  1  0.07278000  0.45482000  0.38903000  1.0
  H  H200  1  0.94220000  0.57226000  0.97548000  1.0
  H  H201  1  0.55783000  0.92774000  0.47549000  1.0
  H  H202  1  0.55782000  0.07226000  0.02451000  1.0
  H  H203  1  0.94220000  0.42774000  0.52450000  1.0
  H  H204  1  0.05782000  0.42774000  0.02452000  1.0
  H  H205  1  0.44219000  0.07226000  0.52450000  1.0
  H  H206  1  0.44220000  0.92774000  0.97548000  1.0
  H  H207  1  0.05784000  0.57226000  0.47549000  1.0
  H  H208  1  0.06262000  0.56666000  0.96978000  1.0
  H  H209  1  0.43741000  0.93334000  0.46977000  1.0
  H  H210  1  0.43740000  0.06667000  0.03021000  1.0
  H  H211  1  0.06262000  0.43334000  0.53022000  1.0
  H  H212  1  0.93740000  0.43333000  0.03021000  1.0
  H  H213  1  0.56261000  0.06666000  0.53022000  1.0
  H  H214  1  0.56262000  0.93334000  0.96978000  1.0
  H  H215  1  0.93742000  0.56668000  0.46979000  1.0
  C  C216  1  0.73363000  0.76376000  0.85417000  1.0
  C  C217  1  0.76638000  0.73624000  0.35417000  1.0
  C  C218  1  0.76637000  0.26376000  0.14583000  1.0
  C  C219  1  0.73362000  0.23624000  0.64583000  1.0
  C  C220  1  0.26637000  0.23628000  0.14584000  1.0
  C  C221  1  0.23362000  0.26375000  0.64582000  1.0
  C  C222  1  0.23363000  0.73622000  0.85418000  1.0
  C  C223  1  0.26638000  0.76374000  0.35417000  1.0
  C  C224  1  0.66619000  0.77838000  0.91606000  1.0
  C  C225  1  0.83381000  0.72162000  0.41607000  1.0
  C  C226  1  0.83380000  0.27838000  0.08394000  1.0
  C  C227  1  0.66619000  0.22162000  0.58393000  1.0
  C  C228  1  0.33380000  0.22164000  0.08395000  1.0
  C  C229  1  0.16619000  0.27837000  0.58393000  1.0
  C  C230  1  0.16619000  0.72161000  0.91607000  1.0
  C  C231  1  0.33380000  0.77837000  0.41607000  1.0
  C  C232  1  0.62715000  0.70396000  0.95346000  1.0
  C  C233  1  0.87285000  0.79604000  0.45346000  1.0
  C  C234  1  0.87285000  0.20396000  0.04654000  1.0
  C  C235  1  0.62715000  0.29605000  0.54654000  1.0
  C  C236  1  0.37285000  0.29606000  0.04655000  1.0
  C  C237  1  0.12715000  0.20395000  0.54654000  1.0
  C  C238  1  0.12715000  0.79603000  0.95346000  1.0
  C  C239  1  0.37285000  0.70395000  0.45346000  1.0
  C  C240  1  0.54555000  0.72424000  0.00283000  1.0
  C  C241  1  0.95445000  0.77576000  0.50283000  1.0
  C  C242  1  0.95445000  0.22424000  0.99718000  1.0
  C  C243  1  0.54555000  0.27576000  0.49717000  1.0
  C  C244  1  0.45445000  0.27576000  0.99718000  1.0
  C  C245  1  0.04555000  0.22424000  0.49717000  1.0
  C  C246  1  0.04555000  0.77575000  0.00283000  1.0
  C  C247  1  0.45445000  0.72424000  0.50283000  1.0
  C  C248  1  0.46128000  0.75283000  0.96024000  1.0
  C  C249  1  0.03872000  0.74717000  0.46024000  1.0
  C  C250  1  0.03871000  0.25284000  0.03976000  1.0
  C  C251  1  0.46129000  0.24717000  0.53976000  1.0
  C  C252  1  0.53871000  0.24716000  0.03977000  1.0
  C  C253  1  0.96128000  0.25283000  0.53977000  1.0
  C  C254  1  0.96128000  0.74717000  0.96023000  1.0
  C  C255  1  0.53871000  0.75283000  0.46024000  1.0
  C  C256  1  0.38234000  0.77852000  0.01022000  1.0
  C  C257  1  0.11766000  0.72149000  0.51022000  1.0
  C  C258  1  0.11766000  0.27852000  0.98978000  1.0
  C  C259  1  0.38234000  0.22149000  0.48979000  1.0
  C  C260  1  0.61766000  0.22148000  0.98979000  1.0
  C  C261  1  0.88233000  0.27851000  0.48979000  1.0
  C  C262  1  0.88234000  0.72149000  0.01021000  1.0
  C  C263  1  0.61766000  0.77851000  0.51021000  1.0
  C  C264  1  0.34174000  0.70826000  0.05302000  1.0
  C  C265  1  0.15827000  0.79174000  0.55303000  1.0
  C  C266  1  0.15826000  0.20827000  0.94698000  1.0
  C  C267  1  0.34173000  0.29175000  0.44699000  1.0
  C  C268  1  0.65827000  0.29174000  0.94699000  1.0
  C  C269  1  0.84173000  0.20826000  0.44699000  1.0
  C  C270  1  0.84173000  0.79174000  0.05302000  1.0
  C  C271  1  0.65827000  0.70826000  0.55302000  1.0
  C  C272  1  0.27221000  0.72980000  0.11171000  1.0
  C  C273  1  0.22780000  0.77021000  0.61171000  1.0
  C  C274  1  0.22779000  0.22980000  0.88829000  1.0
  C  C275  1  0.27219000  0.27021000  0.38830000  1.0
  C  C276  1  0.72781000  0.27020000  0.88831000  1.0
  C  C277  1  0.77220000  0.22980000  0.38830000  1.0
  C  C278  1  0.77220000  0.77021000  0.11170000  1.0
  C  C279  1  0.72780000  0.72980000  0.61170000  1.0
  C  C280  1  0.02506000  0.87027000  0.71081000  1.0
  C  C281  1  0.47494000  0.62972000  0.21080000  1.0
  C  C282  1  0.47494000  0.37027000  0.28920000  1.0
  C  C283  1  0.02506000  0.12972000  0.78920000  1.0
  C  C284  1  0.97493000  0.12973000  0.28921000  1.0
  C  C285  1  0.52506000  0.37028000  0.78919000  1.0
  C  C286  1  0.52506000  0.62972000  0.71080000  1.0
  C  C287  1  0.97494000  0.87028000  0.21080000  1.0
  C  C288  1  0.04395000  0.94163000  0.67556000  1.0
  C  C289  1  0.45606000  0.55836000  0.17554000  1.0
  C  C290  1  0.45605000  0.44163000  0.32445000  1.0
  C  C291  1  0.04394000  0.05837000  0.82445000  1.0
  C  C292  1  0.95605000  0.05837000  0.32445000  1.0
  C  C293  1  0.54395000  0.44163000  0.82444000  1.0
  C  C294  1  0.54394000  0.55836000  0.67555000  1.0
  C  C295  1  0.95606000  0.94164000  0.17555000  1.0
  C  C296  1  0.89869000  0.90982000  0.65821000  1.0
  C  C297  1  0.60132000  0.59017000  0.15820000  1.0
  C  C298  1  0.60131000  0.40982000  0.34180000  1.0
  C  C299  1  0.89868000  0.09018000  0.84180000  1.0
  C  C300  1  0.10130000  0.09018000  0.34180000  1.0
  C  C301  1  0.39869000  0.40982000  0.84179000  1.0
  C  C302  1  0.39868000  0.59018000  0.65821000  1.0
  C  C303  1  0.10132000  0.90983000  0.15821000  1.0
  C  C304  1  0.94984000  0.03608000  0.59523000  1.0
  C  C305  1  0.55017000  0.46392000  0.09521000  1.0
  C  C306  1  0.55016000  0.53608000  0.40478000  1.0
  C  C307  1  0.94983000  0.96392000  0.90478000  1.0
  C  C308  1  0.05016000  0.96392000  0.40479000  1.0
  C  C309  1  0.44984000  0.53608000  0.90478000  1.0
  C  C310  1  0.44983000  0.46392000  0.59522000  1.0
  C  C311  1  0.05016000  0.03608000  0.09522000  1.0
  C  C312  1  0.95307000  0.01432000  0.51324000  1.0
  C  C313  1  0.54694000  0.48568000  0.01322000  1.0
  C  C314  1  0.54693000  0.51432000  0.48677000  1.0
  C  C315  1  0.95306000  0.98568000  0.98677000  1.0
  C  C316  1  0.04693000  0.98568000  0.48678000  1.0
  C  C317  1  0.45307000  0.51432000  0.98677000  1.0
  C  C318  1  0.45306000  0.48568000  0.51323000  1.0
  C  C319  1  0.04693000  0.01432000  0.01323000  1.0
  C  C320  1  0.03809000  0.64172000  0.75516000  1.0
  C  C321  1  0.46193000  0.85827000  0.25516000  1.0
  C  C322  1  0.46190000  0.14173000  0.24483000  1.0
  C  C323  1  0.03807000  0.35827000  0.74483000  1.0
  C  C324  1  0.96189000  0.35828000  0.24484000  1.0
  C  C325  1  0.53809000  0.14172000  0.74483000  1.0
  C  C326  1  0.53809000  0.85827000  0.75515000  1.0
  C  C327  1  0.96191000  0.64173000  0.25516000  1.0
  C  C328  1  0.06831000  0.57973000  0.79900000  1.0
  C  C329  1  0.43171000  0.92027000  0.29901000  1.0
  C  C330  1  0.43169000  0.07973000  0.20098000  1.0
  C  C331  1  0.06830000  0.42026000  0.70098000  1.0
  C  C332  1  0.93167000  0.42027000  0.20099000  1.0
  C  C333  1  0.56831000  0.07973000  0.70098000  1.0
  C  C334  1  0.56832000  0.92027000  0.79900000  1.0
  C  C335  1  0.93169000  0.57974000  0.29901000  1.0
  C  C336  1  0.91869000  0.59349000  0.81214000  1.0
  C  C337  1  0.58134000  0.90651000  0.31213000  1.0
  C  C338  1  0.58131000  0.09349000  0.18786000  1.0
  C  C339  1  0.91867000  0.40651000  0.68786000  1.0
  C  C340  1  0.08130000  0.40651000  0.18787000  1.0
  C  C341  1  0.41868000  0.09349000  0.68786000  1.0
  C  C342  1  0.41869000  0.90651000  0.81214000  1.0
  C  C343  1  0.08132000  0.59350000  0.31214000  1.0
  C  C344  1  0.99110000  0.48956000  0.89327000  1.0
  C  C345  1  0.50894000  0.01043000  0.39326000  1.0
  C  C346  1  0.50892000  0.98957000  0.10672000  1.0
  C  C347  1  0.99107000  0.51043000  0.60673000  1.0
  C  C348  1  0.00891000  0.51043000  0.10673000  1.0
  C  C349  1  0.49108000  0.98957000  0.60672000  1.0
  C  C350  1  0.49109000  0.01043000  0.89326000  1.0
  C  C351  1  0.00892000  0.48958000  0.39327000  1.0
  C  C352  1  0.99965000  0.53022000  0.96856000  1.0
  C  C353  1  0.50037000  0.96978000  0.46855000  1.0
  C  C354  1  0.50036000  0.03023000  0.03144000  1.0
  C  C355  1  0.99965000  0.46978000  0.53144000  1.0
  C  C356  1  0.00036000  0.46977000  0.03144000  1.0
  C  C357  1  0.49965000  0.03023000  0.53143000  1.0
  C  C358  1  0.49965000  0.96978000  0.96855000  1.0
  C  C359  1  0.00038000  0.53023000  0.46856000  1.0
  N  N360  1  0.93420000  0.85121000  0.69917000  1.0
  N  N361  1  0.56581000  0.64878000  0.19917000  1.0
  N  N362  1  0.56581000  0.35121000  0.30083000  1.0
  N  N363  1  0.93419000  0.14879000  0.80083000  1.0
  N  N364  1  0.06579000  0.14879000  0.30084000  1.0
  N  N365  1  0.43420000  0.35121000  0.80083000  1.0
  N  N366  1  0.43419000  0.64879000  0.69918000  1.0
  N  N367  1  0.06581000  0.85122000  0.19917000  1.0
  N  N368  1  0.96319000  0.96603000  0.64280000  1.0
  N  N369  1  0.53682000  0.53397000  0.14279000  1.0
  N  N370  1  0.53681000  0.46603000  0.35720000  1.0
  N  N371  1  0.96318000  0.03397000  0.85721000  1.0
  N  N372  1  0.03681000  0.03397000  0.35721000  1.0
  N  N373  1  0.46319000  0.46603000  0.85720000  1.0
  N  N374  1  0.46318000  0.53397000  0.64279000  1.0
  N  N375  1  0.03682000  0.96603000  0.14280000  1.0
  N  N376  1  0.94455000  0.64967000  0.76417000  1.0
  N  N377  1  0.55547000  0.85032000  0.26416000  1.0
  N  N378  1  0.55545000  0.14967000  0.23582000  1.0
  N  N379  1  0.94453000  0.35033000  0.73583000  1.0
  N  N380  1  0.05544000  0.35033000  0.23584000  1.0
  N  N381  1  0.44455000  0.14967000  0.73583000  1.0
  N  N382  1  0.44455000  0.85032000  0.76417000  1.0
  N  N383  1  0.05546000  0.64967000  0.26417000  1.0
  N  N384  1  0.99189000  0.54944000  0.83434000  1.0
  N  N385  1  0.50814000  0.95056000  0.33433000  1.0
  N  N386  1  0.50812000  0.04944000  0.16565000  1.0
  N  N387  1  0.99186000  0.45056000  0.66565000  1.0
  N  N388  1  0.00811000  0.45056000  0.16566000  1.0
  N  N389  1  0.49188000  0.04944000  0.66565000  1.0
  N  N390  1  0.49189000  0.95056000  0.83433000  1.0
  N  N391  1  0.00812000  0.54945000  0.33434000  1.0
  O  O392  1  0.78737000  0.82114000  0.83617000  1.0
  O  O393  1  0.71263000  0.67885000  0.33618000  1.0
  O  O394  1  0.71261000  0.32114000  0.16382000  1.0
  O  O395  1  0.78738000  0.17886000  0.66382000  1.0
  O  O396  1  0.21261000  0.17890000  0.16384000  1.0
  O  O397  1  0.28738000  0.32113000  0.66382000  1.0
  O  O398  1  0.28738000  0.67884000  0.83619000  1.0
  O  O399  1  0.21262000  0.82113000  0.33617000  1.0
  O  O400  1  0.73182000  0.69678000  0.81958000  1.0
  O  O401  1  0.76821000  0.80321000  0.31957000  1.0
  O  O402  1  0.76820000  0.19678000  0.18043000  1.0
  O  O403  1  0.73179000  0.30321000  0.68044000  1.0
  O  O404  1  0.26819000  0.30326000  0.18043000  1.0
  O  O405  1  0.23180000  0.19678000  0.68042000  1.0
  O  O406  1  0.23180000  0.80320000  0.81958000  1.0
  O  O407  1  0.26819000  0.69677000  0.31958000  1.0
  O  O408  1  0.21083000  0.67747000  0.12733000  1.0
  O  O409  1  0.28918000  0.82252000  0.62733000  1.0
  O  O410  1  0.28917000  0.17748000  0.87267000  1.0
  O  O411  1  0.21081000  0.32252000  0.37269000  1.0
  O  O412  1  0.78920000  0.32251000  0.87270000  1.0
  O  O413  1  0.71082000  0.17747000  0.37268000  1.0
  O  O414  1  0.71082000  0.82253000  0.12732000  1.0
  O  O415  1  0.78917000  0.67747000  0.62733000  1.0
  O  O416  1  0.27960000  0.79642000  0.14601000  1.0
  O  O417  1  0.22039000  0.70359000  0.64602000  1.0
  O  O418  1  0.22040000  0.29642000  0.85399000  1.0
  O  O419  1  0.27960000  0.20359000  0.35399000  1.0
  O  O420  1  0.72040000  0.20359000  0.85400000  1.0
  O  O421  1  0.77960000  0.29641000  0.35400000  1.0
  O  O422  1  0.77960000  0.70359000  0.14600000  1.0
  O  O423  1  0.72041000  0.79642000  0.64599000  1.0
