# generated using pymatgen
data_LaH9(C2O)8
_symmetry_space_group_name_H-M   'P 1'
_cell_length_a   7.93802000
_cell_length_b   11.29770000
_cell_length_c   16.87140000
_cell_angle_alpha   90.00000000
_cell_angle_beta   90.00000000
_cell_angle_gamma   98.12290000
_symmetry_Int_Tables_number   1
_chemical_formula_structural   LaH9(C2O)8
_chemical_formula_sum   'La4 H36 C64 O32'
_cell_volume   1497.87020656
_cell_formula_units_Z   4
loop_
 _symmetry_equiv_pos_site_id
 _symmetry_equiv_pos_as_xyz
  1  'x, y, z'
loop_
 _atom_site_type_symbol
 _atom_site_label
 _atom_site_symmetry_multiplicity
 _atom_site_fract_x
 _atom_site_fract_y
 _atom_site_fract_z
 _atom_site_occupancy
  La  La0  1  0.98716000  0.70188000  0.20644000  1.0
  La  La1  1  0.51284000  0.29812000  0.70644000  1.0
  La  La2  1  0.01284000  0.29812000  0.79356000  1.0
  La  La3  1  0.48716000  0.70188000  0.29356000  1.0
  H  H4  1  0.16193000  0.96030000  0.12172000  1.0
  H  H5  1  0.33806000  0.03970000  0.62172000  1.0
  H  H6  1  0.83807000  0.03970000  0.87828000  1.0
  H  H7  1  0.66194000  0.96030000  0.37828000  1.0
  H  H8  1  0.23348000  0.05090000  0.93075000  1.0
  H  H9  1  0.26652000  0.94911000  0.43075000  1.0
  H  H10  1  0.76652000  0.94910000  0.06925000  1.0
  H  H11  1  0.73348000  0.05090000  0.56925000  1.0
  H  H12  1  0.19827000  0.85123000  0.71318000  1.0
  H  H13  1  0.30172000  0.14877000  0.21318000  1.0
  H  H14  1  0.80172000  0.14877000  0.28682000  1.0
  H  H15  1  0.69828000  0.85123000  0.78682000  1.0
  H  H16  1  0.06416000  0.66885000  0.78594000  1.0
  H  H17  1  0.43584000  0.33115000  0.28594000  1.0
  H  H18  1  0.93584000  0.33115000  0.21407000  1.0
  H  H19  1  0.56416000  0.66885000  0.71406000  1.0
  H  H20  1  0.01775000  0.67856000  0.93143000  1.0
  H  H21  1  0.48225000  0.32144000  0.43143000  1.0
  H  H22  1  0.98225000  0.32144000  0.06857000  1.0
  H  H23  1  0.51775000  0.67856000  0.56857000  1.0
  H  H24  1  0.21523000  0.50672000  0.97596000  1.0
  H  H25  1  0.28477000  0.49328000  0.47596000  1.0
  H  H26  1  0.78477000  0.49328000  0.02404000  1.0
  H  H27  1  0.71523000  0.50672000  0.52404000  1.0
  H  H28  1  0.66518000  0.66028000  0.85084000  1.0
  H  H29  1  0.83482000  0.33972000  0.35084000  1.0
  H  H30  1  0.33482000  0.33971000  0.14916000  1.0
  H  H31  1  0.16518000  0.66028000  0.64916000  1.0
  H  H32  1  0.73832000  0.80612000  0.96153000  1.0
  H  H33  1  0.76168000  0.19388000  0.46153000  1.0
  H  H34  1  0.26168000  0.19387000  0.03847000  1.0
  H  H35  1  0.23832000  0.80612000  0.53847000  1.0
  H  H36  1  0.55549000  0.79305000  0.08221000  1.0
  H  H37  1  0.94451000  0.20694000  0.58221000  1.0
  H  H38  1  0.44451000  0.20694000  0.91779000  1.0
  H  H39  1  0.05549000  0.79306000  0.41779000  1.0
  C  C40  1  0.12657000  0.86474000  0.94049000  1.0
  C  C41  1  0.37342000  0.13526000  0.44049000  1.0
  C  C42  1  0.87343000  0.13526000  0.05951000  1.0
  C  C43  1  0.62657000  0.86474000  0.55951000  1.0
  C  C44  1  0.19789000  0.96707000  0.89937000  1.0
  C  C45  1  0.30211000  0.03293000  0.39937000  1.0
  C  C46  1  0.80211000  0.03293000  0.10063000  1.0
  C  C47  1  0.69790000  0.96707000  0.60063000  1.0
  C  C48  1  0.22213000  0.96255000  0.81756000  1.0
  C  C49  1  0.27787000  0.03745000  0.31756000  1.0
  C  C50  1  0.77786000  0.03745000  0.18245000  1.0
  C  C51  1  0.72214000  0.96255000  0.68244000  1.0
  C  C52  1  0.17693000  0.85439000  0.77692000  1.0
  C  C53  1  0.32307000  0.14561000  0.27692000  1.0
  C  C54  1  0.82307000  0.14561000  0.22308000  1.0
  C  C55  1  0.67693000  0.85439000  0.72308000  1.0
  C  C56  1  0.10160000  0.75277000  0.81751000  1.0
  C  C57  1  0.39840000  0.24723000  0.31751000  1.0
  C  C58  1  0.89840000  0.24723000  0.18249000  1.0
  C  C59  1  0.60161000  0.75277000  0.68249000  1.0
  C  C60  1  0.07544000  0.75770000  0.89919000  1.0
  C  C61  1  0.42456000  0.24231000  0.39919000  1.0
  C  C62  1  0.92456000  0.24230000  0.10081000  1.0
  C  C63  1  0.57545000  0.75770000  0.60081000  1.0
  C  C64  1  0.10334000  0.86901000  0.02736000  1.0
  C  C65  1  0.39665000  0.13099000  0.52736000  1.0
  C  C66  1  0.89665000  0.13098000  0.97265000  1.0
  C  C67  1  0.60335000  0.86901000  0.47264000  1.0
  C  C68  1  0.29559000  0.07401000  0.77581000  1.0
  C  C69  1  0.20441000  0.92599000  0.27581000  1.0
  C  C70  1  0.70440000  0.92599000  0.22419000  1.0
  C  C71  1  0.79560000  0.07401000  0.72419000  1.0
  C  C72  1  0.37508000  0.64900000  0.03683000  1.0
  C  C73  1  0.12492000  0.35100000  0.53683000  1.0
  C  C74  1  0.62492000  0.35100000  0.96317000  1.0
  C  C75  1  0.87507000  0.64900000  0.46317000  1.0
  C  C76  1  0.32959000  0.57227000  0.97290000  1.0
  C  C77  1  0.17041000  0.42773000  0.47290000  1.0
  C  C78  1  0.67041000  0.42773000  0.02710000  1.0
  C  C79  1  0.82958000  0.57227000  0.52710000  1.0
  C  C80  1  0.43380000  0.57764000  0.90593000  1.0
  C  C81  1  0.06620000  0.42236000  0.40593000  1.0
  C  C82  1  0.56620000  0.42236000  0.09407000  1.0
  C  C83  1  0.93380000  0.57764000  0.59407000  1.0
  C  C84  1  0.58239000  0.66099000  0.90231000  1.0
  C  C85  1  0.91761000  0.33901000  0.40231000  1.0
  C  C86  1  0.41762000  0.33901000  0.09769000  1.0
  C  C87  1  0.08239000  0.66099000  0.59769000  1.0
  C  C88  1  0.62409000  0.74053000  0.96462000  1.0
  C  C89  1  0.87591000  0.25947000  0.46462000  1.0
  C  C90  1  0.37591000  0.25947000  0.03538000  1.0
  C  C91  1  0.12409000  0.74053000  0.53538000  1.0
  C  C92  1  0.52133000  0.73420000  0.03196000  1.0
  C  C93  1  0.97867000  0.26580000  0.53196000  1.0
  C  C94  1  0.47867000  0.26579000  0.96804000  1.0
  C  C95  1  0.02133000  0.73420000  0.46804000  1.0
  C  C96  1  0.26713000  0.63985000  0.10922000  1.0
  C  C97  1  0.23287000  0.36015000  0.60922000  1.0
  C  C98  1  0.73286000  0.36015000  0.89078000  1.0
  C  C99  1  0.76713000  0.63985000  0.39078000  1.0
  C  C100  1  0.39121000  0.48987000  0.84051000  1.0
  C  C101  1  0.10879000  0.51013000  0.34051000  1.0
  C  C102  1  0.60879000  0.51013000  0.15949000  1.0
  C  C103  1  0.89121000  0.48987000  0.65949000  1.0
  O  O104  1  0.18565000  0.96561000  0.06254000  1.0
  O  O105  1  0.31434000  0.03439000  0.56254000  1.0
  O  O106  1  0.81435000  0.03439000  0.93746000  1.0
  O  O107  1  0.68566000  0.96561000  0.43746000  1.0
  O  O108  1  0.01308000  0.78843000  0.06441000  1.0
  O  O109  1  0.48692000  0.21158000  0.56441000  1.0
  O  O110  1  0.98693000  0.21158000  0.93559000  1.0
  O  O111  1  0.51308000  0.78842000  0.43559000  1.0
  O  O112  1  0.38284000  0.06833000  0.71229000  1.0
  O  O113  1  0.11715000  0.93167000  0.21229000  1.0
  O  O114  1  0.61715000  0.93167000  0.28771000  1.0
  O  O115  1  0.88285000  0.06833000  0.78771000  1.0
  O  O116  1  0.27708000  0.17532000  0.80602000  1.0
  O  O117  1  0.22292000  0.82468000  0.30602000  1.0
  O  O118  1  0.72292000  0.82468000  0.19398000  1.0
  O  O119  1  0.77709000  0.17532000  0.69398000  1.0
  O  O120  1  0.12940000  0.56875000  0.11191000  1.0
  O  O121  1  0.37059000  0.43125000  0.61191000  1.0
  O  O122  1  0.87059000  0.43125000  0.88808000  1.0
  O  O123  1  0.62941000  0.56875000  0.38809000  1.0
  O  O124  1  0.31179000  0.71208000  0.16845000  1.0
  O  O125  1  0.18820000  0.28792000  0.66845000  1.0
  O  O126  1  0.68820000  0.28791000  0.83155000  1.0
  O  O127  1  0.81180000  0.71208000  0.33155000  1.0
  O  O128  1  0.49877000  0.48295000  0.78546000  1.0
  O  O129  1  0.00123000  0.51705000  0.28546000  1.0
  O  O130  1  0.50123000  0.51705000  0.21454000  1.0
  O  O131  1  0.99877000  0.48295000  0.71454000  1.0
  O  O132  1  0.24825000  0.42239000  0.84417000  1.0
  O  O133  1  0.25175000  0.57761000  0.34417000  1.0
  O  O134  1  0.75175000  0.57760000  0.15583000  1.0
  O  O135  1  0.74825000  0.42240000  0.65583000  1.0
