# generated using pymatgen
data_ZnH25C26N5O8
_symmetry_space_group_name_H-M   'P 1'
_cell_length_a   8.99287000
_cell_length_b   9.62614000
_cell_length_c   16.09980000
_cell_angle_alpha   73.34970000
_cell_angle_beta   76.62360000
_cell_angle_gamma   80.63080000
_symmetry_Int_Tables_number   1
_chemical_formula_structural   ZnH25C26N5O8
_chemical_formula_sum   'Zn2 H50 C52 N10 O16'
_cell_volume   1292.06304107
_cell_formula_units_Z   2
loop_
 _symmetry_equiv_pos_site_id
 _symmetry_equiv_pos_as_xyz
  1  'x, y, z'
loop_
 _atom_site_type_symbol
 _atom_site_label
 _atom_site_symmetry_multiplicity
 _atom_site_fract_x
 _atom_site_fract_y
 _atom_site_fract_z
 _atom_site_occupancy
  Zn  Zn0  1  0.54119000  0.34754000  0.16833000  1.0
  Zn  Zn1  1  0.45881000  0.65246000  0.83167000  1.0
  H  H2  1  0.98069000  0.92346000  0.20297000  1.0
  H  H3  1  0.01931000  0.07654000  0.79703000  1.0
  H  H4  1  0.76459000  0.02106000  0.57619000  1.0
  H  H5  1  0.23541000  0.97894000  0.42382000  1.0
  H  H6  1  0.49883000  0.79410000  0.16626000  1.0
  H  H7  1  0.50118000  0.20590000  0.83373000  1.0
  H  H8  1  0.21403000  0.80401000  0.98319000  1.0
  H  H9  1  0.78597000  0.19600000  0.01680000  1.0
  H  H10  1  0.28485000  0.20403000  0.03333000  1.0
  H  H11  1  0.71515000  0.79597000  0.96666000  1.0
  H  H12  1  0.79212000  0.52489000  0.08651000  1.0
  H  H13  1  0.20788000  0.47511000  0.91349000  1.0
  H  H14  1  0.07284000  0.51447000  0.09265000  1.0
  H  H15  1  0.92716000  0.48553000  0.90735000  1.0
  H  H16  1  0.19784000  0.28645000  0.17927000  1.0
  H  H17  1  0.80216000  0.71355000  0.82073000  1.0
  H  H18  1  0.76499000  0.10093000  0.24295000  1.0
  H  H19  1  0.23501000  0.89907000  0.75705000  1.0
  H  H20  1  0.08405000  0.76922000  0.36956000  1.0
  H  H21  1  0.91595000  0.23078000  0.63044000  1.0
  H  H22  1  0.20127000  0.73029000  0.27258000  1.0
  H  H23  1  0.79873000  0.26971000  0.72741000  1.0
  H  H24  1  0.97420000  0.65895000  0.23412000  1.0
  H  H25  1  0.02580000  0.34105000  0.76588000  1.0
  H  H26  1  0.85334000  0.71044000  0.32550000  1.0
  H  H27  1  0.14666000  0.28956000  0.67450000  1.0
  H  H28  1  0.01694000  0.51528000  0.42505000  1.0
  H  H29  1  0.98306000  0.48472000  0.57495000  1.0
  H  H30  1  0.10844000  0.45422000  0.33078000  1.0
  H  H31  1  0.89156000  0.54578000  0.66922000  1.0
  H  H32  1  0.85265000  0.40799000  0.31151000  1.0
  H  H33  1  0.14735000  0.59201000  0.68850000  1.0
  H  H34  1  0.76082000  0.47488000  0.40305000  1.0
  H  H35  1  0.23918000  0.52512000  0.59695000  1.0
  H  H36  1  0.98240000  0.19523000  0.40478000  1.0
  H  H37  1  0.01760000  0.80477000  0.59522000  1.0
  H  H38  1  0.92313000  0.26934000  0.49724000  1.0
  H  H39  1  0.07687000  0.73066000  0.50276000  1.0
  H  H40  1  0.64805000  0.26088000  0.49579000  1.0
  H  H41  1  0.35194000  0.73912000  0.50421000  1.0
  H  H42  1  0.70248000  0.19515000  0.39986000  1.0
  H  H43  1  0.29752000  0.80486000  0.60014000  1.0
  H  H44  1  0.58553000  0.88564000  0.66832000  1.0
  H  H45  1  0.41446000  0.11436000  0.33169000  1.0
  H  H46  1  0.71821000  0.68030000  0.45309000  1.0
  H  H47  1  0.28179000  0.31971000  0.54691000  1.0
  H  H48  1  0.63121000  0.44604000  0.56185000  1.0
  H  H49  1  0.36879000  0.55396000  0.43814000  1.0
  H  H50  1  0.52280000  0.45069000  0.71998000  1.0
  H  H51  1  0.47720000  0.54931000  0.28002000  1.0
  C  C52  1  0.47043000  0.08316000  0.15291000  1.0
  C  C53  1  0.52957000  0.91684000  0.84709000  1.0
  C  C54  1  0.39393000  0.00567000  0.10775000  1.0
  C  C55  1  0.60607000  0.99433000  0.89225000  1.0
  C  C56  1  0.42244000  0.85433000  0.12155000  1.0
  C  C57  1  0.57757000  0.14567000  0.87845000  1.0
  C  C58  1  0.35861000  0.78138000  0.07663000  1.0
  C  C59  1  0.64139000  0.21862000  0.92337000  1.0
  C  C60  1  0.26348000  0.86021000  0.01835000  1.0
  C  C61  1  0.73652000  0.13979000  0.98165000  1.0
  C  C62  1  0.23886000  0.01116000  0.00397000  1.0
  C  C63  1  0.76114000  0.98884000  0.99603000  1.0
  C  C64  1  0.30264000  0.08588000  0.04731000  1.0
  C  C65  1  0.69736000  0.91413000  0.95269000  1.0
  C  C66  1  0.39399000  0.61957000  0.08700000  1.0
  C  C67  1  0.60601000  0.38043000  0.91300000  1.0
  C  C68  1  0.85351000  0.42795000  0.12282000  1.0
  C  C69  1  0.14649000  0.57205000  0.87718000  1.0
  C  C70  1  0.00720000  0.42183000  0.12694000  1.0
  C  C71  1  0.99279000  0.57817000  0.87306000  1.0
  C  C72  1  0.07706000  0.29435000  0.17572000  1.0
  C  C73  1  0.92294000  0.70565000  0.82428000  1.0
  C  C74  1  0.99257000  0.17459000  0.21699000  1.0
  C  C75  1  0.00743000  0.82541000  0.78301000  1.0
  C  C76  1  0.83813000  0.18900000  0.21059000  1.0
  C  C77  1  0.16186000  0.81100000  0.78941000  1.0
  C  C78  1  0.06632000  0.03506000  0.26866000  1.0
  C  C79  1  0.93368000  0.96494000  0.73135000  1.0
  C  C80  1  0.08285000  0.76643000  0.30192000  1.0
  C  C81  1  0.91715000  0.23357000  0.69808000  1.0
  C  C82  1  0.97047000  0.66296000  0.30231000  1.0
  C  C83  1  0.02953000  0.33704000  0.69769000  1.0
  C  C84  1  0.00030000  0.50896000  0.36045000  1.0
  C  C85  1  0.99970000  0.49104000  0.63955000  1.0
  C  C86  1  0.86888000  0.41660000  0.37556000  1.0
  C  C87  1  0.13112000  0.58340000  0.62444000  1.0
  C  C88  1  0.88943000  0.26336000  0.43678000  1.0
  C  C89  1  0.11057000  0.73664000  0.56322000  1.0
  C  C90  1  0.73866000  0.19437000  0.46062000  1.0
  C  C91  1  0.26134000  0.80563000  0.53938000  1.0
  C  C92  1  0.70170000  0.93933000  0.48497000  1.0
  C  C93  1  0.29830000  0.06067000  0.51503000  1.0
  C  C94  1  0.60260000  0.79100000  0.64148000  1.0
  C  C95  1  0.39740000  0.20900000  0.35852000  1.0
  C  C96  1  0.66508000  0.79849000  0.55246000  1.0
  C  C97  1  0.33491000  0.20152000  0.44754000  1.0
  C  C98  1  0.67455000  0.67348000  0.52301000  1.0
  C  C99  1  0.32545000  0.32653000  0.47699000  1.0
  C  C100  1  0.62468000  0.54569000  0.58243000  1.0
  C  C101  1  0.37532000  0.45431000  0.41757000  1.0
  C  C102  1  0.56426000  0.54677000  0.66994000  1.0
  C  C103  1  0.43573000  0.45323000  0.33006000  1.0
  N  N104  1  0.77055000  0.31407000  0.16490000  1.0
  N  N105  1  0.22945000  0.68592000  0.83510000  1.0
  N  N106  1  0.03645000  0.91327000  0.25346000  1.0
  N  N107  1  0.96355000  0.08673000  0.74654000  1.0
  N  N108  1  0.74056000  0.04454000  0.51405000  1.0
  N  N109  1  0.25943000  0.95546000  0.48595000  1.0
  N  N110  1  0.55341000  0.66736000  0.69856000  1.0
  N  N111  1  0.44659000  0.33264000  0.30144000  1.0
  N  N112  1  0.14774000  0.09394000  0.93860000  1.0
  N  N113  1  0.85226000  0.90606000  0.06140000  1.0
  O  O114  1  0.44012000  0.22432000  0.12898000  1.0
  O  O115  1  0.55988000  0.77568000  0.87102000  1.0
  O  O116  1  0.55485000  0.01427000  0.20566000  1.0
  O  O117  1  0.44515000  0.98573000  0.79434000  1.0
  O  O118  1  0.50348000  0.56027000  0.13059000  1.0
  O  O119  1  0.49652000  0.43973000  0.86941000  1.0
  O  O120  1  0.32008000  0.55554000  0.05552000  1.0
  O  O121  1  0.67992000  0.44446000  0.94448000  1.0
  O  O122  1  0.09010000  0.02279000  0.90245000  1.0
  O  O123  1  0.90990000  0.97721000  0.09755000  1.0
  O  O124  1  0.13085000  0.22884000  0.92177000  1.0
  O  O125  1  0.86916000  0.77116000  0.07823000  1.0
  O  O126  1  0.14823000  0.03687000  0.32138000  1.0
  O  O127  1  0.85177000  0.96313000  0.67862000  1.0
  O  O128  1  0.68714000  0.95471000  0.40763000  1.0
  O  O129  1  0.31286000  0.04529000  0.59237000  1.0
