# generated using pymatgen
data_KH5C7SN4
_symmetry_space_group_name_H-M   'P 1'
_cell_length_a   6.31850000
_cell_length_b   7.04352000
_cell_length_c   11.07806595
_cell_angle_alpha   103.58278987
_cell_angle_beta   96.37376899
_cell_angle_gamma   112.16500000
_symmetry_Int_Tables_number   1
_chemical_formula_structural   KH5C7SN4
_chemical_formula_sum   'K2 H10 C14 S2 N8'
_cell_volume   432.77035965
_cell_formula_units_Z   2
loop_
 _symmetry_equiv_pos_site_id
 _symmetry_equiv_pos_as_xyz
  1  'x, y, z'
loop_
 _atom_site_type_symbol
 _atom_site_label
 _atom_site_symmetry_multiplicity
 _atom_site_fract_x
 _atom_site_fract_y
 _atom_site_fract_z
 _atom_site_occupancy
  K  K0  1  0.32237000  0.15777000  0.09734000  1.0
  K  K1  1  0.67762000  0.84221000  0.90267000  1.0
  H  H2  1  0.94040000  0.37438000  0.55280000  1.0
  H  H3  1  0.05960000  0.62560000  0.44722000  1.0
  H  H4  1  0.61129000  0.27411000  0.37327000  1.0
  H  H5  1  0.38875000  0.72591000  0.62674000  1.0
  H  H6  1  0.20219000  0.17076000  0.40883000  1.0
  H  H7  1  0.79783000  0.82927000  0.59115000  1.0
  H  H8  1  0.13007000  0.15343000  0.62369000  1.0
  H  H9  1  0.86994000  0.84662000  0.37630000  1.0
  H  H10  1  0.46536000  0.25433000  0.80404000  1.0
  H  H11  1  0.53461000  0.74567000  0.19596000  1.0
  C  C12  1  0.10331000  0.57120000  0.84319000  1.0
  C  C13  1  0.89667000  0.42879000  0.15682000  1.0
  C  C14  1  0.72004000  0.32204000  0.68761000  1.0
  C  C15  1  0.27996000  0.67794000  0.31238000  1.0
  C  C16  1  0.76243000  0.32862000  0.56733000  1.0
  C  C17  1  0.23757000  0.67139000  0.43267000  1.0
  C  C18  1  0.57529000  0.27271000  0.46719000  1.0
  C  C19  1  0.42476000  0.72733000  0.53281000  1.0
  C  C20  1  0.34779000  0.21168000  0.48741000  1.0
  C  C21  1  0.65224000  0.78836000  0.51257000  1.0
  C  C22  1  0.30767000  0.20454000  0.60811000  1.0
  C  C23  1  0.69234000  0.79548000  0.39187000  1.0
  C  C24  1  0.49389000  0.26000000  0.70952000  1.0
  C  C25  1  0.50611000  0.74000000  0.29047000  1.0
  S  S26  1  0.14685000  0.80615000  0.81123000  1.0
  S  S27  1  0.85315000  0.19383000  0.18878000  1.0
  N  N28  1  0.91387000  0.37682000  0.78823000  1.0
  N  N29  1  0.08611000  0.62317000  0.21178000  1.0
  N  N30  1  0.94093000  0.22792000  0.83986000  1.0
  N  N31  1  0.05903000  0.77205000  0.16015000  1.0
  N  N32  1  0.14014000  0.32794000  0.92257000  1.0
  N  N33  1  0.85983000  0.67204000  0.07744000  1.0
  N  N34  1  0.24557000  0.53673000  0.92810000  1.0
  N  N35  1  0.75441000  0.46325000  0.07191000  1.0
