# generated using pymatgen
data_Ag2H24C25(N2O)4
_symmetry_space_group_name_H-M   'P 1'
_cell_length_a   11.36500000
_cell_length_b   11.39210000
_cell_length_c   12.14200000
_cell_angle_alpha   85.54950000
_cell_angle_beta   65.57440000
_cell_angle_gamma   77.06240000
_symmetry_Int_Tables_number   1
_chemical_formula_structural   Ag2H24C25(N2O)4
_chemical_formula_sum   'Ag4 H48 C50 N16 O8'
_cell_volume   1394.80620344
_cell_formula_units_Z   2
loop_
 _symmetry_equiv_pos_site_id
 _symmetry_equiv_pos_as_xyz
  1  'x, y, z'
loop_
 _atom_site_type_symbol
 _atom_site_label
 _atom_site_symmetry_multiplicity
 _atom_site_fract_x
 _atom_site_fract_y
 _atom_site_fract_z
 _atom_site_occupancy
  Ag  Ag0  1  0.79849000  0.69048000  0.55264000  1.0
  Ag  Ag1  1  0.20150000  0.30952000  0.44736000  1.0
  Ag  Ag2  1  0.48895000  0.19899000  0.34309000  1.0
  Ag  Ag3  1  0.51105000  0.80101000  0.65691000  1.0
  H  H4  1  0.63170000  0.51191000  0.77159000  1.0
  H  H5  1  0.36830000  0.48809000  0.22841000  1.0
  H  H6  1  0.00703000  0.30450000  0.73600000  1.0
  H  H7  1  0.99297000  0.69551000  0.26400000  1.0
  H  H8  1  0.03914000  0.51342000  0.60695000  1.0
  H  H9  1  0.96086000  0.48659000  0.39305000  1.0
  H  H10  1  0.64750000  0.32499000  0.92144000  1.0
  H  H11  1  0.35249000  0.67501000  0.07855000  1.0
  H  H12  1  0.80633000  0.23157000  0.88386000  1.0
  H  H13  1  0.19367000  0.76843000  0.11613000  1.0
  H  H14  1  0.51158000  0.31107000  0.81796000  1.0
  H  H15  1  0.48842000  0.68893000  0.18203000  1.0
  H  H16  1  0.63570000  0.35101000  0.68380000  1.0
  H  H17  1  0.36430000  0.64899000  0.31620000  1.0
  H  H18  1  0.61358000  0.32815000  0.50223000  1.0
  H  H19  1  0.38642000  0.67185000  0.49777000  1.0
  H  H20  1  0.45496000  0.08464000  0.78043000  1.0
  H  H21  1  0.54504000  0.91536000  0.21956000  1.0
  H  H22  1  0.40131000  0.04899000  0.58635000  1.0
  H  H23  1  0.59869000  0.95101000  0.41365000  1.0
  H  H24  1  0.87097000  0.22409000  0.60199000  1.0
  H  H25  1  0.12903000  0.77591000  0.39801000  1.0
  H  H26  1  0.91606000  0.11310000  0.69551000  1.0
  H  H27  1  0.08394000  0.88689000  0.30449000  1.0
  H  H28  1  0.83851000  0.15283000  0.42754000  1.0
  H  H29  1  0.16149000  0.84717000  0.57246000  1.0
  H  H30  1  0.82361000  0.92824000  0.36343000  1.0
  H  H31  1  0.17640000  0.07176000  0.63657000  1.0
  H  H32  1  0.84992000  0.90069000  0.70271000  1.0
  H  H33  1  0.15008000  0.09930000  0.29729000  1.0
  H  H34  1  0.62590000  0.03449000  0.81963000  1.0
  H  H35  1  0.37410000  0.96551000  0.18037000  1.0
  H  H36  1  0.75235000  0.03407000  0.86867000  1.0
  H  H37  1  0.24765000  0.96593000  0.13133000  1.0
  H  H38  1  0.38657000  0.19244000  0.95549000  1.0
  H  H39  1  0.61343000  0.80755000  0.04451000  1.0
  H  H40  1  0.29107000  0.25808000  0.19480000  1.0
  H  H41  1  0.70893000  0.74192000  0.80520000  1.0
  H  H42  1  0.69797000  0.08783000  0.07238000  1.0
  H  H43  1  0.30204000  0.91217000  0.92762000  1.0
  H  H44  1  0.80175000  0.79268000  0.18156000  1.0
  H  H45  1  0.19826000  0.20732000  0.81844000  1.0
  H  H46  1  0.89086000  0.60228000  0.85678000  1.0
  H  H47  1  0.10913000  0.39772000  0.14323000  1.0
  H  H48  1  0.84735000  0.41529000  0.97604000  1.0
  H  H49  1  0.15264000  0.58472000  0.02395000  1.0
  H  H50  1  0.77827000  0.41985000  0.20038000  1.0
  H  H51  1  0.22173000  0.58015000  0.79962000  1.0
  C  C52  1  0.73800000  0.48416000  0.74165000  1.0
  C  C53  1  0.26200000  0.51584000  0.25835000  1.0
  C  C54  1  0.93417000  0.37671000  0.72253000  1.0
  C  C55  1  0.06583000  0.62329000  0.27747000  1.0
  C  C56  1  0.94920000  0.48071000  0.65757000  1.0
  C  C57  1  0.05080000  0.51929000  0.34244000  1.0
  C  C58  1  0.73901000  0.28407000  0.84552000  1.0
  C  C59  1  0.26099000  0.71593000  0.15448000  1.0
  C  C60  1  0.70816000  0.19796000  0.77240000  1.0
  C  C61  1  0.29184000  0.80204000  0.22760000  1.0
  C  C62  1  0.59886000  0.27418000  0.73607000  1.0
  C  C63  1  0.40114000  0.72582000  0.26392000  1.0
  C  C64  1  0.56657000  0.25431000  0.54820000  1.0
  C  C65  1  0.43343000  0.74569000  0.45180000  1.0
  C  C66  1  0.48544000  0.12563000  0.69240000  1.0
  C  C67  1  0.51456000  0.87436000  0.30760000  1.0
  C  C68  1  0.45811000  0.10908000  0.59577000  1.0
  C  C69  1  0.54189000  0.89092000  0.40423000  1.0
  C  C70  1  0.83899000  0.14995000  0.66227000  1.0
  C  C71  1  0.16101000  0.85005000  0.33772000  1.0
  C  C72  1  0.83267000  0.06885000  0.47597000  1.0
  C  C73  1  0.16733000  0.93115000  0.52402000  1.0
  C  C74  1  0.82752000  0.95748000  0.44455000  1.0
  C  C75  1  0.17248000  0.04252000  0.55545000  1.0
  C  C76  1  0.83733000  0.93839000  0.62118000  1.0
  C  C77  1  0.16267000  0.06161000  0.37881000  1.0
  C  C78  1  0.66614000  0.09182000  0.85737000  1.0
  C  C79  1  0.33387000  0.90817000  0.14263000  1.0
  C  C80  1  0.43757000  0.18452000  0.01465000  1.0
  C  C81  1  0.56243000  0.81547000  0.98534000  1.0
  C  C82  1  0.39081000  0.21670000  0.13416000  1.0
  C  C83  1  0.60920000  0.78330000  0.86584000  1.0
  C  C84  1  0.60096000  0.13171000  0.07590000  1.0
  C  C85  1  0.39904000  0.86829000  0.92410000  1.0
  C  C86  1  0.75722000  0.60481000  0.33892000  1.0
  C  C87  1  0.24278000  0.39519000  0.66108000  1.0
  C  C88  1  0.78607000  0.60589000  0.20532000  1.0
  C  C89  1  0.21394000  0.39411000  0.79468000  1.0
  C  C90  1  0.81023000  0.70994000  0.13702000  1.0
  C  C91  1  0.18978000  0.29006000  0.86299000  1.0
  C  C92  1  0.84466000  0.71030000  0.01206000  1.0
  C  C93  1  0.15534000  0.28971000  0.98794000  1.0
  C  C94  1  0.85893000  0.82698000  0.94096000  1.0
  C  C95  1  0.14107000  0.17302000  0.05904000  1.0
  C  C96  1  0.85878000  0.60268000  0.95467000  1.0
  C  C97  1  0.14122000  0.39732000  0.04533000  1.0
  C  C98  1  0.83353000  0.49910000  0.02189000  1.0
  C  C99  1  0.16647000  0.50090000  0.97811000  1.0
  C  C100  1  0.79585000  0.50054000  0.14687000  1.0
  C  C101  1  0.20415000  0.49946000  0.85313000  1.0
  N  N102  1  0.82623000  0.54599000  0.66945000  1.0
  N  N103  1  0.17377000  0.45401000  0.33055000  1.0
  N  N104  1  0.80000000  0.37988000  0.77524000  1.0
  N  N105  1  0.20000000  0.62012000  0.22476000  1.0
  N  N106  1  0.55483000  0.21732000  0.66101000  1.0
  N  N107  1  0.44517000  0.78268000  0.33899000  1.0
  N  N108  1  0.50984000  0.18893000  0.50636000  1.0
  N  N109  1  0.49016000  0.81107000  0.49364000  1.0
  N  N110  1  0.83640000  0.05602000  0.58901000  1.0
  N  N111  1  0.16360000  0.94398000  0.41099000  1.0
  N  N112  1  0.83066000  0.87746000  0.53554000  1.0
  N  N113  1  0.16935000  0.12254000  0.46446000  1.0
  N  N114  1  0.56994000  0.13114000  0.97916000  1.0
  N  N115  1  0.43006000  0.86886000  0.02084000  1.0
  N  N116  1  0.49368000  0.18358000  0.17124000  1.0
  N  N117  1  0.50633000  0.81642000  0.82876000  1.0
  O  O118  1  0.72102000  0.51632000  0.40238000  1.0
  O  O119  1  0.27898000  0.48368000  0.59763000  1.0
  O  O120  1  0.77781000  0.69863000  0.37587000  1.0
  O  O121  1  0.22219000  0.30137000  0.62413000  1.0
  O  O122  1  0.81758000  0.92420000  0.00324000  1.0
  O  O123  1  0.18241000  0.07581000  0.99677000  1.0
  O  O124  1  0.90415000  0.81885000  0.82642000  1.0
  O  O125  1  0.09584000  0.18116000  0.17359000  1.0
