# generated using pymatgen
data_CuH5C2IN
_symmetry_space_group_name_H-M   'P 1'
_cell_length_a   6.88962000
_cell_length_b   8.82548000
_cell_length_c   8.82550000
_cell_angle_alpha   118.13100000
_cell_angle_beta   97.01470000
_cell_angle_gamma   97.01530000
_symmetry_Int_Tables_number   1
_chemical_formula_structural   CuH5C2IN
_chemical_formula_sum   'Cu4 H20 C8 I4 N4'
_cell_volume   459.68713505
_cell_formula_units_Z   4
loop_
 _symmetry_equiv_pos_site_id
 _symmetry_equiv_pos_as_xyz
  1  'x, y, z'
loop_
 _atom_site_type_symbol
 _atom_site_label
 _atom_site_symmetry_multiplicity
 _atom_site_fract_x
 _atom_site_fract_y
 _atom_site_fract_z
 _atom_site_occupancy
  Cu  Cu0  1  0.88366000  0.36298000  0.48021000  1.0
  Cu  Cu1  1  0.61634000  0.51979000  0.63702000  1.0
  Cu  Cu2  1  0.11634000  0.63701000  0.51979000  1.0
  Cu  Cu3  1  0.38367000  0.48020000  0.36298000  1.0
  H  H4  1  0.16268000  0.21002000  0.52226000  1.0
  H  H5  1  0.33734000  0.47775000  0.78998000  1.0
  H  H6  1  0.83734000  0.78997000  0.47774000  1.0
  H  H7  1  0.66268000  0.52226000  0.21002000  1.0
  H  H8  1  0.00932000  0.01560000  0.23131000  1.0
  H  H9  1  0.49066000  0.76870000  0.98440000  1.0
  H  H10  1  0.99066000  0.98439000  0.76869000  1.0
  H  H11  1  0.50933000  0.23132000  0.01560000  1.0
  H  H12  1  0.79178000  0.96295000  0.29963000  1.0
  H  H13  1  0.70821000  0.70039000  0.03706000  1.0
  H  H14  1  0.20821000  0.03705000  0.70038000  1.0
  H  H15  1  0.29179000  0.29963000  0.96295000  1.0
  H  H16  1  0.79432000  0.11502000  0.62434000  1.0
  H  H17  1  0.70567000  0.37565000  0.88496000  1.0
  H  H18  1  0.20566000  0.88496000  0.37564000  1.0
  H  H19  1  0.29433000  0.62434000  0.11503000  1.0
  H  H20  1  0.00975000  0.27337000  0.76912000  1.0
  H  H21  1  0.49024000  0.23089000  0.72664000  1.0
  H  H22  1  0.99023000  0.72663000  0.23088000  1.0
  H  H23  1  0.50975000  0.76912000  0.27337000  1.0
  C  C24  1  0.95606000  0.99719000  0.33506000  1.0
  C  C25  1  0.54394000  0.66494000  0.00282000  1.0
  C  C26  1  0.04394000  0.00281000  0.66494000  1.0
  C  C27  1  0.45606000  0.33506000  0.99719000  1.0
  C  C28  1  0.95873000  0.14631000  0.64750000  1.0
  C  C29  1  0.54129000  0.35250000  0.85369000  1.0
  C  C30  1  0.04128000  0.85368000  0.35249000  1.0
  C  C31  1  0.45872000  0.64751000  0.14632000  1.0
  I  I32  1  0.99683000  0.36255000  0.20241000  1.0
  I  I33  1  0.50317000  0.79759000  0.63745000  1.0
  I  I34  1  0.00317000  0.63745000  0.79758000  1.0
  I  I35  1  0.49683000  0.20241000  0.36255000  1.0
  N  N36  1  0.01069000  0.16752000  0.49992000  1.0
  N  N37  1  0.48930000  0.50009000  0.83247000  1.0
  N  N38  1  0.98930000  0.83248000  0.50010000  1.0
  N  N39  1  0.51070000  0.49992000  0.16752000  1.0
