# generated using pymatgen
data_AlH14(C4O)5
_symmetry_space_group_name_H-M   'P 1'
_cell_length_a   6.63788000
_cell_length_b   21.53810000
_cell_length_c   25.49130000
_cell_angle_alpha   95.82130000
_cell_angle_beta   89.99860000
_cell_angle_gamma   89.99960000
_symmetry_Int_Tables_number   1
_chemical_formula_structural   AlH14(C4O)5
_chemical_formula_sum   'Al4 H56 C80 O20'
_cell_volume   3625.62889830
_cell_formula_units_Z   4
loop_
 _symmetry_equiv_pos_site_id
 _symmetry_equiv_pos_as_xyz
  1  'x, y, z'
loop_
 _atom_site_type_symbol
 _atom_site_label
 _atom_site_symmetry_multiplicity
 _atom_site_fract_x
 _atom_site_fract_y
 _atom_site_fract_z
 _atom_site_occupancy
  Al  Al0  1  0.19234000  0.74961000  0.75195000  1.0
  Al  Al1  1  0.80767000  0.25039000  0.24806000  1.0
  Al  Al2  1  0.69233000  0.75040000  0.74805000  1.0
  Al  Al3  1  0.30767000  0.24960000  0.25195000  1.0
  H  H4  1  0.97413000  0.62414000  0.41521000  1.0
  H  H5  1  0.02587000  0.37586000  0.58479000  1.0
  H  H6  1  0.47418000  0.87586000  0.08479000  1.0
  H  H7  1  0.52581000  0.12414000  0.91522000  1.0
  H  H8  1  0.93933000  0.63363000  0.58593000  1.0
  H  H9  1  0.06069000  0.36637000  0.41407000  1.0
  H  H10  1  0.43933000  0.86637000  0.91408000  1.0
  H  H11  1  0.56066000  0.13363000  0.08593000  1.0
  H  H12  1  0.97607000  0.53955000  0.72606000  1.0
  H  H13  1  0.02393000  0.46046000  0.27394000  1.0
  H  H14  1  0.47605000  0.96045000  0.77394000  1.0
  H  H15  1  0.52396000  0.03955000  0.22606000  1.0
  H  H16  1  0.95664000  0.62947000  0.51032000  1.0
  H  H17  1  0.04336000  0.37053000  0.48968000  1.0
  H  H18  1  0.45673000  0.87053000  0.98968000  1.0
  H  H19  1  0.54328000  0.12947000  0.01033000  1.0
  H  H20  1  0.68664000  0.90406000  0.53496000  1.0
  H  H21  1  0.31335000  0.09594000  0.46505000  1.0
  H  H22  1  0.18663000  0.59593000  0.96504000  1.0
  H  H23  1  0.81337000  0.40406000  0.03496000  1.0
  H  H24  1  0.67375000  0.83621000  0.60872000  1.0
  H  H25  1  0.32625000  0.16380000  0.39128000  1.0
  H  H26  1  0.17375000  0.66379000  0.89128000  1.0
  H  H27  1  0.82625000  0.33621000  0.10872000  1.0
  H  H28  1  0.25553000  0.97761000  0.59463000  1.0
  H  H29  1  0.74447000  0.02239000  0.40537000  1.0
  H  H30  1  0.75552000  0.52238000  0.90536000  1.0
  H  H31  1  0.24448000  0.47761000  0.09464000  1.0
  H  H32  1  0.11864000  0.61163000  0.32984000  1.0
  H  H33  1  0.00276000  0.56719000  0.27553000  1.0
  H  H34  1  0.85307000  0.60379000  0.32761000  1.0
  H  H35  1  0.14693000  0.39622000  0.67239000  1.0
  H  H36  1  0.99723000  0.43281000  0.72447000  1.0
  H  H37  1  0.88136000  0.38837000  0.67015000  1.0
  H  H38  1  0.35308000  0.89621000  0.17239000  1.0
  H  H39  1  0.61865000  0.88837000  0.17016000  1.0
  H  H40  1  0.50277000  0.93281000  0.22447000  1.0
  H  H41  1  0.64692000  0.10378000  0.82761000  1.0
  H  H42  1  0.49724000  0.06718000  0.77553000  1.0
  H  H43  1  0.38135000  0.11163000  0.82984000  1.0
  H  H44  1  0.23503000  0.91783000  0.71875000  1.0
  H  H45  1  0.39170000  0.87191000  0.67497000  1.0
  H  H46  1  0.38675000  0.95445000  0.67283000  1.0
  H  H47  1  0.76498000  0.08218000  0.28125000  1.0
  H  H48  1  0.61326000  0.04556000  0.32717000  1.0
  H  H49  1  0.60830000  0.12809000  0.32503000  1.0
  H  H50  1  0.73503000  0.58216000  0.78124000  1.0
  H  H51  1  0.89169000  0.62808000  0.82502000  1.0
  H  H52  1  0.88674000  0.54554000  0.82716000  1.0
  H  H53  1  0.26495000  0.41783000  0.21876000  1.0
  H  H54  1  0.11325000  0.45445000  0.17283000  1.0
  H  H55  1  0.10829000  0.37191000  0.17497000  1.0
  H  H56  1  0.43499000  0.71261000  0.68653000  1.0
  H  H57  1  0.56501000  0.28739000  0.31348000  1.0
  H  H58  1  0.93498000  0.78739000  0.81347000  1.0
  H  H59  1  0.06502000  0.21261000  0.18653000  1.0
  C  C60  1  0.44638000  0.67834000  0.81795000  1.0
  C  C61  1  0.55363000  0.32165000  0.18205000  1.0
  C  C62  1  0.94636000  0.82165000  0.68204000  1.0
  C  C63  1  0.05365000  0.17835000  0.31796000  1.0
  C  C64  1  0.44526000  0.84683000  0.80801000  1.0
  C  C65  1  0.55476000  0.15317000  0.19199000  1.0
  C  C66  1  0.94525000  0.65317000  0.69199000  1.0
  C  C67  1  0.05475000  0.34683000  0.30801000  1.0
  C  C68  1  0.04582000  0.40790000  0.34172000  1.0
  C  C69  1  0.95419000  0.59211000  0.65828000  1.0
  C  C70  1  0.54582000  0.09211000  0.15828000  1.0
  C  C71  1  0.45418000  0.90789000  0.84172000  1.0
  C  C72  1  0.01101000  0.52061000  0.34615000  1.0
  C  C73  1  0.98899000  0.47939000  0.65385000  1.0
  C  C74  1  0.51104000  0.97939000  0.15385000  1.0
  C  C75  1  0.48896000  0.02061000  0.84615000  1.0
  C  C76  1  0.02675000  0.46315000  0.31688000  1.0
  C  C77  1  0.97325000  0.53685000  0.68312000  1.0
  C  C78  1  0.52677000  0.03685000  0.18312000  1.0
  C  C79  1  0.47323000  0.96315000  0.81688000  1.0
  C  C80  1  0.04624000  0.40990000  0.39609000  1.0
  C  C81  1  0.95378000  0.59010000  0.60390000  1.0
  C  C82  1  0.54623000  0.09010000  0.10390000  1.0
  C  C83  1  0.45376000  0.90990000  0.89610000  1.0
  C  C84  1  0.02337000  0.46729000  0.42786000  1.0
  C  C85  1  0.97665000  0.53271000  0.57214000  1.0
  C  C86  1  0.52336000  0.03271000  0.07214000  1.0
  C  C87  1  0.47663000  0.96729000  0.92786000  1.0
  C  C88  1  0.00733000  0.52329000  0.40234000  1.0
  C  C89  1  0.99267000  0.47671000  0.59766000  1.0
  C  C90  1  0.50735000  0.97671000  0.09766000  1.0
  C  C91  1  0.49264000  0.02329000  0.90234000  1.0
  C  C92  1  0.01271000  0.47069000  0.48491000  1.0
  C  C93  1  0.98730000  0.52931000  0.51509000  1.0
  C  C94  1  0.51269000  0.02931000  0.01509000  1.0
  C  C95  1  0.48730000  0.97069000  0.98491000  1.0
  C  C96  1  0.97480000  0.58397000  0.48802000  1.0
  C  C97  1  0.02521000  0.41603000  0.51198000  1.0
  C  C98  1  0.47484000  0.91603000  0.01198000  1.0
  C  C99  1  0.52515000  0.08397000  0.98802000  1.0
  C  C100  1  0.98476000  0.58115000  0.43420000  1.0
  C  C101  1  0.01524000  0.41885000  0.56580000  1.0
  C  C102  1  0.48480000  0.91885000  0.06580000  1.0
  C  C103  1  0.51519000  0.08115000  0.93420000  1.0
  C  C104  1  0.80812000  0.90498000  0.56381000  1.0
  C  C105  1  0.19189000  0.09502000  0.43620000  1.0
  C  C106  1  0.30809000  0.59502000  0.93619000  1.0
  C  C107  1  0.69190000  0.40498000  0.06381000  1.0
  C  C108  1  0.80126000  0.86729000  0.60480000  1.0
  C  C109  1  0.19875000  0.13271000  0.39520000  1.0
  C  C110  1  0.30125000  0.63270000  0.89520000  1.0
  C  C111  1  0.69875000  0.36729000  0.10480000  1.0
  C  C112  1  0.95840000  0.86712000  0.64172000  1.0
  C  C113  1  0.04160000  0.13288000  0.35828000  1.0
  C  C114  1  0.45839000  0.63288000  0.85828000  1.0
  C  C115  1  0.54160000  0.36712000  0.14172000  1.0
  C  C116  1  0.12547000  0.90769000  0.63871000  1.0
  C  C117  1  0.87454000  0.09232000  0.36130000  1.0
  C  C118  1  0.62546000  0.59231000  0.86129000  1.0
  C  C119  1  0.37454000  0.40769000  0.13871000  1.0
  C  C120  1  0.12902000  0.94580000  0.59758000  1.0
  C  C121  1  0.87099000  0.05420000  0.40242000  1.0
  C  C122  1  0.62900000  0.55419000  0.90242000  1.0
  C  C123  1  0.37099000  0.44581000  0.09758000  1.0
  C  C124  1  0.97487000  0.94478000  0.55943000  1.0
  C  C125  1  0.02513000  0.05522000  0.44058000  1.0
  C  C126  1  0.47486000  0.55522000  0.94057000  1.0
  C  C127  1  0.52514000  0.44478000  0.05943000  1.0
  C  C128  1  0.99031000  0.98330000  0.51782000  1.0
  C  C129  1  0.00968000  0.01670000  0.48218000  1.0
  C  C130  1  0.49030000  0.51670000  0.98217000  1.0
  C  C131  1  0.50969000  0.48330000  0.01783000  1.0
  C  C132  1  0.99544000  0.57881000  0.31840000  1.0
  C  C133  1  0.00456000  0.42119000  0.68160000  1.0
  C  C134  1  0.49544000  0.92119000  0.18160000  1.0
  C  C135  1  0.50456000  0.07881000  0.81840000  1.0
  C  C136  1  0.29424000  0.91332000  0.67833000  1.0
  C  C137  1  0.70576000  0.08669000  0.32167000  1.0
  C  C138  1  0.79424000  0.58667000  0.82166000  1.0
  C  C139  1  0.20576000  0.41332000  0.17833000  1.0
  O  O140  1  0.61372000  0.82408000  0.79214000  1.0
  O  O141  1  0.38626000  0.17592000  0.20786000  1.0
  O  O142  1  0.11375000  0.67591000  0.70787000  1.0
  O  O143  1  0.88627000  0.32409000  0.29213000  1.0
  O  O144  1  0.27177000  0.69651000  0.80496000  1.0
  O  O145  1  0.72823000  0.30349000  0.19505000  1.0
  O  O146  1  0.77179000  0.80350000  0.69505000  1.0
  O  O147  1  0.22825000  0.19650000  0.30495000  1.0
  O  O148  1  0.27348000  0.82263000  0.79726000  1.0
  O  O149  1  0.72651000  0.17737000  0.20275000  1.0
  O  O150  1  0.77353000  0.67738000  0.70273000  1.0
  O  O151  1  0.22649000  0.32262000  0.29726000  1.0
  O  O152  1  0.11283000  0.80258000  0.69928000  1.0
  O  O153  1  0.88719000  0.19742000  0.30072000  1.0
  O  O154  1  0.61280000  0.69740000  0.80071000  1.0
  O  O155  1  0.38717000  0.30259000  0.19929000  1.0
  O  O156  1  0.43976000  0.74259000  0.71758000  1.0
  O  O157  1  0.56025000  0.25741000  0.28242000  1.0
  O  O158  1  0.93975000  0.75741000  0.78242000  1.0
  O  O159  1  0.06025000  0.24259000  0.21758000  1.0
