# generated using pymatgen
data_KHC2(NO)2
_symmetry_space_group_name_H-M   'P 1'
_cell_length_a   8.22191000
_cell_length_b   8.22188000
_cell_length_c   9.10296846
_cell_angle_alpha   114.61545038
_cell_angle_beta   114.61567421
_cell_angle_gamma   94.45410000
_symmetry_Int_Tables_number   1
_chemical_formula_structural   KHC2(NO)2
_chemical_formula_sum   'K4 H4 C8 N8 O8'
_cell_volume   484.54429604
_cell_formula_units_Z   4
loop_
 _symmetry_equiv_pos_site_id
 _symmetry_equiv_pos_as_xyz
  1  'x, y, z'
loop_
 _atom_site_type_symbol
 _atom_site_label
 _atom_site_symmetry_multiplicity
 _atom_site_fract_x
 _atom_site_fract_y
 _atom_site_fract_z
 _atom_site_occupancy
  K  K0  1  0.23909000  0.88115000  0.26576000  1.0
  K  K1  1  0.11885000  0.76091000  0.73424000  1.0
  K  K2  1  0.63466000  0.77697000  0.76598000  1.0
  K  K3  1  0.22302000  0.36533000  0.23401000  1.0
  H  H4  1  0.69154000  0.31825000  0.67841000  1.0
  H  H5  1  0.68174000  0.30846000  0.32159000  1.0
  H  H6  1  0.61016000  0.73694000  0.17850000  1.0
  H  H7  1  0.26305000  0.38983000  0.82149000  1.0
  C  C8  1  0.83373000  0.32495000  0.76684000  1.0
  C  C9  1  0.67506000  0.16628000  0.23317000  1.0
  C  C10  1  0.69190000  0.68320000  0.26697000  1.0
  C  C11  1  0.31680000  0.30810000  0.73303000  1.0
  C  C12  1  0.88152000  0.16808000  0.77214000  1.0
  C  C13  1  0.83192000  0.11848000  0.22786000  1.0
  C  C14  1  0.85401000  0.64066000  0.27218000  1.0
  C  C15  1  0.35933000  0.14597000  0.72781000  1.0
  N  N16  1  0.96902000  0.49280000  0.88059000  1.0
  N  N17  1  0.50720000  0.03098000  0.11941000  1.0
  N  N18  1  0.63781000  0.66162000  0.38070000  1.0
  N  N19  1  0.33838000  0.36219000  0.61930000  1.0
  N  N20  1  0.91928000  0.03502000  0.77801000  1.0
  N  N21  1  0.96498000  0.08072000  0.22199000  1.0
  N  N22  1  0.99291000  0.60873000  0.27797000  1.0
  N  N23  1  0.39127000  0.00709000  0.72203000  1.0
  O  O24  1  0.13946000  0.50572000  0.98427000  1.0
  O  O25  1  0.49429000  0.86054000  0.01574000  1.0
  O  O26  1  0.72859000  0.59486000  0.48438000  1.0
  O  O27  1  0.40515000  0.27142000  0.51563000  1.0
  O  O28  1  0.92932000  0.64270000  0.88675000  1.0
  O  O29  1  0.35730000  0.07068000  0.11325000  1.0
  O  O30  1  0.49405000  0.70746000  0.38687000  1.0
  O  O31  1  0.29254000  0.50595000  0.61313000  1.0
