# generated using pymatgen
data_CdH10C10Br2(N3O2)2
_symmetry_space_group_name_H-M   'P 1'
_cell_length_a   3.86140000
_cell_length_b   13.03960000
_cell_length_c   15.60710000
_cell_angle_alpha   90.00020000
_cell_angle_beta   90.00000000
_cell_angle_gamma   89.99800000
_symmetry_Int_Tables_number   1
_chemical_formula_structural   CdH10C10Br2(N3O2)2
_chemical_formula_sum   'Cd2 H20 C20 Br4 N12 O8'
_cell_volume   785.83483087
_cell_formula_units_Z   2
loop_
 _symmetry_equiv_pos_site_id
 _symmetry_equiv_pos_as_xyz
  1  'x, y, z'
loop_
 _atom_site_type_symbol
 _atom_site_label
 _atom_site_symmetry_multiplicity
 _atom_site_fract_x
 _atom_site_fract_y
 _atom_site_fract_z
 _atom_site_occupancy
  Cd  Cd0  1  0.51452000  0.50000000  0.50000000  1.0
  Cd  Cd1  1  0.01449000  0.00000000  0.99999000  1.0
  H  H2  1  0.85387000  0.13962000  0.32726000  1.0
  H  H3  1  0.85380000  0.86038000  0.67274000  1.0
  H  H4  1  0.35381000  0.63961000  0.17275000  1.0
  H  H5  1  0.35384000  0.36038000  0.82726000  1.0
  H  H6  1  0.04324000  0.23254000  0.19464000  1.0
  H  H7  1  0.04317000  0.76746000  0.80537000  1.0
  H  H8  1  0.54315000  0.73254000  0.30537000  1.0
  H  H9  1  0.54314000  0.26747000  0.69462000  1.0
  H  H10  1  0.58687000  0.50718000  0.29944000  1.0
  H  H11  1  0.58686000  0.49282000  0.70056000  1.0
  H  H12  1  0.08693000  0.00718000  0.20056000  1.0
  H  H13  1  0.08686000  0.99283000  0.79943000  1.0
  H  H14  1  0.36453000  0.26510000  0.49873000  1.0
  H  H15  1  0.36450000  0.73489000  0.50127000  1.0
  H  H16  1  0.86461000  0.76511000  0.00127000  1.0
  H  H17  1  0.86462000  0.23489000  0.99874000  1.0
  H  H18  1  0.53025000  0.14971000  0.45957000  1.0
  H  H19  1  0.53022000  0.85030000  0.54042000  1.0
  H  H20  1  0.03025000  0.64969000  0.04043000  1.0
  H  H21  1  0.03029000  0.35030000  0.95959000  1.0
  C  C22  1  0.79688000  0.22055000  0.31788000  1.0
  C  C23  1  0.79683000  0.77945000  0.68213000  1.0
  C  C24  1  0.29684000  0.72054000  0.18213000  1.0
  C  C25  1  0.29687000  0.27945000  0.81788000  1.0
  C  C26  1  0.89905000  0.27106000  0.24521000  1.0
  C  C27  1  0.89900000  0.72893000  0.75479000  1.0
  C  C28  1  0.39902000  0.77106000  0.25479000  1.0
  C  C29  1  0.39900000  0.22894000  0.74521000  1.0
  C  C30  1  0.81159000  0.37559000  0.23677000  1.0
  C  C31  1  0.81159000  0.62440000  0.76323000  1.0
  C  C32  1  0.31162000  0.87560000  0.26324000  1.0
  C  C33  1  0.31157000  0.12441000  0.73677000  1.0
  C  C34  1  0.64438000  0.42562000  0.30398000  1.0
  C  C35  1  0.64437000  0.57438000  0.69602000  1.0
  C  C36  1  0.14443000  0.92562000  0.19602000  1.0
  C  C37  1  0.14438000  0.07439000  0.80398000  1.0
  C  C38  1  0.61471000  0.27495000  0.38300000  1.0
  C  C39  1  0.61468000  0.72504000  0.61699000  1.0
  C  C40  1  0.11471000  0.77496000  0.11699000  1.0
  C  C41  1  0.11472000  0.22505000  0.88301000  1.0
  Br  Br42  1  0.02504000  0.61386000  0.41598000  1.0
  Br  Br43  1  0.02499000  0.38614000  0.58400000  1.0
  Br  Br44  1  0.52497000  0.11386000  0.08400000  1.0
  Br  Br45  1  0.52500000  0.88612000  0.91599000  1.0
  N  N46  1  0.55703000  0.37831000  0.37668000  1.0
  N  N47  1  0.55701000  0.62168000  0.62332000  1.0
  N  N48  1  0.05707000  0.87833000  0.12332000  1.0
  N  N49  1  0.05706000  0.12169000  0.87668000  1.0
  N  N50  1  0.49630000  0.22636000  0.45224000  1.0
  N  N51  1  0.49627000  0.77363000  0.54776000  1.0
  N  N52  1  0.99633000  0.72636000  0.04776000  1.0
  N  N53  1  0.99635000  0.27363000  0.95225000  1.0
  N  N54  1  0.90738000  0.43156000  0.16139000  1.0
  N  N55  1  0.90741000  0.56843000  0.83861000  1.0
  N  N56  1  0.40739000  0.93157000  0.33861000  1.0
  N  N57  1  0.40736000  0.06843000  0.66139000  1.0
  O  O58  1  0.08954000  0.38696000  0.10668000  1.0
  O  O59  1  0.08956000  0.61304000  0.89332000  1.0
  O  O60  1  0.58953000  0.88696000  0.39332000  1.0
  O  O61  1  0.58952000  0.11302000  0.60667000  1.0
  O  O62  1  0.80924000  0.52266000  0.15370000  1.0
  O  O63  1  0.80929000  0.47733000  0.84629000  1.0
  O  O64  1  0.30922000  0.02267000  0.34630000  1.0
  O  O65  1  0.30921000  0.97734000  0.65369000  1.0
