# generated using pymatgen
data_ZnH19C24N2O5
_symmetry_space_group_name_H-M   'P 1'
_cell_length_a   8.83595000
_cell_length_b   16.01760000
_cell_length_c   16.72590000
_cell_angle_alpha   89.99930000
_cell_angle_beta   99.17210000
_cell_angle_gamma   90.00000000
_symmetry_Int_Tables_number   1
_chemical_formula_structural   ZnH19C24N2O5
_chemical_formula_sum   'Zn4 H76 C96 N8 O20'
_cell_volume   2336.96116747
_cell_formula_units_Z   4
loop_
 _symmetry_equiv_pos_site_id
 _symmetry_equiv_pos_as_xyz
  1  'x, y, z'
loop_
 _atom_site_type_symbol
 _atom_site_label
 _atom_site_symmetry_multiplicity
 _atom_site_fract_x
 _atom_site_fract_y
 _atom_site_fract_z
 _atom_site_occupancy
  Zn  Zn0  1  0.81957000  0.35356000  0.19690000  1.0
  Zn  Zn1  1  0.68043000  0.85356000  0.30309000  1.0
  Zn  Zn2  1  0.18042000  0.64644000  0.80310000  1.0
  Zn  Zn3  1  0.31956000  0.14644000  0.69690000  1.0
  H  H4  1  0.09132000  0.25739000  0.41005000  1.0
  H  H5  1  0.40868000  0.75738000  0.08995000  1.0
  H  H6  1  0.90867000  0.74262000  0.58995000  1.0
  H  H7  1  0.59132000  0.24262000  0.91004000  1.0
  H  H8  1  0.54475000  0.29117000  0.53983000  1.0
  H  H9  1  0.95525000  0.79117000  0.96017000  1.0
  H  H10  1  0.45525000  0.70883000  0.46016000  1.0
  H  H11  1  0.04474000  0.20882000  0.03983000  1.0
  H  H12  1  0.38811000  0.43936000  0.32567000  1.0
  H  H13  1  0.11189000  0.93936000  0.17433000  1.0
  H  H14  1  0.61188000  0.56064000  0.67433000  1.0
  H  H15  1  0.88812000  0.06064000  0.82567000  1.0
  H  H16  1  0.76457000  0.33087000  0.51039000  1.0
  H  H17  1  0.73544000  0.83088000  0.98960000  1.0
  H  H18  1  0.23543000  0.66912000  0.48960000  1.0
  H  H19  1  0.26457000  0.16912000  0.01039000  1.0
  H  H20  1  0.68336000  0.41178000  0.56389000  1.0
  H  H21  1  0.81666000  0.91179000  0.93610000  1.0
  H  H22  1  0.31665000  0.58821000  0.43611000  1.0
  H  H23  1  0.18336000  0.08821000  0.06389000  1.0
  H  H24  1  0.03075000  0.34972000  0.53572000  1.0
  H  H25  1  0.46925000  0.84972000  0.96428000  1.0
  H  H26  1  0.96925000  0.65027000  0.46428000  1.0
  H  H27  1  0.53075000  0.15027000  0.03571000  1.0
  H  H28  1  0.74036000  0.56301000  0.47229000  1.0
  H  H29  1  0.75964000  0.06301000  0.02770000  1.0
  H  H30  1  0.25965000  0.43698000  0.52771000  1.0
  H  H31  1  0.24036000  0.93698000  0.97229000  1.0
  H  H32  1  0.80371000  0.47301000  0.32180000  1.0
  H  H33  1  0.69630000  0.97301000  0.17820000  1.0
  H  H34  1  0.19629000  0.52700000  0.67820000  1.0
  H  H35  1  0.30370000  0.02699000  0.82180000  1.0
  H  H36  1  0.61830000  0.58189000  0.35066000  1.0
  H  H37  1  0.88171000  0.08190000  0.14934000  1.0
  H  H38  1  0.38170000  0.41811000  0.64934000  1.0
  H  H39  1  0.11830000  0.91811000  0.85066000  1.0
  H  H40  1  0.42643000  0.57931000  0.09623000  1.0
  H  H41  1  0.07357000  0.07931000  0.40377000  1.0
  H  H42  1  0.57356000  0.42069000  0.90377000  1.0
  H  H43  1  0.92643000  0.92069000  0.59623000  1.0
  H  H44  1  0.61527000  0.46619000  0.07881000  1.0
  H  H45  1  0.88474000  0.96619000  0.42118000  1.0
  H  H46  1  0.38473000  0.53381000  0.92118000  1.0
  H  H47  1  0.11527000  0.03381000  0.57881000  1.0
  H  H48  1  0.39719000  0.65532000  0.31135000  1.0
  H  H49  1  0.10281000  0.15534000  0.18866000  1.0
  H  H50  1  0.60280000  0.34468000  0.68865000  1.0
  H  H51  1  0.89719000  0.84467000  0.81135000  1.0
  H  H52  1  0.40659000  0.70955000  0.22106000  1.0
  H  H53  1  0.09342000  0.20956000  0.27895000  1.0
  H  H54  1  0.59341000  0.29045000  0.77894000  1.0
  H  H55  1  0.90658000  0.79045000  0.72106000  1.0
  H  H56  1  0.19640000  0.55733000  0.23251000  1.0
  H  H57  1  0.30359000  0.05734000  0.26748000  1.0
  H  H58  1  0.80360000  0.44267000  0.76749000  1.0
  H  H59  1  0.69640000  0.94266000  0.73252000  1.0
  H  H60  1  0.20404000  0.61602000  0.14491000  1.0
  H  H61  1  0.29596000  0.11601000  0.35508000  1.0
  H  H62  1  0.79596000  0.38399000  0.85508000  1.0
  H  H63  1  0.70404000  0.88399000  0.64492000  1.0
  H  H64  1  0.23276000  0.74329000  0.33294000  1.0
  H  H65  1  0.26725000  0.24329000  0.16706000  1.0
  H  H66  1  0.76724000  0.25671000  0.66706000  1.0
  H  H67  1  0.73276000  0.75670000  0.83294000  1.0
  H  H68  1  0.01412000  0.82562000  0.36657000  1.0
  H  H69  1  0.48589000  0.32561000  0.13343000  1.0
  H  H70  1  0.98588000  0.17438000  0.63343000  1.0
  H  H71  1  0.51412000  0.67438000  0.86657000  1.0
  H  H72  1  0.71512000  0.72327000  0.17617000  1.0
  H  H73  1  0.78487000  0.22327000  0.32385000  1.0
  H  H74  1  0.28487000  0.27673000  0.82384000  1.0
  H  H75  1  0.21513000  0.77673000  0.67616000  1.0
  H  H76  1  0.91984000  0.63092000  0.13759000  1.0
  H  H77  1  0.58015000  0.13093000  0.36242000  1.0
  H  H78  1  0.08015000  0.36907000  0.86241000  1.0
  H  H79  1  0.41985000  0.86908000  0.63759000  1.0
  C  C80  1  0.10036000  0.37581000  0.29401000  1.0
  C  C81  1  0.39964000  0.87581000  0.20598000  1.0
  C  C82  1  0.89963000  0.62420000  0.70599000  1.0
  C  C83  1  0.60037000  0.12419000  0.79402000  1.0
  C  C84  1  0.22736000  0.35068000  0.36061000  1.0
  C  C85  1  0.27264000  0.85067000  0.13940000  1.0
  C  C86  1  0.77264000  0.64933000  0.63939000  1.0
  C  C87  1  0.72737000  0.14932000  0.86061000  1.0
  C  C88  1  0.20231000  0.28794000  0.41538000  1.0
  C  C89  1  0.29769000  0.78794000  0.08463000  1.0
  C  C90  1  0.79768000  0.71206000  0.58462000  1.0
  C  C91  1  0.70231000  0.21206000  0.91537000  1.0
  C  C92  1  0.31742000  0.26709000  0.47910000  1.0
  C  C93  1  0.18258000  0.76709000  0.02090000  1.0
  C  C94  1  0.68258000  0.73291000  0.52090000  1.0
  C  C95  1  0.81742000  0.23291000  0.97910000  1.0
  C  C96  1  0.28611000  0.20444000  0.54110000  1.0
  C  C97  1  0.21388000  0.70444000  0.95891000  1.0
  C  C98  1  0.71388000  0.79556000  0.45890000  1.0
  C  C99  1  0.78611000  0.29556000  0.04110000  1.0
  C  C100  1  0.45889000  0.30857000  0.48864000  1.0
  C  C101  1  0.04111000  0.80856000  0.01137000  1.0
  C  C102  1  0.54112000  0.69143000  0.51136000  1.0
  C  C103  1  0.95888000  0.19143000  0.98864000  1.0
  C  C104  1  0.48451000  0.37043000  0.43337000  1.0
  C  C105  1  0.01548000  0.87043000  0.06662000  1.0
  C  C106  1  0.51548000  0.62957000  0.56662000  1.0
  C  C107  1  0.98451000  0.12957000  0.93338000  1.0
  C  C108  1  0.36876000  0.39121000  0.36892000  1.0
  C  C109  1  0.13124000  0.89121000  0.13108000  1.0
  C  C110  1  0.63124000  0.60879000  0.63108000  1.0
  C  C111  1  0.86876000  0.10879000  0.86892000  1.0
  C  C112  1  0.73259000  0.39748000  0.50860000  1.0
  C  C113  1  0.76742000  0.89748000  0.99140000  1.0
  C  C114  1  0.26742000  0.60251000  0.49140000  1.0
  C  C115  1  0.23259000  0.10251000  0.00859000  1.0
  C  C116  1  0.87032000  0.45055000  0.50379000  1.0
  C  C117  1  0.62969000  0.95056000  0.99621000  1.0
  C  C118  1  0.12969000  0.54943000  0.49621000  1.0
  C  C119  1  0.37032000  0.04944000  0.00378000  1.0
  C  C120  1  0.01713000  0.41586000  0.52060000  1.0
  C  C121  1  0.48287000  0.91586000  0.97939000  1.0
  C  C122  1  0.98286000  0.58413000  0.47939000  1.0
  C  C123  1  0.51714000  0.08413000  0.02060000  1.0
  C  C124  1  0.85420000  0.53514000  0.48350000  1.0
  C  C125  1  0.64581000  0.03514000  0.01649000  1.0
  C  C126  1  0.14581000  0.46485000  0.51650000  1.0
  C  C127  1  0.35420000  0.96486000  0.98350000  1.0
  C  C128  1  0.71824000  0.49836000  0.27370000  1.0
  C  C129  1  0.78177000  0.99837000  0.22630000  1.0
  C  C130  1  0.28175000  0.50164000  0.72630000  1.0
  C  C131  1  0.21824000  0.00164000  0.77370000  1.0
  C  C132  1  0.61432000  0.55873000  0.28916000  1.0
  C  C133  1  0.88568000  0.05873000  0.21083000  1.0
  C  C134  1  0.38568000  0.44128000  0.71084000  1.0
  C  C135  1  0.11432000  0.94127000  0.78916000  1.0
  C  C136  1  0.50179000  0.58744000  0.22680000  1.0
  C  C137  1  0.99822000  0.08744000  0.27320000  1.0
  C  C138  1  0.49821000  0.41257000  0.77320000  1.0
  C  C139  1  0.00179000  0.91256000  0.72680000  1.0
  C  C140  1  0.50605000  0.55682000  0.14850000  1.0
  C  C141  1  0.99396000  0.05683000  0.35150000  1.0
  C  C142  1  0.49395000  0.44318000  0.85150000  1.0
  C  C143  1  0.00604000  0.94318000  0.64850000  1.0
  C  C144  1  0.61218000  0.49560000  0.13740000  1.0
  C  C145  1  0.88782000  0.99560000  0.36260000  1.0
  C  C146  1  0.38782000  0.50441000  0.86260000  1.0
  C  C147  1  0.11218000  0.00440000  0.63740000  1.0
  C  C148  1  0.38251000  0.64790000  0.24526000  1.0
  C  C149  1  0.11749000  0.14791000  0.25474000  1.0
  C  C150  1  0.61748000  0.35210000  0.75474000  1.0
  C  C151  1  0.88251000  0.85210000  0.74526000  1.0
  C  C152  1  0.21847000  0.62096000  0.21132000  1.0
  C  C153  1  0.28153000  0.12096000  0.28868000  1.0
  C  C154  1  0.78152000  0.37904000  0.78868000  1.0
  C  C155  1  0.71847000  0.87904000  0.71133000  1.0
  C  C156  1  0.09529000  0.67745000  0.23283000  1.0
  C  C157  1  0.40472000  0.17745000  0.26717000  1.0
  C  C158  1  0.90471000  0.32256000  0.76717000  1.0
  C  C159  1  0.59529000  0.82256000  0.73283000  1.0
  C  C160  1  0.11965000  0.73442000  0.29720000  1.0
  C  C161  1  0.38036000  0.23442000  0.20280000  1.0
  C  C162  1  0.88035000  0.26558000  0.70280000  1.0
  C  C163  1  0.61965000  0.76558000  0.79720000  1.0
  C  C164  1  0.99866000  0.78222000  0.31570000  1.0
  C  C165  1  0.50135000  0.28222000  0.18430000  1.0
  C  C166  1  0.00134000  0.21778000  0.68430000  1.0
  C  C167  1  0.49866000  0.71778000  0.81570000  1.0
  C  C168  1  0.83135000  0.72416000  0.20994000  1.0
  C  C169  1  0.66865000  0.22416000  0.29007000  1.0
  C  C170  1  0.16865000  0.27584000  0.79006000  1.0
  C  C171  1  0.33135000  0.77584000  0.70994000  1.0
  C  C172  1  0.94614000  0.67355000  0.18878000  1.0
  C  C173  1  0.55386000  0.17355000  0.31123000  1.0
  C  C174  1  0.05386000  0.32645000  0.81122000  1.0
  C  C175  1  0.44614000  0.82645000  0.68878000  1.0
  N  N176  1  0.71468000  0.46538000  0.19928000  1.0
  N  N177  1  0.78533000  0.96539000  0.30072000  1.0
  N  N178  1  0.28532000  0.53462000  0.80072000  1.0
  N  N179  1  0.21467000  0.03462000  0.69928000  1.0
  N  N180  1  0.85614000  0.77760000  0.27309000  1.0
  N  N181  1  0.64387000  0.27760000  0.22691000  1.0
  N  N182  1  0.14386000  0.22240000  0.72691000  1.0
  N  N183  1  0.35613000  0.72240000  0.77309000  1.0
  O  O184  1  0.97164000  0.33578000  0.29461000  1.0
  O  O185  1  0.52837000  0.83578000  0.20539000  1.0
  O  O186  1  0.02835000  0.66423000  0.70539000  1.0
  O  O187  1  0.47164000  0.16422000  0.79461000  1.0
  O  O188  1  0.12055000  0.43004000  0.24329000  1.0
  O  O189  1  0.37944000  0.93005000  0.25672000  1.0
  O  O190  1  0.87943000  0.56997000  0.75672000  1.0
  O  O191  1  0.62056000  0.06995000  0.74328000  1.0
  O  O192  1  0.38963000  0.20141000  0.60567000  1.0
  O  O193  1  0.11037000  0.70141000  0.89433000  1.0
  O  O194  1  0.61037000  0.79859000  0.39433000  1.0
  O  O195  1  0.88963000  0.29858000  0.10567000  1.0
  O  O196  1  0.16550000  0.16179000  0.53000000  1.0
  O  O197  1  0.33450000  0.66179000  0.97001000  1.0
  O  O198  1  0.83450000  0.83821000  0.47000000  1.0
  O  O199  1  0.66550000  0.33821000  0.03000000  1.0
  O  O200  1  0.61893000  0.41413000  0.43880000  1.0
  O  O201  1  0.88106000  0.91413000  0.06120000  1.0
  O  O202  1  0.38105000  0.58587000  0.56120000  1.0
  O  O203  1  0.11894000  0.08587000  0.93880000  1.0
