# generated using pymatgen
data_SrH14C24(NO2)4
_symmetry_space_group_name_H-M   'P 1'
_cell_length_a   9.48674000
_cell_length_b   9.49809000
_cell_length_c   13.49200000
_cell_angle_alpha   99.08050000
_cell_angle_beta   110.01200000
_cell_angle_gamma   106.63600000
_symmetry_Int_Tables_number   1
_chemical_formula_structural   SrH14C24(NO2)4
_chemical_formula_sum   'Sr2 H28 C48 N8 O16'
_cell_volume   1049.38488319
_cell_formula_units_Z   2
loop_
 _symmetry_equiv_pos_site_id
 _symmetry_equiv_pos_as_xyz
  1  'x, y, z'
loop_
 _atom_site_type_symbol
 _atom_site_label
 _atom_site_symmetry_multiplicity
 _atom_site_fract_x
 _atom_site_fract_y
 _atom_site_fract_z
 _atom_site_occupancy
  Sr  Sr0  1  0.94069000  0.19069000  0.74998000  1.0
  Sr  Sr1  1  0.05931000  0.80931000  0.25002000  1.0
  H  H2  1  0.91737000  0.46840000  0.35021000  1.0
  H  H3  1  0.61811000  0.56695000  0.14977000  1.0
  H  H4  1  0.08263000  0.53160000  0.64979000  1.0
  H  H5  1  0.38189000  0.43305000  0.85023000  1.0
  H  H6  1  0.33641000  0.05201000  0.95990000  1.0
  H  H7  1  0.59206000  0.37582000  0.53972000  1.0
  H  H8  1  0.66359000  0.94799000  0.04010000  1.0
  H  H9  1  0.40794000  0.62418000  0.46028000  1.0
  H  H10  1  0.35951000  0.25362000  0.06952000  1.0
  H  H11  1  0.68419000  0.28941000  0.43026000  1.0
  H  H12  1  0.64049000  0.74638000  0.93048000  1.0
  H  H13  1  0.31582000  0.71059000  0.56974000  1.0
  H  H14  1  0.98185000  0.13775000  0.24514000  1.0
  H  H15  1  0.39270000  0.73738000  0.25499000  1.0
  H  H16  1  0.01815000  0.86225000  0.75486000  1.0
  H  H17  1  0.60730000  0.26262000  0.74501000  1.0
  H  H18  1  0.37233000  0.81576000  0.88002000  1.0
  H  H19  1  0.43542000  0.49174000  0.61965000  1.0
  H  H20  1  0.62767000  0.18424000  0.11998000  1.0
  H  H21  1  0.56458000  0.50825000  0.38035000  1.0
  H  H22  1  0.30601000  0.46682000  0.16059000  1.0
  H  H23  1  0.80666000  0.14493000  0.33909000  1.0
  H  H24  1  0.69399000  0.53318000  0.83941000  1.0
  H  H25  1  0.19334000  0.85507000  0.66091000  1.0
  H  H26  1  0.12979000  0.58393000  0.05877000  1.0
  H  H27  1  0.02493000  0.07158000  0.44152000  1.0
  H  H28  1  0.87020000  0.41607000  0.94123000  1.0
  H  H29  1  0.97507000  0.92842000  0.55848000  1.0
  C  C30  1  0.26563000  0.53375000  0.91795000  1.0
  C  C31  1  0.11547000  0.34773000  0.58192000  1.0
  C  C32  1  0.73437000  0.46625000  0.08205000  1.0
  C  C33  1  0.88453000  0.65227000  0.41808000  1.0
  C  C34  1  0.29681000  0.94806000  0.98338000  1.0
  C  C35  1  0.46462000  0.31301000  0.51642000  1.0
  C  C36  1  0.70319000  0.05194000  0.01662000  1.0
  C  C37  1  0.53538000  0.68699000  0.48358000  1.0
  C  C38  1  0.27559000  0.22923000  0.10849000  1.0
  C  C39  1  0.62089000  0.16681000  0.39127000  1.0
  C  C40  1  0.72441000  0.77077000  0.89151000  1.0
  C  C41  1  0.37911000  0.83320000  0.60873000  1.0
  C  C42  1  0.09006000  0.44034000  0.26173000  1.0
  C  C43  1  0.67861000  0.82822000  0.23810000  1.0
  C  C44  1  0.90994000  0.55967000  0.73827000  1.0
  C  C45  1  0.32139000  0.17177000  0.76190000  1.0
  C  C46  1  0.06690000  0.16701000  0.20731000  1.0
  C  C47  1  0.45984000  0.85995000  0.29280000  1.0
  C  C48  1  0.93310000  0.83299000  0.79269000  1.0
  C  C49  1  0.54016000  0.14005000  0.70720000  1.0
  C  C50  1  0.25556000  0.68171000  0.96446000  1.0
  C  C51  1  0.21705000  0.29109000  0.53541000  1.0
  C  C52  1  0.74444000  0.31829000  0.03554000  1.0
  C  C53  1  0.78295000  0.70891000  0.46459000  1.0
  C  C54  1  0.31555000  0.81624000  0.93785000  1.0
  C  C55  1  0.37825000  0.37737000  0.56194000  1.0
  C  C56  1  0.68445000  0.18376000  0.06215000  1.0
  C  C57  1  0.62175000  0.62263000  0.43806000  1.0
  C  C58  1  0.19923000  0.08008000  0.11020000  1.0
  C  C59  1  0.46993000  0.08897000  0.38973000  1.0
  C  C60  1  0.80077000  0.91992000  0.88980000  1.0
  C  C61  1  0.53007000  0.91103000  0.61026000  1.0
  C  C62  1  0.24556000  0.34993000  0.15965000  1.0
  C  C63  1  0.69057000  0.08564000  0.34011000  1.0
  C  C64  1  0.75444000  0.65007000  0.84036000  1.0
  C  C65  1  0.30943000  0.91436000  0.65989000  1.0
  C  C66  1  0.17863000  0.68658000  0.03612000  1.0
  C  C67  1  0.15026000  0.14276000  0.46396000  1.0
  C  C68  1  0.82137000  0.31342000  0.96388000  1.0
  C  C69  1  0.84974000  0.85724000  0.53604000  1.0
  C  C70  1  0.22233000  0.94418000  0.05720000  1.0
  C  C71  1  0.38692000  0.16503000  0.44275000  1.0
  C  C72  1  0.77767000  0.05582000  0.94280000  1.0
  C  C73  1  0.61308000  0.83497000  0.55725000  1.0
  C  C74  1  0.13693000  0.31938000  0.20921000  1.0
  C  C75  1  0.61034000  0.92775000  0.29069000  1.0
  C  C76  1  0.86308000  0.68063000  0.79079000  1.0
  C  C77  1  0.38966000  0.07225000  0.70931000  1.0
  N  N78  1  0.09844000  0.05121000  0.16157000  1.0
  N  N79  1  0.38969000  0.93716000  0.33858000  1.0
  N  N80  1  0.90156000  0.94879000  0.83843000  1.0
  N  N81  1  0.61032000  0.06284000  0.66142000  1.0
  N  N82  1  0.16427000  0.81352000  0.08259000  1.0
  N  N83  1  0.23084000  0.08185000  0.41750000  1.0
  N  N84  1  0.83573000  0.18648000  0.91741000  1.0
  N  N85  1  0.76916000  0.91815000  0.58250000  1.0
  O  O86  1  0.37981000  0.54578000  0.88280000  1.0
  O  O87  1  0.16295000  0.49674000  0.61713000  1.0
  O  O88  1  0.62019000  0.45422000  0.11720000  1.0
  O  O89  1  0.83705000  0.50326000  0.38287000  1.0
  O  O90  1  0.16878000  0.41000000  0.91384000  1.0
  O  O91  1  0.99554000  0.25533000  0.58608000  1.0
  O  O92  1  0.83122000  0.59000000  0.08616000  1.0
  O  O93  1  0.00446000  0.74467000  0.41391000  1.0
  O  O94  1  0.14211000  0.57460000  0.25442000  1.0
  O  O95  1  0.82026000  0.88732000  0.24526000  1.0
  O  O96  1  0.85789000  0.42540000  0.74558000  1.0
  O  O97  1  0.17974000  0.11268000  0.75474000  1.0
  O  O98  1  0.99674000  0.39242000  0.30907000  1.0
  O  O99  1  0.58344000  0.68792000  0.19096000  1.0
  O  O100  1  0.00325000  0.60758000  0.69093000  1.0
  O  O101  1  0.41656000  0.31208000  0.80904000  1.0
