# generated using pymatgen
data_LaH8C6O7
_symmetry_space_group_name_H-M   'P 1'
_cell_length_a   7.91275000
_cell_length_b   11.97790000
_cell_length_c   12.30300000
_cell_angle_alpha   111.89000000
_cell_angle_beta   90.00790000
_cell_angle_gamma   101.50400000
_symmetry_Int_Tables_number   1
_chemical_formula_structural   LaH8C6O7
_chemical_formula_sum   'La4 H32 C24 O28'
_cell_volume   1056.68387494
_cell_formula_units_Z   4
loop_
 _symmetry_equiv_pos_site_id
 _symmetry_equiv_pos_as_xyz
  1  'x, y, z'
loop_
 _atom_site_type_symbol
 _atom_site_label
 _atom_site_symmetry_multiplicity
 _atom_site_fract_x
 _atom_site_fract_y
 _atom_site_fract_z
 _atom_site_occupancy
  La  La0  1  0.99134000  0.14424000  0.85739000  1.0
  La  La1  1  0.00866000  0.85576000  0.14261000  1.0
  La  La2  1  0.49109000  0.14498000  0.74666000  1.0
  La  La3  1  0.50891000  0.85502000  0.25334000  1.0
  H  H4  1  0.52119000  0.09693000  0.16423000  1.0
  H  H5  1  0.47881000  0.90307000  0.83577000  1.0
  H  H6  1  0.55615000  0.25385000  0.18699000  1.0
  H  H7  1  0.44385000  0.74615000  0.81301000  1.0
  H  H8  1  0.88377000  0.26779000  0.20775000  1.0
  H  H9  1  0.11623000  0.73221000  0.79226000  1.0
  H  H10  1  0.76546000  0.23210000  0.31866000  1.0
  H  H11  1  0.23454000  0.76790000  0.68133000  1.0
  H  H12  1  0.73026000  0.76641000  0.64850000  1.0
  H  H13  1  0.26974000  0.23359000  0.35150000  1.0
  H  H14  1  0.61324000  0.73249000  0.51176000  1.0
  H  H15  1  0.38677000  0.26751000  0.48824000  1.0
  H  H16  1  0.89759000  0.55828000  0.16409000  1.0
  H  H17  1  0.10241000  0.44173000  0.83591000  1.0
  H  H18  1  0.71198000  0.46722000  0.19501000  1.0
  H  H19  1  0.28802000  0.53278000  0.80499000  1.0
  H  H20  1  0.97767000  0.90029000  0.59251000  1.0
  H  H21  1  0.02233000  0.09971000  0.40749000  1.0
  H  H22  1  0.93998000  0.74299000  0.50145000  1.0
  H  H23  1  0.06001000  0.25700000  0.49855000  1.0
  H  H24  1  0.73657000  0.51711000  0.96612000  1.0
  H  H25  1  0.26343000  0.48289000  0.03388000  1.0
  H  H26  1  0.57657000  0.40702000  0.99411000  1.0
  H  H27  1  0.42343000  0.59299000  0.00590000  1.0
  H  H28  1  0.63573000  0.14832000  0.51494000  1.0
  H  H29  1  0.36427000  0.85168000  0.48506000  1.0
  H  H30  1  0.80480000  0.17026000  0.60282000  1.0
  H  H31  1  0.19520000  0.82974000  0.39718000  1.0
  H  H32  1  0.30303000  0.16642000  0.01968000  1.0
  H  H33  1  0.69697000  0.83358000  0.98032000  1.0
  H  H34  1  0.13439000  0.14786000  0.09286000  1.0
  H  H35  1  0.86561000  0.85214000  0.90714000  1.0
  C  C36  1  0.63156000  0.13876000  0.02308000  1.0
  C  C37  1  0.36845000  0.86124000  0.97692000  1.0
  C  C38  1  0.61506000  0.17294000  0.15409000  1.0
  C  C39  1  0.38494000  0.82706000  0.84590000  1.0
  C  C40  1  0.78727000  0.19765000  0.22445000  1.0
  C  C41  1  0.21273000  0.80235000  0.77554000  1.0
  C  C42  1  0.86132000  0.08462000  0.20091000  1.0
  C  C43  1  0.13868000  0.91538000  0.79909000  1.0
  C  C44  1  0.63840000  0.91566000  0.63846000  1.0
  C  C45  1  0.36160000  0.08433000  0.36154000  1.0
  C  C46  1  0.71030000  0.80171000  0.57963000  1.0
  C  C47  1  0.28970000  0.19829000  0.42037000  1.0
  C  C48  1  0.75664000  0.52556000  0.14552000  1.0
  C  C49  1  0.24336000  0.47444000  0.85448000  1.0
  C  C50  1  0.67221000  0.63502000  0.18622000  1.0
  C  C51  1  0.32778000  0.36498000  0.81378000  1.0
  C  C52  1  0.86779000  0.85877000  0.42090000  1.0
  C  C53  1  0.13220000  0.14123000  0.57910000  1.0
  C  C54  1  0.88301000  0.82477000  0.52726000  1.0
  C  C55  1  0.11699000  0.17523000  0.47274000  1.0
  C  C56  1  0.71381000  0.45391000  0.01319000  1.0
  C  C57  1  0.28619000  0.54609000  0.98681000  1.0
  C  C58  1  0.82065000  0.35894000  0.95875000  1.0
  C  C59  1  0.17936000  0.64106000  0.04125000  1.0
  O  O60  1  0.77163000  0.27967000  0.85236000  1.0
  O  O61  1  0.22837000  0.72033000  0.14764000  1.0
  O  O62  1  0.95341000  0.35550000  0.01293000  1.0
  O  O63  1  0.04659000  0.64450000  0.98707000  1.0
  O  O64  1  0.76843000  0.98903000  0.21134000  1.0
  O  O65  1  0.23157000  0.01097000  0.78867000  1.0
  O  O66  1  0.01783000  0.08439000  0.17622000  1.0
  O  O67  1  0.98217000  0.91561000  0.82378000  1.0
  O  O68  1  0.55140000  0.64259000  0.25326000  1.0
  O  O69  1  0.44860000  0.35741000  0.74674000  1.0
  O  O70  1  0.72556000  0.72156000  0.14607000  1.0
  O  O71  1  0.27444000  0.27845000  0.85393000  1.0
  O  O72  1  0.51052000  0.15109000  0.96244000  1.0
  O  O73  1  0.48949000  0.84891000  0.03755000  1.0
  O  O74  1  0.76394000  0.09896000  0.98042000  1.0
  O  O75  1  0.23607000  0.90104000  0.01958000  1.0
  O  O76  1  0.98805000  0.84469000  0.35075000  1.0
  O  O77  1  0.01195000  0.15530000  0.64925000  1.0
  O  O78  1  0.73721000  0.90063000  0.40771000  1.0
  O  O79  1  0.26278000  0.09936000  0.59229000  1.0
  O  O80  1  0.73234000  0.01084000  0.71818000  1.0
  O  O81  1  0.26766000  0.98916000  0.28182000  1.0
  O  O82  1  0.48219000  0.91698000  0.61425000  1.0
  O  O83  1  0.51781000  0.08302000  0.38576000  1.0
  O  O84  1  0.68497000  0.18254000  0.59824000  1.0
  O  O85  1  0.31504000  0.81746000  0.40176000  1.0
  O  O86  1  0.18413000  0.18057000  0.03352000  1.0
  O  O87  1  0.81587000  0.81943000  0.96648000  1.0
