# generated using pymatgen
data_NiH8C8(NO)4
_symmetry_space_group_name_H-M   'P 1'
_cell_length_a   8.36432000
_cell_length_b   8.36432000
_cell_length_c   8.92446000
_cell_angle_alpha   82.94640000
_cell_angle_beta   82.94640000
_cell_angle_gamma   74.21840000
_symmetry_Int_Tables_number   1
_chemical_formula_structural   NiH8C8(NO)4
_chemical_formula_sum   'Ni2 H16 C16 N8 O8'
_cell_volume   593.67058788
_cell_formula_units_Z   2
loop_
 _symmetry_equiv_pos_site_id
 _symmetry_equiv_pos_as_xyz
  1  'x, y, z'
loop_
 _atom_site_type_symbol
 _atom_site_label
 _atom_site_symmetry_multiplicity
 _atom_site_fract_x
 _atom_site_fract_y
 _atom_site_fract_z
 _atom_site_occupancy
  Ni  Ni0  1  0.15514000  0.84487000  0.25000000  1.0
  Ni  Ni1  1  0.84487000  0.15513000  0.75000000  1.0
  H  H2  1  0.33009000  0.62810000  0.96257000  1.0
  H  H3  1  0.37190000  0.66990000  0.53744000  1.0
  H  H4  1  0.66991000  0.37190000  0.03743000  1.0
  H  H5  1  0.62810000  0.33010000  0.46257000  1.0
  H  H6  1  0.28895000  0.30848000  0.95972000  1.0
  H  H7  1  0.69152000  0.71105000  0.54028000  1.0
  H  H8  1  0.71105000  0.69152000  0.04028000  1.0
  H  H9  1  0.30848000  0.28895000  0.45973000  1.0
  H  H10  1  0.05168000  0.50875000  0.36726000  1.0
  H  H11  1  0.49125000  0.94832000  0.13274000  1.0
  H  H12  1  0.94832000  0.49126000  0.63273000  1.0
  H  H13  1  0.50874000  0.05168000  0.86727000  1.0
  H  H14  1  0.12585000  0.25466000  0.22034000  1.0
  H  H15  1  0.74534000  0.87415000  0.27966000  1.0
  H  H16  1  0.87414000  0.74535000  0.77966000  1.0
  H  H17  1  0.25465000  0.12586000  0.72035000  1.0
  C  C18  1  0.26647000  0.55583000  0.04642000  1.0
  C  C19  1  0.44417000  0.73353000  0.45358000  1.0
  C  C20  1  0.73352000  0.44418000  0.95358000  1.0
  C  C21  1  0.55582000  0.26648000  0.54643000  1.0
  C  C22  1  0.24755000  0.39766000  0.04378000  1.0
  C  C23  1  0.60234000  0.75245000  0.45622000  1.0
  C  C24  1  0.75244000  0.60234000  0.95622000  1.0
  C  C25  1  0.39766000  0.24755000  0.54378000  1.0
  C  C26  1  0.08506000  0.01070000  0.96108000  1.0
  C  C27  1  0.98930000  0.91494000  0.53892000  1.0
  C  C28  1  0.91495000  0.98930000  0.03893000  1.0
  C  C29  1  0.01070000  0.08504000  0.46107000  1.0
  C  C30  1  0.12302000  0.49959000  0.25742000  1.0
  C  C31  1  0.50041000  0.87697000  0.24258000  1.0
  C  C32  1  0.87697000  0.50042000  0.74257000  1.0
  C  C33  1  0.49958000  0.12303000  0.75743000  1.0
  N  N34  1  0.18821000  0.61771000  0.18074000  1.0
  N  N35  1  0.38229000  0.81178000  0.31925000  1.0
  N  N36  1  0.81179000  0.38229000  0.81925000  1.0
  N  N37  1  0.61771000  0.18822000  0.68075000  1.0
  N  N38  1  0.15672000  0.36491000  0.17783000  1.0
  N  N39  1  0.63509000  0.84328000  0.32217000  1.0
  N  N40  1  0.84327000  0.63510000  0.82217000  1.0
  N  N41  1  0.36490000  0.15673000  0.67784000  1.0
  O  O42  1  0.21282000  0.95517000  0.03340000  1.0
  O  O43  1  0.04483000  0.78718000  0.46659000  1.0
  O  O44  1  0.78718000  0.04482000  0.96660000  1.0
  O  O45  1  0.95519000  0.21282000  0.53339000  1.0
  O  O46  1  0.08318000  0.08416000  0.82776000  1.0
  O  O47  1  0.91585000  0.91681000  0.67224000  1.0
  O  O48  1  0.91684000  0.91584000  0.17224000  1.0
  O  O49  1  0.08416000  0.08316000  0.32776000  1.0
