# generated using pymatgen
data_Zn4H21C36N3O13
_symmetry_space_group_name_H-M   'P 1'
_cell_length_a   18.13010000
_cell_length_b   18.13520891
_cell_length_c   18.46950000
_cell_angle_alpha   60.67822569
_cell_angle_beta   89.96780000
_cell_angle_gamma   60.03993836
_symmetry_Int_Tables_number   1
_chemical_formula_structural   Zn4H21C36N3O13
_chemical_formula_sum   'Zn8 H42 C72 N6 O26'
_cell_volume   4341.23352460
_cell_formula_units_Z   2
loop_
 _symmetry_equiv_pos_site_id
 _symmetry_equiv_pos_as_xyz
  1  'x, y, z'
loop_
 _atom_site_type_symbol
 _atom_site_label
 _atom_site_symmetry_multiplicity
 _atom_site_fract_x
 _atom_site_fract_y
 _atom_site_fract_z
 _atom_site_occupancy
  Zn  Zn0  1  0.04951000  0.92385000  0.92996000  1.0
  Zn  Zn1  1  0.04762000  0.10105000  0.93241000  1.0
  Zn  Zn2  1  0.04447000  0.92802000  0.10001000  1.0
  Zn  Zn3  1  0.87185000  0.10023000  0.92931000  1.0
  Zn  Zn4  1  0.45973000  0.10333000  0.51228000  1.0
  Zn  Zn5  1  0.45980000  0.92556000  0.51785000  1.0
  Zn  Zn6  1  0.63665000  0.92494000  0.51483000  1.0
  Zn  Zn7  1  0.45826000  0.09922000  0.34242000  1.0
  H  H8  1  0.29814000  0.85243000  0.85634000  1.0
  H  H9  1  0.38994000  0.86120000  0.75520000  1.0
  H  H10  1  0.10768000  0.18169000  0.68444000  1.0
  H  H11  1  0.27460000  0.24600000  0.54492000  1.0
  H  H12  1  0.14702000  0.42080000  0.38957000  1.0
  H  H13  1  0.00317000  0.40930000  0.37803000  1.0
  H  H14  1  0.05239000  0.22730000  0.52753000  1.0
  H  H15  1  0.12123000  0.60416000  0.10120000  1.0
  H  H16  1  0.21883000  0.41188000  0.20329000  1.0
  H  H17  1  0.29915000  0.61892000  0.23944000  1.0
  H  H18  1  0.42356000  0.32779000  0.47005000  1.0
  H  H19  1  0.58733000  0.28750000  0.52265000  1.0
  H  H20  1  0.61552000  0.39656000  0.37297000  1.0
  H  H21  1  0.46660000  0.49711000  0.23791000  1.0
  H  H22  1  0.88088000  0.02164000  0.68578000  1.0
  H  H23  1  0.77946000  0.02664000  0.58918000  1.0
  H  H24  1  0.73010000  0.99014000  0.86573000  1.0
  H  H25  1  0.49854000  0.09740000  0.69160000  1.0
  H  H26  1  0.43736000  0.99358000  0.80586000  1.0
  H  H27  1  0.58550000  0.81812000  0.94668000  1.0
  H  H28  1  0.72833000  0.82584000  0.90928000  1.0
  H  H29  1  0.29142000  0.00134000  0.10622000  1.0
  H  H30  1  0.38657000  0.99468000  0.21021000  1.0
  H  H31  1  0.09935000  0.03785000  0.24548000  1.0
  H  H32  1  0.27485000  0.93593000  0.47606000  1.0
  H  H33  1  0.15233000  0.03997000  0.53350000  1.0
  H  H34  1  0.00502000  0.20831000  0.38842000  1.0
  H  H35  1  0.04712000  0.19593000  0.25115000  1.0
  H  H36  1  0.87718000  0.42371000  0.85297000  1.0
  H  H37  1  0.77807000  0.61598000  0.75170000  1.0
  H  H38  1  0.73220000  0.40560000  0.68493000  1.0
  H  H39  1  0.50298000  0.71254000  0.54796000  1.0
  H  H40  1  0.45012000  0.74044000  0.39357000  1.0
  H  H41  1  0.60162000  0.60619000  0.37964000  1.0
  H  H42  1  0.73813000  0.50509000  0.52661000  1.0
  H  H43  1  0.72341000  0.17672000  0.10069000  1.0
  H  H44  1  0.63293000  0.16990000  0.20315000  1.0
  H  H45  1  0.87144000  0.84730000  0.23549000  1.0
  H  H46  1  0.80884000  0.78581000  0.46683000  1.0
  H  H47  1  0.81442000  0.61380000  0.51915000  1.0
  H  H48  1  0.77361000  0.62572000  0.36974000  1.0
  H  H49  1  0.74643000  0.80467000  0.23489000  1.0
  C  C50  1  0.14315000  0.01424000  0.83758000  1.0
  C  C51  1  0.19795000  0.01698000  0.77713000  1.0
  C  C52  1  0.27693000  0.92592000  0.79686000  1.0
  C  C53  1  0.32757000  0.93101000  0.74037000  1.0
  C  C54  1  0.29953000  0.02496000  0.66236000  1.0
  C  C55  1  0.35964000  0.02082000  0.60684000  1.0
  C  C56  1  0.21764000  0.11611000  0.64044000  1.0
  C  C57  1  0.16932000  0.11104000  0.69979000  1.0
  C  C58  1  0.20833000  0.27100000  0.51497000  1.0
  C  C59  1  0.14184000  0.35895000  0.43705000  1.0
  C  C60  1  0.06640000  0.35356000  0.43147000  1.0
  C  C61  1  0.08862000  0.26284000  0.50653000  1.0
  C  C62  1  0.14420000  0.73843000  0.10741000  1.0
  C  C63  1  0.20333000  0.62341000  0.16518000  1.0
  C  C64  1  0.18118000  0.56522000  0.15379000  1.0
  C  C65  1  0.23571000  0.45832000  0.21048000  1.0
  C  C66  1  0.31423000  0.40759000  0.27691000  1.0
  C  C67  1  0.36903000  0.29232000  0.33402000  1.0
  C  C68  1  0.33881000  0.46610000  0.28566000  1.0
  C  C69  1  0.28147000  0.57371000  0.23106000  1.0
  C  C70  1  0.46017000  0.35481000  0.43163000  1.0
  C  C71  1  0.54260000  0.33655000  0.45582000  1.0
  C  C72  1  0.55704000  0.39410000  0.37779000  1.0
  C  C73  1  0.48273000  0.44644000  0.30810000  1.0
  C  C74  1  0.86824000  0.00822000  0.83781000  1.0
  C  C75  1  0.81063000  0.00735000  0.78094000  1.0
  C  C76  1  0.82570000  0.01612000  0.70360000  1.0
  C  C77  1  0.76934000  0.01858000  0.65015000  1.0
  C  C78  1  0.69972000  0.00869000  0.67395000  1.0
  C  C79  1  0.64305000  0.01135000  0.61259000  1.0
  C  C80  1  0.68714000  0.99513000  0.75391000  1.0
  C  C81  1  0.74136000  0.99759000  0.80527000  1.0
  C  C82  1  0.53514000  0.02431000  0.75478000  1.0
  C  C83  1  0.50654000  0.96985000  0.81446000  1.0
  C  C84  1  0.58372000  0.87870000  0.88820000  1.0
  C  C85  1  0.65727000  0.88034000  0.87175000  1.0
  C  C86  1  0.13431000  0.01872000  0.11113000  1.0
  C  C87  1  0.19007000  0.01882000  0.17034000  1.0
  C  C88  1  0.27062000  0.00774000  0.15936000  1.0
  C  C89  1  0.32323000  0.00427000  0.21716000  1.0
  C  C90  1  0.29558000  0.01548000  0.28419000  1.0
  C  C91  1  0.35664000  0.01389000  0.34030000  1.0
  C  C92  1  0.21249000  0.03100000  0.29294000  1.0
  C  C93  1  0.16200000  0.02935000  0.23715000  1.0
  C  C94  1  0.20819000  0.00673000  0.43974000  1.0
  C  C95  1  0.14409000  0.06110000  0.46655000  1.0
  C  C96  1  0.06695000  0.14818000  0.39111000  1.0
  C  C97  1  0.08578000  0.14410000  0.32036000  1.0
  C  C98  1  0.86589000  0.28813000  0.83660000  1.0
  C  C99  1  0.80966000  0.40294000  0.77581000  1.0
  C  C100  1  0.82388000  0.46192000  0.79428000  1.0
  C  C101  1  0.76873000  0.56881000  0.73771000  1.0
  C  C102  1  0.70100000  0.61872000  0.66103000  1.0
  C  C103  1  0.64427000  0.73419000  0.60632000  1.0
  C  C104  1  0.68982000  0.55896000  0.64006000  1.0
  C  C105  1  0.74286000  0.45163000  0.69942000  1.0
  C  C106  1  0.54219000  0.67597000  0.51719000  1.0
  C  C107  1  0.51777000  0.68718000  0.43989000  1.0
  C  C108  1  0.59660000  0.61624000  0.43313000  1.0
  C  C109  1  0.66689000  0.56299000  0.50689000  1.0
  C  C110  1  0.86164000  0.01342000  0.10545000  1.0
  C  C111  1  0.80404000  0.01209000  0.16301000  1.0
  C  C112  1  0.73584000  0.10359000  0.15267000  1.0
  C  C113  1  0.68564000  0.09952000  0.20967000  1.0
  C  C114  1  0.70019000  0.00576000  0.27531000  1.0
  C  C115  1  0.64234000  0.00874000  0.33309000  1.0
  C  C116  1  0.76587000  0.91438000  0.28283000  1.0
  C  C117  1  0.81884000  0.91829000  0.22797000  1.0
  C  C118  1  0.79640000  0.76117000  0.42832000  1.0
  C  C119  1  0.79926000  0.67454000  0.45243000  1.0
  C  C120  1  0.77919000  0.68005000  0.37462000  1.0
  C  C121  1  0.76531000  0.76956000  0.30503000  1.0
  N  N122  1  0.17603000  0.21148000  0.55744000  1.0
  N  N123  1  0.42374000  0.42156000  0.34102000  1.0
  N  N124  1  0.62765000  0.96912000  0.78952000  1.0
  N  N125  1  0.17283000  0.05790000  0.34991000  1.0
  N  N126  1  0.63387000  0.60026000  0.55814000  1.0
  N  N127  1  0.77500000  0.81980000  0.33787000  1.0
  O  O128  1  0.00344000  0.01366000  0.97172000  1.0
  O  O129  1  0.10037000  0.09320000  0.84090000  1.0
  O  O130  1  0.14352000  0.93328000  0.88052000  1.0
  O  O131  1  0.38326000  0.95434000  0.58883000  1.0
  O  O132  1  0.38507000  0.08046000  0.58574000  1.0
  O  O133  1  0.14180000  0.78565000  0.14178000  1.0
  O  O134  1  0.10105000  0.78012000  0.02861000  1.0
  O  O135  1  0.39182000  0.24702000  0.29460000  1.0
  O  O136  1  0.38541000  0.25009000  0.41635000  1.0
  O  O137  1  0.83125000  0.04564000  0.88127000  1.0
  O  O138  1  0.94963000  0.97153000  0.83820000  1.0
  O  O139  1  0.68475000  0.94589000  0.59336000  1.0
  O  O140  1  0.55895000  0.08087000  0.58286000  1.0
  O  O141  1  0.08776000  0.98377000  0.14354000  1.0
  O  O142  1  0.13786000  0.05328000  0.03296000  1.0
  O  O143  1  0.37526000  0.07953000  0.29921000  1.0
  O  O144  1  0.38730000  0.94554000  0.42247000  1.0
  O  O145  1  0.82969000  0.24275000  0.83749000  1.0
  O  O146  1  0.94552000  0.24478000  0.88240000  1.0
  O  O147  1  0.68587000  0.77717000  0.58216000  1.0
  O  O148  1  0.55988000  0.77891000  0.59261000  1.0
  O  O149  1  0.94215000  0.93274000  0.13906000  1.0
  O  O150  1  0.82610000  0.09466000  0.02748000  1.0
  O  O151  1  0.55795000  0.06483000  0.29435000  1.0
  O  O152  1  0.68221000  0.95840000  0.41467000  1.0
  O  O153  1  0.50450000  0.01262000  0.47140000  1.0
