# generated using pymatgen
data_FeAg2H8C14(N3Cl)2
_symmetry_space_group_name_H-M   'P 1'
_cell_length_a   9.09514000
_cell_length_b   12.15370000
_cell_length_c   15.90670000
_cell_angle_alpha   89.99990000
_cell_angle_beta   99.47160000
_cell_angle_gamma   89.99990000
_symmetry_Int_Tables_number   1
_chemical_formula_structural   FeAg2H8C14(N3Cl)2
_chemical_formula_sum   'Fe4 Ag8 H32 C56 N24 Cl8'
_cell_volume   1734.34963271
_cell_formula_units_Z   4
loop_
 _symmetry_equiv_pos_site_id
 _symmetry_equiv_pos_as_xyz
  1  'x, y, z'
loop_
 _atom_site_type_symbol
 _atom_site_label
 _atom_site_symmetry_multiplicity
 _atom_site_fract_x
 _atom_site_fract_y
 _atom_site_fract_z
 _atom_site_occupancy
  Fe  Fe0  1  0.34820000  0.49589000  0.76200000  1.0
  Fe  Fe1  1  0.65180000  0.99589000  0.73800000  1.0
  Fe  Fe2  1  0.65181000  0.50411000  0.23800000  1.0
  Fe  Fe3  1  0.34819000  0.00411000  0.26199000  1.0
  Ag  Ag4  1  0.26508000  0.27911000  0.02190000  1.0
  Ag  Ag5  1  0.73492000  0.77911000  0.47811000  1.0
  Ag  Ag6  1  0.73491000  0.72089000  0.97810000  1.0
  Ag  Ag7  1  0.26508000  0.22089000  0.52189000  1.0
  Ag  Ag8  1  0.42488000  0.72981000  0.50630000  1.0
  Ag  Ag9  1  0.57512000  0.22981000  0.99370000  1.0
  Ag  Ag10  1  0.57512000  0.27019000  0.49370000  1.0
  Ag  Ag11  1  0.42489000  0.77019000  0.00630000  1.0
  H  H12  1  0.58620000  0.47144000  0.91441000  1.0
  H  H13  1  0.41380000  0.97144000  0.58559000  1.0
  H  H14  1  0.41380000  0.52856000  0.08559000  1.0
  H  H15  1  0.58619000  0.02856000  0.41441000  1.0
  H  H16  1  0.95745000  0.31517000  0.82332000  1.0
  H  H17  1  0.04255000  0.81517000  0.67668000  1.0
  H  H18  1  0.04255000  0.68483000  0.17669000  1.0
  H  H19  1  0.95745000  0.18483000  0.32332000  1.0
  H  H20  1  0.80369000  0.32111000  0.67565000  1.0
  H  H21  1  0.19631000  0.82110000  0.82435000  1.0
  H  H22  1  0.19631000  0.67890000  0.32435000  1.0
  H  H23  1  0.80369000  0.17889000  0.17565000  1.0
  H  H24  1  0.55115000  0.40392000  0.65602000  1.0
  H  H25  1  0.44886000  0.90392000  0.84398000  1.0
  H  H26  1  0.44886000  0.59608000  0.34399000  1.0
  H  H27  1  0.55114000  0.09607000  0.15602000  1.0
  H  H28  1  0.10625000  0.49293000  0.61176000  1.0
  H  H29  1  0.89375000  0.99293000  0.88824000  1.0
  H  H30  1  0.89376000  0.50707000  0.38824000  1.0
  H  H31  1  0.10624000  0.00707000  0.11176000  1.0
  H  H32  1  0.72148000  0.64165000  0.69313000  1.0
  H  H33  1  0.27852000  0.14165000  0.80688000  1.0
  H  H34  1  0.27852000  0.35835000  0.30688000  1.0
  H  H35  1  0.72148000  0.85834000  0.19312000  1.0
  H  H36  1  0.88096000  0.67177000  0.83599000  1.0
  H  H37  1  0.11904000  0.17177000  0.66401000  1.0
  H  H38  1  0.11904000  0.32823000  0.16401000  1.0
  H  H39  1  0.88096000  0.82823000  0.33599000  1.0
  H  H40  1  0.14347000  0.60296000  0.86079000  1.0
  H  H41  1  0.85653000  0.10296000  0.63921000  1.0
  H  H42  1  0.85654000  0.39704000  0.13921000  1.0
  H  H43  1  0.14346000  0.89704000  0.36079000  1.0
  C  C44  1  0.63796000  0.43782000  0.86307000  1.0
  C  C45  1  0.36204000  0.93782000  0.63693000  1.0
  C  C46  1  0.36204000  0.56219000  0.13693000  1.0
  C  C47  1  0.63795000  0.06219000  0.36307000  1.0
  C  C48  1  0.78149000  0.39356000  0.87803000  1.0
  C  C49  1  0.21852000  0.89355000  0.62197000  1.0
  C  C50  1  0.21852000  0.60645000  0.12197000  1.0
  C  C51  1  0.78148000  0.10645000  0.37803000  1.0
  C  C52  1  0.84561000  0.34998000  0.81153000  1.0
  C  C53  1  0.15439000  0.84998000  0.68847000  1.0
  C  C54  1  0.15439000  0.65002000  0.18847000  1.0
  C  C55  1  0.84560000  0.15002000  0.31153000  1.0
  C  C56  1  0.76105000  0.35395000  0.73053000  1.0
  C  C57  1  0.23896000  0.85394000  0.76947000  1.0
  C  C58  1  0.23896000  0.64606000  0.26948000  1.0
  C  C59  1  0.76104000  0.14605000  0.23052000  1.0
  C  C60  1  0.61918000  0.39987000  0.71874000  1.0
  C  C61  1  0.38083000  0.89987000  0.78126000  1.0
  C  C62  1  0.38083000  0.60013000  0.28126000  1.0
  C  C63  1  0.61917000  0.10012000  0.21874000  1.0
  C  C64  1  0.05326000  0.53181000  0.66039000  1.0
  C  C65  1  0.94674000  0.03181000  0.83961000  1.0
  C  C66  1  0.94674000  0.46819000  0.33961000  1.0
  C  C67  1  0.05326000  0.96819000  0.16039000  1.0
  C  C68  1  0.90334000  0.56171000  0.64397000  1.0
  C  C69  1  0.09666000  0.06171000  0.85603000  1.0
  C  C70  1  0.09666000  0.43829000  0.35603000  1.0
  C  C71  1  0.90334000  0.93828000  0.14396000  1.0
  C  C72  1  0.83759000  0.61553000  0.70572000  1.0
  C  C73  1  0.16241000  0.11553000  0.79428000  1.0
  C  C74  1  0.16241000  0.38447000  0.29428000  1.0
  C  C75  1  0.83758000  0.88447000  0.20572000  1.0
  C  C76  1  0.92643000  0.63136000  0.78482000  1.0
  C  C77  1  0.07357000  0.13136000  0.71518000  1.0
  C  C78  1  0.07357000  0.36864000  0.21518000  1.0
  C  C79  1  0.92643000  0.86863000  0.28481000  1.0
  C  C80  1  0.07292000  0.59457000  0.79919000  1.0
  C  C81  1  0.92708000  0.09457000  0.70081000  1.0
  C  C82  1  0.92708000  0.40543000  0.20081000  1.0
  C  C83  1  0.07291000  0.90543000  0.29919000  1.0
  C  C84  1  0.41053000  0.63575000  0.61112000  1.0
  C  C85  1  0.58947000  0.13575000  0.88889000  1.0
  C  C86  1  0.58948000  0.36425000  0.38888000  1.0
  C  C87  1  0.41053000  0.86425000  0.11112000  1.0
  C  C88  1  0.41466000  0.67158000  0.90082000  1.0
  C  C89  1  0.58534000  0.17158000  0.59918000  1.0
  C  C90  1  0.58534000  0.32842000  0.09918000  1.0
  C  C91  1  0.41466000  0.82842000  0.40082000  1.0
  C  C92  1  0.27230000  0.36207000  0.91161000  1.0
  C  C93  1  0.72770000  0.86207000  0.58839000  1.0
  C  C94  1  0.72769000  0.63793000  0.08839000  1.0
  C  C95  1  0.27230000  0.13793000  0.41161000  1.0
  C  C96  1  0.27353000  0.31353000  0.62969000  1.0
  C  C97  1  0.72647000  0.81353000  0.87031000  1.0
  C  C98  1  0.72648000  0.68647000  0.37031000  1.0
  C  C99  1  0.27352000  0.18647000  0.12969000  1.0
  N  N100  1  0.55735000  0.44047000  0.78380000  1.0
  N  N101  1  0.44266000  0.94047000  0.71620000  1.0
  N  N102  1  0.44266000  0.55953000  0.21620000  1.0
  N  N103  1  0.55734000  0.05953000  0.28380000  1.0
  N  N104  1  0.13725000  0.54713000  0.73762000  1.0
  N  N105  1  0.86275000  0.04714000  0.76238000  1.0
  N  N106  1  0.86275000  0.45287000  0.26238000  1.0
  N  N107  1  0.13725000  0.95287000  0.23762000  1.0
  N  N108  1  0.29866000  0.37958000  0.68394000  1.0
  N  N109  1  0.70134000  0.87958000  0.81605000  1.0
  N  N110  1  0.70135000  0.62042000  0.31606000  1.0
  N  N111  1  0.29865000  0.12042000  0.18394000  1.0
  N  N112  1  0.39729000  0.60948000  0.84347000  1.0
  N  N113  1  0.60271000  0.10948000  0.65653000  1.0
  N  N114  1  0.60271000  0.39052000  0.15653000  1.0
  N  N115  1  0.39729000  0.89052000  0.34347000  1.0
  N  N116  1  0.29974000  0.40941000  0.85184000  1.0
  N  N117  1  0.70026000  0.90941000  0.64816000  1.0
  N  N118  1  0.70027000  0.59059000  0.14816000  1.0
  N  N119  1  0.29973000  0.09059000  0.35184000  1.0
  N  N120  1  0.39224000  0.58452000  0.67106000  1.0
  N  N121  1  0.60776000  0.08452000  0.82894000  1.0
  N  N122  1  0.60776000  0.41548000  0.32894000  1.0
  N  N123  1  0.39224000  0.91548000  0.17106000  1.0
  Cl  Cl124  1  0.87950000  0.39111000  0.98038000  1.0
  Cl  Cl125  1  0.12050000  0.89111000  0.51962000  1.0
  Cl  Cl126  1  0.12050000  0.60889000  0.01962000  1.0
  Cl  Cl127  1  0.87949000  0.10889000  0.48038000  1.0
  Cl  Cl128  1  0.79875000  0.52455000  0.54752000  1.0
  Cl  Cl129  1  0.20125000  0.02455000  0.95248000  1.0
  Cl  Cl130  1  0.20126000  0.47545000  0.45248000  1.0
  Cl  Cl131  1  0.79875000  0.97545000  0.04751000  1.0
