# generated using pymatgen
data_LaH17C12O7
_symmetry_space_group_name_H-M   'P 1'
_cell_length_a   8.09213000
_cell_length_b   8.99289000
_cell_length_c   10.61010000
_cell_angle_alpha   71.69570000
_cell_angle_beta   83.36740000
_cell_angle_gamma   84.00380000
_symmetry_Int_Tables_number   1
_chemical_formula_structural   LaH17C12O7
_chemical_formula_sum   'La2 H34 C24 O14'
_cell_volume   726.23480643
_cell_formula_units_Z   2
loop_
 _symmetry_equiv_pos_site_id
 _symmetry_equiv_pos_as_xyz
  1  'x, y, z'
loop_
 _atom_site_type_symbol
 _atom_site_label
 _atom_site_symmetry_multiplicity
 _atom_site_fract_x
 _atom_site_fract_y
 _atom_site_fract_z
 _atom_site_occupancy
  La  La0  1  0.25174000  0.04910000  0.96981000  1.0
  La  La1  1  0.74826000  0.95090000  0.03019000  1.0
  H  H2  1  0.48691000  0.23883000  0.34184000  1.0
  H  H3  1  0.51309000  0.76117000  0.65816000  1.0
  H  H4  1  0.71327000  0.37859000  0.18843000  1.0
  H  H5  1  0.28673000  0.62142000  0.81157000  1.0
  H  H6  1  0.56678000  0.51844000  0.09628000  1.0
  H  H7  1  0.43321000  0.48157000  0.90372000  1.0
  H  H8  1  0.67540000  0.62340000  0.26337000  1.0
  H  H9  1  0.32460000  0.37660000  0.73663000  1.0
  H  H10  1  0.61405000  0.45570000  0.39205000  1.0
  H  H11  1  0.38595000  0.54430000  0.60795000  1.0
  H  H12  1  0.40843000  0.67097000  0.39056000  1.0
  H  H13  1  0.59157000  0.32903000  0.60944000  1.0
  H  H14  1  0.29483000  0.41467000  0.45334000  1.0
  H  H15  1  0.70517000  0.58533000  0.54666000  1.0
  H  H16  1  0.14952000  0.55395000  0.35967000  1.0
  H  H17  1  0.85048000  0.44606000  0.64033000  1.0
  H  H18  1  0.19020000  0.31079000  0.28755000  1.0
  H  H19  1  0.80980000  0.68921000  0.71245000  1.0
  H  H20  1  0.25323000  0.47521000  0.15630000  1.0
  H  H21  1  0.74677000  0.52479000  0.84370000  1.0
  H  H22  1  0.85754000  0.97719000  0.67578000  1.0
  H  H23  1  0.14246000  0.02281000  0.32422000  1.0
  H  H24  1  0.10376000  0.19976000  0.48637000  1.0
  H  H25  1  0.89624000  0.80024000  0.51363000  1.0
  H  H26  1  0.89861000  0.25525000  0.53842000  1.0
  H  H27  1  0.10139000  0.74475000  0.46158000  1.0
  H  H28  1  0.08515000  0.77157000  0.69092000  1.0
  H  H29  1  0.91485000  0.22843000  0.30908000  1.0
  H  H30  1  0.21885000  0.90562000  0.57806000  1.0
  H  H31  1  0.78115000  0.09438000  0.42194000  1.0
  H  H32  1  0.08384000  0.42630000  0.88930000  1.0
  H  H33  1  0.91615000  0.57370000  0.11072000  1.0
  H  H34  1  0.95115000  0.31216000  0.88068000  1.0
  H  H35  1  0.04885000  0.68784000  0.11932000  1.0
  C  C36  1  0.47100000  0.21213000  0.15366000  1.0
  C  C37  1  0.52900000  0.78787000  0.84634000  1.0
  C  C38  1  0.45739000  0.31807000  0.24249000  1.0
  C  C39  1  0.54261000  0.68193000  0.75751000  1.0
  C  C40  1  0.58946000  0.43968000  0.19690000  1.0
  C  C41  1  0.41053000  0.56032000  0.80310000  1.0
  C  C42  1  0.58249000  0.53527000  0.29403000  1.0
  C  C43  1  0.41751000  0.46473000  0.70596000  1.0
  C  C44  1  0.40717000  0.61466000  0.31191000  1.0
  C  C45  1  0.59283000  0.38534000  0.68809000  1.0
  C  C46  1  0.27444000  0.49449000  0.35276000  1.0
  C  C47  1  0.72556000  0.50551000  0.64724000  1.0
  C  C48  1  0.28325000  0.39856000  0.25562000  1.0
  C  C49  1  0.71675000  0.60144000  0.74438000  1.0
  C  C50  1  0.36677000  0.75173000  0.18956000  1.0
  C  C51  1  0.63323000  0.24827000  0.81044000  1.0
  C  C52  1  0.06181000  0.04578000  0.74876000  1.0
  C  C53  1  0.93819000  0.95422000  0.25124000  1.0
  C  C54  1  0.98417000  0.01425000  0.63738000  1.0
  C  C55  1  0.01583000  0.98575000  0.36262000  1.0
  C  C56  1  0.97728000  0.15896000  0.51400000  1.0
  C  C57  1  0.02272000  0.84103000  0.48601000  1.0
  C  C58  1  0.08770000  0.87604000  0.60247000  1.0
  C  C59  1  0.91230000  0.12396000  0.39753000  1.0
  O  O60  1  0.00700000  0.97540000  0.87075000  1.0
  O  O61  1  0.99300000  0.02461000  0.12925000  1.0
  O  O62  1  0.33797000  0.19126000  0.10937000  1.0
  O  O63  1  0.66202000  0.80874000  0.89063000  1.0
  O  O64  1  0.22504000  0.77104000  0.14397000  1.0
  O  O65  1  0.77496000  0.22896000  0.85603000  1.0
  O  O66  1  0.61463000  0.15008000  0.13048000  1.0
  O  O67  1  0.38537000  0.84992000  0.86952000  1.0
  O  O68  1  0.18242000  0.13216000  0.72414000  1.0
  O  O69  1  0.81759000  0.86784000  0.27586000  1.0
  O  O70  1  0.47544000  0.85284000  0.13686000  1.0
  O  O71  1  0.52456000  0.14716000  0.86315000  1.0
  O  O72  1  0.05766000  0.31728000  0.91647000  1.0
  O  O73  1  0.94235000  0.68272000  0.08352000  1.0
