# generated using pymatgen
data_CuH4C5SN3
_symmetry_space_group_name_H-M   'P 1'
_cell_length_a   3.70568000
_cell_length_b   8.27583000
_cell_length_c   10.53080000
_cell_angle_alpha   90.00170000
_cell_angle_beta   90.00170000
_cell_angle_gamma   83.23820000
_symmetry_Int_Tables_number   1
_chemical_formula_structural   CuH4C5SN3
_chemical_formula_sum   'Cu2 H8 C10 S2 N6'
_cell_volume   320.70773225
_cell_formula_units_Z   2
loop_
 _symmetry_equiv_pos_site_id
 _symmetry_equiv_pos_as_xyz
  1  'x, y, z'
loop_
 _atom_site_type_symbol
 _atom_site_label
 _atom_site_symmetry_multiplicity
 _atom_site_fract_x
 _atom_site_fract_y
 _atom_site_fract_z
 _atom_site_occupancy
  Cu  Cu0  1  0.21058000  0.90799000  0.97652000  1.0
  Cu  Cu1  1  0.78947000  0.09203000  0.47654000  1.0
  H  H2  1  0.38706000  0.85219000  0.70497000  1.0
  H  H3  1  0.61293000  0.14780000  0.20496000  1.0
  H  H4  1  0.38082000  0.62161000  0.54987000  1.0
  H  H5  1  0.61913000  0.37837000  0.04987000  1.0
  H  H6  1  0.20484000  0.35436000  0.63420000  1.0
  H  H7  1  0.79509000  0.64562000  0.13419000  1.0
  H  H8  1  0.06345000  0.34294000  0.86906000  1.0
  H  H9  1  0.93654000  0.65707000  0.36904000  1.0
  C  C10  1  0.71919000  0.08592000  0.76641000  1.0
  C  C11  1  0.28084000  0.91409000  0.26640000  1.0
  C  C12  1  0.31870000  0.73344000  0.73452000  1.0
  C  C13  1  0.68130000  0.26655000  0.23452000  1.0
  C  C14  1  0.31310000  0.60518000  0.64915000  1.0
  C  C15  1  0.68688000  0.39481000  0.14915000  1.0
  C  C16  1  0.21912000  0.45925000  0.69536000  1.0
  C  C17  1  0.78085000  0.54075000  0.19536000  1.0
  C  C18  1  0.13931000  0.45339000  0.82500000  1.0
  C  C19  1  0.86067000  0.54661000  0.32500000  1.0
  S  S20  1  0.67411000  0.07327000  0.92107000  1.0
  S  S21  1  0.32592000  0.92674000  0.42105000  1.0
  N  N22  1  0.75354000  0.09671000  0.65511000  1.0
  N  N23  1  0.24651000  0.90328000  0.15511000  1.0
  N  N24  1  0.24016000  0.71963000  0.85857000  1.0
  N  N25  1  0.75985000  0.28036000  0.35857000  1.0
  N  N26  1  0.14914000  0.57862000  0.90467000  1.0
  N  N27  1  0.85087000  0.42139000  0.40466000  1.0
