# generated using pymatgen
data_Zn2H30C40N4O9
_symmetry_space_group_name_H-M   'P 1'
_cell_length_a   12.31050000
_cell_length_b   13.77860000
_cell_length_c   13.77860000
_cell_angle_alpha   83.29470000
_cell_angle_beta   79.92810000
_cell_angle_gamma   79.92820000
_symmetry_Int_Tables_number   1
_chemical_formula_structural   Zn2H30C40N4O9
_chemical_formula_sum   'Zn4 H60 C80 N8 O18'
_cell_volume   2256.69649856
_cell_formula_units_Z   2
loop_
 _symmetry_equiv_pos_site_id
 _symmetry_equiv_pos_as_xyz
  1  'x, y, z'
loop_
 _atom_site_type_symbol
 _atom_site_label
 _atom_site_symmetry_multiplicity
 _atom_site_fract_x
 _atom_site_fract_y
 _atom_site_fract_z
 _atom_site_occupancy
  Zn  Zn0  1  0.89763000  0.82681000  0.77544000  1.0
  Zn  Zn1  1  0.60237000  0.22456000  0.17319000  1.0
  Zn  Zn2  1  0.10237000  0.17319000  0.22456000  1.0
  Zn  Zn3  1  0.39763000  0.77544000  0.82681000  1.0
  H  H4  1  0.95902000  0.15689000  0.64653000  1.0
  H  H5  1  0.54098000  0.35347000  0.84310000  1.0
  H  H6  1  0.04097000  0.84311000  0.35348000  1.0
  H  H7  1  0.45902000  0.64652000  0.15690000  1.0
  H  H8  1  0.05313000  0.30103000  0.65987000  1.0
  H  H9  1  0.44686000  0.34013000  0.69897000  1.0
  H  H10  1  0.94686000  0.69897000  0.34014000  1.0
  H  H11  1  0.55313000  0.65987000  0.30103000  1.0
  H  H12  1  0.32957000  0.09899000  0.75787000  1.0
  H  H13  1  0.17042000  0.24213000  0.90101000  1.0
  H  H14  1  0.67042000  0.90101000  0.24213000  1.0
  H  H15  1  0.82958000  0.75787000  0.09899000  1.0
  H  H16  1  0.12188000  0.79017000  0.65660000  1.0
  H  H17  1  0.37812000  0.34340000  0.20983000  1.0
  H  H18  1  0.87812000  0.20983000  0.34340000  1.0
  H  H19  1  0.62188000  0.65660000  0.79017000  1.0
  H  H20  1  0.23869000  0.66177000  0.55703000  1.0
  H  H21  1  0.26130000  0.44296000  0.33824000  1.0
  H  H22  1  0.76130000  0.33824000  0.44296000  1.0
  H  H23  1  0.73870000  0.55703000  0.66176000  1.0
  H  H24  1  0.98719000  0.47432000  0.66003000  1.0
  H  H25  1  0.51281000  0.33997000  0.52568000  1.0
  H  H26  1  0.01282000  0.52568000  0.33997000  1.0
  H  H27  1  0.48719000  0.66003000  0.47432000  1.0
  H  H28  1  0.87652000  0.61484000  0.75484000  1.0
  H  H29  1  0.62348000  0.24516000  0.38516000  1.0
  H  H30  1  0.12348000  0.38516000  0.24516000  1.0
  H  H31  1  0.37652000  0.75484000  0.61484000  1.0
  H  H32  1  0.16015000  0.40558000  0.56072000  1.0
  H  H33  1  0.33985000  0.43928000  0.59442000  1.0
  H  H34  1  0.83986000  0.59442000  0.43927000  1.0
  H  H35  1  0.66015000  0.56073000  0.40557000  1.0
  H  H36  1  0.16016000  0.49617000  0.45983000  1.0
  H  H37  1  0.33984000  0.54017000  0.50383000  1.0
  H  H38  1  0.83984000  0.50383000  0.54016000  1.0
  H  H39  1  0.66017000  0.45983000  0.49617000  1.0
  H  H40  1  0.65071000  0.90455000  0.81719000  1.0
  H  H41  1  0.84929000  0.18281000  0.09545000  1.0
  H  H42  1  0.34929000  0.09545000  0.18281000  1.0
  H  H43  1  0.15071000  0.81719000  0.90455000  1.0
  H  H44  1  0.49411000  0.95225000  0.72090000  1.0
  H  H45  1  0.00589000  0.27910000  0.04776000  1.0
  H  H46  1  0.50589000  0.04776000  0.27910000  1.0
  H  H47  1  0.99411000  0.72090000  0.95224000  1.0
  H  H48  1  0.72877000  0.87291000  0.45939000  1.0
  H  H49  1  0.77123000  0.54061000  0.12710000  1.0
  H  H50  1  0.27122000  0.12710000  0.54061000  1.0
  H  H51  1  0.22877000  0.45939000  0.87290000  1.0
  H  H52  1  0.87846000  0.83783000  0.56486000  1.0
  H  H53  1  0.62154000  0.43514000  0.16217000  1.0
  H  H54  1  0.12154000  0.16218000  0.43514000  1.0
  H  H55  1  0.37846000  0.56486000  0.83783000  1.0
  H  H56  1  0.52533000  0.90041000  0.45436000  1.0
  H  H57  1  0.97467000  0.54564000  0.09959000  1.0
  H  H58  1  0.47466000  0.09960000  0.54565000  1.0
  H  H59  1  0.02534000  0.45436000  0.90041000  1.0
  H  H60  1  0.42639000  0.92817000  0.56150000  1.0
  H  H61  1  0.07361000  0.43850000  0.07183000  1.0
  H  H62  1  0.57361000  0.07184000  0.43850000  1.0
  H  H63  1  0.92639000  0.56149000  0.92817000  1.0
  C  C64  1  0.19653000  0.03193000  0.72453000  1.0
  C  C65  1  0.30347000  0.27547000  0.96806000  1.0
  C  C66  1  0.80346000  0.96807000  0.27547000  1.0
  C  C67  1  0.69654000  0.72452000  0.03193000  1.0
  C  C68  1  0.09045000  0.04807000  0.69511000  1.0
  C  C69  1  0.40955000  0.30489000  0.95192000  1.0
  C  C70  1  0.90954000  0.95193000  0.30489000  1.0
  C  C71  1  0.59046000  0.69510000  0.04807000  1.0
  C  C72  1  0.04059000  0.14497000  0.67045000  1.0
  C  C73  1  0.45941000  0.32955000  0.85502000  1.0
  C  C74  1  0.95940000  0.85503000  0.32956000  1.0
  C  C75  1  0.54060000  0.67044000  0.14497000  1.0
  C  C76  1  0.09292000  0.22541000  0.67741000  1.0
  C  C77  1  0.40708000  0.32259000  0.77459000  1.0
  C  C78  1  0.90708000  0.77459000  0.32259000  1.0
  C  C79  1  0.59292000  0.67741000  0.22541000  1.0
  C  C80  1  0.19674000  0.20849000  0.70918000  1.0
  C  C81  1  0.30326000  0.29082000  0.79151000  1.0
  C  C82  1  0.80326000  0.79151000  0.29082000  1.0
  C  C83  1  0.69674000  0.70918000  0.20849000  1.0
  C  C84  1  0.24856000  0.11228000  0.73292000  1.0
  C  C85  1  0.25144000  0.26708000  0.88772000  1.0
  C  C86  1  0.75143000  0.88772000  0.26708000  1.0
  C  C87  1  0.74856000  0.73292000  0.11228000  1.0
  C  C88  1  0.26047000  0.92916000  0.73816000  1.0
  C  C89  1  0.23953000  0.26184000  0.07083000  1.0
  C  C90  1  0.73952000  0.07083000  0.26184000  1.0
  C  C91  1  0.76047000  0.73816000  0.92917000  1.0
  C  C92  1  0.02517000  0.96529000  0.69547000  1.0
  C  C93  1  0.47483000  0.30453000  0.03471000  1.0
  C  C94  1  0.97482000  0.03471000  0.30453000  1.0
  C  C95  1  0.52518000  0.69547000  0.96529000  1.0
  C  C96  1  0.09376000  0.71978000  0.65456000  1.0
  C  C97  1  0.40624000  0.34544000  0.28022000  1.0
  C  C98  1  0.90624000  0.28022000  0.34544000  1.0
  C  C99  1  0.59376000  0.65456000  0.71978000  1.0
  C  C100  1  0.15924000  0.64638000  0.59935000  1.0
  C  C101  1  0.34076000  0.40065000  0.35362000  1.0
  C  C102  1  0.84076000  0.35362000  0.40065000  1.0
  C  C103  1  0.65924000  0.59935000  0.64638000  1.0
  C  C104  1  0.12255000  0.55604000  0.59784000  1.0
  C  C105  1  0.37745000  0.40216000  0.44396000  1.0
  C  C106  1  0.87745000  0.44396000  0.40215000  1.0
  C  C107  1  0.62255000  0.59785000  0.55604000  1.0
  C  C108  1  0.01951000  0.54378000  0.65594000  1.0
  C  C109  1  0.48049000  0.34406000  0.45622000  1.0
  C  C110  1  0.98049000  0.45622000  0.34405000  1.0
  C  C111  1  0.51951000  0.65595000  0.54378000  1.0
  C  C112  1  0.95736000  0.62035000  0.70878000  1.0
  C  C113  1  0.54264000  0.29122000  0.37965000  1.0
  C  C114  1  0.04264000  0.37964000  0.29122000  1.0
  C  C115  1  0.45737000  0.70878000  0.62036000  1.0
  C  C116  1  0.18634000  0.47733000  0.53317000  1.0
  C  C117  1  0.31366000  0.46683000  0.52267000  1.0
  C  C118  1  0.81366000  0.52267000  0.46682000  1.0
  C  C119  1  0.68634000  0.53318000  0.47733000  1.0
  C  C120  1  0.66516000  0.90109000  0.73722000  1.0
  C  C121  1  0.83485000  0.26278000  0.09891000  1.0
  C  C122  1  0.33484000  0.09891000  0.26278000  1.0
  C  C123  1  0.16516000  0.73722000  0.90109000  1.0
  C  C124  1  0.57788000  0.92705000  0.68268000  1.0
  C  C125  1  0.92212000  0.31732000  0.07296000  1.0
  C  C126  1  0.42212000  0.07296000  0.31732000  1.0
  C  C127  1  0.07788000  0.68268000  0.92704000  1.0
  C  C128  1  0.59798000  0.91659000  0.58089000  1.0
  C  C129  1  0.90202000  0.41911000  0.08342000  1.0
  C  C130  1  0.40202000  0.08342000  0.41911000  1.0
  C  C131  1  0.09798000  0.58089000  0.91658000  1.0
  C  C132  1  0.70774000  0.88206000  0.53825000  1.0
  C  C133  1  0.79226000  0.46176000  0.11795000  1.0
  C  C134  1  0.29225000  0.11795000  0.46176000  1.0
  C  C135  1  0.20774000  0.53824000  0.88205000  1.0
  C  C136  1  0.79146000  0.86049000  0.59660000  1.0
  C  C137  1  0.70853000  0.40340000  0.13952000  1.0
  C  C138  1  0.20853000  0.13952000  0.40340000  1.0
  C  C139  1  0.29146000  0.59660000  0.86049000  1.0
  C  C140  1  0.50639000  0.94438000  0.51872000  1.0
  C  C141  1  0.99361000  0.48128000  0.05562000  1.0
  C  C142  1  0.49360000  0.05562000  0.48128000  1.0
  C  C143  1  0.00640000  0.51872000  0.94438000  1.0
  N  N144  1  0.99353000  0.70739000  0.70764000  1.0
  N  N145  1  0.50647000  0.29236000  0.29261000  1.0
  N  N146  1  0.00647000  0.29261000  0.29235000  1.0
  N  N147  1  0.49354000  0.70764000  0.70739000  1.0
  N  N148  1  0.77053000  0.86886000  0.69484000  1.0
  N  N149  1  0.72947000  0.30516000  0.13114000  1.0
  N  N150  1  0.22947000  0.13114000  0.30516000  1.0
  N  N151  1  0.27053000  0.69484000  0.86886000  1.0
  O  O152  1  0.32477000  0.91485000  0.80531000  1.0
  O  O153  1  0.17523000  0.19469000  0.08515000  1.0
  O  O154  1  0.67523000  0.08515000  0.19469000  1.0
  O  O155  1  0.82477000  0.80531000  0.91485000  1.0
  O  O156  1  0.25280000  0.86570000  0.68257000  1.0
  O  O157  1  0.24721000  0.31743000  0.13430000  1.0
  O  O158  1  0.74720000  0.13430000  0.31743000  1.0
  O  O159  1  0.75280000  0.68257000  0.86570000  1.0
  O  O160  1  0.00401000  0.91635000  0.78189000  1.0
  O  O161  1  0.49600000  0.21811000  0.08364000  1.0
  O  O162  1  0.99600000  0.08364000  0.21811000  1.0
  O  O163  1  0.50401000  0.78189000  0.91636000  1.0
  O  O164  1  0.99126000  0.95079000  0.61935000  1.0
  O  O165  1  0.50874000  0.38065000  0.04920000  1.0
  O  O166  1  0.00873000  0.04921000  0.38065000  1.0
  O  O167  1  0.49127000  0.61934000  0.95079000  1.0
  O  O168  1  0.25000000  0.28946000  0.71053000  1.0
  O  O169  1  0.75000000  0.71054000  0.28947000  1.0
