# generated using pymatgen
data_FeH6(C3O)4
_symmetry_space_group_name_H-M   'P 1'
_cell_length_a   4.66078000
_cell_length_b   13.58550000
_cell_length_c   15.01830000
_cell_angle_alpha   90.00010000
_cell_angle_beta   90.00010000
_cell_angle_gamma   89.99440000
_symmetry_Int_Tables_number   1
_chemical_formula_structural   FeH6(C3O)4
_chemical_formula_sum   'Fe4 H24 C48 O16'
_cell_volume   950.94413399
_cell_formula_units_Z   4
loop_
 _symmetry_equiv_pos_site_id
 _symmetry_equiv_pos_as_xyz
  1  'x, y, z'
loop_
 _atom_site_type_symbol
 _atom_site_label
 _atom_site_symmetry_multiplicity
 _atom_site_fract_x
 _atom_site_fract_y
 _atom_site_fract_z
 _atom_site_occupancy
  Fe  Fe0  1  0.24851000  0.49921000  0.45107000  1.0
  Fe  Fe1  1  0.25149000  0.00079000  0.95107000  1.0
  Fe  Fe2  1  0.75149000  0.50079000  0.54893000  1.0
  Fe  Fe3  1  0.74851000  0.99921000  0.04893000  1.0
  H  H4  1  0.82516000  0.37701000  0.20166000  1.0
  H  H5  1  0.67484000  0.12299000  0.70166000  1.0
  H  H6  1  0.17484000  0.62299000  0.79834000  1.0
  H  H7  1  0.32517000  0.87701000  0.29834000  1.0
  H  H8  1  0.57591000  0.26736000  0.09288000  1.0
  H  H9  1  0.92409000  0.23264000  0.59288000  1.0
  H  H10  1  0.42409000  0.73264000  0.90712000  1.0
  H  H11  1  0.07591000  0.76736000  0.40712000  1.0
  H  H12  1  0.06724000  0.03305000  0.27200000  1.0
  H  H13  1  0.43276000  0.46695000  0.77200000  1.0
  H  H14  1  0.93276000  0.96695000  0.72800000  1.0
  H  H15  1  0.56724000  0.53305000  0.22801000  1.0
  H  H16  1  0.06240000  0.99288000  0.43125000  1.0
  H  H17  1  0.43760000  0.50712000  0.93124000  1.0
  H  H18  1  0.93760000  0.00712000  0.56875000  1.0
  H  H19  1  0.56240000  0.49287000  0.06876000  1.0
  H  H20  1  0.31714000  0.10128000  0.54089000  1.0
  H  H21  1  0.18287000  0.39873000  0.04089000  1.0
  H  H22  1  0.68286000  0.89872000  0.45911000  1.0
  H  H23  1  0.81714000  0.60127000  0.95912000  1.0
  H  H24  1  0.57393000  0.24852000  0.48863000  1.0
  H  H25  1  0.92607000  0.25148000  0.98863000  1.0
  H  H26  1  0.42607000  0.75148000  0.51137000  1.0
  H  H27  1  0.07392000  0.74852000  0.01137000  1.0
  C  C28  1  0.65106000  0.30474000  0.31601000  1.0
  C  C29  1  0.84894000  0.19526000  0.81601000  1.0
  C  C30  1  0.34894000  0.69526000  0.68399000  1.0
  C  C31  1  0.15106000  0.80474000  0.18399000  1.0
  C  C32  1  0.68798000  0.31756000  0.22520000  1.0
  C  C33  1  0.81202000  0.18244000  0.72520000  1.0
  C  C34  1  0.31202000  0.68244000  0.77480000  1.0
  C  C35  1  0.18798000  0.81756000  0.27480000  1.0
  C  C36  1  0.54727000  0.25616000  0.16412000  1.0
  C  C37  1  0.95272000  0.24384000  0.66412000  1.0
  C  C38  1  0.45272000  0.74384000  0.83588000  1.0
  C  C39  1  0.04728000  0.75616000  0.33588000  1.0
  C  C40  1  0.36911000  0.18089000  0.19290000  1.0
  C  C41  1  0.13089000  0.31911000  0.69290000  1.0
  C  C42  1  0.63089000  0.81911000  0.80710000  1.0
  C  C43  1  0.86911000  0.68089000  0.30710000  1.0
  C  C44  1  0.18175000  0.07955000  0.31885000  1.0
  C  C45  1  0.31826000  0.42044000  0.81885000  1.0
  C  C46  1  0.81826000  0.92045000  0.68115000  1.0
  C  C47  1  0.68174000  0.57955000  0.18116000  1.0
  C  C48  1  0.17640000  0.05803000  0.40837000  1.0
  C  C49  1  0.32361000  0.44197000  0.90837000  1.0
  C  C50  1  0.82360000  0.94197000  0.59162000  1.0
  C  C51  1  0.67639000  0.55803000  0.09163000  1.0
  C  C52  1  0.31954000  0.11909000  0.47005000  1.0
  C  C53  1  0.18047000  0.38091000  0.97005000  1.0
  C  C54  1  0.68046000  0.88091000  0.52994000  1.0
  C  C55  1  0.81954000  0.61909000  0.02995000  1.0
  C  C56  1  0.46608000  0.20104000  0.44101000  1.0
  C  C57  1  0.03393000  0.29896000  0.94101000  1.0
  C  C58  1  0.53393000  0.79896000  0.55899000  1.0
  C  C59  1  0.96606000  0.70104000  0.05899000  1.0
  C  C60  1  0.48238000  0.22450000  0.34892000  1.0
  C  C61  1  0.01763000  0.27550000  0.84892000  1.0
  C  C62  1  0.51762000  0.77550000  0.65108000  1.0
  C  C63  1  0.98237000  0.72451000  0.15108000  1.0
  C  C64  1  0.33734000  0.16177000  0.28609000  1.0
  C  C65  1  0.16266000  0.33822000  0.78609000  1.0
  C  C66  1  0.66266000  0.83823000  0.71391000  1.0
  C  C67  1  0.83733000  0.66178000  0.21391000  1.0
  C  C68  1  0.78542000  0.37758000  0.37725000  1.0
  C  C69  1  0.71457000  0.12241000  0.87725000  1.0
  C  C70  1  0.21458000  0.62242000  0.62274000  1.0
  C  C71  1  0.28542000  0.87759000  0.12275000  1.0
  C  C72  1  0.22658000  0.11894000  0.12398000  1.0
  C  C73  1  0.27341000  0.38106000  0.62398000  1.0
  C  C74  1  0.77341000  0.88106000  0.87602000  1.0
  C  C75  1  0.72659000  0.61894000  0.37602000  1.0
  O  O76  1  0.63552000  0.40521000  0.44531000  1.0
  O  O77  1  0.86448000  0.09479000  0.94531000  1.0
  O  O78  1  0.36449000  0.59479000  0.55469000  1.0
  O  O79  1  0.13552000  0.90521000  0.05469000  1.0
  O  O80  1  0.03382000  0.41067000  0.36029000  1.0
  O  O81  1  0.46617000  0.08933000  0.86028000  1.0
  O  O82  1  0.96618000  0.58933000  0.63971000  1.0
  O  O83  1  0.53382000  0.91067000  0.13972000  1.0
  O  O84  1  0.97192000  0.08881000  0.13565000  1.0
  O  O85  1  0.52808000  0.41119000  0.63565000  1.0
  O  O86  1  0.02808000  0.91119000  0.86435000  1.0
  O  O87  1  0.47192000  0.58881000  0.36435000  1.0
  O  O88  1  0.37438000  0.09965000  0.05314000  1.0
  O  O89  1  0.12562000  0.40035000  0.55314000  1.0
  O  O90  1  0.62562000  0.90035000  0.94686000  1.0
  O  O91  1  0.87438000  0.59965000  0.44686000  1.0
