# generated using pymatgen
data_ThH12C10(NO6)2
_symmetry_space_group_name_H-M   'P 1'
_cell_length_a   8.64054000
_cell_length_b   12.95620000
_cell_length_c   13.35790000
_cell_angle_alpha   90.00000000
_cell_angle_beta   89.99990000
_cell_angle_gamma   90.00000000
_symmetry_Int_Tables_number   1
_chemical_formula_structural   ThH12C10(NO6)2
_chemical_formula_sum   'Th4 H48 C40 N8 O48'
_cell_volume   1495.39772770
_cell_formula_units_Z   4
loop_
 _symmetry_equiv_pos_site_id
 _symmetry_equiv_pos_as_xyz
  1  'x, y, z'
loop_
 _atom_site_type_symbol
 _atom_site_label
 _atom_site_symmetry_multiplicity
 _atom_site_fract_x
 _atom_site_fract_y
 _atom_site_fract_z
 _atom_site_occupancy
  Th  Th0  1  0.25000000  0.35141000  0.75000000  1.0
  Th  Th1  1  0.75000000  0.14859000  0.25000000  1.0
  Th  Th2  1  0.75000000  0.64859000  0.25000000  1.0
  Th  Th3  1  0.25000000  0.85141000  0.75000000  1.0
  H  H4  1  0.60801000  0.29165000  0.53513000  1.0
  H  H5  1  0.89199000  0.29165000  0.96487000  1.0
  H  H6  1  0.10801000  0.20835000  0.46487000  1.0
  H  H7  1  0.39199000  0.20835000  0.03513000  1.0
  H  H8  1  0.39199000  0.70836000  0.46487000  1.0
  H  H9  1  0.10801000  0.70836000  0.03513000  1.0
  H  H10  1  0.89199000  0.79164000  0.53513000  1.0
  H  H11  1  0.60801000  0.79164000  0.96487000  1.0
  H  H12  1  0.65558000  0.29752000  0.65715000  1.0
  H  H13  1  0.84442000  0.29752000  0.84285000  1.0
  H  H14  1  0.15558000  0.20248000  0.34285000  1.0
  H  H15  1  0.34442000  0.20248000  0.15715000  1.0
  H  H16  1  0.34442000  0.70248000  0.34285000  1.0
  H  H17  1  0.15558000  0.70248000  0.15715000  1.0
  H  H18  1  0.84442000  0.79752000  0.65715000  1.0
  H  H19  1  0.65558000  0.79752000  0.84285000  1.0
  H  H20  1  0.86328000  0.30496000  0.47809000  1.0
  H  H21  1  0.63673000  0.30496000  0.02191000  1.0
  H  H22  1  0.36327000  0.19504000  0.52191000  1.0
  H  H23  1  0.13672000  0.19504000  0.97809000  1.0
  H  H24  1  0.13673000  0.69504000  0.52191000  1.0
  H  H25  1  0.36327000  0.69504000  0.97809000  1.0
  H  H26  1  0.63673000  0.80496000  0.47809000  1.0
  H  H27  1  0.86327000  0.80496000  0.02191000  1.0
  H  H28  1  0.83023000  0.19308000  0.55189000  1.0
  H  H29  1  0.66977000  0.19308000  0.94811000  1.0
  H  H30  1  0.33023000  0.30692000  0.44811000  1.0
  H  H31  1  0.16977000  0.30692000  0.05189000  1.0
  H  H32  1  0.16976000  0.80692000  0.44812000  1.0
  H  H33  1  0.33024000  0.80692000  0.05188000  1.0
  H  H34  1  0.66976000  0.69308000  0.55188000  1.0
  H  H35  1  0.83024000  0.69308000  0.94812000  1.0
  H  H36  1  0.71681000  0.46234000  0.50892000  1.0
  H  H37  1  0.78319000  0.46234000  0.99108000  1.0
  H  H38  1  0.21681000  0.03766000  0.49107000  1.0
  H  H39  1  0.28319000  0.03766000  0.00892000  1.0
  H  H40  1  0.28319000  0.53766000  0.49107000  1.0
  H  H41  1  0.21681000  0.53766000  0.00893000  1.0
  H  H42  1  0.78319000  0.96234000  0.50893000  1.0
  H  H43  1  0.71681000  0.96234000  0.99107000  1.0
  H  H44  1  0.76641000  0.46513000  0.63882000  1.0
  H  H45  1  0.73359000  0.46513000  0.86118000  1.0
  H  H46  1  0.26641000  0.03487000  0.36118000  1.0
  H  H47  1  0.23359000  0.03487000  0.13882000  1.0
  H  H48  1  0.23360000  0.53487000  0.36118000  1.0
  H  H49  1  0.26640000  0.53487000  0.13882000  1.0
  H  H50  1  0.73360000  0.96513000  0.63882000  1.0
  H  H51  1  0.76640000  0.96513000  0.86118000  1.0
  C  C52  1  0.83908000  0.27766000  0.55424000  1.0
  C  C53  1  0.66092000  0.27766000  0.94576000  1.0
  C  C54  1  0.33908000  0.22234000  0.44576000  1.0
  C  C55  1  0.16092000  0.22234000  0.05424000  1.0
  C  C56  1  0.16092000  0.72234000  0.44576000  1.0
  C  C57  1  0.33908000  0.72234000  0.05424000  1.0
  C  C58  1  0.66092000  0.77766000  0.55424000  1.0
  C  C59  1  0.83908000  0.77766000  0.94576000  1.0
  C  C60  1  0.96932000  0.30441000  0.62411000  1.0
  C  C61  1  0.53068000  0.30441000  0.87589000  1.0
  C  C62  1  0.46932000  0.19559000  0.37589000  1.0
  C  C63  1  0.03068000  0.19559000  0.12411000  1.0
  C  C64  1  0.03068000  0.69559000  0.37589000  1.0
  C  C65  1  0.46932000  0.69559000  0.12411000  1.0
  C  C66  1  0.53068000  0.80441000  0.62411000  1.0
  C  C67  1  0.96932000  0.80441000  0.87589000  1.0
  C  C68  1  0.68271000  0.43613000  0.58393000  1.0
  C  C69  1  0.81729000  0.43613000  0.91607000  1.0
  C  C70  1  0.18271000  0.06387000  0.41607000  1.0
  C  C71  1  0.31729000  0.06387000  0.08393000  1.0
  C  C72  1  0.31729000  0.56387000  0.41607000  1.0
  C  C73  1  0.18271000  0.56387000  0.08393000  1.0
  C  C74  1  0.81729000  0.93613000  0.58393000  1.0
  C  C75  1  0.68271000  0.93613000  0.91607000  1.0
  C  C76  1  0.52134000  0.47671000  0.60812000  1.0
  C  C77  1  0.97867000  0.47671000  0.89188000  1.0
  C  C78  1  0.02134000  0.02329000  0.39188000  1.0
  C  C79  1  0.47866000  0.02329000  0.10812000  1.0
  C  C80  1  0.47867000  0.52329000  0.39188000  1.0
  C  C81  1  0.02133000  0.52329000  0.10812000  1.0
  C  C82  1  0.97867000  0.97671000  0.60812000  1.0
  C  C83  1  0.52133000  0.97671000  0.89188000  1.0
  C  C84  1  0.18281000  0.59946000  0.71194000  1.0
  C  C85  1  0.31719000  0.59946000  0.78806000  1.0
  C  C86  1  0.68281000  0.90055000  0.28806000  1.0
  C  C87  1  0.81719000  0.90055000  0.21194000  1.0
  C  C88  1  0.81719000  0.40055000  0.28807000  1.0
  C  C89  1  0.68281000  0.40055000  0.21193000  1.0
  C  C90  1  0.31719000  0.09945000  0.71193000  1.0
  C  C91  1  0.18281000  0.09945000  0.78807000  1.0
  N  N92  1  0.68774000  0.32105000  0.58572000  1.0
  N  N93  1  0.81226000  0.32105000  0.91428000  1.0
  N  N94  1  0.18774000  0.17895000  0.41428000  1.0
  N  N95  1  0.31226000  0.17895000  0.08572000  1.0
  N  N96  1  0.31226000  0.67895000  0.41428000  1.0
  N  N97  1  0.18774000  0.67895000  0.08572000  1.0
  N  N98  1  0.81226000  0.82105000  0.58572000  1.0
  N  N99  1  0.68774000  0.82105000  0.91428000  1.0
  O  O100  1  0.94353000  0.33010000  0.71411000  1.0
  O  O101  1  0.55647000  0.33010000  0.78589000  1.0
  O  O102  1  0.44353000  0.16990000  0.28589000  1.0
  O  O103  1  0.05647000  0.16990000  0.21411000  1.0
  O  O104  1  0.05647000  0.66990000  0.28589000  1.0
  O  O105  1  0.44353000  0.66990000  0.21411000  1.0
  O  O106  1  0.55647000  0.83010000  0.71411000  1.0
  O  O107  1  0.94353000  0.83010000  0.78589000  1.0
  O  O108  1  0.10638000  0.29814000  0.58880000  1.0
  O  O109  1  0.39362000  0.29814000  0.91120000  1.0
  O  O110  1  0.60638000  0.20186000  0.41120000  1.0
  O  O111  1  0.89362000  0.20186000  0.08880000  1.0
  O  O112  1  0.89362000  0.70185000  0.41120000  1.0
  O  O113  1  0.60638000  0.70186000  0.08880000  1.0
  O  O114  1  0.39362000  0.79815000  0.58880000  1.0
  O  O115  1  0.10638000  0.79815000  0.91120000  1.0
  O  O116  1  0.41330000  0.40805000  0.61748000  1.0
  O  O117  1  0.08670000  0.40805000  0.88251000  1.0
  O  O118  1  0.91330000  0.09195000  0.38251000  1.0
  O  O119  1  0.58671000  0.09195000  0.11749000  1.0
  O  O120  1  0.58671000  0.59195000  0.38252000  1.0
  O  O121  1  0.91329000  0.59195000  0.11748000  1.0
  O  O122  1  0.08671000  0.90805000  0.61748000  1.0
  O  O123  1  0.41329000  0.90805000  0.88251000  1.0
  O  O124  1  0.50462000  0.57164000  0.61459000  1.0
  O  O125  1  0.99538000  0.57164000  0.88541000  1.0
  O  O126  1  0.00462000  0.92836000  0.38541000  1.0
  O  O127  1  0.49538000  0.92836000  0.11459000  1.0
  O  O128  1  0.49539000  0.42836000  0.38541000  1.0
  O  O129  1  0.00462000  0.42836000  0.11459000  1.0
  O  O130  1  0.99538000  0.07164000  0.61459000  1.0
  O  O131  1  0.50462000  0.07164000  0.88541000  1.0
  O  O132  1  0.13289000  0.51285000  0.68253000  1.0
  O  O133  1  0.36711000  0.51285000  0.81747000  1.0
  O  O134  1  0.63289000  0.98715000  0.31747000  1.0
  O  O135  1  0.86711000  0.98715000  0.18253000  1.0
  O  O136  1  0.86711000  0.48715000  0.31747000  1.0
  O  O137  1  0.63289000  0.48715000  0.18253000  1.0
  O  O138  1  0.36711000  0.01285000  0.68253000  1.0
  O  O139  1  0.13290000  0.01285000  0.81747000  1.0
  O  O140  1  0.13374000  0.68713000  0.68372000  1.0
  O  O141  1  0.36626000  0.68713000  0.81628000  1.0
  O  O142  1  0.63375000  0.81286000  0.31628000  1.0
  O  O143  1  0.86626000  0.81286000  0.18372000  1.0
  O  O144  1  0.86625000  0.31286000  0.31628000  1.0
  O  O145  1  0.63374000  0.31286000  0.18372000  1.0
  O  O146  1  0.36625000  0.18714000  0.68372000  1.0
  O  O147  1  0.13374000  0.18714000  0.81628000  1.0
