# generated using pymatgen
data_ZnH18C22(NO)4
_symmetry_space_group_name_H-M   'P 1'
_cell_length_a   8.10791000
_cell_length_b   11.37060000
_cell_length_c   11.73000000
_cell_angle_alpha   99.61600000
_cell_angle_beta   107.09700000
_cell_angle_gamma   95.25590000
_symmetry_Int_Tables_number   1
_chemical_formula_structural   ZnH18C22(NO)4
_chemical_formula_sum   'Zn2 H36 C44 N8 O8'
_cell_volume   1007.67287718
_cell_formula_units_Z   2
loop_
 _symmetry_equiv_pos_site_id
 _symmetry_equiv_pos_as_xyz
  1  'x, y, z'
loop_
 _atom_site_type_symbol
 _atom_site_label
 _atom_site_symmetry_multiplicity
 _atom_site_fract_x
 _atom_site_fract_y
 _atom_site_fract_z
 _atom_site_occupancy
  Zn  Zn0  1  0.27303000  0.33983000  0.24612000  1.0
  Zn  Zn1  1  0.72697000  0.66019000  0.75389000  1.0
  H  H2  1  0.62477000  0.99086000  0.40868000  1.0
  H  H3  1  0.37521000  0.00915000  0.59130000  1.0
  H  H4  1  0.55504000  0.78041000  0.29657000  1.0
  H  H5  1  0.44495000  0.21960000  0.70341000  1.0
  H  H6  1  0.03651000  0.71276000  0.14690000  1.0
  H  H7  1  0.96349000  0.28723000  0.85308000  1.0
  H  H8  1  0.31516000  0.83441000  0.16981000  1.0
  H  H9  1  0.68483000  0.16559000  0.83018000  1.0
  H  H10  1  0.38914000  0.04569000  0.28783000  1.0
  H  H11  1  0.61085000  0.95431000  0.71216000  1.0
  H  H12  1  0.18521000  0.13628000  0.38085000  1.0
  H  H13  1  0.81478000  0.86372000  0.61915000  1.0
  H  H14  1  0.97788000  0.17903000  0.52003000  1.0
  H  H15  1  0.02212000  0.82097000  0.47995000  1.0
  H  H16  1  0.96562000  0.21365000  0.37711000  1.0
  H  H17  1  0.03437000  0.78635000  0.62287000  1.0
  H  H18  1  0.76662000  0.25431000  0.61378000  1.0
  H  H19  1  0.23339000  0.74567000  0.38621000  1.0
  H  H20  1  0.45661000  0.34840000  0.52840000  1.0
  H  H21  1  0.54340000  0.65160000  0.47161000  1.0
  H  H22  1  0.61364000  0.20444000  0.22850000  1.0
  H  H23  1  0.38635000  0.79557000  0.77148000  1.0
  H  H24  1  0.14022000  0.96610000  0.94092000  1.0
  H  H25  1  0.85979000  0.03392000  0.05908000  1.0
  H  H26  1  0.89812000  0.58305000  0.42387000  1.0
  H  H27  1  0.10188000  0.41691000  0.57617000  1.0
  H  H28  1  0.38603000  0.68526000  0.02041000  1.0
  H  H29  1  0.61395000  0.31473000  0.97958000  1.0
  H  H30  1  0.14011000  0.53111000  0.07339000  1.0
  H  H31  1  0.85988000  0.46890000  0.92661000  1.0
  H  H32  1  0.64687000  0.47924000  0.26656000  1.0
  H  H33  1  0.35313000  0.52077000  0.73344000  1.0
  H  H34  1  0.82859000  0.60324000  0.17969000  1.0
  H  H35  1  0.17140000  0.39676000  0.82030000  1.0
  H  H36  1  0.72365000  0.67655000  0.06038000  1.0
  H  H37  1  0.27635000  0.32344000  0.93961000  1.0
  C  C38  1  0.71530000  0.95505000  0.36413000  1.0
  C  C39  1  0.28470000  0.04495000  0.63587000  1.0
  C  C40  1  0.67558000  0.83390000  0.30010000  1.0
  C  C41  1  0.32443000  0.16609000  0.69990000  1.0
  C  C42  1  0.78177000  0.78535000  0.23777000  1.0
  C  C43  1  0.21823000  0.21464000  0.76223000  1.0
  C  C44  1  0.94414000  0.85488000  0.24953000  1.0
  C  C45  1  0.05586000  0.14512000  0.75045000  1.0
  C  C46  1  0.06654000  0.80548000  0.19764000  1.0
  C  C47  1  0.93346000  0.19452000  0.80234000  1.0
  C  C48  1  0.22384000  0.87297000  0.21174000  1.0
  C  C49  1  0.77616000  0.12702000  0.78825000  1.0
  C  C50  1  0.26601000  0.99238000  0.27892000  1.0
  C  C51  1  0.73398000  0.00762000  0.72107000  1.0
  C  C52  1  0.14964000  0.04371000  0.32954000  1.0
  C  C53  1  0.85036000  0.95629000  0.67045000  1.0
  C  C54  1  0.98558000  0.97783000  0.31602000  1.0
  C  C55  1  0.01442000  0.02217000  0.68397000  1.0
  C  C56  1  0.86215000  0.02882000  0.36745000  1.0
  C  C57  1  0.13785000  0.97117000  0.63254000  1.0
  C  C58  1  0.89546000  0.16190000  0.42416000  1.0
  C  C59  1  0.10453000  0.83809000  0.57582000  1.0
  C  C60  1  0.68821000  0.25857000  0.52262000  1.0
  C  C61  1  0.31180000  0.74143000  0.47737000  1.0
  C  C62  1  0.53621000  0.30448000  0.47966000  1.0
  C  C63  1  0.46380000  0.69552000  0.52034000  1.0
  C  C64  1  0.61448000  0.23322000  0.32170000  1.0
  C  C65  1  0.38552000  0.76679000  0.67829000  1.0
  C  C66  1  0.17918000  0.14074000  0.06571000  1.0
  C  C67  1  0.82083000  0.85928000  0.93430000  1.0
  C  C68  1  0.07818000  0.02113000  0.99677000  1.0
  C  C69  1  0.92184000  0.97889000  0.00325000  1.0
  C  C70  1  0.98375000  0.51573000  0.44564000  1.0
  C  C71  1  0.01626000  0.48423000  0.55441000  1.0
  C  C72  1  0.05738000  0.46353000  0.34928000  1.0
  C  C73  1  0.94262000  0.53645000  0.65075000  1.0
  C  C74  1  0.40040000  0.62014000  0.07911000  1.0
  C  C75  1  0.59959000  0.37985000  0.92088000  1.0
  C  C76  1  0.28129000  0.54349000  0.10495000  1.0
  C  C77  1  0.71870000  0.45651000  0.89506000  1.0
  C  C78  1  0.54009000  0.51416000  0.20870000  1.0
  C  C79  1  0.45990000  0.48585000  0.79130000  1.0
  C  C80  1  0.73144000  0.66355000  0.15263000  1.0
  C  C81  1  0.26855000  0.33645000  0.84737000  1.0
  N  N82  1  0.73607000  0.21401000  0.42194000  1.0
  N  N83  1  0.26393000  0.78599000  0.57805000  1.0
  N  N84  1  0.49150000  0.28800000  0.35431000  1.0
  N  N85  1  0.50850000  0.71201000  0.64569000  1.0
  N  N86  1  0.56328000  0.60037000  0.14584000  1.0
  N  N87  1  0.43671000  0.39963000  0.85416000  1.0
  N  N88  1  0.37023000  0.47787000  0.18577000  1.0
  N  N89  1  0.62977000  0.52214000  0.81424000  1.0
  O  O90  1  0.33202000  0.16873000  0.06368000  1.0
  O  O91  1  0.66799000  0.83129000  0.93632000  1.0
  O  O92  1  0.10279000  0.21026000  0.12775000  1.0
  O  O93  1  0.89723000  0.78976000  0.87226000  1.0
  O  O94  1  0.17074000  0.39146000  0.37880000  1.0
  O  O95  1  0.82928000  0.60853000  0.62122000  1.0
  O  O96  1  0.00650000  0.49107000  0.24649000  1.0
  O  O97  1  0.99350000  0.50892000  0.75355000  1.0
