# generated using pymatgen
data_ErH12C11O8
_symmetry_space_group_name_H-M   'P 1'
_cell_length_a   6.70424000
_cell_length_b   9.95021000
_cell_length_c   10.47600000
_cell_angle_alpha   93.58860000
_cell_angle_beta   107.61600000
_cell_angle_gamma   108.57000000
_symmetry_Int_Tables_number   1
_chemical_formula_structural   ErH12C11O8
_chemical_formula_sum   'Er2 H24 C22 O16'
_cell_volume   621.53882514
_cell_formula_units_Z   2
loop_
 _symmetry_equiv_pos_site_id
 _symmetry_equiv_pos_as_xyz
  1  'x, y, z'
loop_
 _atom_site_type_symbol
 _atom_site_label
 _atom_site_symmetry_multiplicity
 _atom_site_fract_x
 _atom_site_fract_y
 _atom_site_fract_z
 _atom_site_occupancy
  Er  Er0  1  0.76088000  0.58507000  0.42241000  1.0
  Er  Er1  1  0.23912000  0.41492000  0.57758000  1.0
  H  H2  1  0.59373000  0.67212000  0.04561000  1.0
  H  H3  1  0.40627000  0.32788000  0.95439000  1.0
  H  H4  1  0.59426000  0.95089000  0.74680000  1.0
  H  H5  1  0.40575000  0.04911000  0.25320000  1.0
  H  H6  1  0.80208000  0.16351000  0.93171000  1.0
  H  H7  1  0.19792000  0.83649000  0.06829000  1.0
  H  H8  1  0.91782000  0.13134000  0.17325000  1.0
  H  H9  1  0.08218000  0.86865000  0.82675000  1.0
  H  H10  1  0.97031000  0.34535000  0.80880000  1.0
  H  H11  1  0.02968000  0.65465000  0.19121000  1.0
  H  H12  1  0.69989000  0.33634000  0.81173000  1.0
  H  H13  1  0.30010000  0.66366000  0.18827000  1.0
  H  H14  1  0.86535000  0.59173000  0.93277000  1.0
  H  H15  1  0.13464000  0.40828000  0.06723000  1.0
  H  H16  1  0.13219000  0.60263000  0.92624000  1.0
  H  H17  1  0.86781000  0.39738000  0.07377000  1.0
  H  H18  1  0.63551000  0.73989000  0.60962000  1.0
  H  H19  1  0.36450000  0.26011000  0.39038000  1.0
  H  H20  1  0.24170000  0.76547000  0.55706000  1.0
  H  H21  1  0.75830000  0.23453000  0.44294000  1.0
  H  H22  1  0.86110000  0.86204000  0.60755000  1.0
  H  H23  1  0.13890000  0.13796000  0.39245000  1.0
  H  H24  1  0.10789000  0.86188000  0.46276000  1.0
  H  H25  1  0.89211000  0.13812000  0.53724000  1.0
  C  C26  1  0.83494000  0.87227000  0.26720000  1.0
  C  C27  1  0.16506000  0.12773000  0.73280000  1.0
  C  C28  1  0.76165000  0.89946000  0.12457000  1.0
  C  C29  1  0.23835000  0.10055000  0.87542000  1.0
  C  C30  1  0.63958000  0.77996000  0.02066000  1.0
  C  C31  1  0.36043000  0.22003000  0.97934000  1.0
  C  C32  1  0.58034000  0.79763000  0.88459000  1.0
  C  C33  1  0.41966000  0.20237000  0.11541000  1.0
  C  C34  1  0.63907000  0.93655000  0.85272000  1.0
  C  C35  1  0.36094000  0.06345000  0.14728000  1.0
  C  C36  1  0.75739000  0.05598000  0.95670000  1.0
  C  C37  1  0.24261000  0.94402000  0.04330000  1.0
  C  C38  1  0.82130000  0.03807000  0.09216000  1.0
  C  C39  1  0.17870000  0.96193000  0.90784000  1.0
  C  C40  1  0.45983000  0.66715000  0.77761000  1.0
  C  C41  1  0.54018000  0.33285000  0.22239000  1.0
  C  C42  1  0.81409000  0.46257000  0.67548000  1.0
  C  C43  1  0.18591000  0.53743000  0.32452000  1.0
  C  C44  1  0.86070000  0.40756000  0.80816000  1.0
  C  C45  1  0.13930000  0.59245000  0.19185000  1.0
  C  C46  1  0.97509000  0.52948000  0.93332000  1.0
  C  C47  1  0.02490000  0.47053000  0.06669000  1.0
  O  O48  1  0.72363000  0.75077000  0.28884000  1.0
  O  O49  1  0.27637000  0.24923000  0.71116000  1.0
  O  O50  1  0.00653000  0.96459000  0.35713000  1.0
  O  O51  1  0.99347000  0.03541000  0.64287000  1.0
  O  O52  1  0.41057000  0.54273000  0.80829000  1.0
  O  O53  1  0.58944000  0.45727000  0.19171000  1.0
  O  O54  1  0.40793000  0.68017000  0.65007000  1.0
  O  O55  1  0.59207000  0.31983000  0.34993000  1.0
  O  O56  1  0.62129000  0.46601000  0.61210000  1.0
  O  O57  1  0.37870000  0.53398000  0.38790000  1.0
  O  O58  1  0.96873000  0.51001000  0.62372000  1.0
  O  O59  1  0.03127000  0.48999000  0.37628000  1.0
  O  O60  1  0.77218000  0.75638000  0.58480000  1.0
  O  O61  1  0.22782000  0.24362000  0.41519000  1.0
  O  O62  1  0.11024000  0.76520000  0.48181000  1.0
  O  O63  1  0.88976000  0.23480000  0.51819000  1.0
