# generated using pymatgen
data_UCuH8C14(NO5)2
_symmetry_space_group_name_H-M   'P 1'
_cell_length_a   8.30919000
_cell_length_b   11.92090000
_cell_length_c   17.38430000
_cell_angle_alpha   89.99980000
_cell_angle_beta   90.00000000
_cell_angle_gamma   107.06900000
_symmetry_Int_Tables_number   1
_chemical_formula_structural   UCuH8C14(NO5)2
_chemical_formula_sum   'U4 Cu4 H32 C56 N8 O40'
_cell_volume   1646.11818737
_cell_formula_units_Z   4
loop_
 _symmetry_equiv_pos_site_id
 _symmetry_equiv_pos_as_xyz
  1  'x, y, z'
loop_
 _atom_site_type_symbol
 _atom_site_label
 _atom_site_symmetry_multiplicity
 _atom_site_fract_x
 _atom_site_fract_y
 _atom_site_fract_z
 _atom_site_occupancy
  U  U0  1  0.44941000  0.57625000  0.82947000  1.0
  U  U1  1  0.05060000  0.92376000  0.32947000  1.0
  U  U2  1  0.55059000  0.42376000  0.17053000  1.0
  U  U3  1  0.94941000  0.07625000  0.67053000  1.0
  Cu  Cu4  1  0.34077000  0.78503000  0.53450000  1.0
  Cu  Cu5  1  0.15922000  0.71497000  0.03450000  1.0
  Cu  Cu6  1  0.65923000  0.21497000  0.46550000  1.0
  Cu  Cu7  1  0.84077000  0.28503000  0.96550000  1.0
  H  H8  1  0.12735000  0.83698000  0.66397000  1.0
  H  H9  1  0.37265000  0.66301000  0.16397000  1.0
  H  H10  1  0.87265000  0.16302000  0.33603000  1.0
  H  H11  1  0.62735000  0.33698000  0.83603000  1.0
  H  H12  1  0.93887000  0.70886000  0.76359000  1.0
  H  H13  1  0.56113000  0.79113000  0.26359000  1.0
  H  H14  1  0.06113000  0.29114000  0.23641000  1.0
  H  H15  1  0.43886000  0.20886000  0.73641000  1.0
  H  H16  1  0.86786000  0.49193000  0.75053000  1.0
  H  H17  1  0.63213000  0.00806000  0.25054000  1.0
  H  H18  1  0.13214000  0.50807000  0.24946000  1.0
  H  H19  1  0.36786000  0.99193000  0.74947000  1.0
  H  H20  1  0.98661000  0.40734000  0.63941000  1.0
  H  H21  1  0.51339000  0.09266000  0.13942000  1.0
  H  H22  1  0.01339000  0.59266000  0.36059000  1.0
  H  H23  1  0.48661000  0.90734000  0.86059000  1.0
  H  H24  1  0.11321000  0.35080000  0.54526000  1.0
  H  H25  1  0.38679000  0.14919000  0.04526000  1.0
  H  H26  1  0.88679000  0.64920000  0.45474000  1.0
  H  H27  1  0.61321000  0.85080000  0.95474000  1.0
  H  H28  1  0.27189000  0.30758000  0.43517000  1.0
  H  H29  1  0.22810000  0.19241000  0.93517000  1.0
  H  H30  1  0.72810000  0.69241000  0.56483000  1.0
  H  H31  1  0.77189000  0.80758000  0.06483000  1.0
  H  H32  1  0.46637000  0.47615000  0.36068000  1.0
  H  H33  1  0.03362000  0.02384000  0.86068000  1.0
  H  H34  1  0.53362000  0.52384000  0.63932000  1.0
  H  H35  1  0.96638000  0.97616000  0.13932000  1.0
  H  H36  1  0.49446000  0.68204000  0.40462000  1.0
  H  H37  1  0.00554000  0.81795000  0.90462000  1.0
  H  H38  1  0.50554000  0.31795000  0.59538000  1.0
  H  H39  1  0.99447000  0.18204000  0.09538000  1.0
  C  C40  1  0.54416000  0.77230000  0.69199000  1.0
  C  C41  1  0.95584000  0.72771000  0.19199000  1.0
  C  C42  1  0.45584000  0.22770000  0.30801000  1.0
  C  C43  1  0.04417000  0.27230000  0.80801000  1.0
  C  C44  1  0.66946000  0.82768000  0.75746000  1.0
  C  C45  1  0.83055000  0.67232000  0.25746000  1.0
  C  C46  1  0.33054000  0.17232000  0.24254000  1.0
  C  C47  1  0.16947000  0.32769000  0.74254000  1.0
  C  C48  1  0.54892000  0.56370000  0.00985000  1.0
  C  C49  1  0.95107000  0.93631000  0.50985000  1.0
  C  C50  1  0.45109000  0.43631000  0.99015000  1.0
  C  C51  1  0.04893000  0.06370000  0.49015000  1.0
  C  C52  1  0.43957000  0.02148000  0.52545000  1.0
  C  C53  1  0.06043000  0.47852000  0.02545000  1.0
  C  C54  1  0.56044000  0.97852000  0.47456000  1.0
  C  C55  1  0.93956000  0.52148000  0.97456000  1.0
  C  C56  1  0.09446000  0.74146000  0.66184000  1.0
  C  C57  1  0.40554000  0.75854000  0.16184000  1.0
  C  C58  1  0.90554000  0.25854000  0.33816000  1.0
  C  C59  1  0.59446000  0.24146000  0.83816000  1.0
  C  C60  1  0.98965000  0.67009000  0.71621000  1.0
  C  C61  1  0.51035000  0.82991000  0.21621000  1.0
  C  C62  1  0.01035000  0.32991000  0.28379000  1.0
  C  C63  1  0.48964000  0.17009000  0.78379000  1.0
  C  C64  1  0.95072000  0.54858000  0.70871000  1.0
  C  C65  1  0.54927000  0.95142000  0.20871000  1.0
  C  C66  1  0.04928000  0.45142000  0.29129000  1.0
  C  C67  1  0.45072000  0.04858000  0.79129000  1.0
  C  C68  1  0.01706000  0.50176000  0.64724000  1.0
  C  C69  1  0.48294000  0.99823000  0.14724000  1.0
  C  C70  1  0.98294000  0.49824000  0.35276000  1.0
  C  C71  1  0.51705000  0.00176000  0.85276000  1.0
  C  C72  1  0.12594000  0.57763000  0.59610000  1.0
  C  C73  1  0.37406000  0.92237000  0.09611000  1.0
  C  C74  1  0.87405000  0.42237000  0.40390000  1.0
  C  C75  1  0.62594000  0.07763000  0.90390000  1.0
  C  C76  1  0.21392000  0.53953000  0.53223000  1.0
  C  C77  1  0.28607000  0.96046000  0.03223000  1.0
  C  C78  1  0.78607000  0.46046000  0.46777000  1.0
  C  C79  1  0.71393000  0.03953000  0.96777000  1.0
  C  C80  1  0.19487000  0.42286000  0.51243000  1.0
  C  C81  1  0.30513000  0.07713000  0.01243000  1.0
  C  C82  1  0.80513000  0.57713000  0.48757000  1.0
  C  C83  1  0.69487000  0.92287000  0.98757000  1.0
  C  C84  1  0.28588000  0.39873000  0.45040000  1.0
  C  C85  1  0.21411000  0.10127000  0.95040000  1.0
  C  C86  1  0.71412000  0.60127000  0.54960000  1.0
  C  C87  1  0.78588000  0.89873000  0.04960000  1.0
  C  C88  1  0.39321000  0.49138000  0.40935000  1.0
  C  C89  1  0.10677000  0.00861000  0.90935000  1.0
  C  C90  1  0.60678000  0.50861000  0.59065000  1.0
  C  C91  1  0.89322000  0.99138000  0.09065000  1.0
  C  C92  1  0.40891000  0.60588000  0.43269000  1.0
  C  C93  1  0.09109000  0.89412000  0.93269000  1.0
  C  C94  1  0.59109000  0.39412000  0.56731000  1.0
  C  C95  1  0.90891000  0.10588000  0.06731000  1.0
  N  N96  1  0.16097000  0.69557000  0.60380000  1.0
  N  N97  1  0.33903000  0.80443000  0.10380000  1.0
  N  N98  1  0.83903000  0.30443000  0.39620000  1.0
  N  N99  1  0.66097000  0.19557000  0.89620000  1.0
  N  N100  1  0.32115000  0.62860000  0.49239000  1.0
  N  N101  1  0.17885000  0.87139000  0.99240000  1.0
  N  N102  1  0.67885000  0.37139000  0.50761000  1.0
  N  N103  1  0.82115000  0.12860000  0.00761000  1.0
  O  O104  1  0.27757000  0.63159000  0.85809000  1.0
  O  O105  1  0.22243000  0.86842000  0.35809000  1.0
  O  O106  1  0.72243000  0.36841000  0.14191000  1.0
  O  O107  1  0.77759000  0.13160000  0.64191000  1.0
  O  O108  1  0.62531000  0.52516000  0.80047000  1.0
  O  O109  1  0.87469000  0.97484000  0.30048000  1.0
  O  O110  1  0.37469000  0.47485000  0.19952000  1.0
  O  O111  1  0.12531000  0.02515000  0.69952000  1.0
  O  O112  1  0.45225000  0.66759000  0.70845000  1.0
  O  O113  1  0.04776000  0.83241000  0.20845000  1.0
  O  O114  1  0.54776000  0.33242000  0.29155000  1.0
  O  O115  1  0.95226000  0.16759000  0.79155000  1.0
  O  O116  1  0.54000000  0.82917000  0.63271000  1.0
  O  O117  1  0.95999000  0.67083000  0.13271000  1.0
  O  O118  1  0.45999000  0.17083000  0.36728000  1.0
  O  O119  1  0.04001000  0.32918000  0.86728000  1.0
  O  O120  1  0.64520000  0.77118000  0.82044000  1.0
  O  O121  1  0.85481000  0.72883000  0.32044000  1.0
  O  O122  1  0.35481000  0.22883000  0.17956000  1.0
  O  O123  1  0.14520000  0.27118000  0.67956000  1.0
  O  O124  1  0.78374000  0.92244000  0.74660000  1.0
  O  O125  1  0.71626000  0.57757000  0.24660000  1.0
  O  O126  1  0.21625000  0.07757000  0.25339000  1.0
  O  O127  1  0.28375000  0.42244000  0.75339000  1.0
  O  O128  1  0.56393000  0.63850000  0.95676000  1.0
  O  O129  1  0.93607000  0.86151000  0.45676000  1.0
  O  O130  1  0.43607000  0.36151000  0.04324000  1.0
  O  O131  1  0.06394000  0.13849000  0.54324000  1.0
  O  O132  1  0.60612000  0.58240000  0.07768000  1.0
  O  O133  1  0.89387000  0.91761000  0.57768000  1.0
  O  O134  1  0.39389000  0.41761000  0.92232000  1.0
  O  O135  1  0.10613000  0.08240000  0.42232000  1.0
  O  O136  1  0.31703000  0.94419000  0.55543000  1.0
  O  O137  1  0.18296000  0.55581000  0.05544000  1.0
  O  O138  1  0.68297000  0.05581000  0.44456000  1.0
  O  O139  1  0.81703000  0.44419000  0.94456000  1.0
  O  O140  1  0.46974000  0.13113000  0.53355000  1.0
  O  O141  1  0.03026000  0.36887000  0.03355000  1.0
  O  O142  1  0.53027000  0.86886000  0.46645000  1.0
  O  O143  1  0.96973000  0.63113000  0.96645000  1.0
