# generated using pymatgen
data_ZnH10C22NO8
_symmetry_space_group_name_H-M   'P 1'
_cell_length_a   14.29400000
_cell_length_b   15.33190000
_cell_length_c   16.09960000
_cell_angle_alpha   87.45250000
_cell_angle_beta   89.97990000
_cell_angle_gamma   89.98600000
_symmetry_Int_Tables_number   1
_chemical_formula_structural   ZnH10C22NO8
_chemical_formula_sum   'Zn2 H20 C44 N2 O16'
_cell_volume   3524.80734887
_cell_formula_units_Z   2
loop_
 _symmetry_equiv_pos_site_id
 _symmetry_equiv_pos_as_xyz
  1  'x, y, z'
loop_
 _atom_site_type_symbol
 _atom_site_label
 _atom_site_symmetry_multiplicity
 _atom_site_fract_x
 _atom_site_fract_y
 _atom_site_fract_z
 _atom_site_occupancy
  Zn  Zn0  1  0.60225000  0.49970000  0.49981000  1.0
  Zn  Zn1  1  0.39720000  0.50013000  0.49970000  1.0
  H  H2  1  0.65161000  0.47240000  0.92373000  1.0
  H  H3  1  0.92961000  0.57464000  0.38222000  1.0
  H  H4  1  0.06971000  0.62119000  0.42460000  1.0
  H  H5  1  0.92948000  0.42557000  0.61843000  1.0
  H  H6  1  0.46047000  0.30899000  0.34672000  1.0
  H  H7  1  0.46137000  0.69054000  0.65332000  1.0
  H  H8  1  0.52693000  0.70716000  0.34288000  1.0
  H  H9  1  0.52611000  0.29290000  0.65725000  1.0
  H  H10  1  0.32501000  0.37776000  0.60633000  1.0
  H  H11  1  0.67491000  0.60590000  0.37800000  1.0
  H  H12  1  0.32482000  0.62231000  0.39345000  1.0
  H  H13  1  0.35535000  0.52879000  0.07579000  1.0
  H  H14  1  0.67499000  0.39317000  0.62181000  1.0
  H  H15  1  0.65170000  0.47496000  0.07858000  1.0
  H  H16  1  0.35511000  0.52573000  0.92105000  1.0
  H  H17  1  0.44929000  0.06742000  0.37326000  1.0
  H  H18  1  0.44945000  0.93216000  0.62719000  1.0
  H  H19  1  0.54868000  0.94460000  0.37276000  1.0
  H  H20  1  0.54855000  0.05549000  0.62763000  1.0
  H  H21  1  0.06995000  0.37883000  0.57568000  1.0
  C  C22  1  0.49646000  0.33049000  0.50153000  1.0
  C  C23  1  0.79927000  0.54135000  0.43821000  1.0
  C  C24  1  0.20013000  0.56335000  0.45792000  1.0
  C  C25  1  0.79918000  0.45856000  0.56215000  1.0
  C  C26  1  0.05139000  0.50005000  0.50022000  1.0
  C  C27  1  0.94806000  0.50004000  0.50030000  1.0
  C  C28  1  0.50280000  0.49898000  0.66019000  1.0
  C  C29  1  0.50309000  0.50127000  0.33939000  1.0
  C  C30  1  0.58726000  0.48602000  0.04357000  1.0
  C  C31  1  0.41957000  0.51466000  0.95604000  1.0
  C  C32  1  0.58726000  0.48473000  0.95756000  1.0
  C  C33  1  0.49667000  0.66937000  0.49836000  1.0
  C  C34  1  0.41972000  0.51643000  0.04201000  1.0
  C  C35  1  0.50354000  0.50196000  0.08694000  1.0
  C  C36  1  0.50337000  0.49896000  0.91268000  1.0
  C  C37  1  0.50353000  0.50270000  0.17463000  1.0
  C  C38  1  0.50321000  0.49815000  0.82497000  1.0
  C  C39  1  0.50289000  0.49817000  0.74928000  1.0
  C  C40  1  0.50337000  0.50256000  0.25033000  1.0
  C  C41  1  0.47158000  0.09828000  0.42976000  1.0
  C  C42  1  0.47183000  0.90142000  0.57065000  1.0
  C  C43  1  0.52591000  0.90839000  0.42905000  1.0
  C  C44  1  0.49916000  0.04812000  0.50035000  1.0
  C  C45  1  0.52567000  0.09159000  0.57132000  1.0
  C  C46  1  0.47006000  0.18956000  0.42930000  1.0
  C  C47  1  0.47052000  0.81016000  0.57095000  1.0
  C  C48  1  0.52507000  0.81724000  0.42776000  1.0
  C  C49  1  0.52465000  0.18276000  0.57244000  1.0
  C  C50  1  0.49684000  0.23256000  0.50105000  1.0
  C  C51  1  0.49735000  0.76731000  0.49909000  1.0
  C  C52  1  0.44250000  0.23833000  0.35098000  1.0
  C  C53  1  0.44299000  0.76113000  0.64915000  1.0
  C  C54  1  0.55002000  0.77608000  0.34865000  1.0
  C  C55  1  0.49929000  0.95172000  0.50009000  1.0
  C  C56  1  0.54969000  0.22413000  0.65140000  1.0
  C  C57  1  0.25061000  0.36590000  0.59238000  1.0
  C  C58  1  0.74958000  0.59110000  0.36832000  1.0
  C  C59  1  0.25031000  0.63401000  0.40723000  1.0
  C  C60  1  0.74933000  0.40893000  0.63203000  1.0
  C  C61  1  0.10271000  0.43415000  0.54218000  1.0
  C  C62  1  0.89683000  0.54159000  0.43606000  1.0
  C  C63  1  0.10257000  0.56590000  0.45805000  1.0
  C  C64  1  0.89675000  0.45848000  0.56449000  1.0
  C  C65  1  0.20027000  0.43667000  0.54198000  1.0
  N  N66  1  0.24937000  0.50002000  0.49989000  1.0
  N  N67  1  0.75001000  0.49984000  0.50009000  1.0
  O  O68  1  0.57341000  0.36711000  0.51888000  1.0
  O  O69  1  0.40368000  0.79528000  0.70690000  1.0
  O  O70  1  0.59151000  0.81460000  0.29161000  1.0
  O  O71  1  0.59177000  0.18593000  0.70827000  1.0
  O  O72  1  0.20910000  0.30048000  0.61803000  1.0
  O  O73  1  0.79185000  0.61495000  0.30546000  1.0
  O  O74  1  0.20861000  0.69917000  0.38116000  1.0
  O  O75  1  0.79112000  0.38616000  0.69544000  1.0
  O  O76  1  0.41912000  0.63169000  0.51490000  1.0
  O  O77  1  0.57352000  0.63247000  0.48108000  1.0
  O  O78  1  0.41915000  0.36851000  0.48473000  1.0
  O  O79  1  0.58003000  0.51758000  0.62345000  1.0
  O  O80  1  0.42599000  0.51973000  0.37489000  1.0
  O  O81  1  0.58007000  0.48185000  0.37626000  1.0
  O  O82  1  0.42565000  0.48094000  0.62473000  1.0
  O  O83  1  0.40358000  0.20385000  0.29325000  1.0
