# generated using pymatgen
data_Zn2H22C19(NO5)2
_symmetry_space_group_name_H-M   'P 1'
_cell_length_a   7.28550000
_cell_length_b   7.28552000
_cell_length_c   26.48050000
_cell_angle_alpha   90.00070000
_cell_angle_beta   90.00000000
_cell_angle_gamma   90.67710000
_symmetry_Int_Tables_number   1
_chemical_formula_structural   Zn2H22C19(NO5)2
_chemical_formula_sum   'Zn4 H44 C38 N4 O20'
_cell_volume   1405.45120331
_cell_formula_units_Z   2
loop_
 _symmetry_equiv_pos_site_id
 _symmetry_equiv_pos_as_xyz
  1  'x, y, z'
loop_
 _atom_site_type_symbol
 _atom_site_label
 _atom_site_symmetry_multiplicity
 _atom_site_fract_x
 _atom_site_fract_y
 _atom_site_fract_z
 _atom_site_occupancy
  Zn  Zn0  1  0.31342000  0.96431000  0.72007000  1.0
  Zn  Zn1  1  0.96431000  0.31342000  0.27993000  1.0
  Zn  Zn2  1  0.46431000  0.81342000  0.22007000  1.0
  Zn  Zn3  1  0.81342000  0.46431000  0.77993000  1.0
  H  H4  1  0.20265000  0.23113000  0.77026000  1.0
  H  H5  1  0.23114000  0.20265000  0.22975000  1.0
  H  H6  1  0.73114000  0.70266000  0.27025000  1.0
  H  H7  1  0.70265000  0.73113000  0.72975000  1.0
  H  H8  1  0.42439000  0.23062000  0.77030000  1.0
  H  H9  1  0.23063000  0.42438000  0.22970000  1.0
  H  H10  1  0.73063000  0.92439000  0.27030000  1.0
  H  H11  1  0.92439000  0.73062000  0.72970000  1.0
  H  H12  1  0.31461000  0.69219000  0.86689000  1.0
  H  H13  1  0.69219000  0.31461000  0.13311000  1.0
  H  H14  1  0.19219000  0.81461000  0.36689000  1.0
  H  H15  1  0.81461000  0.19218000  0.63311000  1.0
  H  H16  1  0.31580000  0.91579000  0.83686000  1.0
  H  H17  1  0.91579000  0.31580000  0.16314000  1.0
  H  H18  1  0.41579000  0.81580000  0.33686000  1.0
  H  H19  1  0.81580000  0.41578000  0.66314000  1.0
  H  H20  1  0.31587000  0.31608000  0.63988000  1.0
  H  H21  1  0.31609000  0.31588000  0.36012000  1.0
  H  H22  1  0.81609000  0.81587000  0.13988000  1.0
  H  H23  1  0.81587000  0.81609000  0.86012000  1.0
  H  H24  1  0.34827000  0.55021000  0.70750000  1.0
  H  H25  1  0.55021000  0.34828000  0.29250000  1.0
  H  H26  1  0.05022000  0.84828000  0.20750000  1.0
  H  H27  1  0.84828000  0.05022000  0.79250000  1.0
  H  H28  1  0.26158000  0.97587000  0.60763000  1.0
  H  H29  1  0.97587000  0.26158000  0.39237000  1.0
  H  H30  1  0.47588000  0.76158000  0.10762000  1.0
  H  H31  1  0.76159000  0.47588000  0.89238000  1.0
  H  H32  1  0.22152000  0.75977000  0.53505000  1.0
  H  H33  1  0.75976000  0.22152000  0.46495000  1.0
  H  H34  1  0.25978000  0.72151000  0.03505000  1.0
  H  H35  1  0.72153000  0.25978000  0.96496000  1.0
  H  H36  1  0.10784000  0.39824000  0.52084000  1.0
  H  H37  1  0.39824000  0.10785000  0.47916000  1.0
  H  H38  1  0.89825000  0.60784000  0.02083000  1.0
  H  H39  1  0.60784000  0.89825000  0.97916000  1.0
  H  H40  1  0.23965000  0.24047000  0.55586000  1.0
  H  H41  1  0.24047000  0.23966000  0.44414000  1.0
  H  H42  1  0.74048000  0.73965000  0.05586000  1.0
  H  H43  1  0.73965000  0.74048000  0.94414000  1.0
  H  H44  1  0.38887000  0.52894000  0.48113000  1.0
  H  H45  1  0.52893000  0.38888000  0.51887000  1.0
  H  H46  1  0.02893000  0.88888000  0.98113000  1.0
  H  H47  1  0.88887000  0.02893000  0.01888000  1.0
  C  C48  1  0.13931000  0.71953000  0.80175000  1.0
  C  C49  1  0.71954000  0.13931000  0.19825000  1.0
  C  C50  1  0.21954000  0.63932000  0.30175000  1.0
  C  C51  1  0.63931000  0.21953000  0.69825000  1.0
  C  C52  1  0.31413000  0.76608000  0.83100000  1.0
  C  C53  1  0.76608000  0.31412000  0.16900000  1.0
  C  C54  1  0.26608000  0.81411000  0.33100000  1.0
  C  C55  1  0.81410000  0.26607000  0.66900000  1.0
  C  C56  1  0.48577000  0.71974000  0.80083000  1.0
  C  C57  1  0.71975000  0.48577000  0.19917000  1.0
  C  C58  1  0.21975000  0.98577000  0.30083000  1.0
  C  C59  1  0.98577000  0.21974000  0.69917000  1.0
  C  C60  1  0.30229000  0.46092000  0.63067000  1.0
  C  C61  1  0.46092000  0.30231000  0.36933000  1.0
  C  C62  1  0.96093000  0.80230000  0.13067000  1.0
  C  C63  1  0.80230000  0.96093000  0.86933000  1.0
  C  C64  1  0.32078000  0.59117000  0.66876000  1.0
  C  C65  1  0.59117000  0.32079000  0.33124000  1.0
  C  C66  1  0.09118000  0.82078000  0.16876000  1.0
  C  C67  1  0.82078000  0.09118000  0.83125000  1.0
  C  C68  1  0.27278000  0.82818000  0.61268000  1.0
  C  C69  1  0.82818000  0.27278000  0.38732000  1.0
  C  C70  1  0.32819000  0.77278000  0.11268000  1.0
  C  C71  1  0.77279000  0.32819000  0.88732000  1.0
  C  C72  1  0.25054000  0.70661000  0.57270000  1.0
  C  C73  1  0.70662000  0.25055000  0.42730000  1.0
  C  C74  1  0.20663000  0.75054000  0.07270000  1.0
  C  C75  1  0.75054000  0.20663000  0.92730000  1.0
  C  C76  1  0.26382000  0.51739000  0.58142000  1.0
  C  C77  1  0.51739000  0.26383000  0.41858000  1.0
  C  C78  1  0.01740000  0.76382000  0.08142000  1.0
  C  C79  1  0.76382000  0.01740000  0.91858000  1.0
  C  C80  1  0.24153000  0.37955000  0.53960000  1.0
  C  C81  1  0.37955000  0.24155000  0.46040000  1.0
  C  C82  1  0.87956000  0.74154000  0.03960000  1.0
  C  C83  1  0.74154000  0.87956000  0.96040000  1.0
  C  C84  1  0.39448000  0.39449000  0.50000000  1.0
  C  C85  1  0.89449000  0.89449000  1.00000000  1.0
  N  N86  1  0.30570000  0.77194000  0.66015000  1.0
  N  N87  1  0.77195000  0.30570000  0.33985000  1.0
  N  N88  1  0.27195000  0.80570000  0.16015000  1.0
  N  N89  1  0.80571000  0.27195000  0.83985000  1.0
  O  O90  1  0.11362000  0.80123000  0.75949000  1.0
  O  O91  1  0.80123000  0.11362000  0.24050000  1.0
  O  O92  1  0.30123000  0.61362000  0.25949000  1.0
  O  O93  1  0.61361000  0.30122000  0.74051000  1.0
  O  O94  1  0.02843000  0.60369000  0.82073000  1.0
  O  O95  1  0.60369000  0.02844000  0.17927000  1.0
  O  O96  1  0.10370000  0.52843000  0.32073000  1.0
  O  O97  1  0.52842000  0.10369000  0.67927000  1.0
  O  O98  1  0.51338000  0.80435000  0.75898000  1.0
  O  O99  1  0.80435000  0.51338000  0.24102000  1.0
  O  O100  1  0.30436000  0.01338000  0.25897000  1.0
  O  O101  1  0.01338000  0.30435000  0.74103000  1.0
  O  O102  1  0.59233000  0.60052000  0.81877000  1.0
  O  O103  1  0.60052000  0.59233000  0.18123000  1.0
  O  O104  1  0.10051000  0.09232000  0.31877000  1.0
  O  O105  1  0.09232000  0.10050000  0.68124000  1.0
  O  O106  1  0.31244000  0.15754000  0.78000000  1.0
  O  O107  1  0.15755000  0.31244000  0.22001000  1.0
  O  O108  1  0.65755000  0.81245000  0.27999000  1.0
  O  O109  1  0.81245000  0.65754000  0.72001000  1.0
