# generated using pymatgen
data_Cu3H28C24(N3O10)2
_symmetry_space_group_name_H-M   'P 1'
_cell_length_a   8.51474000
_cell_length_b   11.17000000
_cell_length_c   13.19190000
_cell_angle_alpha   64.96900000
_cell_angle_beta   86.76850000
_cell_angle_gamma   89.98560000
_symmetry_Int_Tables_number   1
_chemical_formula_structural   Cu3H28C24(N3O10)2
_chemical_formula_sum   'Cu3 H28 C24 N6 O20'
_cell_volume   1134.64247914
_cell_formula_units_Z   1
loop_
 _symmetry_equiv_pos_site_id
 _symmetry_equiv_pos_as_xyz
  1  'x, y, z'
loop_
 _atom_site_type_symbol
 _atom_site_label
 _atom_site_symmetry_multiplicity
 _atom_site_fract_x
 _atom_site_fract_y
 _atom_site_fract_z
 _atom_site_occupancy
  Cu  Cu0  1  0.01738000  0.00544000  0.98868000  1.0
  Cu  Cu1  1  0.38237000  0.97112000  0.05811000  1.0
  Cu  Cu2  1  0.63466000  0.03322000  0.93373000  1.0
  H  H3  1  0.02508000  0.69605000  0.44779000  1.0
  H  H4  1  0.98004000  0.14869000  0.54294000  1.0
  H  H5  1  0.97968000  0.30864000  0.54322000  1.0
  H  H6  1  0.02505000  0.85606000  0.44783000  1.0
  H  H7  1  0.21228000  0.89689000  0.77345000  1.0
  H  H8  1  0.78814000  0.66883000  0.23555000  1.0
  H  H9  1  0.78817000  0.09608000  0.23563000  1.0
  H  H10  1  0.21250000  0.32907000  0.77288000  1.0
  H  H11  1  0.30765000  0.74555000  0.84585000  1.0
  H  H12  1  0.70370000  0.58919000  0.15880000  1.0
  H  H13  1  0.70371000  0.25240000  0.15901000  1.0
  H  H14  1  0.30662000  0.40832000  0.84550000  1.0
  H  H15  1  0.55268000  0.85116000  0.70763000  1.0
  H  H16  1  0.44654000  0.56137000  0.28633000  1.0
  H  H17  1  0.44645000  0.15251000  0.28641000  1.0
  H  H18  1  0.55256000  0.44114000  0.70772000  1.0
  H  H19  1  0.42294000  0.97520000  0.62413000  1.0
  H  H20  1  0.56820000  0.59937000  0.37537000  1.0
  H  H21  1  0.56823000  0.02557000  0.37539000  1.0
  H  H22  1  0.42341000  0.40079000  0.62387000  1.0
  H  H23  1  0.05701000  0.18526000  0.04970000  1.0
  H  H24  1  0.87693000  0.17122000  0.02136000  1.0
  H  H25  1  0.87658000  0.80739000  0.02162000  1.0
  H  H26  1  0.05638000  0.76452000  0.05042000  1.0
  H  H27  1  0.25553000  0.76937000  0.30419000  1.0
  H  H28  1  0.75222000  0.07688000  0.68850000  1.0
  H  H29  1  0.75199000  0.23411000  0.68878000  1.0
  H  H30  1  0.25508000  0.92647000  0.30403000  1.0
  C  C31  1  0.06416000  0.88774000  0.22349000  1.0
  C  C32  1  0.94481000  0.11658000  0.76642000  1.0
  C  C33  1  0.17817000  0.84179000  0.31620000  1.0
  C  C34  1  0.82873000  0.16201000  0.67574000  1.0
  C  C35  1  0.09790000  0.78313000  0.43364000  1.0
  C  C36  1  0.90733000  0.22114000  0.55795000  1.0
  C  C37  1  0.40106000  0.90700000  0.86771000  1.0
  C  C38  1  0.60786000  0.77376000  0.13134000  1.0
  C  C39  1  0.60806000  0.09540000  0.13127000  1.0
  C  C40  1  0.40120000  0.22530000  0.86754000  1.0
  C  C41  1  0.32793000  0.85199000  0.79376000  1.0
  C  C42  1  0.67658000  0.64494000  0.20908000  1.0
  C  C43  1  0.67658000  0.14640000  0.20915000  1.0
  C  C44  1  0.32777000  0.35402000  0.79343000  1.0
  C  C45  1  0.43001000  0.87369000  0.68801000  1.0
  C  C46  1  0.56686000  0.56228000  0.31083000  1.0
  C  C47  1  0.56678000  0.12718000  0.31094000  1.0
  C  C48  1  0.42999000  0.43829000  0.68788000  1.0
  C  C49  1  0.42633000  0.65622000  0.68749000  1.0
  C  C50  1  0.56547000  0.34367000  0.31303000  1.0
  C  C51  1  0.27138000  0.83371000  0.55375000  1.0
  C  C52  1  0.72941000  0.38993000  0.44135000  1.0
  C  C53  1  0.72926000  0.16896000  0.44147000  1.0
  C  C54  1  0.27137000  0.61250000  0.55371000  1.0
  N  N55  1  0.21583000  0.74051000  0.51894000  1.0
  N  N56  1  0.78650000  0.26274000  0.47480000  1.0
  N  N57  1  0.37640000  0.78609000  0.63878000  1.0
  N  N58  1  0.61748000  0.42497000  0.36085000  1.0
  N  N59  1  0.61729000  0.21446000  0.36099000  1.0
  N  N60  1  0.37633000  0.57509000  0.63877000  1.0
  O  O61  1  0.31707000  0.89632000  0.95448000  1.0
  O  O62  1  0.69434000  0.84738000  0.04415000  1.0
  O  O63  1  0.69441000  0.10933000  0.04390000  1.0
  O  O64  1  0.31746000  0.14953000  0.95455000  1.0
  O  O65  1  0.53946000  0.95756000  0.83951000  1.0
  O  O66  1  0.47046000  0.80008000  0.15624000  1.0
  O  O67  1  0.47085000  0.04383000  0.15627000  1.0
  O  O68  1  0.53952000  0.20286000  0.83920000  1.0
  O  O69  1  0.13627000  0.93898000  0.12210000  1.0
  O  O70  1  0.87603000  0.06539000  0.86872000  1.0
  O  O71  1  0.91934000  0.87843000  0.24059000  1.0
  O  O72  1  0.08926000  0.12570000  0.74809000  1.0
  O  O73  1  0.99054000  0.18446000  0.99224000  1.0
  O  O74  1  0.99031000  0.82277000  0.99265000  1.0
  O  O75  1  0.50996000  0.61612000  0.76767000  1.0
  O  O76  1  0.47964000  0.38316000  0.23399000  1.0
  O  O77  1  0.22999000  0.94905000  0.51297000  1.0
  O  O78  1  0.77533000  0.46676000  0.47846000  1.0
  O  O79  1  0.77507000  0.05499000  0.47865000  1.0
  O  O80  1  0.23006000  0.53796000  0.51288000  1.0
