# generated using pymatgen
data_MnH26C40N6(OF2)2
_symmetry_space_group_name_H-M   'P 1'
_cell_length_a   7.59080000
_cell_length_b   10.61160000
_cell_length_c   11.07740000
_cell_angle_alpha   101.21400000
_cell_angle_beta   109.61600000
_cell_angle_gamma   90.17390000
_symmetry_Int_Tables_number   1
_chemical_formula_structural   MnH26C40N6(OF2)2
_chemical_formula_sum   'Mn1 H26 C40 N6 O2 F4'
_cell_volume   822.20101643
_cell_formula_units_Z   1
loop_
 _symmetry_equiv_pos_site_id
 _symmetry_equiv_pos_as_xyz
  1  'x, y, z'
loop_
 _atom_site_type_symbol
 _atom_site_label
 _atom_site_symmetry_multiplicity
 _atom_site_fract_x
 _atom_site_fract_y
 _atom_site_fract_z
 _atom_site_occupancy
  Mn  Mn0  1  0.00000000  0.00000000  0.00000000  1.0
  H  H1  1  0.23893000  0.11371000  0.34800000  1.0
  H  H2  1  0.76107000  0.88629000  0.65201000  1.0
  H  H3  1  0.28379000  0.27386000  0.32959000  1.0
  H  H4  1  0.71621000  0.72614000  0.67041000  1.0
  H  H5  1  0.35917000  0.13948000  0.24044000  1.0
  H  H6  1  0.64083000  0.86052000  0.75956000  1.0
  H  H7  1  0.98016000  0.21165000  0.20354000  1.0
  H  H8  1  0.01984000  0.78834000  0.79645000  1.0
  H  H9  1  0.99909000  0.41909000  0.14208000  1.0
  H  H10  1  0.00092000  0.58091000  0.85792000  1.0
  H  H11  1  0.66790000  0.52558000  0.52569000  1.0
  H  H12  1  0.33210000  0.47442000  0.47431000  1.0
  H  H13  1  0.60172000  0.33260000  0.60545000  1.0
  H  H14  1  0.39828000  0.66740000  0.39455000  1.0
  H  H15  1  0.88847000  0.80254000  0.30228000  1.0
  H  H16  1  0.11154000  0.19746000  0.69772000  1.0
  H  H17  1  0.01079000  0.65577000  0.15174000  1.0
  H  H18  1  0.98921000  0.34423000  0.84826000  1.0
  H  H19  1  0.74940000  0.71575000  0.44651000  1.0
  H  H20  1  0.25060000  0.28425000  0.55349000  1.0
  H  H21  1  0.85078000  0.05750000  0.28723000  1.0
  H  H22  1  0.14922000  0.94250000  0.71278000  1.0
  H  H23  1  0.61993000  0.09859000  0.59968000  1.0
  H  H24  1  0.38007000  0.90141000  0.40032000  1.0
  H  H25  1  0.74120000  0.96113000  0.43895000  1.0
  H  H26  1  0.25880000  0.03887000  0.56105000  1.0
  C  C27  1  0.49816000  0.36073000  0.97581000  1.0
  C  C28  1  0.50184000  0.63927000  0.02419000  1.0
  C  C29  1  0.57581000  0.43547000  0.91223000  1.0
  C  C30  1  0.42419000  0.56454000  0.08777000  1.0
  C  C31  1  0.42283000  0.43137000  0.06535000  1.0
  C  C32  1  0.57717000  0.56863000  0.93465000  1.0
  C  C33  1  0.33438000  0.14787000  0.94129000  1.0
  C  C34  1  0.66561000  0.85212000  0.05871000  1.0
  C  C35  1  0.63870000  0.15592000  0.92199000  1.0
  C  C36  1  0.36130000  0.84407000  0.07800000  1.0
  C  C37  1  0.49184000  0.21981000  0.94778000  1.0
  C  C38  1  0.50816000  0.78020000  0.05222000  1.0
  C  C39  1  0.24746000  0.17265000  0.27811000  1.0
  C  C40  1  0.75254000  0.82735000  0.72189000  1.0
  C  C41  1  0.79197000  0.51699000  0.37537000  1.0
  C  C42  1  0.20803000  0.48301000  0.62463000  1.0
  C  C43  1  0.79228000  0.25179000  0.36060000  1.0
  C  C44  1  0.20772000  0.74821000  0.63940000  1.0
  C  C45  1  0.86406000  0.43110000  0.28755000  1.0
  C  C46  1  0.13594000  0.56890000  0.71245000  1.0
  C  C47  1  0.71772000  0.33051000  0.45117000  1.0
  C  C48  1  0.28229000  0.66949000  0.54883000  1.0
  C  C49  1  0.94328000  0.48443000  0.20704000  1.0
  C  C50  1  0.05672000  0.51557000  0.79296000  1.0
  C  C51  1  0.71937000  0.46320000  0.45593000  1.0
  C  C52  1  0.28063000  0.53680000  0.54407000  1.0
  C  C53  1  0.65357000  0.27179000  0.53542000  1.0
  C  C54  1  0.34643000  0.72821000  0.46459000  1.0
  C  C55  1  0.87896000  0.69958000  0.29949000  1.0
  C  C56  1  0.12104000  0.30042000  0.70051000  1.0
  C  C57  1  0.94957000  0.61505000  0.21300000  1.0
  C  C58  1  0.05043000  0.38496000  0.78700000  1.0
  C  C59  1  0.80246000  0.65188000  0.37888000  1.0
  C  C60  1  0.19754000  0.34812000  0.62112000  1.0
  C  C61  1  0.79713000  0.11686000  0.35734000  1.0
  C  C62  1  0.20287000  0.88314000  0.64266000  1.0
  C  C63  1  0.66361000  0.14197000  0.53177000  1.0
  C  C64  1  0.33639000  0.85803000  0.46823000  1.0
  C  C65  1  0.73517000  0.06426000  0.44134000  1.0
  C  C66  1  0.26483000  0.93574000  0.55865000  1.0
  N  N67  1  0.19569000  0.09029000  0.93142000  1.0
  N  N68  1  0.80431000  0.90971000  0.06858000  1.0
  N  N69  1  0.76566000  0.10352000  0.90141000  1.0
  N  N70  1  0.23433000  0.89648000  0.09859000  1.0
  N  N71  1  0.86151000  0.30272000  0.28166000  1.0
  N  N72  1  0.13850000  0.69728000  0.71834000  1.0
  O  O73  1  0.07560000  0.16086000  0.17049000  1.0
  O  O74  1  0.92440000  0.83914000  0.82951000  1.0
  F  F75  1  0.64847000  0.37567000  0.82115000  1.0
  F  F76  1  0.35153000  0.62433000  0.17885000  1.0
  F  F77  1  0.34830000  0.36880000  0.13506000  1.0
  F  F78  1  0.65170000  0.63120000  0.86494000  1.0
