# generated using pymatgen
data_Co3H28C32(N3O5)2
_symmetry_space_group_name_H-M   'P 1'
_cell_length_a   8.17068000
_cell_length_b   9.90792000
_cell_length_c   10.34290000
_cell_angle_alpha   89.71960000
_cell_angle_beta   87.50710000
_cell_angle_gamma   69.32140000
_symmetry_Int_Tables_number   1
_chemical_formula_structural   Co3H28C32(N3O5)2
_chemical_formula_sum   'Co3 H28 C32 N6 O10'
_cell_volume   782.57083522
_cell_formula_units_Z   1
loop_
 _symmetry_equiv_pos_site_id
 _symmetry_equiv_pos_as_xyz
  1  'x, y, z'
loop_
 _atom_site_type_symbol
 _atom_site_label
 _atom_site_symmetry_multiplicity
 _atom_site_fract_x
 _atom_site_fract_y
 _atom_site_fract_z
 _atom_site_occupancy
  Co  Co0  1  0.50140000  0.99873000  0.99839000  1.0
  Co  Co1  1  0.85759000  0.92077000  0.80459000  1.0
  Co  Co2  1  0.13984000  0.07990000  0.19703000  1.0
  H  H3  1  0.77330000  0.08639000  0.99780000  1.0
  H  H4  1  0.23049000  0.91681000  0.00305000  1.0
  H  H5  1  0.23463000  0.08955000  0.48372000  1.0
  H  H6  1  0.76492000  0.91034000  0.51680000  1.0
  H  H7  1  0.54010000  0.72711000  0.59546000  1.0
  H  H8  1  0.45922000  0.27287000  0.40441000  1.0
  H  H9  1  0.46138000  0.88629000  0.50766000  1.0
  H  H10  1  0.53779000  0.11382000  0.49257000  1.0
  H  H11  1  0.23342000  0.77353000  0.57852000  1.0
  H  H12  1  0.76612000  0.22615000  0.42140000  1.0
  H  H13  1  0.26460000  0.80651000  0.74116000  1.0
  H  H14  1  0.73470000  0.19295000  0.25882000  1.0
  H  H15  1  0.01445000  0.38127000  0.44418000  1.0
  H  H16  1  0.98516000  0.61848000  0.55633000  1.0
  H  H17  1  0.71595000  0.55036000  0.50946000  1.0
  H  H18  1  0.28358000  0.44937000  0.49094000  1.0
  H  H19  1  0.53046000  0.48237000  0.67528000  1.0
  H  H20  1  0.46905000  0.51738000  0.32515000  1.0
  H  H21  1  0.63859000  0.23963000  0.77991000  1.0
  H  H22  1  0.36081000  0.76004000  0.22042000  1.0
  H  H23  1  0.34492000  0.55340000  0.05631000  1.0
  H  H24  1  0.65693000  0.44479000  0.94376000  1.0
  H  H25  1  0.50306000  0.28789000  0.09078000  1.0
  H  H26  1  0.49876000  0.70944000  0.90656000  1.0
  H  H27  1  0.19769000  0.17920000  0.83176000  1.0
  H  H28  1  0.80122000  0.82230000  0.16534000  1.0
  H  H29  1  0.03880000  0.43957000  0.77731000  1.0
  H  H30  1  0.96015000  0.56283000  0.22256000  1.0
  C  C31  1  0.53189000  0.90855000  0.70400000  1.0
  C  C32  1  0.46756000  0.09101000  0.29624000  1.0
  C  C33  1  0.45318000  0.84071000  0.60389000  1.0
  C  C34  1  0.54607000  0.15923000  0.39629000  1.0
  C  C35  1  0.26878000  0.84627000  0.64231000  1.0
  C  C36  1  0.73051000  0.15341000  0.35777000  1.0
  C  C37  1  0.13200000  0.99263000  0.63879000  1.0
  C  C38  1  0.86712000  0.00700000  0.36145000  1.0
  C  C39  1  0.99353000  0.21928000  0.57971000  1.0
  C  C40  1  0.00590000  0.78044000  0.42072000  1.0
  C  C41  1  0.93566000  0.35333000  0.51989000  1.0
  C  C42  1  0.06388000  0.64643000  0.48058000  1.0
  C  C43  1  0.76728000  0.44608000  0.55659000  1.0
  C  C44  1  0.23226000  0.55366000  0.44385000  1.0
  C  C45  1  0.66157000  0.40663000  0.64974000  1.0
  C  C46  1  0.33792000  0.59311000  0.35067000  1.0
  C  C47  1  0.71973000  0.27198000  0.70881000  1.0
  C  C48  1  0.27966000  0.72772000  0.29154000  1.0
  C  C49  1  0.88793000  0.17755000  0.67199000  1.0
  C  C50  1  0.11144000  0.82210000  0.32835000  1.0
  C  C51  1  0.09662000  0.67497000  0.88685000  1.0
  C  C52  1  0.90459000  0.32569000  0.11430000  1.0
  C  C53  1  0.18361000  0.51671000  0.91160000  1.0
  C  C54  1  0.81707000  0.48355000  0.08842000  1.0
  C  C55  1  0.31255000  0.47262000  0.00295000  1.0
  C  C56  1  0.68871000  0.52628000  0.99652000  1.0
  C  C57  1  0.39755000  0.32635000  0.02376000  1.0
  C  C58  1  0.60380000  0.67213000  0.97406000  1.0
  C  C59  1  0.22910000  0.26577000  0.87675000  1.0
  C  C60  1  0.77082000  0.73495000  0.12093000  1.0
  C  C61  1  0.14086000  0.41007000  0.84752000  1.0
  C  C62  1  0.85887000  0.59115000  0.15172000  1.0
  N  N63  1  0.97850000  0.03515000  0.70695000  1.0
  N  N64  1  0.02066000  0.96442000  0.29326000  1.0
  N  N65  1  0.14619000  0.10096000  0.56240000  1.0
  N  N66  1  0.85317000  0.89876000  0.43801000  1.0
  N  N67  1  0.35734000  0.22367000  0.96207000  1.0
  N  N68  1  0.64361000  0.77578000  0.03459000  1.0
  O  O69  1  0.72461000  0.02716000  0.94739000  1.0
  O  O70  1  0.27695000  0.97645000  0.05518000  1.0
  O  O71  1  0.45242000  0.94229000  0.81229000  1.0
  O  O72  1  0.54706000  0.05707000  0.18819000  1.0
  O  O73  1  0.68013000  0.92144000  0.67171000  1.0
  O  O74  1  0.31914000  0.07841000  0.32901000  1.0
  O  O75  1  0.97142000  0.71052000  0.80665000  1.0
  O  O76  1  0.02843000  0.29074000  0.19562000  1.0
  O  O77  1  0.14754000  0.76488000  0.94218000  1.0
  O  O78  1  0.85569000  0.23488000  0.05848000  1.0
