# generated using pymatgen
data_AgH8C6N3O2
_symmetry_space_group_name_H-M   'P 1'
_cell_length_a   5.73981000
_cell_length_b   7.60939000
_cell_length_c   9.07780000
_cell_angle_alpha   89.99410000
_cell_angle_beta   102.96800000
_cell_angle_gamma   89.98560000
_symmetry_Int_Tables_number   1
_chemical_formula_structural   AgH8C6N3O2
_chemical_formula_sum   'Ag2 H16 C12 N6 O4'
_cell_volume   386.37392568
_cell_formula_units_Z   2
loop_
 _symmetry_equiv_pos_site_id
 _symmetry_equiv_pos_as_xyz
  1  'x, y, z'
loop_
 _atom_site_type_symbol
 _atom_site_label
 _atom_site_symmetry_multiplicity
 _atom_site_fract_x
 _atom_site_fract_y
 _atom_site_fract_z
 _atom_site_occupancy
  Ag  Ag0  1  0.52500000  0.71466000  0.23764000  1.0
  Ag  Ag1  1  0.47508000  0.21469000  0.76236000  1.0
  H  H2  1  0.52165000  0.74101000  0.86322000  1.0
  H  H3  1  0.47844000  0.24092000  0.13679000  1.0
  H  H4  1  0.22457000  0.93901000  0.99713000  1.0
  H  H5  1  0.77537000  0.43896000  0.00287000  1.0
  H  H6  1  0.91830000  0.98696000  0.33444000  1.0
  H  H7  1  0.08162000  0.48693000  0.66557000  1.0
  H  H8  1  0.21713000  0.98800000  0.31426000  1.0
  H  H9  1  0.78278000  0.48802000  0.68571000  1.0
  H  H10  1  0.96696000  0.64730000  0.36697000  1.0
  H  H11  1  0.03310000  0.14729000  0.63301000  1.0
  H  H12  1  0.89227000  0.83735000  0.77316000  1.0
  H  H13  1  0.10770000  0.33729000  0.22685000  1.0
  H  H14  1  0.32037000  0.53095000  0.42288000  1.0
  H  H15  1  0.67974000  0.03101000  0.57709000  1.0
  H  H16  1  0.45355000  0.70862000  0.50942000  1.0
  H  H17  1  0.54644000  0.20874000  0.49057000  1.0
  C  C18  1  0.68843000  0.78181000  0.93763000  1.0
  C  C19  1  0.31162000  0.28173000  0.06239000  1.0
  C  C20  1  0.96222000  0.86227000  0.13667000  1.0
  C  C21  1  0.03774000  0.36220000  0.86333000  1.0
  C  C22  1  0.05526000  0.88649000  0.01050000  1.0
  C  C23  1  0.94472000  0.38644000  0.98951000  1.0
  C  C24  1  0.05560000  0.90644000  0.29931000  1.0
  C  C25  1  0.94434000  0.40641000  0.70069000  1.0
  C  C26  1  0.10625000  0.74663000  0.40645000  1.0
  C  C27  1  0.89377000  0.24665000  0.59354000  1.0
  C  C28  1  0.08748000  0.80319000  0.56661000  1.0
  C  C29  1  0.91250000  0.30332000  0.43339000  1.0
  N  N30  1  0.73242000  0.79506000  0.08838000  1.0
  N  N31  1  0.26759000  0.29498000  0.91164000  1.0
  N  N32  1  0.88052000  0.83612000  0.88761000  1.0
  N  N33  1  0.11949000  0.33607000  0.11241000  1.0
  N  N34  1  0.34152000  0.66437000  0.41109000  1.0
  N  N35  1  0.65852000  0.16443000  0.58889000  1.0
  O  O36  1  0.87559000  0.82631000  0.58647000  1.0
  O  O37  1  0.12439000  0.32626000  0.41348000  1.0
  O  O38  1  0.27892000  0.82389000  0.66482000  1.0
  O  O39  1  0.72104000  0.32432000  0.33525000  1.0
