# generated using pymatgen
data_NiH14(C3O2)4
_symmetry_space_group_name_H-M   'P 1'
_cell_length_a   6.24166000
_cell_length_b   9.64924000
_cell_length_c   10.92040000
_cell_angle_alpha   72.65040000
_cell_angle_beta   80.37700000
_cell_angle_gamma   82.16460000
_symmetry_Int_Tables_number   1
_chemical_formula_structural   NiH14(C3O2)4
_chemical_formula_sum   'Ni2 H28 C24 O16'
_cell_volume   616.32987396
_cell_formula_units_Z   2
loop_
 _symmetry_equiv_pos_site_id
 _symmetry_equiv_pos_as_xyz
  1  'x, y, z'
loop_
 _atom_site_type_symbol
 _atom_site_label
 _atom_site_symmetry_multiplicity
 _atom_site_fract_x
 _atom_site_fract_y
 _atom_site_fract_z
 _atom_site_occupancy
  Ni  Ni0  1  0.96685000  0.25761000  0.47959000  1.0
  Ni  Ni1  1  0.03315000  0.74238000  0.52042000  1.0
  H  H2  1  0.11165000  0.65116000  0.14936000  1.0
  H  H3  1  0.88831000  0.34886000  0.85063000  1.0
  H  H4  1  0.76439000  0.44058000  0.17250000  1.0
  H  H5  1  0.23557000  0.55943000  0.82749000  1.0
  H  H6  1  0.90607000  0.64028000  0.98745000  1.0
  H  H7  1  0.09388000  0.35969000  0.01256000  1.0
  H  H8  1  0.83917000  0.87714000  0.81914000  1.0
  H  H9  1  0.16085000  0.12286000  0.18086000  1.0
  H  H10  1  0.18579000  0.08938000  0.80687000  1.0
  H  H11  1  0.81424000  0.91064000  0.19315000  1.0
  H  H12  1  0.04546000  0.88465000  0.98748000  1.0
  H  H13  1  0.95455000  0.11538000  0.01252000  1.0
  H  H14  1  0.33590000  0.17270000  0.42545000  1.0
  H  H15  1  0.66408000  0.82728000  0.57456000  1.0
  H  H16  1  0.20740000  0.03861000  0.43192000  1.0
  H  H17  1  0.79261000  0.96142000  0.56807000  1.0
  H  H18  1  0.75315000  0.49876000  0.47917000  1.0
  H  H19  1  0.24681000  0.50125000  0.52083000  1.0
  H  H20  1  0.60911000  0.35914000  0.55601000  1.0
  H  H21  1  0.39084000  0.64089000  0.44398000  1.0
  H  H22  1  0.71212000  0.23803000  0.32343000  1.0
  H  H23  1  0.28786000  0.76196000  0.67659000  1.0
  H  H24  1  0.83491000  0.08201000  0.37140000  1.0
  H  H25  1  0.16506000  0.91801000  0.62860000  1.0
  H  H26  1  0.22394000  0.29088000  0.65102000  1.0
  H  H27  1  0.77607000  0.70911000  0.34896000  1.0
  H  H28  1  0.00381000  0.40742000  0.65232000  1.0
  H  H29  1  0.99622000  0.59258000  0.34768000  1.0
  C  C30  1  0.28620000  0.64990000  0.11592000  1.0
  C  C31  1  0.71378000  0.35010000  0.88408000  1.0
  C  C32  1  0.42655000  0.53369000  0.17345000  1.0
  C  C33  1  0.57349000  0.46631000  0.82654000  1.0
  C  C34  1  0.65334000  0.53149000  0.12706000  1.0
  C  C35  1  0.34668000  0.46849000  0.87292000  1.0
  C  C36  1  0.73271000  0.64341000  0.02482000  1.0
  C  C37  1  0.26729000  0.35657000  0.97517000  1.0
  C  C38  1  0.66677000  0.88013000  0.85871000  1.0
  C  C39  1  0.33322000  0.11987000  0.14129000  1.0
  C  C40  1  0.52351000  0.99657000  0.80415000  1.0
  C  C41  1  0.47649000  0.00344000  0.19587000  1.0
  C  C42  1  0.29729000  0.99844000  0.85188000  1.0
  C  C43  1  0.70272000  0.00156000  0.14812000  1.0
  C  C44  1  0.21937000  0.88497000  0.95202000  1.0
  C  C45  1  0.78063000  0.11505000  0.04797000  1.0
  C  C46  1  0.36308000  0.76629000  0.01185000  1.0
  C  C47  1  0.63692000  0.23370000  0.98816000  1.0
  C  C48  1  0.59157000  0.76374000  0.96442000  1.0
  C  C49  1  0.40844000  0.23623000  0.03558000  1.0
  C  C50  1  0.33482000  0.41090000  0.28075000  1.0
  C  C51  1  0.66517000  0.58911000  0.71924000  1.0
  C  C52  1  0.60560000  0.12139000  0.69571000  1.0
  C  C53  1  0.39444000  0.87864000  0.30429000  1.0
  O  O54  1  0.13356000  0.42771000  0.32804000  1.0
  O  O55  1  0.86642000  0.57226000  0.67195000  1.0
  O  O56  1  0.45670000  0.29408000  0.31995000  1.0
  O  O57  1  0.54329000  0.70592000  0.68006000  1.0
  O  O58  1  0.48667000  0.24176000  0.67110000  1.0
  O  O59  1  0.51334000  0.75823000  0.32891000  1.0
  O  O60  1  0.79530000  0.10067000  0.63289000  1.0
  O  O61  1  0.20472000  0.89928000  0.36711000  1.0
  O  O62  1  0.22519000  0.10419000  0.48464000  1.0
  O  O63  1  0.77480000  0.89580000  0.51537000  1.0
  O  O64  1  0.70912000  0.40605000  0.47505000  1.0
  O  O65  1  0.29093000  0.59393000  0.52498000  1.0
  O  O66  1  0.86004000  0.18587000  0.33971000  1.0
  O  O67  1  0.13997000  0.81415000  0.66026000  1.0
  O  O68  1  0.09469000  0.33987000  0.60671000  1.0
  O  O69  1  0.90531000  0.66014000  0.39328000  1.0
