# generated using pymatgen
data_CuH16C15S2(NO3)2
_symmetry_space_group_name_H-M   'P 1'
_cell_length_a   4.79362000
_cell_length_b   15.29240000
_cell_length_c   25.60670000
_cell_angle_alpha   90.00010000
_cell_angle_beta   90.00010000
_cell_angle_gamma   87.38490000
_symmetry_Int_Tables_number   1
_chemical_formula_structural   CuH16C15S2(NO3)2
_chemical_formula_sum   'Cu4 H64 C60 S8 N8 O24'
_cell_volume   1875.16871059
_cell_formula_units_Z   4
loop_
 _symmetry_equiv_pos_site_id
 _symmetry_equiv_pos_as_xyz
  1  'x, y, z'
loop_
 _atom_site_type_symbol
 _atom_site_label
 _atom_site_symmetry_multiplicity
 _atom_site_fract_x
 _atom_site_fract_y
 _atom_site_fract_z
 _atom_site_occupancy
  Cu  Cu0  1  0.27418000  0.67113000  0.17450000  1.0
  Cu  Cu1  1  0.22582000  0.82887000  0.67450000  1.0
  Cu  Cu2  1  0.72581000  0.32887000  0.82550000  1.0
  Cu  Cu3  1  0.77419000  0.17113000  0.32550000  1.0
  H  H4  1  0.13944000  0.58259000  0.27442000  1.0
  H  H5  1  0.36056000  0.91741000  0.77442000  1.0
  H  H6  1  0.86055000  0.41741000  0.72558000  1.0
  H  H7  1  0.63945000  0.08258000  0.22558000  1.0
  H  H8  1  0.30575000  0.58197000  0.36534000  1.0
  H  H9  1  0.19425000  0.91803000  0.86535000  1.0
  H  H10  1  0.69425000  0.41802000  0.63465000  1.0
  H  H11  1  0.80575000  0.08197000  0.13466000  1.0
  H  H12  1  0.85405000  0.78949000  0.32013000  1.0
  H  H13  1  0.64596000  0.71051000  0.82014000  1.0
  H  H14  1  0.14596000  0.21051000  0.67986000  1.0
  H  H15  1  0.35404000  0.28949000  0.17987000  1.0
  H  H16  1  0.67275000  0.77640000  0.23150000  1.0
  H  H17  1  0.82725000  0.72360000  0.73150000  1.0
  H  H18  1  0.32726000  0.22360000  0.76850000  1.0
  H  H19  1  0.17275000  0.27640000  0.26850000  1.0
  H  H20  1  0.07067000  0.76043000  0.45586000  1.0
  H  H21  1  0.42932000  0.73957000  0.95586000  1.0
  H  H22  1  0.92932000  0.23957000  0.54414000  1.0
  H  H23  1  0.57067000  0.26043000  0.04414000  1.0
  H  H24  1  0.04040000  0.79094000  0.38949000  1.0
  H  H25  1  0.45959000  0.70906000  0.88949000  1.0
  H  H26  1  0.95959000  0.20906000  0.61051000  1.0
  H  H27  1  0.54040000  0.29094000  0.11051000  1.0
  H  H28  1  0.07768000  0.93790000  0.58361000  1.0
  H  H29  1  0.42232000  0.56210000  0.08361000  1.0
  H  H30  1  0.92232000  0.06210000  0.41639000  1.0
  H  H31  1  0.57768000  0.43790000  0.91639000  1.0
  H  H32  1  0.25262000  0.95566000  0.49220000  1.0
  H  H33  1  0.24738000  0.54434000  0.99220000  1.0
  H  H34  1  0.74739000  0.04434000  0.50780000  1.0
  H  H35  1  0.75261000  0.45566000  0.00780000  1.0
  H  H36  1  0.83618000  0.73596000  0.52298000  1.0
  H  H37  1  0.66382000  0.76404000  0.02298000  1.0
  H  H38  1  0.16382000  0.26404000  0.47702000  1.0
  H  H39  1  0.33617000  0.23596000  0.97702000  1.0
  H  H40  1  0.64291000  0.72967000  0.61130000  1.0
  H  H41  1  0.85709000  0.77033000  0.11130000  1.0
  H  H42  1  0.35710000  0.27033000  0.38870000  1.0
  H  H43  1  0.14290000  0.22967000  0.88870000  1.0
  H  H44  1  0.20820000  0.97452000  0.12537000  1.0
  H  H45  1  0.29181000  0.52548000  0.62538000  1.0
  H  H46  1  0.79181000  0.02548000  0.87462000  1.0
  H  H47  1  0.70820000  0.47452000  0.37463000  1.0
  H  H48  1  0.32844000  0.98568000  0.19014000  1.0
  H  H49  1  0.17158000  0.51432000  0.69014000  1.0
  H  H50  1  0.67157000  0.01432000  0.80986000  1.0
  H  H51  1  0.82844000  0.48568000  0.30986000  1.0
  H  H52  1  0.92985000  0.39899000  0.16746000  1.0
  H  H53  1  0.57015000  0.10101000  0.66746000  1.0
  H  H54  1  0.07015000  0.60101000  0.83254000  1.0
  H  H55  1  0.42984000  0.89899000  0.33254000  1.0
  H  H56  1  0.77095000  0.43360000  0.22692000  1.0
  H  H57  1  0.72904000  0.06640000  0.72692000  1.0
  H  H58  1  0.22905000  0.56640000  0.77308000  1.0
  H  H59  1  0.27095000  0.93360000  0.27308000  1.0
  H  H60  1  0.36972000  0.47215000  0.17322000  1.0
  H  H61  1  0.13028000  0.02785000  0.67322000  1.0
  H  H62  1  0.63028000  0.52786000  0.82678000  1.0
  H  H63  1  0.86972000  0.97214000  0.32678000  1.0
  H  H64  1  0.75693000  0.91290000  0.15692000  1.0
  H  H65  1  0.74308000  0.58710000  0.65692000  1.0
  H  H66  1  0.24308000  0.08710000  0.84308000  1.0
  H  H67  1  0.25692000  0.41290000  0.34309000  1.0
  C  C68  1  0.29616000  0.62753000  0.28670000  1.0
  C  C69  1  0.20385000  0.87247000  0.78670000  1.0
  C  C70  1  0.70384000  0.37247000  0.71330000  1.0
  C  C71  1  0.79616000  0.12752000  0.21330000  1.0
  C  C72  1  0.39218000  0.62789000  0.33774000  1.0
  C  C73  1  0.10782000  0.87211000  0.83774000  1.0
  C  C74  1  0.60782000  0.37211000  0.66226000  1.0
  C  C75  1  0.89218000  0.12788000  0.16226000  1.0
  C  C76  1  0.60090000  0.68533000  0.35159000  1.0
  C  C77  1  0.89910000  0.81467000  0.85160000  1.0
  C  C78  1  0.39910000  0.31467000  0.64840000  1.0
  C  C79  1  0.10090000  0.18533000  0.14841000  1.0
  C  C80  1  0.69770000  0.74140000  0.31290000  1.0
  C  C81  1  0.80231000  0.75860000  0.81290000  1.0
  C  C82  1  0.30231000  0.25860000  0.68710000  1.0
  C  C83  1  0.19770000  0.24140000  0.18710000  1.0
  C  C84  1  0.59159000  0.73602000  0.26258000  1.0
  C  C85  1  0.90842000  0.76397000  0.76258000  1.0
  C  C86  1  0.40841000  0.26397000  0.73742000  1.0
  C  C87  1  0.09159000  0.23602000  0.23742000  1.0
  C  C88  1  0.92072000  0.77395000  0.42420000  1.0
  C  C89  1  0.57927000  0.72605000  0.92420000  1.0
  C  C90  1  0.07928000  0.22605000  0.57580000  1.0
  C  C91  1  0.42072000  0.27395000  0.07580000  1.0
  C  C92  1  0.24489000  0.89501000  0.56775000  1.0
  C  C93  1  0.25511000  0.60499000  0.06775000  1.0
  C  C94  1  0.75510000  0.10499000  0.43225000  1.0
  C  C95  1  0.74489000  0.39501000  0.93225000  1.0
  C  C96  1  0.34468000  0.90461000  0.51731000  1.0
  C  C97  1  0.15531000  0.59539000  0.01731000  1.0
  C  C98  1  0.65532000  0.09539000  0.48269000  1.0
  C  C99  1  0.84468000  0.40461000  0.98269000  1.0
  C  C100  1  0.56519000  0.84844000  0.49934000  1.0
  C  C101  1  0.93480000  0.65156000  0.99934000  1.0
  C  C102  1  0.43482000  0.15157000  0.50066000  1.0
  C  C103  1  0.06518000  0.34843000  0.00066000  1.0
  C  C104  1  0.66724000  0.78250000  0.53344000  1.0
  C  C105  1  0.83275000  0.71750000  0.03344000  1.0
  C  C106  1  0.33276000  0.21750000  0.46656000  1.0
  C  C107  1  0.16723000  0.28250000  0.96656000  1.0
  C  C108  1  0.55695000  0.77756000  0.58341000  1.0
  C  C109  1  0.94304000  0.72244000  0.08340000  1.0
  C  C110  1  0.44305000  0.22244000  0.41659000  1.0
  C  C111  1  0.05695000  0.27756000  0.91659000  1.0
  C  C112  1  0.24847000  0.85527000  0.16834000  1.0
  C  C113  1  0.25153000  0.64473000  0.66834000  1.0
  C  C114  1  0.75154000  0.14473000  0.83166000  1.0
  C  C115  1  0.74847000  0.35528000  0.33166000  1.0
  C  C116  1  0.35449000  0.94532000  0.15432000  1.0
  C  C117  1  0.14552000  0.55468000  0.65432000  1.0
  C  C118  1  0.64552000  0.05468000  0.84568000  1.0
  C  C119  1  0.85449000  0.44532000  0.34568000  1.0
  C  C120  1  0.85903000  0.53835000  0.17473000  1.0
  C  C121  1  0.64097000  0.96165000  0.67473000  1.0
  C  C122  1  0.14097000  0.46165000  0.82527000  1.0
  C  C123  1  0.35903000  0.03835000  0.32527000  1.0
  C  C124  1  0.77071000  0.44475000  0.18420000  1.0
  C  C125  1  0.72929000  0.05525000  0.68420000  1.0
  C  C126  1  0.22929000  0.55525000  0.81580000  1.0
  C  C127  1  0.27071000  0.94475000  0.31580000  1.0
  S  S128  1  0.73411000  0.67510000  0.41501000  1.0
  S  S129  1  0.76588000  0.82490000  0.91501000  1.0
  S  S130  1  0.26588000  0.32490000  0.58499000  1.0
  S  S131  1  0.23411000  0.17510000  0.08499000  1.0
  S  S132  1  0.70189000  0.87067000  0.43773000  1.0
  S  S133  1  0.79810000  0.62933000  0.93773000  1.0
  S  S134  1  0.29811000  0.12933000  0.56227000  1.0
  S  S135  1  0.20189000  0.37067000  0.06227000  1.0
  N  N136  1  0.39370000  0.68016000  0.24922000  1.0
  N  N137  1  0.10631000  0.81984000  0.74922000  1.0
  N  N138  1  0.60630000  0.31984000  0.75078000  1.0
  N  N139  1  0.89371000  0.18015000  0.25078000  1.0
  N  N140  1  0.35087000  0.83309000  0.60042000  1.0
  N  N141  1  0.14913000  0.66691000  0.10042000  1.0
  N  N142  1  0.64913000  0.16691000  0.39958000  1.0
  N  N143  1  0.85086000  0.33309000  0.89958000  1.0
  O  O144  1  0.41386000  0.78909000  0.15852000  1.0
  O  O145  1  0.08615000  0.71092000  0.65852000  1.0
  O  O146  1  0.58615000  0.21091000  0.84148000  1.0
  O  O147  1  0.91385000  0.28909000  0.34148000  1.0
  O  O148  1  0.00960000  0.85185000  0.18866000  1.0
  O  O149  1  0.49040000  0.64815000  0.68866000  1.0
  O  O150  1  0.99040000  0.14815000  0.81134000  1.0
  O  O151  1  0.50960000  0.35186000  0.31134000  1.0
  O  O152  1  0.62556000  0.94668000  0.13336000  1.0
  O  O153  1  0.87444000  0.55331000  0.63337000  1.0
  O  O154  1  0.37445000  0.05332000  0.86664000  1.0
  O  O155  1  0.12556000  0.44668000  0.36664000  1.0
  O  O156  1  0.69228000  0.59501000  0.15632000  1.0
  O  O157  1  0.80771000  0.90499000  0.65632000  1.0
  O  O158  1  0.30771000  0.40499000  0.84368000  1.0
  O  O159  1  0.19229000  0.09501000  0.34368000  1.0
  O  O160  1  0.11503000  0.55199000  0.18822000  1.0
  O  O161  1  0.38497000  0.94801000  0.68822000  1.0
  O  O162  1  0.88497000  0.44801000  0.81178000  1.0
  O  O163  1  0.61503000  0.05199000  0.31178000  1.0
  O  O164  1  0.51091000  0.42638000  0.16161000  1.0
  O  O165  1  0.98909000  0.07362000  0.66161000  1.0
  O  O166  1  0.48908000  0.57362000  0.83840000  1.0
  O  O167  1  0.01091000  0.92638000  0.33839000  1.0
