# generated using pymatgen
data_TbCu4H19C21I4N4O7
_symmetry_space_group_name_H-M   'P 1'
_cell_length_a   8.40949000
_cell_length_b   14.71960000
_cell_length_c   28.60110000
_cell_angle_alpha   102.07400000
_cell_angle_beta   89.99990000
_cell_angle_gamma   89.99980000
_symmetry_Int_Tables_number   1
_chemical_formula_structural   TbCu4H19C21I4N4O7
_chemical_formula_sum   'Tb4 Cu16 H76 C84 I16 N16 O28'
_cell_volume   3462.04886527
_cell_formula_units_Z   4
loop_
 _symmetry_equiv_pos_site_id
 _symmetry_equiv_pos_as_xyz
  1  'x, y, z'
loop_
 _atom_site_type_symbol
 _atom_site_label
 _atom_site_symmetry_multiplicity
 _atom_site_fract_x
 _atom_site_fract_y
 _atom_site_fract_z
 _atom_site_occupancy
  Tb  Tb0  1  0.22850000  0.44062000  0.48460000  1.0
  Tb  Tb1  1  0.72851000  0.05938000  0.01540000  1.0
  Tb  Tb2  1  0.77150000  0.55938000  0.51540000  1.0
  Tb  Tb3  1  0.27150000  0.94062000  0.98460000  1.0
  Cu  Cu4  1  0.82541000  0.36133000  0.78069000  1.0
  Cu  Cu5  1  0.32540000  0.13867000  0.71931000  1.0
  Cu  Cu6  1  0.17459000  0.63867000  0.21931000  1.0
  Cu  Cu7  1  0.67459000  0.86133000  0.28069000  1.0
  Cu  Cu8  1  0.09504000  0.41201000  0.74646000  1.0
  Cu  Cu9  1  0.59503000  0.08800000  0.75355000  1.0
  Cu  Cu10  1  0.90496000  0.58799000  0.25354000  1.0
  Cu  Cu11  1  0.40496000  0.91200000  0.24645000  1.0
  Cu  Cu12  1  0.09953000  0.35995000  0.82487000  1.0
  Cu  Cu13  1  0.59953000  0.14005000  0.67513000  1.0
  Cu  Cu14  1  0.90047000  0.64005000  0.17513000  1.0
  Cu  Cu15  1  0.40047000  0.85994000  0.32487000  1.0
  Cu  Cu16  1  0.95771000  0.51376000  0.81810000  1.0
  Cu  Cu17  1  0.45771000  0.98624000  0.68190000  1.0
  Cu  Cu18  1  0.04229000  0.48624000  0.18190000  1.0
  Cu  Cu19  1  0.54229000  0.01376000  0.31810000  1.0
  H  H20  1  0.56441000  0.80127000  0.62930000  1.0
  H  H21  1  0.06441000  0.69873000  0.87070000  1.0
  H  H22  1  0.43560000  0.19873000  0.37070000  1.0
  H  H23  1  0.93559000  0.30127000  0.12930000  1.0
  H  H24  1  0.43537000  0.65699000  0.58366000  1.0
  H  H25  1  0.93537000  0.84301000  0.91633000  1.0
  H  H26  1  0.56464000  0.34301000  0.41633000  1.0
  H  H27  1  0.06463000  0.15699000  0.08367000  1.0
  H  H28  1  0.98091000  0.78207000  0.62787000  1.0
  H  H29  1  0.48092000  0.71793000  0.87213000  1.0
  H  H30  1  0.01909000  0.21792000  0.37213000  1.0
  H  H31  1  0.51908000  0.28207000  0.12787000  1.0
  H  H32  1  0.12879000  0.92293000  0.67095000  1.0
  H  H33  1  0.62880000  0.57708000  0.82905000  1.0
  H  H34  1  0.87120000  0.07706000  0.32905000  1.0
  H  H35  1  0.37120000  0.42293000  0.17096000  1.0
  H  H36  1  0.18192000  0.29849000  0.65400000  1.0
  H  H37  1  0.68192000  0.20152000  0.84600000  1.0
  H  H38  1  0.81808000  0.70151000  0.34599000  1.0
  H  H39  1  0.31807000  0.79848000  0.15400000  1.0
  H  H40  1  0.32707000  0.32097000  0.58106000  1.0
  H  H41  1  0.82708000  0.17903000  0.91894000  1.0
  H  H42  1  0.67293000  0.67903000  0.41893000  1.0
  H  H43  1  0.17292000  0.82097000  0.08106000  1.0
  H  H44  1  0.48374000  0.58705000  0.66135000  1.0
  H  H45  1  0.98374000  0.91295000  0.83864000  1.0
  H  H46  1  0.51626000  0.41295000  0.33865000  1.0
  H  H47  1  0.01625000  0.08705000  0.16135000  1.0
  H  H48  1  0.32464000  0.55629000  0.73075000  1.0
  H  H49  1  0.82463000  0.94371000  0.76926000  1.0
  H  H50  1  0.67536000  0.44371000  0.26925000  1.0
  H  H51  1  0.17536000  0.05629000  0.23074000  1.0
  H  H52  1  0.11916000  0.89810000  0.38994000  1.0
  H  H53  1  0.61915000  0.60190000  0.11007000  1.0
  H  H54  1  0.88085000  0.10190000  0.61007000  1.0
  H  H55  1  0.38085000  0.39810000  0.88993000  1.0
  H  H56  1  0.96996000  0.81191000  0.44342000  1.0
  H  H57  1  0.46996000  0.68810000  0.05658000  1.0
  H  H58  1  0.03004000  0.18810000  0.55658000  1.0
  H  H59  1  0.53004000  0.31191000  0.94342000  1.0
  H  H60  1  0.25741000  0.57249000  0.38607000  1.0
  H  H61  1  0.75742000  0.92750000  0.11393000  1.0
  H  H62  1  0.74257000  0.42751000  0.61393000  1.0
  H  H63  1  0.24258000  0.07250000  0.88607000  1.0
  H  H64  1  0.39480000  0.66769000  0.33495000  1.0
  H  H65  1  0.89481000  0.83231000  0.16505000  1.0
  H  H66  1  0.60519000  0.33231000  0.66505000  1.0
  H  H67  1  0.10520000  0.16769000  0.83495000  1.0
  H  H68  1  0.16075000  0.18578000  0.44412000  1.0
  H  H69  1  0.66074000  0.31422000  0.05588000  1.0
  H  H70  1  0.83926000  0.81422000  0.55588000  1.0
  H  H71  1  0.33926000  0.68577000  0.94412000  1.0
  H  H72  1  0.54610000  0.24338000  0.49674000  1.0
  H  H73  1  0.04610000  0.25662000  0.00326000  1.0
  H  H74  1  0.45390000  0.75662000  0.50327000  1.0
  H  H75  1  0.95390000  0.74338000  0.99674000  1.0
  H  H76  1  0.61463000  0.12805000  0.47118000  1.0
  H  H77  1  0.11463000  0.37195000  0.02882000  1.0
  H  H78  1  0.38537000  0.87195000  0.52882000  1.0
  H  H79  1  0.88537000  0.62805000  0.97118000  1.0
  H  H80  1  0.52778000  0.15282000  0.52980000  1.0
  H  H81  1  0.02778000  0.34718000  0.97020000  1.0
  H  H82  1  0.47221000  0.84718000  0.47020000  1.0
  H  H83  1  0.97222000  0.65282000  0.02980000  1.0
  H  H84  1  0.18876000  0.04632000  0.45471000  1.0
  H  H85  1  0.68876000  0.45368000  0.04529000  1.0
  H  H86  1  0.81125000  0.95368000  0.54529000  1.0
  H  H87  1  0.31125000  0.54632000  0.95471000  1.0
  H  H88  1  0.30576000  0.03598000  0.50588000  1.0
  H  H89  1  0.80576000  0.46403000  0.99412000  1.0
  H  H90  1  0.69424000  0.96402000  0.49412000  1.0
  H  H91  1  0.19424000  0.53597000  0.00588000  1.0
  H  H92  1  0.38687000  0.00298000  0.44652000  1.0
  H  H93  1  0.88687000  0.49702000  0.05348000  1.0
  H  H94  1  0.61313000  0.99702000  0.55348000  1.0
  H  H95  1  0.11313000  0.50298000  0.94652000  1.0
  C  C96  1  0.43538000  0.79408000  0.62787000  1.0
  C  C97  1  0.93539000  0.70592000  0.87213000  1.0
  C  C98  1  0.56462000  0.20592000  0.37213000  1.0
  C  C99  1  0.06461000  0.29407000  0.12787000  1.0
  C  C100  1  0.36295000  0.71370000  0.60290000  1.0
  C  C101  1  0.86296000  0.78631000  0.89710000  1.0
  C  C102  1  0.63705000  0.28630000  0.39710000  1.0
  C  C103  1  0.13705000  0.21369000  0.10290000  1.0
  C  C104  1  0.19723000  0.70830000  0.60191000  1.0
  C  C105  1  0.69723000  0.79171000  0.89809000  1.0
  C  C106  1  0.80278000  0.29170000  0.39809000  1.0
  C  C107  1  0.30277000  0.20829000  0.10191000  1.0
  C  C108  1  0.11036000  0.78406000  0.62716000  1.0
  C  C109  1  0.61037000  0.71594000  0.87284000  1.0
  C  C110  1  0.88964000  0.21593000  0.37284000  1.0
  C  C111  1  0.38964000  0.28406000  0.12716000  1.0
  C  C112  1  0.19166000  0.86214000  0.65108000  1.0
  C  C113  1  0.69166000  0.63787000  0.84892000  1.0
  C  C114  1  0.80834000  0.13786000  0.34892000  1.0
  C  C115  1  0.30834000  0.36213000  0.15109000  1.0
  C  C116  1  0.11559000  0.62505000  0.57214000  1.0
  C  C117  1  0.61559000  0.87496000  0.92786000  1.0
  C  C118  1  0.88441000  0.37495000  0.42786000  1.0
  C  C119  1  0.38441000  0.12504000  0.07214000  1.0
  C  C120  1  0.24750000  0.36233000  0.65384000  1.0
  C  C121  1  0.74750000  0.13767000  0.84616000  1.0
  C  C122  1  0.75250000  0.63767000  0.34616000  1.0
  C  C123  1  0.25250000  0.86232000  0.15384000  1.0
  C  C124  1  0.32977000  0.37463000  0.61356000  1.0
  C  C125  1  0.82977000  0.12537000  0.88644000  1.0
  C  C126  1  0.67023000  0.62537000  0.38644000  1.0
  C  C127  1  0.17023000  0.87463000  0.11355000  1.0
  C  C128  1  0.41334000  0.45729000  0.61513000  1.0
  C  C129  1  0.91334000  0.04271000  0.88487000  1.0
  C  C130  1  0.58666000  0.54272000  0.38487000  1.0
  C  C131  1  0.08666000  0.95728000  0.11513000  1.0
  C  C132  1  0.41606000  0.52303000  0.65823000  1.0
  C  C133  1  0.91606000  0.97697000  0.84177000  1.0
  C  C134  1  0.58394000  0.47697000  0.34177000  1.0
  C  C135  1  0.08394000  0.02303000  0.15823000  1.0
  C  C136  1  0.32838000  0.50630000  0.69673000  1.0
  C  C137  1  0.82837000  0.99370000  0.80327000  1.0
  C  C138  1  0.67162000  0.49370000  0.30327000  1.0
  C  C139  1  0.17162000  0.00629000  0.19673000  1.0
  C  C140  1  0.49546000  0.47491000  0.57138000  1.0
  C  C141  1  0.99546000  0.02509000  0.92862000  1.0
  C  C142  1  0.50454000  0.52509000  0.42862000  1.0
  C  C143  1  0.00454000  0.97491000  0.07138000  1.0
  C  C144  1  0.14839000  0.82646000  0.39133000  1.0
  C  C145  1  0.64839000  0.67354000  0.10867000  1.0
  C  C146  1  0.85161000  0.17354000  0.60867000  1.0
  C  C147  1  0.35161000  0.32646000  0.89133000  1.0
  C  C148  1  0.06637000  0.77859000  0.42072000  1.0
  C  C149  1  0.56637000  0.72142000  0.07928000  1.0
  C  C150  1  0.93363000  0.22142000  0.57928000  1.0
  C  C151  1  0.43363000  0.27859000  0.92072000  1.0
  C  C152  1  0.10887000  0.68645000  0.42046000  1.0
  C  C153  1  0.60888000  0.81355000  0.07954000  1.0
  C  C154  1  0.89112000  0.31356000  0.57954000  1.0
  C  C155  1  0.39112000  0.18645000  0.92046000  1.0
  C  C156  1  0.22695000  0.64521000  0.38878000  1.0
  C  C157  1  0.72696000  0.85479000  0.11122000  1.0
  C  C158  1  0.77303000  0.35479000  0.61122000  1.0
  C  C159  1  0.27304000  0.14521000  0.88878000  1.0
  C  C160  1  0.30289000  0.69771000  0.36035000  1.0
  C  C161  1  0.80289000  0.80229000  0.13965000  1.0
  C  C162  1  0.69711000  0.30229000  0.63965000  1.0
  C  C163  1  0.19711000  0.19771000  0.86035000  1.0
  C  C164  1  0.03017000  0.63225000  0.45277000  1.0
  C  C165  1  0.53019000  0.86775000  0.04723000  1.0
  C  C166  1  0.96982000  0.36775000  0.54723000  1.0
  C  C167  1  0.46982000  0.13225000  0.95277000  1.0
  C  C168  1  0.28017000  0.20987000  0.45731000  1.0
  C  C169  1  0.78017000  0.29014000  0.04269000  1.0
  C  C170  1  0.71983000  0.79013000  0.54269000  1.0
  C  C171  1  0.21984000  0.70986000  0.95731000  1.0
  C  C172  1  0.52382000  0.16918000  0.49400000  1.0
  C  C173  1  0.02382000  0.33083000  0.00600000  1.0
  C  C174  1  0.47618000  0.83083000  0.50600000  1.0
  C  C175  1  0.97619000  0.66917000  0.99400000  1.0
  C  C176  1  0.30867000  0.05248000  0.47009000  1.0
  C  C177  1  0.80867000  0.44753000  0.02991000  1.0
  C  C178  1  0.69133000  0.94752000  0.52991000  1.0
  C  C179  1  0.19133000  0.55247000  0.97009000  1.0
  I  I180  1  0.05336000  0.22954000  0.74140000  1.0
  I  I181  1  0.55336000  0.27046000  0.75859000  1.0
  I  I182  1  0.94664000  0.77046000  0.25859000  1.0
  I  I183  1  0.44664000  0.72954000  0.24141000  1.0
  I  I184  1  0.82672000  0.40056000  0.87673000  1.0
  I  I185  1  0.32672000  0.09944000  0.62327000  1.0
  I  I186  1  0.17328000  0.59944000  0.12327000  1.0
  I  I187  1  0.67328000  0.90056000  0.37673000  1.0
  I  I188  1  0.26588000  0.51860000  0.82740000  1.0
  I  I189  1  0.76587000  0.98140000  0.67260000  1.0
  I  I190  1  0.73412000  0.48140000  0.17260000  1.0
  I  I191  1  0.23412000  0.01859000  0.32739000  1.0
  I  I192  1  0.82183000  0.49576000  0.73122000  1.0
  I  I193  1  0.32182000  0.00424000  0.76878000  1.0
  I  I194  1  0.17818000  0.50424000  0.26878000  1.0
  I  I195  1  0.67817000  0.99576000  0.23122000  1.0
  N  N196  1  0.36647000  0.14671000  0.47344000  1.0
  N  N197  1  0.86647000  0.35329000  0.02656000  1.0
  N  N198  1  0.63353000  0.85329000  0.52656000  1.0
  N  N199  1  0.13354000  0.64671000  0.97345000  1.0
  N  N200  1  0.35200000  0.86790000  0.65101000  1.0
  N  N201  1  0.85201000  0.63211000  0.84899000  1.0
  N  N202  1  0.64800000  0.13210000  0.34899000  1.0
  N  N203  1  0.14799000  0.36789000  0.15101000  1.0
  N  N204  1  0.24322000  0.42776000  0.69467000  1.0
  N  N205  1  0.74322000  0.07224000  0.80534000  1.0
  N  N206  1  0.75678000  0.57224000  0.30533000  1.0
  N  N207  1  0.25678000  0.92776000  0.19466000  1.0
  N  N208  1  0.26760000  0.78765000  0.36218000  1.0
  N  N209  1  0.76760000  0.71235000  0.13782000  1.0
  N  N210  1  0.73240000  0.21235000  0.63783000  1.0
  N  N211  1  0.23240000  0.28765000  0.86218000  1.0
  O  O212  1  0.20194000  0.55596000  0.55352000  1.0
  O  O213  1  0.70194000  0.94405000  0.94648000  1.0
  O  O214  1  0.79807000  0.44404000  0.44648000  1.0
  O  O215  1  0.29807000  0.05595000  0.05352000  1.0
  O  O216  1  0.96655000  0.63163000  0.56685000  1.0
  O  O217  1  0.46655000  0.86838000  0.93314000  1.0
  O  O218  1  0.03345000  0.36837000  0.43315000  1.0
  O  O219  1  0.53345000  0.13163000  0.06685000  1.0
  O  O220  1  0.45380000  0.42724000  0.53079000  1.0
  O  O221  1  0.95381000  0.07277000  0.96921000  1.0
  O  O222  1  0.54620000  0.57276000  0.46921000  1.0
  O  O223  1  0.04619000  0.92724000  0.03079000  1.0
  O  O224  1  0.60387000  0.53666000  0.57702000  1.0
  O  O225  1  0.10387000  0.96334000  0.92298000  1.0
  O  O226  1  0.39612000  0.46334000  0.42298000  1.0
  O  O227  1  0.89613000  0.03666000  0.07702000  1.0
  O  O228  1  0.89497000  0.65885000  0.47009000  1.0
  O  O229  1  0.39499000  0.84115000  0.02991000  1.0
  O  O230  1  0.10502000  0.34115000  0.52991000  1.0
  O  O231  1  0.60502000  0.15885000  0.97009000  1.0
  O  O232  1  0.10300000  0.56192000  0.46151000  1.0
  O  O233  1  0.60302000  0.93808000  0.03849000  1.0
  O  O234  1  0.89699000  0.43808000  0.53849000  1.0
  O  O235  1  0.39699000  0.06192000  0.96151000  1.0
  O  O236  1  0.32835000  0.28994000  0.45643000  1.0
  O  O237  1  0.82835000  0.21006000  0.04357000  1.0
  O  O238  1  0.67166000  0.71006000  0.54357000  1.0
  O  O239  1  0.17166000  0.78994000  0.95643000  1.0
