# generated using pymatgen
data_CdH6C10(NCl3)2
_symmetry_space_group_name_H-M   'P 1'
_cell_length_a   3.77098000
_cell_length_b   14.08420000
_cell_length_c   14.08420000
_cell_angle_alpha   90.00000000
_cell_angle_beta   90.00000000
_cell_angle_gamma   90.00000000
_symmetry_Int_Tables_number   1
_chemical_formula_structural   CdH6C10(NCl3)2
_chemical_formula_sum   'Cd2 H12 C20 N4 Cl12'
_cell_volume   748.02927734
_cell_formula_units_Z   2
loop_
 _symmetry_equiv_pos_site_id
 _symmetry_equiv_pos_as_xyz
  1  'x, y, z'
loop_
 _atom_site_type_symbol
 _atom_site_label
 _atom_site_symmetry_multiplicity
 _atom_site_fract_x
 _atom_site_fract_y
 _atom_site_fract_z
 _atom_site_occupancy
  Cd  Cd0  1  0.50000000  0.50000000  0.00000000  1.0
  Cd  Cd1  1  0.50000000  0.00000000  0.50000000  1.0
  H  H2  1  0.68086000  0.52452000  0.22159000  1.0
  H  H3  1  0.68086000  0.47548000  0.77841000  1.0
  H  H4  1  0.31914000  0.22159000  0.47548000  1.0
  H  H5  1  0.31914000  0.77841000  0.52452000  1.0
  H  H6  1  0.68086000  0.02452000  0.27841000  1.0
  H  H7  1  0.68086000  0.97548000  0.72159000  1.0
  H  H8  1  0.31914000  0.72159000  0.02452000  1.0
  H  H9  1  0.31914000  0.27841000  0.97548000  1.0
  H  H10  1  0.50000000  0.81397000  0.31396000  1.0
  H  H11  1  0.50000000  0.18604000  0.68603000  1.0
  H  H12  1  0.50000000  0.31396000  0.18603000  1.0
  H  H13  1  0.50000000  0.68603000  0.81397000  1.0
  C  C14  1  0.60073000  0.59764000  0.20808000  1.0
  C  C15  1  0.60073000  0.40236000  0.79192000  1.0
  C  C16  1  0.39927000  0.20808000  0.40236000  1.0
  C  C17  1  0.39927000  0.79192000  0.59764000  1.0
  C  C18  1  0.60073000  0.09764000  0.29192000  1.0
  C  C19  1  0.60073000  0.90236000  0.70808000  1.0
  C  C20  1  0.39927000  0.70808000  0.09764000  1.0
  C  C21  1  0.39927000  0.29192000  0.90236000  1.0
  C  C22  1  0.60570000  0.66650000  0.27933000  1.0
  C  C23  1  0.60570000  0.33350000  0.72067000  1.0
  C  C24  1  0.39430000  0.27933000  0.33350000  1.0
  C  C25  1  0.39430000  0.72067000  0.66650000  1.0
  C  C26  1  0.60570000  0.16650000  0.22067000  1.0
  C  C27  1  0.60570000  0.83350000  0.77933000  1.0
  C  C28  1  0.39430000  0.77933000  0.16650000  1.0
  C  C29  1  0.39430000  0.22067000  0.83350000  1.0
  C  C30  1  0.50000000  0.75932000  0.25932000  1.0
  C  C31  1  0.50000000  0.24068000  0.74068000  1.0
  C  C32  1  0.50000000  0.25932000  0.24068000  1.0
  C  C33  1  0.50000000  0.74068000  0.75932000  1.0
  N  N34  1  0.50000000  0.61946000  0.11946000  1.0
  N  N35  1  0.50000000  0.38054000  0.88054000  1.0
  N  N36  1  0.50000000  0.11946000  0.38054000  1.0
  N  N37  1  0.50000000  0.88054000  0.61946000  1.0
  Cl  Cl38  1  0.00000000  0.40696000  0.09304000  1.0
  Cl  Cl39  1  0.00000000  0.59304000  0.90696000  1.0
  Cl  Cl40  1  0.00000000  0.09304000  0.59304000  1.0
  Cl  Cl41  1  0.00000000  0.90696000  0.40696000  1.0
  Cl  Cl42  1  0.74379000  0.63531000  0.39188000  1.0
  Cl  Cl43  1  0.74378000  0.36469000  0.60812000  1.0
  Cl  Cl44  1  0.25621000  0.39188000  0.36469000  1.0
  Cl  Cl45  1  0.25621000  0.60812000  0.63531000  1.0
  Cl  Cl46  1  0.74379000  0.13531000  0.10812000  1.0
  Cl  Cl47  1  0.74379000  0.86469000  0.89188000  1.0
  Cl  Cl48  1  0.25621000  0.89188000  0.13531000  1.0
  Cl  Cl49  1  0.25621000  0.10812000  0.86469000  1.0
