# generated using pymatgen
data_SbH16C10S4IN2
_symmetry_space_group_name_H-M   'P 1'
_cell_length_a   5.72050000
_cell_length_b   8.59114000
_cell_length_c   17.11965202
_cell_angle_alpha   82.70663941
_cell_angle_beta   80.58800885
_cell_angle_gamma   79.84700000
_symmetry_Int_Tables_number   1
_chemical_formula_structural   SbH16C10S4IN2
_chemical_formula_sum   'Sb2 H32 C20 S8 I2 N4'
_cell_volume   812.85007958
_cell_formula_units_Z   2
loop_
 _symmetry_equiv_pos_site_id
 _symmetry_equiv_pos_as_xyz
  1  'x, y, z'
loop_
 _atom_site_type_symbol
 _atom_site_label
 _atom_site_symmetry_multiplicity
 _atom_site_fract_x
 _atom_site_fract_y
 _atom_site_fract_z
 _atom_site_occupancy
  Sb  Sb0  1  0.25280000  0.13462000  0.75528000  1.0
  Sb  Sb1  1  0.74722000  0.86538000  0.24472000  1.0
  H  H2  1  0.06403000  0.08191000  0.09053000  1.0
  H  H3  1  0.93600000  0.91811000  0.90946000  1.0
  H  H4  1  0.26334000  0.22012000  0.05635000  1.0
  H  H5  1  0.73665000  0.77990000  0.94365000  1.0
  H  H6  1  0.29653000  0.57311000  0.48790000  1.0
  H  H7  1  0.70346000  0.42689000  0.51210000  1.0
  H  H8  1  0.01705000  0.62208000  0.54860000  1.0
  H  H9  1  0.98295000  0.37793000  0.45140000  1.0
  H  H10  1  0.93115000  0.26953000  0.18978000  1.0
  H  H11  1  0.06884000  0.73047000  0.81022000  1.0
  H  H12  1  0.98873000  0.43373000  0.12061000  1.0
  H  H13  1  0.01124000  0.56627000  0.87940000  1.0
  H  H14  1  0.24571000  0.85894000  0.45901000  1.0
  H  H15  1  0.75430000  0.14106000  0.54099000  1.0
  H  H16  1  0.08063000  0.88815000  0.55508000  1.0
  H  H17  1  0.91937000  0.11185000  0.44492000  1.0
  H  H18  1  0.58132000  0.23938000  0.12929000  1.0
  H  H19  1  0.41867000  0.76060000  0.87071000  1.0
  H  H20  1  0.55531000  0.44927000  0.12489000  1.0
  H  H21  1  0.44465000  0.55072000  0.87512000  1.0
  H  H22  1  0.62390000  0.79016000  0.51336000  1.0
  H  H23  1  0.37610000  0.20984000  0.48664000  1.0
  H  H24  1  0.47053000  0.93937000  0.57451000  1.0
  H  H25  1  0.52947000  0.06063000  0.42549000  1.0
  H  H26  1  0.72877000  0.47059000  0.98553000  1.0
  H  H27  1  0.27123000  0.52943000  0.01447000  1.0
  H  H28  1  0.58992000  0.30033000  0.98659000  1.0
  H  H29  1  0.41009000  0.69968000  0.01340000  1.0
  H  H30  1  0.36328000  0.74894000  0.68381000  1.0
  H  H31  1  0.63671000  0.25105000  0.31619000  1.0
  H  H32  1  0.63612000  0.63716000  0.64170000  1.0
  H  H33  1  0.36388000  0.36283000  0.35830000  1.0
  C  C34  1  0.05817000  0.21537000  0.92466000  1.0
  C  C35  1  0.94182000  0.78464000  0.07535000  1.0
  C  C36  1  0.29250000  0.44597000  0.65249000  1.0
  C  C37  1  0.70751000  0.55404000  0.34750000  1.0
  C  C38  1  0.07297000  0.20772000  0.06961000  1.0
  C  C39  1  0.92703000  0.79229000  0.93039000  1.0
  C  C40  1  0.20481000  0.64120000  0.53760000  1.0
  C  C41  1  0.79519000  0.35880000  0.46240000  1.0
  C  C42  1  0.92240000  0.31941000  0.12798000  1.0
  C  C43  1  0.07761000  0.68059000  0.87202000  1.0
  C  C44  1  0.23478000  0.81606000  0.52248000  1.0
  C  C45  1  0.76523000  0.18393000  0.47752000  1.0
  C  C46  1  0.67062000  0.34188000  0.10432000  1.0
  C  C47  1  0.32938000  0.65812000  0.89568000  1.0
  C  C48  1  0.46410000  0.82200000  0.55705000  1.0
  C  C49  1  0.53591000  0.17798000  0.44296000  1.0
  C  C50  1  0.71985000  0.34866000  0.01362000  1.0
  C  C51  1  0.28016000  0.65135000  0.98638000  1.0
  C  C52  1  0.45816000  0.69766000  0.62928000  1.0
  C  C53  1  0.54184000  0.30232000  0.37072000  1.0
  S  S54  1  0.89705000  0.27968000  0.84621000  1.0
  S  S55  1  0.10296000  0.72034000  0.15379000  1.0
  S  S56  1  0.10997000  0.32428000  0.62982000  1.0
  S  S57  1  0.89003000  0.67572000  0.37018000  1.0
  S  S58  1  0.44116000  0.38891000  0.73412000  1.0
  S  S59  1  0.55885000  0.61108000  0.26587000  1.0
  S  S60  1  0.34171000  0.10875000  0.90799000  1.0
  S  S61  1  0.65828000  0.89125000  0.09202000  1.0
  I  I62  1  0.80193000  0.96668000  0.71039000  1.0
  I  I63  1  0.19808000  0.03329000  0.28962000  1.0
  N  N64  1  0.95868000  0.25221000  0.99718000  1.0
  N  N65  1  0.04132000  0.74780000  0.00282000  1.0
  N  N66  1  0.31985000  0.58277000  0.60903000  1.0
  N  N67  1  0.68015000  0.41721000  0.39098000  1.0
