# generated using pymatgen
data_CdH9C11I2N3O
_symmetry_space_group_name_H-M   'P 1'
_cell_length_a   8.04845000
_cell_length_b   12.40900000
_cell_length_c   14.46020000
_cell_angle_alpha   90.00000000
_cell_angle_beta   90.00000000
_cell_angle_gamma   92.45570000
_symmetry_Int_Tables_number   1
_chemical_formula_structural   CdH9C11I2N3O
_chemical_formula_sum   'Cd4 H36 C44 I8 N12 O4'
_cell_volume   1442.86040792
_cell_formula_units_Z   4
loop_
 _symmetry_equiv_pos_site_id
 _symmetry_equiv_pos_as_xyz
  1  'x, y, z'
loop_
 _atom_site_type_symbol
 _atom_site_label
 _atom_site_symmetry_multiplicity
 _atom_site_fract_x
 _atom_site_fract_y
 _atom_site_fract_z
 _atom_site_occupancy
  Cd  Cd0  1  0.79700000  0.20639000  0.37081000  1.0
  Cd  Cd1  1  0.70300000  0.29361000  0.87081000  1.0
  Cd  Cd2  1  0.20300000  0.79361000  0.62919000  1.0
  Cd  Cd3  1  0.29700000  0.70639000  0.12919000  1.0
  H  H4  1  0.45820000  0.23215000  0.47996000  1.0
  H  H5  1  0.04180000  0.26785000  0.97995000  1.0
  H  H6  1  0.54181000  0.76785000  0.52004000  1.0
  H  H7  1  0.95819000  0.73215000  0.02004000  1.0
  H  H8  1  0.50431000  0.49471000  0.67579000  1.0
  H  H9  1  0.99569000  0.00530000  0.17580000  1.0
  H  H10  1  0.49570000  0.50529000  0.32421000  1.0
  H  H11  1  0.00430000  0.99470000  0.82420000  1.0
  H  H12  1  0.80733000  0.51564000  0.63165000  1.0
  H  H13  1  0.69267000  0.98436000  0.13165000  1.0
  H  H14  1  0.19267000  0.48436000  0.36835000  1.0
  H  H15  1  0.30733000  0.01564000  0.86835000  1.0
  H  H16  1  0.91501000  0.39551000  0.50781000  1.0
  H  H17  1  0.58499000  0.10449000  0.00781000  1.0
  H  H18  1  0.08499000  0.60449000  0.49219000  1.0
  H  H19  1  0.41500000  0.89551000  0.99219000  1.0
  H  H20  1  0.03975000  0.08146000  0.53845000  1.0
  H  H21  1  0.46025000  0.41854000  0.03845000  1.0
  H  H22  1  0.96025000  0.91854000  0.46155000  1.0
  H  H23  1  0.53975000  0.58146000  0.96155000  1.0
  H  H24  1  0.76844000  0.00400000  0.60263000  1.0
  H  H25  1  0.73156000  0.49600000  0.10263000  1.0
  H  H26  1  0.23156000  0.99600000  0.39737000  1.0
  H  H27  1  0.26844000  0.50400000  0.89737000  1.0
  H  H28  1  0.28027000  0.18906000  0.58132000  1.0
  H  H29  1  0.21973000  0.31094000  0.08132000  1.0
  H  H30  1  0.71973000  0.81094000  0.41868000  1.0
  H  H31  1  0.78027000  0.68906000  0.91868000  1.0
  H  H32  1  0.64117000  0.09572000  0.73733000  1.0
  H  H33  1  0.85883000  0.40428000  0.23733000  1.0
  H  H34  1  0.35883000  0.90428000  0.26267000  1.0
  H  H35  1  0.14117000  0.59572000  0.76267000  1.0
  H  H36  1  0.01905000  0.33517000  0.74163000  1.0
  H  H37  1  0.48095000  0.16483000  0.24163000  1.0
  H  H38  1  0.98095000  0.66483000  0.25837000  1.0
  H  H39  1  0.51905000  0.83517000  0.75837000  1.0
  C  C40  1  0.52946000  0.29668000  0.51554000  1.0
  C  C41  1  0.97054000  0.20332000  0.01554000  1.0
  C  C42  1  0.47054000  0.70332000  0.48446000  1.0
  C  C43  1  0.02946000  0.79667000  0.98446000  1.0
  C  C44  1  0.45766000  0.36200000  0.58212000  1.0
  C  C45  1  0.04234000  0.13801000  0.08212000  1.0
  C  C46  1  0.54235000  0.63800000  0.41788000  1.0
  C  C47  1  0.95765000  0.86199000  0.91788000  1.0
  C  C48  1  0.55842000  0.44315000  0.62375000  1.0
  C  C49  1  0.94158000  0.05686000  0.12376000  1.0
  C  C50  1  0.44158000  0.55685000  0.37625000  1.0
  C  C51  1  0.05842000  0.94314000  0.87624000  1.0
  C  C52  1  0.72508000  0.45499000  0.59892000  1.0
  C  C53  1  0.77492000  0.04502000  0.09892000  1.0
  C  C54  1  0.27492000  0.54501000  0.40108000  1.0
  C  C55  1  0.22508000  0.95498000  0.90107000  1.0
  C  C56  1  0.78585000  0.38805000  0.53062000  1.0
  C  C57  1  0.71415000  0.11195000  0.03062000  1.0
  C  C58  1  0.21415000  0.61195000  0.46938000  1.0
  C  C59  1  0.28585000  0.88805000  0.96938000  1.0
  C  C60  1  0.27833000  0.35132000  0.61085000  1.0
  C  C61  1  0.22167000  0.14868000  0.11085000  1.0
  C  C62  1  0.72167000  0.64868000  0.38915000  1.0
  C  C63  1  0.77833000  0.85132000  0.88915000  1.0
  C  C64  1  0.05174000  0.21248000  0.63640000  1.0
  C  C65  1  0.44826000  0.28752000  0.13640000  1.0
  C  C66  1  0.94826000  0.78752000  0.36360000  1.0
  C  C67  1  0.55174000  0.71248000  0.86360000  1.0
  C  C68  1  0.97838000  0.11892000  0.59656000  1.0
  C  C69  1  0.52162000  0.38108000  0.09656000  1.0
  C  C70  1  0.02162000  0.88108000  0.40344000  1.0
  C  C71  1  0.47838000  0.61892000  0.90344000  1.0
  C  C72  1  0.82928000  0.07617000  0.63196000  1.0
  C  C73  1  0.67072000  0.42383000  0.13196000  1.0
  C  C74  1  0.17072000  0.92383000  0.36803000  1.0
  C  C75  1  0.32928000  0.57617000  0.86804000  1.0
  C  C76  1  0.75680000  0.12728000  0.70648000  1.0
  C  C77  1  0.74320000  0.37272000  0.20648000  1.0
  C  C78  1  0.24320000  0.87272000  0.29352000  1.0
  C  C79  1  0.25680000  0.62728000  0.79352000  1.0
  C  C80  1  0.96960000  0.26109000  0.70975000  1.0
  C  C81  1  0.53040000  0.23892000  0.20975000  1.0
  C  C82  1  0.03040000  0.73891000  0.29025000  1.0
  C  C83  1  0.46960000  0.76108000  0.79025000  1.0
  I  I84  1  0.13124000  0.24490000  0.35422000  1.0
  I  I85  1  0.36876000  0.25510000  0.85422000  1.0
  I  I86  1  0.86876000  0.75510000  0.64578000  1.0
  I  I87  1  0.63124000  0.74491000  0.14578000  1.0
  I  I88  1  0.62693000  0.01140000  0.37829000  1.0
  I  I89  1  0.87307000  0.48860000  0.87829000  1.0
  I  I90  1  0.37307000  0.98859000  0.62171000  1.0
  I  I91  1  0.12693000  0.51140000  0.12171000  1.0
  N  N92  1  0.68961000  0.31062000  0.48955000  1.0
  N  N93  1  0.81039000  0.18938000  0.98955000  1.0
  N  N94  1  0.31039000  0.68938000  0.51045000  1.0
  N  N95  1  0.18961000  0.81062000  0.01045000  1.0
  N  N96  1  0.20835000  0.24918000  0.60492000  1.0
  N  N97  1  0.29165000  0.25082000  0.10492000  1.0
  N  N98  1  0.79165000  0.75082000  0.39508000  1.0
  N  N99  1  0.70835000  0.74918000  0.89508000  1.0
  N  N100  1  0.82612000  0.21796000  0.74359000  1.0
  N  N101  1  0.67388000  0.28204000  0.24359000  1.0
  N  N102  1  0.17388000  0.78204000  0.25641000  1.0
  N  N103  1  0.32612000  0.71796000  0.75641000  1.0
  O  O104  1  0.20327000  0.43028000  0.63819000  1.0
  O  O105  1  0.29673000  0.06972000  0.13819000  1.0
  O  O106  1  0.79673000  0.56972000  0.36181000  1.0
  O  O107  1  0.70327000  0.93028000  0.86181000  1.0
