# generated using pymatgen
data_ZnH17C23NCl2O5
_symmetry_space_group_name_H-M   'P 1'
_cell_length_a   13.96840000
_cell_length_b   15.32230000
_cell_length_c   17.14250000
_cell_angle_alpha   90.66410000
_cell_angle_beta   100.46900000
_cell_angle_gamma   92.11450000
_symmetry_Int_Tables_number   1
_chemical_formula_structural   ZnH17C23NCl2O5
_chemical_formula_sum   'Zn2 H34 C46 N2 Cl4 O10'
_cell_volume   3604.81762046
_cell_formula_units_Z   2
loop_
 _symmetry_equiv_pos_site_id
 _symmetry_equiv_pos_as_xyz
  1  'x, y, z'
loop_
 _atom_site_type_symbol
 _atom_site_label
 _atom_site_symmetry_multiplicity
 _atom_site_fract_x
 _atom_site_fract_y
 _atom_site_fract_z
 _atom_site_occupancy
  Zn  Zn0  1  0.60305000  0.50125000  0.49962000  1.0
  Zn  Zn1  1  0.39954000  0.49760000  0.49667000  1.0
  H  H2  1  0.39182000  0.58565000  0.71429000  1.0
  H  H3  1  0.60936000  0.59771000  0.02014000  1.0
  H  H4  1  0.68605000  0.54748000  0.91822000  1.0
  H  H5  1  0.30783000  0.53936000  0.07929000  1.0
  H  H6  1  0.60671000  0.63495000  0.14377000  1.0
  H  H7  1  0.39036000  0.63009000  0.85359000  1.0
  H  H8  1  0.64610000  0.06845000  0.46609000  1.0
  H  H9  1  0.36157000  0.93046000  0.43208000  1.0
  H  H10  1  0.63852000  0.23079000  0.46714000  1.0
  H  H11  1  0.36654000  0.76790000  0.43846000  1.0
  H  H12  1  0.36259000  0.05143000  0.53196000  1.0
  H  H13  1  0.60548000  0.59110000  0.28244000  1.0
  H  H14  1  0.65206000  0.95050000  0.57069000  1.0
  H  H15  1  0.01835000  0.47620000  0.72459000  1.0
  H  H16  1  0.01743000  0.55746000  0.65109000  1.0
  H  H17  1  0.19453000  0.51160000  0.77587000  1.0
  H  H18  1  0.19694000  0.58991000  0.70118000  1.0
  H  H19  1  0.07590000  0.67927000  0.75698000  1.0
  H  H20  1  0.18023000  0.66267000  0.83040000  1.0
  H  H21  1  0.07061000  0.60068000  0.83148000  1.0
  H  H22  1  0.99398000  0.76913000  0.54946000  1.0
  H  H23  1  0.87970000  0.72348000  0.56474000  1.0
  H  H24  1  0.27479000  0.44956000  0.61444000  1.0
  H  H25  1  0.91499000  0.79545000  0.40581000  1.0
  H  H26  1  0.80038000  0.76785000  0.43101000  1.0
  H  H27  1  0.82956000  0.88787000  0.53755000  1.0
  H  H28  1  0.83141000  0.93026000  0.44189000  1.0
  H  H29  1  0.94246000  0.91667000  0.50898000  1.0
  H  H30  1  0.75695000  0.63652000  0.48835000  1.0
  H  H31  1  0.22245000  0.54072000  0.38427000  1.0
  H  H32  1  0.75277000  0.36986000  0.52242000  1.0
  H  H33  1  0.04308000  0.55011000  0.38530000  1.0
  H  H34  1  0.93405000  0.36371000  0.52577000  1.0
  H  H35  1  0.38553000  0.59283000  0.97747000  1.0
  C  C36  1  0.49965000  0.33099000  0.49639000  1.0
  C  C37  1  0.59145000  0.82037000  0.54260000  1.0
  C  C38  1  0.42300000  0.08991000  0.51587000  1.0
  C  C39  1  0.58981000  0.91122000  0.53959000  1.0
  C  C40  1  0.50439000  0.04824000  0.49840000  1.0
  C  C41  1  0.50697000  0.95191000  0.49984000  1.0
  C  C42  1  0.12248000  0.47277000  0.57009000  1.0
  C  C43  1  0.90036000  0.58072000  0.49650000  1.0
  C  C44  1  0.22095000  0.47067000  0.56464000  1.0
  C  C45  1  0.79986000  0.57815000  0.49561000  1.0
  C  C46  1  0.19098000  0.52262000  0.43585000  1.0
  C  C47  1  0.51059000  0.66979000  0.50305000  1.0
  C  C48  1  0.79763000  0.42773000  0.51485000  1.0
  C  C49  1  0.09222000  0.52711000  0.43709000  1.0
  C  C50  1  0.89722000  0.42516000  0.51614000  1.0
  C  C51  1  0.52849000  0.51494000  0.65109000  1.0
  C  C52  1  0.46682000  0.51666000  0.34567000  1.0
  C  C53  1  0.05569000  0.50123000  0.50448000  1.0
  C  C54  1  0.95013000  0.50184000  0.50544000  1.0
  C  C55  1  0.53780000  0.54196000  0.73653000  1.0
  C  C56  1  0.45763000  0.54192000  0.26038000  1.0
  C  C57  1  0.45589000  0.57777000  0.76012000  1.0
  C  C58  1  0.58278000  0.09983000  0.48102000  1.0
  C  C59  1  0.54053000  0.58079000  0.23685000  1.0
  C  C60  1  0.45523000  0.60210000  0.83804000  1.0
  C  C61  1  0.54102000  0.60453000  0.15924000  1.0
  C  C62  1  0.53754000  0.58933000  0.89723000  1.0
  C  C63  1  0.45774000  0.58799000  0.10019000  1.0
  C  C64  1  0.62125000  0.55764000  0.87368000  1.0
  C  C65  1  0.37334000  0.55274000  0.12367000  1.0
  C  C66  1  0.62174000  0.53440000  0.79484000  1.0
  C  C67  1  0.37300000  0.53022000  0.20224000  1.0
  C  C68  1  0.53768000  0.59907000  0.98185000  1.0
  C  C69  1  0.42608000  0.89956000  0.46363000  1.0
  C  C70  1  0.45738000  0.59746000  0.01571000  1.0
  C  C71  1  0.06374000  0.51135000  0.68819000  1.0
  C  C72  1  0.15032000  0.55949000  0.73960000  1.0
  C  C73  1  0.11741000  0.62924000  0.79250000  1.0
  C  C74  1  0.92508000  0.73690000  0.51973000  1.0
  C  C75  1  0.87410000  0.79488000  0.45499000  1.0
  C  C76  1  0.86901000  0.88765000  0.48765000  1.0
  C  C77  1  0.57847000  0.19020000  0.48118000  1.0
  C  C78  1  0.42883000  0.80910000  0.46655000  1.0
  C  C79  1  0.49728000  0.23299000  0.49832000  1.0
  C  C80  1  0.51169000  0.76769000  0.50515000  1.0
  C  C81  1  0.41927000  0.18086000  0.51619000  1.0
  N  N82  1  0.25377000  0.49496000  0.49895000  1.0
  N  N83  1  0.75062000  0.50286000  0.50394000  1.0
  Cl  Cl84  1  0.26593000  0.48223000  0.22256000  1.0
  Cl  Cl85  1  0.72755000  0.49117000  0.77411000  1.0
  Cl  Cl86  1  0.31734000  0.22441000  0.54383000  1.0
  Cl  Cl87  1  0.69205000  0.77445000  0.59997000  1.0
  O  O88  1  0.58388000  0.36910000  0.51240000  1.0
  O  O89  1  0.95456000  0.65480000  0.49014000  1.0
  O  O90  1  0.43425000  0.63091000  0.51784000  1.0
  O  O91  1  0.41937000  0.36823000  0.47805000  1.0
  O  O92  1  0.58442000  0.63448000  0.48430000  1.0
  O  O93  1  0.60222000  0.52602000  0.61816000  1.0
  O  O94  1  0.39330000  0.52548000  0.37892000  1.0
  O  O95  1  0.44447000  0.48492000  0.61754000  1.0
  O  O96  1  0.54980000  0.49071000  0.37854000  1.0
  O  O97  1  0.09383000  0.44414000  0.63811000  1.0
