# generated using pymatgen
data_Cd3H12C16(NO8)2
_symmetry_space_group_name_H-M   'P 1'
_cell_length_a   6.57580000
_cell_length_b   8.35896000
_cell_length_c   10.07640000
_cell_angle_alpha   109.14100000
_cell_angle_beta   98.66540000
_cell_angle_gamma   98.67600000
_symmetry_Int_Tables_number   1
_chemical_formula_structural   Cd3H12C16(NO8)2
_chemical_formula_sum   'Cd3 H12 C16 N2 O16'
_cell_volume   505.24386138
_cell_formula_units_Z   1
loop_
 _symmetry_equiv_pos_site_id
 _symmetry_equiv_pos_as_xyz
  1  'x, y, z'
loop_
 _atom_site_type_symbol
 _atom_site_label
 _atom_site_symmetry_multiplicity
 _atom_site_fract_x
 _atom_site_fract_y
 _atom_site_fract_z
 _atom_site_occupancy
  Cd  Cd0  1  0.92796000  0.93690000  0.67674000  1.0
  Cd  Cd1  1  0.07204000  0.06311000  0.32326000  1.0
  Cd  Cd2  1  0.50000000  0.50000000  0.00000000  1.0
  H  H3  1  0.71116000  0.32901000  0.21532000  1.0
  H  H4  1  0.28884000  0.67100000  0.78469000  1.0
  H  H5  1  0.62279000  0.27985000  0.61757000  1.0
  H  H6  1  0.37721000  0.72015000  0.38243000  1.0
  H  H7  1  0.03111000  0.26336000  0.87499000  1.0
  H  H8  1  0.96889000  0.73664000  0.12501000  1.0
  H  H9  1  0.02469000  0.16811000  0.98804000  1.0
  H  H10  1  0.97532000  0.83189000  0.01196000  1.0
  H  H11  1  0.46246000  0.14743000  0.88910000  1.0
  H  H12  1  0.53754000  0.85257000  0.11090000  1.0
  H  H13  1  0.70964000  0.22096000  0.93623000  1.0
  H  H14  1  0.29036000  0.77904000  0.06377000  1.0
  C  C15  1  0.79080000  0.56336000  0.40448000  1.0
  C  C16  1  0.20920000  0.43664000  0.59552000  1.0
  C  C17  1  0.71927000  0.38514000  0.33056000  1.0
  C  C18  1  0.28073000  0.61486000  0.66944000  1.0
  C  C19  1  0.65836000  0.28068000  0.40725000  1.0
  C  C20  1  0.34164000  0.71932000  0.59275000  1.0
  C  C21  1  0.66934000  0.35732000  0.55439000  1.0
  C  C22  1  0.33066000  0.64268000  0.44561000  1.0
  C  C23  1  0.74858000  0.53564000  0.62072000  1.0
  C  C24  1  0.25142000  0.46436000  0.37928000  1.0
  C  C25  1  0.77275000  0.62281000  0.78130000  1.0
  C  C26  1  0.22725000  0.37719000  0.21870000  1.0
  C  C27  1  0.86114000  0.68194000  0.32732000  1.0
  C  C28  1  0.13886000  0.31806000  0.67268000  1.0
  C  C29  1  0.58477000  0.08805000  0.33192000  1.0
  C  C30  1  0.41523000  0.91195000  0.66809000  1.0
  N  N31  1  0.80841000  0.63575000  0.54703000  1.0
  N  N32  1  0.19159000  0.36425000  0.45297000  1.0
  O  O33  1  0.96328000  0.83405000  0.40522000  1.0
  O  O34  1  0.03672000  0.16596000  0.59478000  1.0
  O  O35  1  0.82004000  0.61853000  0.19067000  1.0
  O  O36  1  0.17996000  0.38147000  0.80933000  1.0
  O  O37  1  0.70252000  0.01267000  0.25227000  1.0
  O  O38  1  0.29748000  0.98733000  0.74773000  1.0
  O  O39  1  0.41554000  0.01230000  0.34889000  1.0
  O  O40  1  0.58446000  0.98771000  0.65111000  1.0
  O  O41  1  0.71083000  0.52470000  0.84599000  1.0
  O  O42  1  0.28918000  0.47530000  0.15401000  1.0
  O  O43  1  0.85551000  0.78409000  0.83797000  1.0
  O  O44  1  0.14450000  0.21591000  0.16203000  1.0
  O  O45  1  0.94326000  0.16875000  0.89582000  1.0
  O  O46  1  0.05674000  0.83125000  0.10418000  1.0
  O  O47  1  0.57429000  0.23758000  0.96771000  1.0
  O  O48  1  0.42571000  0.76242000  0.03229000  1.0
