# generated using pymatgen
data_KH7C8SO2
_symmetry_space_group_name_H-M   'P 1'
_cell_length_a   6.99330000
_cell_length_b   8.32134000
_cell_length_c   15.10580000
_cell_angle_alpha   98.85640000
_cell_angle_beta   89.99980000
_cell_angle_gamma   89.99970000
_symmetry_Int_Tables_number   1
_chemical_formula_structural   KH7C8SO2
_chemical_formula_sum   'K4 H28 C32 S4 O8'
_cell_volume   868.58051462
_cell_formula_units_Z   4
loop_
 _symmetry_equiv_pos_site_id
 _symmetry_equiv_pos_as_xyz
  1  'x, y, z'
loop_
 _atom_site_type_symbol
 _atom_site_label
 _atom_site_symmetry_multiplicity
 _atom_site_fract_x
 _atom_site_fract_y
 _atom_site_fract_z
 _atom_site_occupancy
  K  K0  1  0.60842000  0.19638000  0.93657000  1.0
  K  K1  1  0.89158000  0.69638000  0.93657000  1.0
  K  K2  1  0.39158000  0.80362000  0.06343000  1.0
  K  K3  1  0.10843000  0.30362000  0.06343000  1.0
  H  H4  1  0.42866000  0.98972000  0.42782000  1.0
  H  H5  1  0.07133000  0.48973000  0.42782000  1.0
  H  H6  1  0.57133000  0.01027000  0.57218000  1.0
  H  H7  1  0.92867000  0.51027000  0.57218000  1.0
  H  H8  1  0.50476000  0.26401000  0.50824000  1.0
  H  H9  1  0.99523000  0.76402000  0.50824000  1.0
  H  H10  1  0.49523000  0.73598000  0.49176000  1.0
  H  H11  1  0.00478000  0.23598000  0.49176000  1.0
  H  H12  1  0.61031000  0.48313000  0.42322000  1.0
  H  H13  1  0.88969000  0.98313000  0.42322000  1.0
  H  H14  1  0.38968000  0.51687000  0.57678000  1.0
  H  H15  1  0.11032000  0.01687000  0.57678000  1.0
  H  H16  1  0.63837000  0.42272000  0.25606000  1.0
  H  H17  1  0.86163000  0.92272000  0.25606000  1.0
  H  H18  1  0.36162000  0.57728000  0.74395000  1.0
  H  H19  1  0.13837000  0.07728000  0.74395000  1.0
  H  H20  1  0.40135000  0.66179000  0.24561000  1.0
  H  H21  1  0.09865000  0.16179000  0.24561000  1.0
  H  H22  1  0.59864000  0.33821000  0.75439000  1.0
  H  H23  1  0.90135000  0.83821000  0.75439000  1.0
  H  H24  1  0.28714000  0.79320000  0.33576000  1.0
  H  H25  1  0.21285000  0.29320000  0.33576000  1.0
  H  H26  1  0.71286000  0.20680000  0.66424000  1.0
  H  H27  1  0.78714000  0.70680000  0.66424000  1.0
  H  H28  1  0.54025000  0.75097000  0.33976000  1.0
  H  H29  1  0.95974000  0.25098000  0.33976000  1.0
  H  H30  1  0.45974000  0.24903000  0.66024000  1.0
  H  H31  1  0.04025000  0.74903000  0.66024000  1.0
  C  C32  1  0.55926000  0.17268000  0.24889000  1.0
  C  C33  1  0.94074000  0.67268000  0.24889000  1.0
  C  C34  1  0.44073000  0.82732000  0.75111000  1.0
  C  C35  1  0.05927000  0.32732000  0.75111000  1.0
  C  C36  1  0.49884000  0.04983000  0.29732000  1.0
  C  C37  1  0.00116000  0.54983000  0.29732000  1.0
  C  C38  1  0.50115000  0.95017000  0.70268000  1.0
  C  C39  1  0.99885000  0.45017000  0.70268000  1.0
  C  C40  1  0.47892000  0.08333000  0.39055000  1.0
  C  C41  1  0.02108000  0.58334000  0.39055000  1.0
  C  C42  1  0.52108000  0.91666000  0.60945000  1.0
  C  C43  1  0.97892000  0.41666000  0.60945000  1.0
  C  C44  1  0.52004000  0.23914000  0.43559000  1.0
  C  C45  1  0.97996000  0.73914000  0.43559000  1.0
  C  C46  1  0.47995000  0.76086000  0.56441000  1.0
  C  C47  1  0.02005000  0.26086000  0.56441000  1.0
  C  C48  1  0.57731000  0.36199000  0.38811000  1.0
  C  C49  1  0.92269000  0.86200000  0.38811000  1.0
  C  C50  1  0.42268000  0.63800000  0.61189000  1.0
  C  C51  1  0.07732000  0.13800000  0.61189000  1.0
  C  C52  1  0.59451000  0.32860000  0.29484000  1.0
  C  C53  1  0.90549000  0.82861000  0.29484000  1.0
  C  C54  1  0.40548000  0.67139000  0.70516000  1.0
  C  C55  1  0.09452000  0.17139000  0.70516000  1.0
  C  C56  1  0.57907000  0.13746000  0.14847000  1.0
  C  C57  1  0.92093000  0.63746000  0.14847000  1.0
  C  C58  1  0.42093000  0.86254000  0.85153000  1.0
  C  C59  1  0.07907000  0.36254000  0.85153000  1.0
  C  C60  1  0.41869000  0.76971000  0.29631000  1.0
  C  C61  1  0.08131000  0.26972000  0.29631000  1.0
  C  C62  1  0.58131000  0.23029000  0.70369000  1.0
  C  C63  1  0.91869000  0.73028000  0.70369000  1.0
  S  S64  1  0.78764000  0.04783000  0.10628000  1.0
  S  S65  1  0.71237000  0.54783000  0.10628000  1.0
  S  S66  1  0.21236000  0.95217000  0.89372000  1.0
  S  S67  1  0.28764000  0.45218000  0.89372000  1.0
  O  O68  1  0.43996000  0.17188000  0.10181000  1.0
  O  O69  1  0.06005000  0.67189000  0.10181000  1.0
  O  O70  1  0.56004000  0.82812000  0.89819000  1.0
  O  O71  1  0.93996000  0.32812000  0.89819000  1.0
  O  O72  1  0.45914000  0.90139000  0.24780000  1.0
  O  O73  1  0.04085000  0.40140000  0.24780000  1.0
  O  O74  1  0.54085000  0.09860000  0.75220000  1.0
  O  O75  1  0.95914000  0.59860000  0.75220000  1.0
