# generated using pymatgen
data_CuH22C24N2O7
_symmetry_space_group_name_H-M   'P 1'
_cell_length_a   6.71958000
_cell_length_b   13.23140000
_cell_length_c   13.38200000
_cell_angle_alpha   68.67000000
_cell_angle_beta   89.99990000
_cell_angle_gamma   89.99990000
_symmetry_Int_Tables_number   1
_chemical_formula_structural   CuH22C24N2O7
_chemical_formula_sum   'Cu2 H44 C48 N4 O14'
_cell_volume   1108.28698438
_cell_formula_units_Z   2
loop_
 _symmetry_equiv_pos_site_id
 _symmetry_equiv_pos_as_xyz
  1  'x, y, z'
loop_
 _atom_site_type_symbol
 _atom_site_label
 _atom_site_symmetry_multiplicity
 _atom_site_fract_x
 _atom_site_fract_y
 _atom_site_fract_z
 _atom_site_occupancy
  Cu  Cu0  1  0.51401000  0.26866000  0.29374000  1.0
  Cu  Cu1  1  0.01401000  0.73134000  0.70626000  1.0
  H  H2  1  0.24477000  0.26615000  0.98451000  1.0
  H  H3  1  0.74476000  0.73385000  0.01549000  1.0
  H  H4  1  0.29125000  0.12496000  0.04951000  1.0
  H  H5  1  0.79125000  0.87503000  0.95049000  1.0
  H  H6  1  0.65184000  0.13541000  0.00354000  1.0
  H  H7  1  0.15182000  0.86459000  0.99646000  1.0
  H  H8  1  0.47956000  0.95699000  0.07785000  1.0
  H  H9  1  0.97955000  0.04302000  0.92215000  1.0
  H  H10  1  0.16223000  0.00122000  0.20321000  1.0
  H  H11  1  0.66222000  0.99877000  0.79680000  1.0
  H  H12  1  0.15665000  0.81099000  0.32888000  1.0
  H  H13  1  0.65665000  0.18900000  0.67112000  1.0
  H  H14  1  0.65419000  0.60646000  0.33175000  1.0
  H  H15  1  0.15418000  0.39354000  0.66825000  1.0
  H  H16  1  0.48588000  0.76183000  0.19144000  1.0
  H  H17  1  0.98587000  0.23818000  0.80856000  1.0
  H  H18  1  0.56962000  0.06388000  0.25278000  1.0
  H  H19  1  0.06961000  0.93612000  0.74722000  1.0
  H  H20  1  0.56403000  0.86501000  0.36068000  1.0
  H  H21  1  0.06402000  0.13499000  0.63932000  1.0
  H  H22  1  0.52584000  0.80297000  0.56095000  1.0
  H  H23  1  0.02585000  0.19703000  0.43904000  1.0
  H  H24  1  0.49649000  0.94451000  0.64402000  1.0
  H  H25  1  0.99649000  0.05549000  0.35597000  1.0
  H  H26  1  0.49364000  0.14055000  0.52372000  1.0
  H  H27  1  0.99364000  0.85945000  0.47628000  1.0
  H  H28  1  0.28695000  0.65589000  0.39454000  1.0
  H  H29  1  0.78694000  0.34411000  0.60546000  1.0
  H  H30  1  0.23269000  0.52348000  0.48570000  1.0
  H  H31  1  0.73269000  0.47651000  0.51430000  1.0
  H  H32  1  0.59203000  0.44166000  0.08886000  1.0
  H  H33  1  0.09203000  0.55834000  0.91114000  1.0
  H  H34  1  0.42150000  0.61337000  0.97021000  1.0
  H  H35  1  0.92150000  0.38663000  0.02979000  1.0
  H  H36  1  0.12884000  0.68029000  0.04298000  1.0
  H  H37  1  0.62883000  0.31971000  0.95702000  1.0
  H  H38  1  0.01796000  0.57326000  0.23385000  1.0
  H  H39  1  0.51795000  0.42674000  0.76615000  1.0
  H  H40  1  0.20340000  0.40602000  0.33940000  1.0
  H  H41  1  0.70339000  0.59398000  0.66060000  1.0
  H  H42  1  0.85515000  0.34613000  0.28430000  1.0
  H  H43  1  0.35515000  0.65387000  0.71570000  1.0
  H  H44  1  0.91871000  0.27197000  0.22034000  1.0
  H  H45  1  0.41869000  0.72803000  0.77966000  1.0
  C  C46  1  0.26496000  0.21338000  0.15654000  1.0
  C  C47  1  0.76494000  0.78662000  0.84346000  1.0
  C  C48  1  0.20580000  0.19401000  0.05454000  1.0
  C  C49  1  0.70579000  0.80599000  0.94547000  1.0
  C  C50  1  0.91830000  0.07794000  0.09757000  1.0
  C  C51  1  0.41829000  0.92206000  0.90243000  1.0
  C  C52  1  0.72274000  0.06567000  0.06358000  1.0
  C  C53  1  0.22273000  0.93433000  0.93642000  1.0
  C  C54  1  0.62900000  0.96678000  0.10468000  1.0
  C  C55  1  0.12899000  0.03322000  0.89532000  1.0
  C  C56  1  0.72391000  0.87584000  0.18117000  1.0
  C  C57  1  0.22391000  0.12416000  0.81883000  1.0
  C  C58  1  0.91876000  0.88918000  0.21858000  1.0
  C  C59  1  0.41875000  0.11082000  0.78142000  1.0
  C  C60  1  0.01404000  0.99188000  0.17466000  1.0
  C  C61  1  0.51403000  0.00812000  0.82535000  1.0
  C  C62  1  0.01061000  0.79948000  0.29926000  1.0
  C  C63  1  0.51060000  0.20051000  0.70075000  1.0
  C  C64  1  0.91349000  0.70037000  0.33985000  1.0
  C  C65  1  0.41348000  0.29962000  0.66015000  1.0
  C  C66  1  0.72293000  0.68650000  0.30019000  1.0
  C  C67  1  0.22293000  0.31350000  0.69981000  1.0
  C  C68  1  0.63128000  0.77243000  0.22276000  1.0
  C  C69  1  0.13128000  0.22757000  0.77724000  1.0
  C  C70  1  0.55035000  0.03368000  0.33945000  1.0
  C  C71  1  0.05034000  0.96632000  0.66055000  1.0
  C  C72  1  0.54702000  0.92317000  0.40037000  1.0
  C  C73  1  0.04701000  0.07683000  0.59962000  1.0
  C  C74  1  0.52735000  0.88905000  0.51151000  1.0
  C  C75  1  0.02735000  0.11095000  0.48848000  1.0
  C  C76  1  0.50998000  0.96757000  0.55756000  1.0
  C  C77  1  0.00998000  0.03243000  0.44244000  1.0
  C  C78  1  0.51056000  0.07645000  0.49155000  1.0
  C  C79  1  0.01056000  0.92355000  0.50845000  1.0
  C  C80  1  0.18228000  0.60817000  0.45740000  1.0
  C  C81  1  0.68227000  0.39183000  0.54260000  1.0
  C  C82  1  0.19634000  0.64650000  0.55250000  1.0
  C  C83  1  0.69635000  0.35350000  0.44750000  1.0
  C  C84  1  0.46474000  0.47537000  0.11617000  1.0
  C  C85  1  0.96474000  0.52463000  0.88383000  1.0
  C  C86  1  0.37107000  0.57055000  0.05212000  1.0
  C  C87  1  0.87107000  0.42945000  0.94788000  1.0
  C  C88  1  0.20744000  0.60753000  0.09344000  1.0
  C  C89  1  0.70743000  0.39248000  0.90656000  1.0
  C  C90  1  0.14573000  0.54890000  0.19802000  1.0
  C  C91  1  0.64572000  0.45110000  0.80198000  1.0
  C  C92  1  0.24797000  0.45454000  0.25774000  1.0
  C  C93  1  0.74796000  0.54547000  0.74226000  1.0
  N  N94  1  0.53088000  0.10961000  0.38410000  1.0
  N  N95  1  0.03088000  0.89039000  0.61590000  1.0
  N  N96  1  0.40285000  0.41818000  0.21670000  1.0
  N  N97  1  0.90284000  0.58182000  0.78330000  1.0
  O  O98  1  0.45052000  0.23510000  0.16018000  1.0
  O  O99  1  0.95050000  0.76490000  0.83982000  1.0
  O  O100  1  0.13925000  0.20670000  0.22754000  1.0
  O  O101  1  0.63922000  0.79330000  0.77246000  1.0
  O  O102  1  0.99818000  0.17838000  0.04500000  1.0
  O  O103  1  0.49817000  0.82162000  0.95501000  1.0
  O  O104  1  0.98713000  0.60835000  0.41566000  1.0
  O  O105  1  0.48712000  0.39165000  0.58434000  1.0
  O  O106  1  0.04011000  0.68947000  0.57510000  1.0
  O  O107  1  0.54011000  0.31053000  0.42490000  1.0
  O  O108  1  0.36160000  0.63062000  0.59966000  1.0
  O  O109  1  0.86159000  0.36938000  0.40033000  1.0
  O  O110  1  0.81582000  0.32465000  0.22283000  1.0
  O  O111  1  0.31581000  0.67535000  0.77717000  1.0
