# generated using pymatgen
data_CuH8C7(NO2)2
_symmetry_space_group_name_H-M   'P 1'
_cell_length_a   4.82549000
_cell_length_b   13.57380000
_cell_length_c   14.52230000
_cell_angle_alpha   112.47200000
_cell_angle_beta   89.99820000
_cell_angle_gamma   89.99560000
_symmetry_Int_Tables_number   1
_chemical_formula_structural   CuH8C7(NO2)2
_chemical_formula_sum   'Cu4 H32 C28 N8 O16'
_cell_volume   878.98500049
_cell_formula_units_Z   4
loop_
 _symmetry_equiv_pos_site_id
 _symmetry_equiv_pos_as_xyz
  1  'x, y, z'
loop_
 _atom_site_type_symbol
 _atom_site_label
 _atom_site_symmetry_multiplicity
 _atom_site_fract_x
 _atom_site_fract_y
 _atom_site_fract_z
 _atom_site_occupancy
  Cu  Cu0  1  0.92619000  0.45826000  0.58124000  1.0
  Cu  Cu1  1  0.42611000  0.04175000  0.91875000  1.0
  Cu  Cu2  1  0.07378000  0.54174000  0.41877000  1.0
  Cu  Cu3  1  0.57375000  0.95827000  0.08124000  1.0
  H  H4  1  0.07985000  0.34678000  0.70767000  1.0
  H  H5  1  0.57988000  0.15320000  0.79232000  1.0
  H  H6  1  0.92015000  0.65320000  0.29233000  1.0
  H  H7  1  0.42014000  0.84680000  0.20767000  1.0
  H  H8  1  0.02046000  0.16234000  0.70667000  1.0
  H  H9  1  0.52045000  0.33764000  0.79332000  1.0
  H  H10  1  0.97953000  0.83763000  0.29331000  1.0
  H  H11  1  0.47953000  0.66236000  0.20668000  1.0
  H  H12  1  0.76886000  0.02625000  0.56377000  1.0
  H  H13  1  0.26888000  0.47374000  0.93624000  1.0
  H  H14  1  0.23112000  0.97373000  0.43620000  1.0
  H  H15  1  0.73110000  0.52625000  0.06378000  1.0
  H  H16  1  0.60184000  0.07817000  0.42336000  1.0
  H  H17  1  0.10177000  0.42183000  0.07664000  1.0
  H  H18  1  0.39820000  0.92182000  0.57661000  1.0
  H  H19  1  0.89824000  0.57815000  0.92337000  1.0
  H  H20  1  0.50352000  0.33708000  0.43921000  1.0
  H  H21  1  0.00363000  0.16293000  0.06079000  1.0
  H  H22  1  0.49646000  0.66291000  0.56079000  1.0
  H  H23  1  0.99646000  0.83707000  0.93922000  1.0
  H  H24  1  0.56692000  0.20483000  0.35154000  1.0
  H  H25  1  0.06685000  0.29519000  0.14848000  1.0
  H  H26  1  0.43314000  0.79516000  0.64846000  1.0
  H  H27  1  0.93312000  0.70485000  0.85152000  1.0
  H  H28  1  0.83337000  0.32873000  0.30319000  1.0
  H  H29  1  0.33333333  0.17127000  0.19681000  1.0
  H  H30  1  0.16664000  0.67133000  0.69684000  1.0
  H  H31  1  0.66666667  0.82868000  0.80315000  1.0
  H  H32  1  0.06785000  0.25147000  0.34316000  1.0
  H  H33  1  0.56791000  0.24848000  0.15682000  1.0
  H  H34  1  0.93218000  0.74856000  0.65684000  1.0
  H  H35  1  0.43215000  0.75152000  0.84319000  1.0
  C  C36  1  0.97444000  0.28392000  0.64698000  1.0
  C  C37  1  0.47448000  0.21606000  0.85301000  1.0
  C  C38  1  0.02555000  0.71606000  0.35300000  1.0
  C  C39  1  0.52555000  0.78394000  0.14699000  1.0
  C  C40  1  0.93868000  0.18208000  0.64603000  1.0
  C  C41  1  0.43871000  0.31790000  0.85396000  1.0
  C  C42  1  0.06132000  0.81789000  0.35394000  1.0
  C  C43  1  0.56133000  0.68209000  0.14605000  1.0
  C  C44  1  0.79853000  0.10660000  0.56582000  1.0
  C  C45  1  0.29855000  0.39339000  0.93418000  1.0
  C  C46  1  0.20147000  0.89338000  0.43415000  1.0
  C  C47  1  0.70148000  0.60661000  0.06584000  1.0
  C  C48  1  0.70438000  0.13518000  0.48889000  1.0
  C  C49  1  0.20437000  0.36483000  0.01113000  1.0
  C  C50  1  0.29565000  0.86482000  0.51110000  1.0
  C  C51  1  0.79566000  0.63516000  0.98889000  1.0
  C  C52  1  0.74829000  0.23890000  0.49346000  1.0
  C  C53  1  0.24830000  0.26112000  0.00656000  1.0
  C  C54  1  0.25172000  0.76110000  0.50654000  1.0
  C  C55  1  0.75172000  0.73889000  0.99345000  1.0
  C  C56  1  0.66035000  0.27323000  0.41138000  1.0
  C  C57  1  0.16036000  0.22679000  0.08863000  1.0
  C  C58  1  0.33967000  0.72677000  0.58861000  1.0
  C  C59  1  0.83966000  0.77323000  0.91138000  1.0
  C  C60  1  0.90653000  0.31393000  0.36870000  1.0
  C  C61  1  0.40651000  0.18607000  0.13130000  1.0
  C  C62  1  0.09347000  0.68610000  0.63132000  1.0
  C  C63  1  0.59351000  0.81394000  0.86869000  1.0
  N  N64  1  0.88024000  0.31131000  0.57272000  1.0
  N  N65  1  0.38027000  0.18869000  0.92729000  1.0
  N  N66  1  0.11975000  0.68868000  0.42729000  1.0
  N  N67  1  0.61974000  0.81131000  0.07271000  1.0
  N  N68  1  0.51634000  0.51095000  0.72176000  1.0
  N  N69  1  0.01638000  0.98905000  0.77824000  1.0
  N  N70  1  0.48360000  0.48905000  0.27824000  1.0
  N  N71  1  0.98363000  0.01095000  0.22179000  1.0
  O  O72  1  0.01768000  0.40958000  0.43917000  1.0
  O  O73  1  0.51750000  0.09040000  0.06081000  1.0
  O  O74  1  0.98233000  0.59044000  0.56085000  1.0
  O  O75  1  0.48242000  0.90961000  0.93915000  1.0
  O  O76  1  0.78268000  0.52825000  0.72126000  1.0
  O  O77  1  0.28272000  0.97172000  0.77875000  1.0
  O  O78  1  0.21726000  0.47173000  0.27874000  1.0
  O  O79  1  0.71728000  0.02828000  0.22129000  1.0
  O  O80  1  0.39852000  0.46337000  0.63891000  1.0
  O  O81  1  0.89852000  0.03666000  0.86107000  1.0
  O  O82  1  0.60141000  0.53664000  0.36108000  1.0
  O  O83  1  0.10144000  0.96334000  0.13894000  1.0
  O  O84  1  0.39250000  0.54113000  0.80308000  1.0
  O  O85  1  0.89261000  0.95887000  0.69690000  1.0
  O  O86  1  0.60742000  0.45889000  0.19691000  1.0
  O  O87  1  0.10746000  0.04113000  0.30310000  1.0
