# generated using pymatgen
data_Gd9H37C72(N6O19)2
_symmetry_space_group_name_H-M   'P 1'
_cell_length_a   16.99410000
_cell_length_b   16.99410000
_cell_length_c   21.13170000
_cell_angle_alpha   66.29710000
_cell_angle_beta   66.29710000
_cell_angle_gamma   60.00470000
_symmetry_Int_Tables_number   1
_chemical_formula_structural   Gd9H37C72(N6O19)2
_chemical_formula_sum   'Gd18 H74 C144 N24 O76'
_cell_volume   4681.50096348
_cell_formula_units_Z   2
loop_
 _symmetry_equiv_pos_site_id
 _symmetry_equiv_pos_as_xyz
  1  'x, y, z'
loop_
 _atom_site_type_symbol
 _atom_site_label
 _atom_site_symmetry_multiplicity
 _atom_site_fract_x
 _atom_site_fract_y
 _atom_site_fract_z
 _atom_site_occupancy
  Gd  Gd0  1  0.15397000  0.05143000  0.89766000  1.0
  Gd  Gd1  1  0.05143000  0.89693000  0.89767000  1.0
  Gd  Gd2  1  0.89697000  0.15394000  0.89763000  1.0
  Gd  Gd3  1  0.60307000  0.44857000  0.60232000  1.0
  Gd  Gd4  1  0.34606000  0.60303000  0.60237000  1.0
  Gd  Gd5  1  0.44857000  0.34604000  0.60234000  1.0
  Gd  Gd6  1  0.84604000  0.94857000  0.10234000  1.0
  Gd  Gd7  1  0.94857000  0.10307000  0.10232000  1.0
  Gd  Gd8  1  0.10304000  0.84605000  0.10237000  1.0
  Gd  Gd9  1  0.39693000  0.55143000  0.39768000  1.0
  Gd  Gd10  1  0.65394000  0.39696000  0.39763000  1.0
  Gd  Gd11  1  0.55143000  0.65397000  0.39766000  1.0
  Gd  Gd12  1  0.27558000  0.22442000  0.75000000  1.0
  Gd  Gd13  1  0.22443000  0.74999000  0.75001000  1.0
  Gd  Gd14  1  0.75001000  0.27557000  0.74999000  1.0
  Gd  Gd15  1  0.72442000  0.77558000  0.25000000  1.0
  Gd  Gd16  1  0.77556000  0.25001000  0.24999000  1.0
  Gd  Gd17  1  0.24999000  0.72443000  0.25001000  1.0
  H  H18  1  0.13015000  0.27806000  0.06179000  1.0
  H  H19  1  0.27803000  0.53000000  0.06182000  1.0
  H  H20  1  0.53003000  0.13014000  0.06177000  1.0
  H  H21  1  0.97000000  0.22197000  0.43818000  1.0
  H  H22  1  0.36986000  0.96997000  0.43823000  1.0
  H  H23  1  0.22194000  0.36986000  0.43821000  1.0
  H  H24  1  0.86985000  0.72194000  0.93821000  1.0
  H  H25  1  0.72197000  0.47000000  0.93818000  1.0
  H  H26  1  0.46997000  0.86986000  0.93823000  1.0
  H  H27  1  0.03000000  0.77803000  0.56182000  1.0
  H  H28  1  0.63014000  0.03003000  0.56177000  1.0
  H  H29  1  0.77806000  0.63014000  0.56179000  1.0
  H  H30  1  0.21739000  0.38184000  0.98019000  1.0
  H  H31  1  0.38178000  0.42059000  0.98020000  1.0
  H  H32  1  0.42058000  0.21745000  0.98017000  1.0
  H  H33  1  0.07941000  0.11822000  0.51980000  1.0
  H  H34  1  0.28255000  0.07942000  0.51983000  1.0
  H  H35  1  0.11816000  0.28261000  0.51981000  1.0
  H  H36  1  0.78261000  0.61816000  0.01981000  1.0
  H  H37  1  0.61822000  0.57941000  0.01980000  1.0
  H  H38  1  0.57942000  0.78255000  0.01983000  1.0
  H  H39  1  0.92059000  0.88178000  0.48020000  1.0
  H  H40  1  0.71745000  0.92058000  0.48017000  1.0
  H  H41  1  0.88184000  0.71739000  0.48019000  1.0
  H  H42  1  0.28510000  0.37871000  0.85105000  1.0
  H  H43  1  0.37871000  0.48518000  0.85105000  1.0
  H  H44  1  0.48517000  0.28513000  0.85101000  1.0
  H  H45  1  0.01482000  0.12129000  0.64895000  1.0
  H  H46  1  0.21487000  0.01483000  0.64899000  1.0
  H  H47  1  0.12129000  0.21490000  0.64895000  1.0
  H  H48  1  0.71490000  0.62129000  0.14895000  1.0
  H  H49  1  0.62129000  0.51482000  0.14895000  1.0
  H  H50  1  0.51483000  0.71487000  0.14899000  1.0
  H  H51  1  0.98518000  0.87871000  0.35105000  1.0
  H  H52  1  0.78513000  0.98517000  0.35101000  1.0
  H  H53  1  0.87871000  0.78510000  0.35105000  1.0
  H  H54  1  0.03820000  0.43146000  0.70678000  1.0
  H  H55  1  0.43142000  0.82359000  0.70678000  1.0
  H  H56  1  0.82360000  0.03819000  0.70677000  1.0
  H  H57  1  0.67641000  0.06858000  0.79322000  1.0
  H  H58  1  0.46181000  0.67640000  0.79323000  1.0
  H  H59  1  0.06854000  0.46180000  0.79322000  1.0
  H  H60  1  0.96180000  0.56854000  0.29322000  1.0
  H  H61  1  0.56858000  0.17641000  0.29322000  1.0
  H  H62  1  0.17640000  0.96181000  0.29323000  1.0
  H  H63  1  0.32359000  0.93142000  0.20678000  1.0
  H  H64  1  0.53819000  0.32360000  0.20677000  1.0
  H  H65  1  0.93146000  0.53820000  0.20678000  1.0
  H  H66  1  0.92530000  0.54543000  0.62919000  1.0
  H  H67  1  0.54543000  0.90008000  0.62921000  1.0
  H  H68  1  0.90011000  0.92528000  0.62919000  1.0
  H  H69  1  0.59992000  0.95457000  0.87079000  1.0
  H  H70  1  0.57472000  0.59989000  0.87081000  1.0
  H  H71  1  0.95457000  0.57470000  0.87081000  1.0
  H  H72  1  0.07470000  0.45457000  0.37081000  1.0
  H  H73  1  0.45457000  0.09992000  0.37079000  1.0
  H  H74  1  0.09989000  0.07472000  0.37081000  1.0
  H  H75  1  0.40008000  0.04543000  0.12920000  1.0
  H  H76  1  0.42528000  0.40011000  0.12919000  1.0
  H  H77  1  0.04543000  0.42530000  0.12919000  1.0
  H  H78  1  0.80088000  0.50028000  0.63392000  1.0
  H  H79  1  0.50026000  0.06494000  0.63393000  1.0
  H  H80  1  0.06493000  0.80086000  0.63393000  1.0
  H  H81  1  0.43506000  0.99974000  0.86607000  1.0
  H  H82  1  0.69914000  0.43507000  0.86607000  1.0
  H  H83  1  0.99972000  0.69912000  0.86608000  1.0
  H  H84  1  0.19912000  0.49972000  0.36608000  1.0
  H  H85  1  0.49974000  0.93506000  0.36607000  1.0
  H  H86  1  0.93507000  0.19914000  0.36607000  1.0
  H  H87  1  0.56494000  0.00026000  0.13393000  1.0
  H  H88  1  0.30086000  0.56493000  0.13393000  1.0
  H  H89  1  0.00028000  0.30088000  0.13392000  1.0
  H  H90  1  0.00000000  0.00000000  0.00000000  1.0
  H  H91  1  0.50000000  0.50000000  0.50000000  1.0
  C  C92  1  0.21042000  0.21030000  0.90872000  1.0
  C  C93  1  0.21029000  0.67056000  0.90873000  1.0
  C  C94  1  0.67058000  0.21047000  0.90869000  1.0
  C  C95  1  0.82944000  0.28971000  0.59127000  1.0
  C  C96  1  0.28953000  0.82942000  0.59131000  1.0
  C  C97  1  0.28970000  0.28958000  0.59128000  1.0
  C  C98  1  0.78958000  0.78970000  0.09128000  1.0
  C  C99  1  0.78971000  0.32944000  0.09127000  1.0
  C  C100  1  0.32942000  0.78953000  0.09131000  1.0
  C  C101  1  0.17056000  0.71029000  0.40873000  1.0
  C  C102  1  0.71047000  0.17058000  0.40869000  1.0
  C  C103  1  0.71030000  0.71042000  0.40872000  1.0
  C  C104  1  0.16036000  0.21475000  0.98069000  1.0
  C  C105  1  0.21473000  0.64420000  0.98071000  1.0
  C  C106  1  0.64422000  0.16039000  0.98068000  1.0
  C  C107  1  0.85580000  0.28527000  0.51929000  1.0
  C  C108  1  0.33961000  0.85578000  0.51932000  1.0
  C  C109  1  0.28525000  0.33965000  0.51931000  1.0
  C  C110  1  0.83964000  0.78525000  0.01932000  1.0
  C  C111  1  0.78527000  0.35580000  0.01929000  1.0
  C  C112  1  0.35578000  0.83961000  0.01932000  1.0
  C  C113  1  0.14420000  0.71473000  0.48071000  1.0
  C  C114  1  0.66039000  0.14422000  0.48068000  1.0
  C  C115  1  0.71475000  0.66035000  0.48069000  1.0
  C  C116  1  0.16531000  0.27605000  0.00619000  1.0
  C  C117  1  0.27603000  0.55245000  0.00621000  1.0
  C  C118  1  0.55245000  0.16541000  0.00619000  1.0
  C  C119  1  0.94755000  0.22396000  0.49379000  1.0
  C  C120  1  0.33459000  0.94755000  0.49381000  1.0
  C  C121  1  0.22395000  0.33469000  0.49381000  1.0
  C  C122  1  0.83469000  0.72395000  0.99381000  1.0
  C  C123  1  0.72397000  0.44755000  0.99379000  1.0
  C  C124  1  0.44755000  0.83459000  0.99381000  1.0
  C  C125  1  0.05246000  0.77603000  0.50620000  1.0
  C  C126  1  0.66541000  0.05245000  0.50619000  1.0
  C  C127  1  0.77605000  0.66531000  0.50619000  1.0
  C  C128  1  0.21307000  0.33356000  0.96130000  1.0
  C  C129  1  0.33353000  0.49208000  0.96130000  1.0
  C  C130  1  0.49209000  0.21310000  0.96128000  1.0
  C  C131  1  0.00792000  0.16647000  0.53870000  1.0
  C  C132  1  0.28690000  0.00791000  0.53872000  1.0
  C  C133  1  0.16644000  0.28693000  0.53870000  1.0
  C  C134  1  0.78693000  0.66644000  0.03870000  1.0
  C  C135  1  0.66647000  0.50792000  0.03870000  1.0
  C  C136  1  0.50791000  0.78690000  0.03872000  1.0
  C  C137  1  0.99208000  0.83353000  0.46130000  1.0
  C  C138  1  0.71310000  0.99209000  0.46128000  1.0
  C  C139  1  0.83356000  0.71307000  0.46130000  1.0
  C  C140  1  0.25175000  0.33114000  0.88955000  1.0
  C  C141  1  0.33111000  0.52755000  0.88957000  1.0
  C  C142  1  0.52755000  0.25183000  0.88954000  1.0
  C  C143  1  0.97245000  0.16889000  0.61043000  1.0
  C  C144  1  0.24817000  0.97245000  0.61046000  1.0
  C  C145  1  0.16886000  0.24825000  0.61045000  1.0
  C  C146  1  0.74825000  0.66886000  0.11045000  1.0
  C  C147  1  0.66889000  0.47244000  0.11043000  1.0
  C  C148  1  0.47245000  0.74817000  0.11046000  1.0
  C  C149  1  0.02755000  0.83111000  0.38957000  1.0
  C  C150  1  0.75183000  0.02754000  0.38954000  1.0
  C  C151  1  0.83114000  0.75175000  0.38955000  1.0
  C  C152  1  0.10003000  0.16276000  0.02565000  1.0
  C  C153  1  0.16275000  0.71161000  0.02566000  1.0
  C  C154  1  0.71161000  0.09999000  0.02564000  1.0
  C  C155  1  0.78839000  0.33725000  0.47434000  1.0
  C  C156  1  0.40001000  0.78839000  0.47436000  1.0
  C  C157  1  0.33724000  0.39997000  0.47435000  1.0
  C  C158  1  0.89997000  0.83724000  0.97435000  1.0
  C  C159  1  0.83725000  0.28839000  0.97434000  1.0
  C  C160  1  0.28839000  0.90001000  0.97436000  1.0
  C  C161  1  0.21161000  0.66275000  0.52566000  1.0
  C  C162  1  0.59999000  0.21161000  0.52564000  1.0
  C  C163  1  0.66276000  0.60003000  0.52565000  1.0
  C  C164  1  0.90907000  0.30963000  0.74545000  1.0
  C  C165  1  0.30957000  0.03590000  0.74544000  1.0
  C  C166  1  0.03585000  0.90905000  0.74549000  1.0
  C  C167  1  0.46410000  0.19042000  0.75456000  1.0
  C  C168  1  0.59095000  0.46415000  0.75451000  1.0
  C  C169  1  0.19037000  0.59093000  0.75455000  1.0
  C  C170  1  0.09093000  0.69037000  0.25455000  1.0
  C  C171  1  0.69042000  0.96410000  0.25456000  1.0
  C  C172  1  0.96415000  0.09095000  0.25451000  1.0
  C  C173  1  0.53590000  0.80958000  0.24544000  1.0
  C  C174  1  0.40905000  0.53585000  0.24549000  1.0
  C  C175  1  0.80963000  0.40907000  0.24545000  1.0
  C  C176  1  0.97756000  0.33070000  0.74965000  1.0
  C  C177  1  0.33066000  0.94216000  0.74961000  1.0
  C  C178  1  0.94211000  0.97755000  0.74965000  1.0
  C  C179  1  0.55784000  0.16934000  0.75039000  1.0
  C  C180  1  0.52244000  0.55789000  0.75035000  1.0
  C  C181  1  0.16930000  0.52244000  0.75035000  1.0
  C  C182  1  0.02244000  0.66930000  0.25035000  1.0
  C  C183  1  0.66934000  0.05784000  0.25039000  1.0
  C  C184  1  0.05789000  0.02245000  0.25035000  1.0
  C  C185  1  0.44216000  0.83066000  0.24961000  1.0
  C  C186  1  0.47755000  0.44211000  0.24965000  1.0
  C  C187  1  0.83070000  0.47756000  0.24965000  1.0
  C  C188  1  0.98347000  0.41612000  0.70609000  1.0
  C  C189  1  0.41611000  0.89436000  0.70608000  1.0
  C  C190  1  0.89435000  0.98348000  0.70607000  1.0
  C  C191  1  0.60564000  0.08389000  0.79392000  1.0
  C  C192  1  0.51652000  0.60564000  0.79393000  1.0
  C  C193  1  0.08388000  0.51653000  0.79391000  1.0
  C  C194  1  0.01653000  0.58388000  0.29391000  1.0
  C  C195  1  0.58389000  0.10564000  0.29392000  1.0
  C  C196  1  0.10564000  0.01652000  0.29393000  1.0
  C  C197  1  0.39436000  0.91611000  0.20608000  1.0
  C  C198  1  0.48348000  0.39435000  0.20607000  1.0
  C  C199  1  0.91612000  0.48347000  0.20609000  1.0
  C  C200  1  0.92144000  0.47875000  0.66306000  1.0
  C  C201  1  0.47872000  0.93681000  0.66302000  1.0
  C  C202  1  0.93677000  0.92143000  0.66306000  1.0
  C  C203  1  0.56319000  0.02129000  0.83698000  1.0
  C  C204  1  0.57857000  0.56323000  0.83694000  1.0
  C  C205  1  0.02125000  0.57856000  0.83694000  1.0
  C  C206  1  0.07856000  0.52125000  0.33694000  1.0
  C  C207  1  0.52128000  0.06320000  0.33698000  1.0
  C  C208  1  0.06323000  0.07857000  0.33694000  1.0
  C  C209  1  0.43680000  0.97871000  0.16302000  1.0
  C  C210  1  0.42143000  0.43677000  0.16306000  1.0
  C  C211  1  0.97875000  0.42144000  0.16306000  1.0
  C  C212  1  0.85344000  0.45413000  0.66475000  1.0
  C  C213  1  0.45409000  0.02771000  0.66475000  1.0
  C  C214  1  0.02768000  0.85342000  0.66477000  1.0
  C  C215  1  0.47229000  0.04591000  0.83525000  1.0
  C  C216  1  0.64658000  0.47232000  0.83523000  1.0
  C  C217  1  0.04587000  0.64656000  0.83525000  1.0
  C  C218  1  0.14656000  0.54587000  0.33525000  1.0
  C  C219  1  0.54591000  0.97229000  0.33525000  1.0
  C  C220  1  0.97232000  0.14658000  0.33523000  1.0
  C  C221  1  0.52771000  0.95409000  0.16475000  1.0
  C  C222  1  0.35342000  0.52768000  0.16477000  1.0
  C  C223  1  0.95413000  0.35345000  0.16475000  1.0
  C  C224  1  0.04393000  0.26581000  0.79549000  1.0
  C  C225  1  0.26577000  0.89485000  0.79546000  1.0
  C  C226  1  0.89482000  0.04393000  0.79546000  1.0
  C  C227  1  0.60515000  0.23424000  0.70454000  1.0
  C  C228  1  0.45607000  0.60518000  0.70454000  1.0
  C  C229  1  0.23419000  0.45607000  0.70451000  1.0
  C  C230  1  0.95607000  0.73419000  0.20451000  1.0
  C  C231  1  0.73424000  0.10515000  0.20454000  1.0
  C  C232  1  0.10518000  0.95607000  0.20454000  1.0
  C  C233  1  0.39485000  0.76576000  0.29546000  1.0
  C  C234  1  0.54393000  0.39482000  0.29546000  1.0
  C  C235  1  0.76581000  0.54393000  0.29549000  1.0
  N  N236  1  0.25014000  0.27211000  0.86383000  1.0
  N  N237  1  0.27212000  0.61392000  0.86384000  1.0
  N  N238  1  0.61392000  0.25017000  0.86381000  1.0
  N  N239  1  0.88608000  0.22788000  0.63616000  1.0
  N  N240  1  0.24982000  0.88608000  0.63619000  1.0
  N  N241  1  0.22789000  0.24986000  0.63617000  1.0
  N  N242  1  0.74986000  0.72789000  0.13617000  1.0
  N  N243  1  0.72788000  0.38608000  0.13616000  1.0
  N  N244  1  0.38608000  0.74982000  0.13619000  1.0
  N  N245  1  0.11392000  0.77212000  0.36384000  1.0
  N  N246  1  0.75017000  0.11392000  0.36381000  1.0
  N  N247  1  0.77211000  0.75014000  0.36383000  1.0
  N  N248  1  0.84790000  0.37214000  0.70450000  1.0
  N  N249  1  0.37209000  0.07549000  0.70450000  1.0
  N  N250  1  0.07545000  0.84792000  0.70451000  1.0
  N  N251  1  0.42451000  0.12791000  0.79550000  1.0
  N  N252  1  0.65209000  0.42454000  0.79549000  1.0
  N  N253  1  0.12786000  0.65210000  0.79549000  1.0
  N  N254  1  0.15210000  0.62786000  0.29549000  1.0
  N  N255  1  0.62790000  0.92451000  0.29550000  1.0
  N  N256  1  0.92454000  0.15209000  0.29549000  1.0
  N  N257  1  0.57549000  0.87210000  0.20450000  1.0
  N  N258  1  0.34792000  0.57546000  0.20451000  1.0
  N  N259  1  0.87214000  0.34790000  0.20451000  1.0
  O  O260  1  0.08750000  0.11299000  0.99983000  1.0
  O  O261  1  0.11300000  0.79972000  0.99984000  1.0
  O  O262  1  0.79972000  0.08750000  0.99983000  1.0
  O  O263  1  0.70027000  0.38699000  0.50016000  1.0
  O  O264  1  0.41250000  0.70028000  0.50018000  1.0
  O  O265  1  0.38701000  0.41251000  0.50017000  1.0
  O  O266  1  0.91250000  0.88701000  0.00017000  1.0
  O  O267  1  0.88700000  0.20028000  0.00016000  1.0
  O  O268  1  0.20028000  0.91250000  0.00017000  1.0
  O  O269  1  0.29973000  0.61301000  0.49984000  1.0
  O  O270  1  0.58750000  0.29972000  0.49982000  1.0
  O  O271  1  0.61299000  0.58749000  0.49983000  1.0
  O  O272  1  0.05500000  0.17009000  0.08906000  1.0
  O  O273  1  0.17013000  0.68590000  0.08905000  1.0
  O  O274  1  0.68588000  0.05498000  0.08905000  1.0
  O  O275  1  0.81410000  0.32987000  0.41095000  1.0
  O  O276  1  0.44502000  0.81412000  0.41095000  1.0
  O  O277  1  0.32991000  0.44500000  0.41094000  1.0
  O  O278  1  0.94500000  0.82991000  0.91094000  1.0
  O  O279  1  0.82987000  0.31410000  0.91095000  1.0
  O  O280  1  0.31412000  0.94502000  0.91095000  1.0
  O  O281  1  0.18590000  0.67013000  0.58905000  1.0
  O  O282  1  0.55498000  0.18588000  0.58905000  1.0
  O  O283  1  0.67009000  0.55500000  0.58906000  1.0
  O  O284  1  0.22210000  0.14980000  0.87975000  1.0
  O  O285  1  0.14980000  0.74836000  0.87976000  1.0
  O  O286  1  0.74838000  0.22212000  0.87971000  1.0
  O  O287  1  0.75164000  0.35020000  0.62024000  1.0
  O  O288  1  0.27788000  0.75162000  0.62029000  1.0
  O  O289  1  0.35020000  0.27790000  0.62025000  1.0
  O  O290  1  0.77790000  0.85021000  0.12025000  1.0
  O  O291  1  0.85020000  0.25164000  0.12024000  1.0
  O  O292  1  0.25162000  0.77788000  0.12029000  1.0
  O  O293  1  0.24836000  0.64980000  0.37976000  1.0
  O  O294  1  0.72212000  0.24838000  0.37971000  1.0
  O  O295  1  0.64979000  0.72210000  0.37975000  1.0
  O  O296  1  0.03228000  0.19197000  0.84292000  1.0
  O  O297  1  0.19195000  0.93285000  0.84293000  1.0
  O  O298  1  0.93285000  0.03224000  0.84293000  1.0
  O  O299  1  0.56715000  0.30805000  0.65707000  1.0
  O  O300  1  0.46776000  0.56715000  0.65707000  1.0
  O  O301  1  0.30803000  0.46772000  0.65708000  1.0
  O  O302  1  0.96772000  0.80803000  0.15708000  1.0
  O  O303  1  0.80805000  0.06715000  0.15706000  1.0
  O  O304  1  0.06715000  0.96776000  0.15707000  1.0
  O  O305  1  0.43285000  0.69195000  0.34293000  1.0
  O  O306  1  0.53224000  0.43285000  0.34293000  1.0
  O  O307  1  0.69197000  0.53228000  0.34292000  1.0
  O  O308  1  0.11068000  0.28528000  0.78632000  1.0
  O  O309  1  0.28527000  0.81776000  0.78633000  1.0
  O  O310  1  0.81775000  0.11068000  0.78632000  1.0
  O  O311  1  0.68224000  0.21473000  0.71367000  1.0
  O  O312  1  0.38932000  0.68225000  0.71368000  1.0
  O  O313  1  0.21472000  0.38932000  0.71368000  1.0
  O  O314  1  0.88932000  0.71472000  0.21368000  1.0
  O  O315  1  0.71473000  0.18224000  0.21367000  1.0
  O  O316  1  0.18225000  0.88932000  0.21368000  1.0
  O  O317  1  0.31776000  0.78527000  0.28633000  1.0
  O  O318  1  0.61068000  0.31775000  0.28632000  1.0
  O  O319  1  0.78528000  0.61068000  0.28632000  1.0
  O  O320  1  0.89846000  0.23069000  0.77895000  1.0
  O  O321  1  0.23064000  0.09192000  0.77897000  1.0
  O  O322  1  0.09191000  0.89848000  0.77897000  1.0
  O  O323  1  0.40808000  0.26936000  0.72103000  1.0
  O  O324  1  0.60151000  0.40810000  0.72103000  1.0
  O  O325  1  0.26931000  0.60154000  0.72105000  1.0
  O  O326  1  0.10154000  0.76931000  0.22105000  1.0
  O  O327  1  0.76936000  0.90808000  0.22103000  1.0
  O  O328  1  0.90809000  0.10152000  0.22103000  1.0
  O  O329  1  0.59192000  0.73064000  0.27897000  1.0
  O  O330  1  0.39848000  0.59190000  0.27897000  1.0
  O  O331  1  0.73069000  0.39846000  0.27895000  1.0
  O  O332  1  0.02173000  0.02173000  0.93485000  1.0
  O  O333  1  0.47827000  0.47827000  0.56515000  1.0
  O  O334  1  0.97827000  0.97827000  0.06515000  1.0
  O  O335  1  0.52173000  0.52173000  0.43485000  1.0
