# generated using pymatgen
data_SmH5C10O9
_symmetry_space_group_name_H-M   'P 1'
_cell_length_a   6.28602000
_cell_length_b   9.29670000
_cell_length_c   9.66259000
_cell_angle_alpha   87.93730000
_cell_angle_beta   73.86920000
_cell_angle_gamma   76.94940000
_symmetry_Int_Tables_number   1
_chemical_formula_structural   SmH5C10O9
_chemical_formula_sum   'Sm2 H10 C20 O18'
_cell_volume   528.21658030
_cell_formula_units_Z   2
loop_
 _symmetry_equiv_pos_site_id
 _symmetry_equiv_pos_as_xyz
  1  'x, y, z'
loop_
 _atom_site_type_symbol
 _atom_site_label
 _atom_site_symmetry_multiplicity
 _atom_site_fract_x
 _atom_site_fract_y
 _atom_site_fract_z
 _atom_site_occupancy
  Sm  Sm0  1  0.14994000  0.05818000  0.77938000  1.0
  Sm  Sm1  1  0.85007000  0.94182000  0.22062000  1.0
  H  H2  1  0.20536000  0.56545000  0.86961000  1.0
  H  H3  1  0.79464000  0.43455000  0.13039000  1.0
  H  H4  1  0.68312000  0.65920000  0.60650000  1.0
  H  H5  1  0.31688000  0.34080000  0.39350000  1.0
  H  H6  1  0.73149000  0.92722000  0.88317000  1.0
  H  H7  1  0.26851000  0.07278000  0.11683000  1.0
  H  H8  1  0.01982000  0.42356000  0.75947000  1.0
  H  H9  1  0.98017000  0.57644000  0.24053000  1.0
  H  H10  1  0.76387000  0.94168000  0.71663000  1.0
  H  H11  1  0.23613000  0.05832000  0.28337000  1.0
  C  C12  1  0.40396000  0.38965000  0.96202000  1.0
  C  C13  1  0.59604000  0.61035000  0.03799000  1.0
  C  C14  1  0.33432000  0.53680000  0.92754000  1.0
  C  C15  1  0.66568000  0.46320000  0.07246000  1.0
  C  C16  1  0.57152000  0.35302000  0.03586000  1.0
  C  C17  1  0.42848000  0.64698000  0.96414000  1.0
  C  C18  1  0.30153000  0.27646000  0.91623000  1.0
  C  C19  1  0.69847000  0.72354000  0.08377000  1.0
  C  C20  1  0.65643000  0.20200000  0.08475000  1.0
  C  C21  1  0.34357000  0.79800000  0.91525000  1.0
  C  C22  1  0.60337000  0.59001000  0.55786000  1.0
  C  C23  1  0.39664000  0.40999000  0.44214000  1.0
  C  C24  1  0.66324000  0.43608000  0.57065000  1.0
  C  C25  1  0.33675000  0.56392000  0.42935000  1.0
  C  C26  1  0.44115000  0.65671000  0.48794000  1.0
  C  C27  1  0.55886000  0.34329000  0.51206000  1.0
  C  C28  1  0.83523000  0.37411000  0.64844000  1.0
  C  C29  1  0.16476000  0.62589000  0.35156000  1.0
  C  C30  1  0.39207000  0.82428000  0.47880000  1.0
  C  C31  1  0.60794000  0.17572000  0.52120000  1.0
  O  O32  1  0.36485000  0.14077000  0.94175000  1.0
  O  O33  1  0.63515000  0.85923000  0.05825000  1.0
  O  O34  1  0.83880000  0.94524000  0.79170000  1.0
  O  O35  1  0.16120000  0.05476000  0.20830000  1.0
  O  O36  1  0.15056000  0.31654000  0.84819000  1.0
  O  O37  1  0.84943000  0.68346000  0.15181000  1.0
  O  O38  1  0.54643000  0.15773000  0.20235000  1.0
  O  O39  1  0.45357000  0.84226000  0.79765000  1.0
  O  O40  1  0.85255000  0.12710000  0.01525000  1.0
  O  O41  1  0.14745000  0.87290000  0.98475000  1.0
  O  O42  1  0.91240000  0.47479000  0.70171000  1.0
  O  O43  1  0.08760000  0.52521000  0.29829000  1.0
  O  O44  1  0.89958000  0.23869000  0.66259000  1.0
  O  O45  1  0.10042000  0.76131000  0.33741000  1.0
  O  O46  1  0.52693000  0.87816000  0.37868000  1.0
  O  O47  1  0.47307000  0.12184000  0.62132000  1.0
  O  O48  1  0.22789000  0.89864000  0.57449000  1.0
  O  O49  1  0.77211000  0.10136000  0.42551000  1.0
