# generated using pymatgen
data_Zr3H8C24(Cl3O8)2
_symmetry_space_group_name_H-M   'P 1'
_cell_length_a   14.82530000
_cell_length_b   14.82555686
_cell_length_c   14.82532591
_cell_angle_alpha   60.00003844
_cell_angle_beta   90.00079946
_cell_angle_gamma   119.99968062
_symmetry_Int_Tables_number   1
_chemical_formula_structural   Zr3H8C24(Cl3O8)2
_chemical_formula_sum   'Zr6 H16 C48 Cl12 O32'
_cell_volume   2304.14144308
_cell_formula_units_Z   2
loop_
 _symmetry_equiv_pos_site_id
 _symmetry_equiv_pos_as_xyz
  1  'x, y, z'
loop_
 _atom_site_type_symbol
 _atom_site_label
 _atom_site_symmetry_multiplicity
 _atom_site_fract_x
 _atom_site_fract_y
 _atom_site_fract_z
 _atom_site_occupancy
  Zr  Zr0  1  0.38079000  0.50003000  0.38076000  1.0
  Zr  Zr1  1  0.61925000  0.49997000  0.61926000  1.0
  Zr  Zr2  1  0.61926000  0.73846000  0.38078000  1.0
  Zr  Zr3  1  0.38076000  0.26156000  0.61920000  1.0
  Zr  Zr4  1  0.38075000  0.50000000  0.61924000  1.0
  Zr  Zr5  1  0.61921000  0.49997000  0.38079000  1.0
  H  H6  1  0.40624000  0.68753000  0.40624000  1.0
  H  H7  1  0.40623000  0.31247000  0.78129000  1.0
  H  H8  1  0.78130000  0.68754000  0.40623000  1.0
  H  H9  1  0.40623000  0.31247000  0.40625000  1.0
  H  H10  1  0.09051000  0.49583000  0.64031000  1.0
  H  H11  1  0.90531000  0.49582000  0.36387000  1.0
  H  H12  1  0.64031000  0.50417000  0.09052000  1.0
  H  H13  1  0.36387000  0.50418000  0.90531000  1.0
  H  H14  1  0.09052000  0.95439000  0.90531000  1.0
  H  H15  1  0.90530000  0.04561000  0.09052000  1.0
  H  H16  1  0.36386000  0.95438000  0.64031000  1.0
  H  H17  1  0.64030000  0.04562000  0.36387000  1.0
  H  H18  1  0.36386000  0.76919000  0.09051000  1.0
  H  H19  1  0.64030000  0.23081000  0.90533000  1.0
  H  H20  1  0.09052000  0.23082000  0.36386000  1.0
  H  H21  1  0.90532000  0.76919000  0.64031000  1.0
  C  C22  1  0.19407000  0.49444000  0.49914000  1.0
  C  C23  1  0.50642000  0.50556000  0.80037000  1.0
  C  C24  1  0.80037000  0.49444000  0.50642000  1.0
  C  C25  1  0.49914000  0.50556000  0.19407000  1.0
  C  C26  1  0.50642000  0.80678000  0.19408000  1.0
  C  C27  1  0.19407000  0.19322000  0.50641000  1.0
  C  C28  1  0.49914000  0.19322000  0.80037000  1.0
  C  C29  1  0.80037000  0.80678000  0.49914000  1.0
  C  C30  1  0.49914000  0.79951000  0.50642000  1.0
  C  C31  1  0.80037000  0.79950000  0.19408000  1.0
  C  C32  1  0.50642000  0.20050000  0.49913000  1.0
  C  C33  1  0.19408000  0.20050000  0.80037000  1.0
  C  C34  1  0.90196000  0.49530000  0.50837000  1.0
  C  C35  1  0.09334000  0.49531000  0.49633000  1.0
  C  C36  1  0.95595000  0.49647000  0.58684000  1.0
  C  C37  1  0.04051000  0.49646000  0.41670000  1.0
  C  C38  1  0.04926000  0.49584000  0.57955000  1.0
  C  C39  1  0.94658000  0.49584000  0.42462000  1.0
  C  C40  1  0.50837000  0.50470000  0.90197000  1.0
  C  C41  1  0.49633000  0.50470000  0.09333000  1.0
  C  C42  1  0.58685000  0.50354000  0.95595000  1.0
  C  C43  1  0.41669000  0.50353000  0.04052000  1.0
  C  C44  1  0.57954000  0.50416000  0.04926000  1.0
  C  C45  1  0.42462000  0.50417000  0.94658000  1.0
  C  C46  1  0.90197000  0.89830000  0.09334000  1.0
  C  C47  1  0.09334000  0.10171000  0.90197000  1.0
  C  C48  1  0.95595000  0.87265000  0.04052000  1.0
  C  C49  1  0.04052000  0.12736000  0.95595000  1.0
  C  C50  1  0.04926000  0.97388000  0.94658000  1.0
  C  C51  1  0.94658000  0.02612000  0.04926000  1.0
  C  C52  1  0.49633000  0.89830000  0.50836000  1.0
  C  C53  1  0.50837000  0.10171000  0.49632000  1.0
  C  C54  1  0.41670000  0.87265000  0.58684000  1.0
  C  C55  1  0.58683000  0.12735000  0.41669000  1.0
  C  C56  1  0.42462000  0.97388000  0.57954000  1.0
  C  C57  1  0.57954000  0.02612000  0.42462000  1.0
  C  C58  1  0.49632000  0.08966000  0.90197000  1.0
  C  C59  1  0.50837000  0.91034000  0.09334000  1.0
  C  C60  1  0.41669000  0.95721000  0.95595000  1.0
  C  C61  1  0.58683000  0.04278000  0.04052000  1.0
  C  C62  1  0.42462000  0.87120000  0.04926000  1.0
  C  C63  1  0.57955000  0.12880000  0.94658000  1.0
  C  C64  1  0.90197000  0.91034000  0.49632000  1.0
  C  C65  1  0.09334000  0.08966000  0.50837000  1.0
  C  C66  1  0.95595000  0.04279000  0.41670000  1.0
  C  C67  1  0.04051000  0.95721000  0.58684000  1.0
  C  C68  1  0.04926000  0.12880000  0.42462000  1.0
  C  C69  1  0.94658000  0.87120000  0.57954000  1.0
  Cl  Cl70  1  0.91521000  0.49931000  0.69398000  1.0
  Cl  Cl71  1  0.08409000  0.49929000  0.30672000  1.0
  Cl  Cl72  1  0.69399000  0.50070000  0.91521000  1.0
  Cl  Cl73  1  0.30671000  0.50070000  0.08410000  1.0
  Cl  Cl74  1  0.91521000  0.72193000  0.08409000  1.0
  Cl  Cl75  1  0.08410000  0.27808000  0.91521000  1.0
  Cl  Cl76  1  0.30672000  0.72193000  0.69399000  1.0
  Cl  Cl77  1  0.69398000  0.27807000  0.30671000  1.0
  Cl  Cl78  1  0.30672000  0.89082000  0.91520000  1.0
  Cl  Cl79  1  0.69398000  0.10917000  0.08411000  1.0
  Cl  Cl80  1  0.91520000  0.10918000  0.30672000  1.0
  Cl  Cl81  1  0.08411000  0.89082000  0.69399000  1.0
  O  O82  1  0.23533000  0.49391000  0.42411000  1.0
  O  O83  1  0.58198000  0.50608000  0.75859000  1.0
  O  O84  1  0.75858000  0.49392000  0.58198000  1.0
  O  O85  1  0.42409000  0.50608000  0.23534000  1.0
  O  O86  1  0.58197000  0.84054000  0.23535000  1.0
  O  O87  1  0.23536000  0.15946000  0.58196000  1.0
  O  O88  1  0.42411000  0.15946000  0.75857000  1.0
  O  O89  1  0.75858000  0.84055000  0.42410000  1.0
  O  O90  1  0.42409000  0.68268000  0.58199000  1.0
  O  O91  1  0.75858000  0.68268000  0.23534000  1.0
  O  O92  1  0.58198000  0.31733000  0.42409000  1.0
  O  O93  1  0.23534000  0.31732000  0.75859000  1.0
  O  O94  1  0.76344000  0.83930000  0.23237000  1.0
  O  O95  1  0.42833000  0.16070000  0.57585000  1.0
  O  O96  1  0.23237000  0.16070000  0.76345000  1.0
  O  O97  1  0.57586000  0.83930000  0.42834000  1.0
  O  O98  1  0.42832000  0.69177000  0.23236000  1.0
  O  O99  1  0.76347000  0.69178000  0.57586000  1.0
  O  O100  1  0.57587000  0.30823000  0.76346000  1.0
  O  O101  1  0.23236000  0.30823000  0.42832000  1.0
  O  O102  1  0.57586000  0.50419000  0.23236000  1.0
  O  O103  1  0.23236000  0.49582000  0.57586000  1.0
  O  O104  1  0.42833000  0.50419000  0.76345000  1.0
  O  O105  1  0.76345000  0.49581000  0.42833000  1.0
  O  O106  1  0.43292000  0.36585000  0.43293000  1.0
  O  O107  1  0.70122000  0.63414000  0.43293000  1.0
  O  O108  1  0.43292000  0.36585000  0.70122000  1.0
  O  O109  1  0.43292000  0.63414000  0.43293000  1.0
  O  O110  1  0.54955000  0.59908000  0.54955000  1.0
  O  O111  1  0.35137000  0.40092000  0.54954000  1.0
  O  O112  1  0.54955000  0.40092000  0.54954000  1.0
  O  O113  1  0.54954000  0.59908000  0.35137000  1.0
