# generated using pymatgen
data_TbH9C11N2O7
_symmetry_space_group_name_H-M   'P 1'
_cell_length_a   7.35932000
_cell_length_b   8.82025000
_cell_length_c   9.57774000
_cell_angle_alpha   85.94530000
_cell_angle_beta   86.91780000
_cell_angle_gamma   84.01480000
_symmetry_Int_Tables_number   1
_chemical_formula_structural   TbH9C11N2O7
_chemical_formula_sum   'Tb2 H18 C22 N4 O14'
_cell_volume   616.08962316
_cell_formula_units_Z   2
loop_
 _symmetry_equiv_pos_site_id
 _symmetry_equiv_pos_as_xyz
  1  'x, y, z'
loop_
 _atom_site_type_symbol
 _atom_site_label
 _atom_site_symmetry_multiplicity
 _atom_site_fract_x
 _atom_site_fract_y
 _atom_site_fract_z
 _atom_site_occupancy
  Tb  Tb0  1  0.14371000  0.13908000  0.60228000  1.0
  Tb  Tb1  1  0.85629000  0.86091000  0.39772000  1.0
  H  H2  1  0.79314000  0.22177000  0.44962000  1.0
  H  H3  1  0.20685000  0.77822000  0.55038000  1.0
  H  H4  1  0.87465000  0.38683000  0.44300000  1.0
  H  H5  1  0.12534000  0.61316000  0.55701000  1.0
  H  H6  1  0.76441000  0.27627000  0.84303000  1.0
  H  H7  1  0.23559000  0.72373000  0.15698000  1.0
  H  H8  1  0.57422000  0.26412000  0.63486000  1.0
  H  H9  1  0.42579000  0.73589000  0.36514000  1.0
  H  H10  1  0.69656000  0.21949000  0.14980000  1.0
  H  H11  1  0.30344000  0.78052000  0.85019000  1.0
  H  H12  1  0.09738000  0.09389000  0.98610000  1.0
  H  H13  1  0.90262000  0.90611000  0.01390000  1.0
  H  H14  1  0.86008000  0.63311000  0.72988000  1.0
  H  H15  1  0.13992000  0.36689000  0.27013000  1.0
  H  H16  1  0.04725000  0.62015000  0.83969000  1.0
  H  H17  1  0.95276000  0.37985000  0.16031000  1.0
  H  H18  1  0.84841000  0.52788000  0.89580000  1.0
  H  H19  1  0.15160000  0.47212000  0.10421000  1.0
  C  C20  1  0.52466000  0.24168000  0.74224000  1.0
  C  C21  1  0.47535000  0.75832000  0.25775000  1.0
  C  C22  1  0.52528000  0.21409000  0.97260000  1.0
  C  C23  1  0.47471000  0.78591000  0.02740000  1.0
  C  C24  1  0.56411000  0.19866000  0.11384000  1.0
  C  C25  1  0.43588000  0.80136000  0.88616000  1.0
  C  C26  1  0.42991000  0.14949000  0.21048000  1.0
  C  C27  1  0.57008000  0.85052000  0.78951000  1.0
  C  C28  1  0.25860000  0.11406000  0.16413000  1.0
  C  C29  1  0.74140000  0.88594000  0.83587000  1.0
  C  C30  1  0.22469000  0.12654000  0.02108000  1.0
  C  C31  1  0.77532000  0.87346000  0.97891000  1.0
  C  C32  1  0.35779000  0.17619000  0.92488000  1.0
  C  C33  1  0.64220000  0.82381000  0.07512000  1.0
  C  C34  1  0.47923000  0.14933000  0.36077000  1.0
  C  C35  1  0.52077000  0.85067000  0.63922000  1.0
  C  C36  1  0.10928000  0.05337000  0.25690000  1.0
  C  C37  1  0.89072000  0.94663000  0.74311000  1.0
  C  C38  1  0.01894000  0.41842000  0.73359000  1.0
  C  C39  1  0.98106000  0.58157000  0.26642000  1.0
  C  C40  1  0.93859000  0.55699000  0.80545000  1.0
  C  C41  1  0.06141000  0.44301000  0.19456000  1.0
  N  N42  1  0.36270000  0.19339000  0.77892000  1.0
  N  N43  1  0.63730000  0.80661000  0.22108000  1.0
  N  N44  1  0.62611000  0.25710000  0.85380000  1.0
  N  N45  1  0.37389000  0.74291000  0.14620000  1.0
  O  O46  1  0.63849000  0.09159000  0.39377000  1.0
  O  O47  1  0.36151000  0.90842000  0.60623000  1.0
  O  O48  1  0.95830000  0.03571000  0.20520000  1.0
  O  O49  1  0.04171000  0.96428000  0.79480000  1.0
  O  O50  1  0.36640000  0.21912000  0.44594000  1.0
  O  O51  1  0.63360000  0.78088000  0.55406000  1.0
  O  O52  1  0.13224000  0.01004000  0.38730000  1.0
  O  O53  1  0.86777000  0.98996000  0.61270000  1.0
  O  O54  1  0.97418000  0.28618000  0.77863000  1.0
  O  O55  1  0.02581000  0.71381000  0.22137000  1.0
  O  O56  1  0.12871000  0.43014000  0.62677000  1.0
  O  O57  1  0.87128000  0.56985000  0.37323000  1.0
  O  O58  1  0.89094000  0.27788000  0.48153000  1.0
  O  O59  1  0.10906000  0.72211000  0.51847000  1.0
