# generated using pymatgen
data_Ni2H18C24N4O9
_symmetry_space_group_name_H-M   'P 1'
_cell_length_a   10.64620000
_cell_length_b   13.84120000
_cell_length_c   19.10520000
_cell_angle_alpha   90.00010000
_cell_angle_beta   90.00000000
_cell_angle_gamma   103.57100000
_symmetry_Int_Tables_number   1
_chemical_formula_structural   Ni2H18C24N4O9
_chemical_formula_sum   'Ni8 H72 C96 N16 O36'
_cell_volume   2736.66673193
_cell_formula_units_Z   4
loop_
 _symmetry_equiv_pos_site_id
 _symmetry_equiv_pos_as_xyz
  1  'x, y, z'
loop_
 _atom_site_type_symbol
 _atom_site_label
 _atom_site_symmetry_multiplicity
 _atom_site_fract_x
 _atom_site_fract_y
 _atom_site_fract_z
 _atom_site_occupancy
  Ni  Ni0  1  0.57771000  0.61028000  0.59421000  1.0
  Ni  Ni1  1  0.42229000  0.38972000  0.09421000  1.0
  Ni  Ni2  1  0.22501000  0.04793000  0.45350000  1.0
  Ni  Ni3  1  0.77499000  0.95207000  0.95350000  1.0
  Ni  Ni4  1  0.73853000  0.45641000  0.49612000  1.0
  Ni  Ni5  1  0.26147000  0.54359000  0.99611000  1.0
  Ni  Ni6  1  0.38544000  0.89398000  0.35576000  1.0
  Ni  Ni7  1  0.61456000  0.10602000  0.85576000  1.0
  H  H8  1  0.14937000  0.88882000  0.36858000  1.0
  H  H9  1  0.85063000  0.11118000  0.86858000  1.0
  H  H10  1  0.21105000  0.00079000  0.32784000  1.0
  H  H11  1  0.78895000  0.99921000  0.82784000  1.0
  H  H12  1  0.81397000  0.61529000  0.58226000  1.0
  H  H13  1  0.18603000  0.38471000  0.08226000  1.0
  H  H14  1  0.75126000  0.50251000  0.62185000  1.0
  H  H15  1  0.24874000  0.49749000  0.12185000  1.0
  H  H16  1  0.91264000  0.64080000  0.43810000  1.0
  H  H17  1  0.08736000  0.35920000  0.93810000  1.0
  H  H18  1  0.29886000  0.59526000  0.43369000  1.0
  H  H19  1  0.70114000  0.40474000  0.93369000  1.0
  H  H20  1  0.21335000  0.43299000  0.49572000  1.0
  H  H21  1  0.78665000  0.56701000  0.99572000  1.0
  H  H22  1  0.97566000  0.38111000  0.52256000  1.0
  H  H23  1  0.02434000  0.61889000  0.02256000  1.0
  H  H24  1  0.05312000  0.87245000  0.52008000  1.0
  H  H25  1  0.94688000  0.12755000  0.02008000  1.0
  H  H26  1  0.65912000  0.89620000  0.49373000  1.0
  H  H27  1  0.34088000  0.10380000  0.99373000  1.0
  H  H28  1  0.74461000  0.05025000  0.42396000  1.0
  H  H29  1  0.25539000  0.94975000  0.92396000  1.0
  H  H30  1  0.98573000  0.11103000  0.40898000  1.0
  H  H31  1  0.01427000  0.88897000  0.90898000  1.0
  H  H32  1  0.69624000  0.77626000  0.68966000  1.0
  H  H33  1  0.30376000  0.22374000  0.18966000  1.0
  H  H34  1  0.68755000  0.65831000  0.89834000  1.0
  H  H35  1  0.31245000  0.34169000  0.39834000  1.0
  H  H36  1  0.57516000  0.49080000  0.84895000  1.0
  H  H37  1  0.42484000  0.50920000  0.34895000  1.0
  H  H38  1  0.53479000  0.47645000  0.71941000  1.0
  H  H39  1  0.46521000  0.52355000  0.21941000  1.0
  H  H40  1  0.57562000  0.26378000  0.46914000  1.0
  H  H41  1  0.42438000  0.73622000  0.96914000  1.0
  H  H42  1  0.69115000  0.14173000  0.27912000  1.0
  H  H43  1  0.30885000  0.85827000  0.77913000  1.0
  H  H44  1  0.86649000  0.29930000  0.26762000  1.0
  H  H45  1  0.13351000  0.70070000  0.76762000  1.0
  H  H46  1  0.87756000  0.43451000  0.35598000  1.0
  H  H47  1  0.12244000  0.56549000  0.85598000  1.0
  H  H48  1  0.51321000  0.78421000  0.53651000  1.0
  H  H49  1  0.48679000  0.21579000  0.03651000  1.0
  H  H50  1  0.12041000  0.78541000  0.59159000  1.0
  H  H51  1  0.87959000  0.21460000  0.09159000  1.0
  H  H52  1  0.11122000  0.62763000  0.65666000  1.0
  H  H53  1  0.88878000  0.37237000  0.15666000  1.0
  H  H54  1  0.31013000  0.55899000  0.66212000  1.0
  H  H55  1  0.68987000  0.44101000  0.16212000  1.0
  H  H56  1  0.69599000  0.27548000  0.75958000  1.0
  H  H57  1  0.30401000  0.72452000  0.25958000  1.0
  H  H58  1  0.69997000  0.16092000  0.55045000  1.0
  H  H59  1  0.30003000  0.83908000  0.05045000  1.0
  H  H60  1  0.62846000  0.98775000  0.60137000  1.0
  H  H61  1  0.37154000  0.01225000  0.10137000  1.0
  H  H62  1  0.59918000  0.97007000  0.73133000  1.0
  H  H63  1  0.40082000  0.02993000  0.23133000  1.0
  H  H64  1  0.39802000  0.23292000  0.48702000  1.0
  H  H65  1  0.60198000  0.76708000  0.98702000  1.0
  H  H66  1  0.25422000  0.37301000  0.66084000  1.0
  H  H67  1  0.74578000  0.62698000  0.16084000  1.0
  H  H68  1  0.06881000  0.22076000  0.66785000  1.0
  H  H69  1  0.93119000  0.77924000  0.16785000  1.0
  H  H70  1  0.06557000  0.08000000  0.58549000  1.0
  H  H71  1  0.93443000  0.92000000  0.08549000  1.0
  H  H72  1  0.45623000  0.72795000  0.42264000  1.0
  H  H73  1  0.54377000  0.27205000  0.92265000  1.0
  H  H74  1  0.82090000  0.69578000  0.34069000  1.0
  H  H75  1  0.17910000  0.30422000  0.84069000  1.0
  H  H76  1  0.82469000  0.84675000  0.26648000  1.0
  H  H77  1  0.17531000  0.15325000  0.76648000  1.0
  H  H78  1  0.63764000  0.92808000  0.27329000  1.0
  H  H79  1  0.36236000  0.07192000  0.77329000  1.0
  C  C80  1  0.98156000  0.59612000  0.44907000  1.0
  C  C81  1  0.01844000  0.40388000  0.94907000  1.0
  C  C82  1  0.11080000  0.62957000  0.42976000  1.0
  C  C83  1  0.88920000  0.37043000  0.92976000  1.0
  C  C84  1  0.19669000  0.57050000  0.44649000  1.0
  C  C85  1  0.80331000  0.42950000  0.94649000  1.0
  C  C86  1  0.14950000  0.48060000  0.48099000  1.0
  C  C87  1  0.85050000  0.51940000  0.98099000  1.0
  C  C88  1  0.01839000  0.45138000  0.49673000  1.0
  C  C89  1  0.98162000  0.54862000  0.99673000  1.0
  C  C90  1  0.15366000  0.72852000  0.39349000  1.0
  C  C91  1  0.84634000  0.27148000  0.89349000  1.0
  C  C92  1  0.98161000  0.91016000  0.50064000  1.0
  C  C93  1  0.01839000  0.08984000  0.00064000  1.0
  C  C94  1  0.85040000  0.87211000  0.51349000  1.0
  C  C95  1  0.14960000  0.12789000  0.01348000  1.0
  C  C96  1  0.76280000  0.92348000  0.48611000  1.0
  C  C97  1  0.23720000  0.07652000  0.98611000  1.0
  C  C98  1  0.81016000  0.00967000  0.44734000  1.0
  C  C99  1  0.18984000  0.99033000  0.94734000  1.0
  C  C100  1  0.94297000  0.04358000  0.43812000  1.0
  C  C101  1  0.05703000  0.95642000  0.93812000  1.0
  C  C102  1  0.80836000  0.77633000  0.55393000  1.0
  C  C103  1  0.19164000  0.22367000  0.05393000  1.0
  C  C104  1  0.67234000  0.71458000  0.72646000  1.0
  C  C105  1  0.32766000  0.28542000  0.22646000  1.0
  C  C106  1  0.70201000  0.72910000  0.79741000  1.0
  C  C107  1  0.29799000  0.27090000  0.29740000  1.0
  C  C108  1  0.66689000  0.64771000  0.84270000  1.0
  C  C109  1  0.33311000  0.35229000  0.34270000  1.0
  C  C110  1  0.60494000  0.55567000  0.81538000  1.0
  C  C111  1  0.39506000  0.44433000  0.31538000  1.0
  C  C112  1  0.58092000  0.54699000  0.74375000  1.0
  C  C113  1  0.41908000  0.45301000  0.24375000  1.0
  C  C114  1  0.76429000  0.83128000  0.82432000  1.0
  C  C115  1  0.23571000  0.16872000  0.32432000  1.0
  C  C116  1  0.63573000  0.26896000  0.42284000  1.0
  C  C117  1  0.36427000  0.73105000  0.92284000  1.0
  C  C118  1  0.61734000  0.19165000  0.37427000  1.0
  C  C119  1  0.38266000  0.80836000  0.87427000  1.0
  C  C120  1  0.70205000  0.20158000  0.31737000  1.0
  C  C121  1  0.29795000  0.79842000  0.81737000  1.0
  C  C122  1  0.79820000  0.28891000  0.31088000  1.0
  C  C123  1  0.20180000  0.71110000  0.81088000  1.0
  C  C124  1  0.80585000  0.36415000  0.36027000  1.0
  C  C125  1  0.19415000  0.63585000  0.86027000  1.0
  C  C126  1  0.50623000  0.10231000  0.38419000  1.0
  C  C127  1  0.49376000  0.89769000  0.88419000  1.0
  C  C128  1  0.32009000  0.79926000  0.55960000  1.0
  C  C129  1  0.67991000  0.20074000  0.05960000  1.0
  C  C130  1  0.42343000  0.75357000  0.56382000  1.0
  C  C131  1  0.57657000  0.24643000  0.06382000  1.0
  C  C132  1  0.20562000  0.75479000  0.59460000  1.0
  C  C133  1  0.79439000  0.24521000  0.09460000  1.0
  C  C134  1  0.20032000  0.66666667  0.63123000  1.0
  C  C135  1  0.79969000  0.33333333  0.13123000  1.0
  C  C136  1  0.30921000  0.62734000  0.63404000  1.0
  C  C137  1  0.69080000  0.37266000  0.13404000  1.0
  C  C138  1  0.33426000  0.88819000  0.51215000  1.0
  C  C139  1  0.66574000  0.11181000  0.01215000  1.0
  C  C140  1  0.68305000  0.21363000  0.72293000  1.0
  C  C141  1  0.31695000  0.78637000  0.22293000  1.0
  C  C142  1  0.70396000  0.23075000  0.65148000  1.0
  C  C143  1  0.29604000  0.76925000  0.15148000  1.0
  C  C144  1  0.68475000  0.14866000  0.60645000  1.0
  C  C145  1  0.31525000  0.85134000  0.10645000  1.0
  C  C146  1  0.64545000  0.05355000  0.63452000  1.0
  C  C147  1  0.35455000  0.94646000  0.13452000  1.0
  C  C148  1  0.62781000  0.04277000  0.70659000  1.0
  C  C149  1  0.37220000  0.95723000  0.20659000  1.0
  C  C150  1  0.74158000  0.33544000  0.62401000  1.0
  C  C151  1  0.25843000  0.66456000  0.12401000  1.0
  C  C152  1  0.32895000  0.23326000  0.52871000  1.0
  C  C153  1  0.67105000  0.76674000  0.02871000  1.0
  C  C154  1  0.34205000  0.31412000  0.57397000  1.0
  C  C155  1  0.65795000  0.68588000  0.07397000  1.0
  C  C156  1  0.24712000  0.31054000  0.62516000  1.0
  C  C157  1  0.75288000  0.68946000  0.12516000  1.0
  C  C158  1  0.14555000  0.22621000  0.62929000  1.0
  C  C159  1  0.85444000  0.77379000  0.12929000  1.0
  C  C160  1  0.14236000  0.14767000  0.58309000  1.0
  C  C161  1  0.85764000  0.85233000  0.08309000  1.0
  C  C162  1  0.45703000  0.40119000  0.56574000  1.0
  C  C163  1  0.54297000  0.59881000  0.06574000  1.0
  C  C164  1  0.53825000  0.75056000  0.38779000  1.0
  C  C165  1  0.46175000  0.24943000  0.88780000  1.0
  C  C166  1  0.63582000  0.69877000  0.38648000  1.0
  C  C167  1  0.36418000  0.30123000  0.88648000  1.0
  C  C168  1  0.74104000  0.73261000  0.34174000  1.0
  C  C169  1  0.25896000  0.26739000  0.84174000  1.0
  C  C170  1  0.74337000  0.81647000  0.30079000  1.0
  C  C171  1  0.25663000  0.18353000  0.80079000  1.0
  C  C172  1  0.64054000  0.86262000  0.30440000  1.0
  C  C173  1  0.35946000  0.13738000  0.80441000  1.0
  C  C174  1  0.62655000  0.61388000  0.43701000  1.0
  C  C175  1  0.37345000  0.38612000  0.93701000  1.0
  N  N176  1  0.93534000  0.50826000  0.48077000  1.0
  N  N177  1  0.06466000  0.49174000  0.98077000  1.0
  N  N178  1  0.02773000  0.99473000  0.46491000  1.0
  N  N179  1  0.97227000  0.00527000  0.96491000  1.0
  N  N180  1  0.61385000  0.62532000  0.69996000  1.0
  N  N181  1  0.38615000  0.37468000  0.19996000  1.0
  N  N182  1  0.72634000  0.35393000  0.41594000  1.0
  N  N183  1  0.27366000  0.64607000  0.91594000  1.0
  N  N184  1  0.41958000  0.67060000  0.60078000  1.0
  N  N185  1  0.58043000  0.32940000  0.10078000  1.0
  N  N186  1  0.64661000  0.12161000  0.75003000  1.0
  N  N187  1  0.35339000  0.87839000  0.25003000  1.0
  N  N188  1  0.23245000  0.15137000  0.53305000  1.0
  N  N189  1  0.76755000  0.84863000  0.03305000  1.0
  N  N190  1  0.53922000  0.82980000  0.34732000  1.0
  N  N191  1  0.46078000  0.17020000  0.84732000  1.0
  O  O192  1  0.27335000  0.75344000  0.37752000  1.0
  O  O193  1  0.72665000  0.24656000  0.87752000  1.0
  O  O194  1  0.07107000  0.77965000  0.38239000  1.0
  O  O195  1  0.92893000  0.22036000  0.88239000  1.0
  O  O196  1  0.68883000  0.75183000  0.57040000  1.0
  O  O197  1  0.31117000  0.24817000  0.07040000  1.0
  O  O198  1  0.89156000  0.72675000  0.56766000  1.0
  O  O199  1  0.10844000  0.27325000  0.06766000  1.0
  O  O200  1  0.79793000  0.83624000  0.88868000  1.0
  O  O201  1  0.20207000  0.16376000  0.38867000  1.0
  O  O202  1  0.77588000  0.90441000  0.78274000  1.0
  O  O203  1  0.22412000  0.09559000  0.28274000  1.0
  O  O204  1  0.50456000  0.02996000  0.34251000  1.0
  O  O205  1  0.49544000  0.97004000  0.84251000  1.0
  O  O206  1  0.42603000  0.10816000  0.43188000  1.0
  O  O207  1  0.57396000  0.89184000  0.93188000  1.0
  O  O208  1  0.42208000  0.89942000  0.46596000  1.0
  O  O209  1  0.57792000  0.10058000  0.96596000  1.0
  O  O210  1  0.25423000  0.94253000  0.52156000  1.0
  O  O211  1  0.74577000  0.05747000  0.02156000  1.0
  O  O212  1  0.76845000  0.34299000  0.55876000  1.0
  O  O213  1  0.23155000  0.65701000  0.05876000  1.0
  O  O214  1  0.74186000  0.40683000  0.66570000  1.0
  O  O215  1  0.25814000  0.59317000  0.16570000  1.0
  O  O216  1  0.46012000  0.47346000  0.60766000  1.0
  O  O217  1  0.53987000  0.52654000  0.10765000  1.0
  O  O218  1  0.53798000  0.39416000  0.51875000  1.0
  O  O219  1  0.46202000  0.60584000  0.01875000  1.0
  O  O220  1  0.54053000  0.60378000  0.48410000  1.0
  O  O221  1  0.45947000  0.39622000  0.98410000  1.0
  O  O222  1  0.70837000  0.56085000  0.42835000  1.0
  O  O223  1  0.29163000  0.43915000  0.92835000  1.0
  O  O224  1  0.22160000  0.95279000  0.36752000  1.0
  O  O225  1  0.77840000  0.04722000  0.86752000  1.0
  O  O226  1  0.74215000  0.55160000  0.58250000  1.0
  O  O227  1  0.25785000  0.44840000  0.08250000  1.0
