# generated using pymatgen
data_HgH6(CN2)4
_symmetry_space_group_name_H-M   'P 1'
_cell_length_a   10.38749096
_cell_length_b   10.38730000
_cell_length_c   10.38730000
_cell_angle_alpha   103.36000000
_cell_angle_beta   112.61070233
_cell_angle_gamma   112.61070233
_symmetry_Int_Tables_number   1
_chemical_formula_structural   HgH6(CN2)4
_chemical_formula_sum   'Hg4 H24 C16 N32'
_cell_volume   855.51095024
_cell_formula_units_Z   4
loop_
 _symmetry_equiv_pos_site_id
 _symmetry_equiv_pos_as_xyz
  1  'x, y, z'
loop_
 _atom_site_type_symbol
 _atom_site_label
 _atom_site_symmetry_multiplicity
 _atom_site_fract_x
 _atom_site_fract_y
 _atom_site_fract_z
 _atom_site_occupancy
  Hg  Hg0  1  0.25000000  0.87500000  0.62500000  1.0
  Hg  Hg1  1  0.75000000  0.12500000  0.37500000  1.0
  Hg  Hg2  1  0.75000000  0.62500000  0.87500000  1.0
  Hg  Hg3  1  0.25000000  0.37500000  0.12500000  1.0
  H  H4  1  0.62582000  0.88365000  0.63115000  1.0
  H  H5  1  0.74749000  0.13114000  0.00532000  1.0
  H  H6  1  0.87418000  0.50533000  0.25783000  1.0
  H  H7  1  0.75251000  0.75784000  0.38366000  1.0
  H  H8  1  0.37418000  0.11635000  0.36885000  1.0
  H  H9  1  0.25251000  0.86885000  0.99468000  1.0
  H  H10  1  0.12582000  0.49467000  0.74217000  1.0
  H  H11  1  0.24749000  0.24216000  0.61634000  1.0
  H  H12  1  0.42765000  0.71874000  0.48458000  1.0
  H  H13  1  0.76585000  0.98459000  0.05694000  1.0
  H  H14  1  0.07235000  0.55694000  0.29109000  1.0
  H  H15  1  0.73415000  0.79108000  0.21874000  1.0
  H  H16  1  0.57235000  0.28126000  0.51542000  1.0
  H  H17  1  0.23415000  0.01541000  0.94306000  1.0
  H  H18  1  0.92765000  0.44306000  0.70891000  1.0
  H  H19  1  0.26585000  0.20892000  0.78126000  1.0
  H  H20  1  0.59550000  0.69372000  0.57154000  1.0
  H  H21  1  0.87783000  0.07155000  0.97605000  1.0
  H  H22  1  0.90451000  0.47605000  0.09822000  1.0
  H  H23  1  0.62218000  0.59822000  0.19372000  1.0
  H  H24  1  0.40450000  0.30628000  0.42846000  1.0
  H  H25  1  0.12217000  0.92846000  0.02395000  1.0
  H  H26  1  0.09550000  0.52396000  0.90179000  1.0
  H  H27  1  0.37782000  0.40178000  0.80628000  1.0
  C  C28  1  0.54016000  0.76055000  0.59352000  1.0
  C  C29  1  0.83298000  0.09353000  0.05337000  1.0
  C  C30  1  0.95984000  0.55336000  0.22039000  1.0
  C  C31  1  0.66702000  0.72038000  0.26054000  1.0
  C  C32  1  0.45984000  0.23945000  0.40648000  1.0
  C  C33  1  0.16702000  0.90647000  0.94663000  1.0
  C  C34  1  0.04016000  0.44664000  0.77961000  1.0
  C  C35  1  0.33298000  0.27962000  0.73946000  1.0
  C  C36  1  0.50044000  0.74303000  0.71289000  1.0
  C  C37  1  0.96987000  0.21290000  0.21246000  1.0
  C  C38  1  0.99956000  0.71245000  0.24259000  1.0
  C  C39  1  0.53014000  0.74259000  0.24303000  1.0
  C  C40  1  0.49956000  0.25697000  0.28711000  1.0
  C  C41  1  0.03013000  0.78710000  0.78754000  1.0
  C  C42  1  0.00044000  0.28755000  0.75741000  1.0
  C  C43  1  0.46987000  0.25742000  0.75698000  1.0
  N  N44  1  0.39529000  0.77475000  0.73597000  1.0
  N  N45  1  0.96122000  0.23597000  0.34068000  1.0
  N  N46  1  0.10471000  0.84068000  0.37946000  1.0
  N  N47  1  0.53878000  0.87946000  0.27475000  1.0
  N  N48  1  0.60471000  0.22525000  0.26403000  1.0
  N  N49  1  0.03878000  0.76403000  0.65932000  1.0
  N  N50  1  0.89529000  0.15932000  0.62054000  1.0
  N  N51  1  0.46122000  0.12054000  0.72525000  1.0
  N  N52  1  0.39446000  0.74878000  0.85778000  1.0
  N  N53  1  0.10900000  0.35778000  0.46332000  1.0
  N  N54  1  0.10554000  0.96332000  0.35432000  1.0
  N  N55  1  0.39100000  0.85432000  0.24878000  1.0
  N  N56  1  0.60554000  0.25122000  0.14222000  1.0
  N  N57  1  0.89100000  0.64222000  0.53668000  1.0
  N  N58  1  0.89446000  0.03668000  0.64568000  1.0
  N  N59  1  0.60900000  0.14568000  0.75122000  1.0
  N  N60  1  0.49498000  0.70160000  0.90795000  1.0
  N  N61  1  0.20634000  0.40794000  0.41296000  1.0
  N  N62  1  0.00502000  0.91297000  0.20662000  1.0
  N  N63  1  0.29366000  0.70663000  0.20161000  1.0
  N  N64  1  0.50502000  0.29840000  0.09205000  1.0
  N  N65  1  0.79365000  0.59205000  0.58703000  1.0
  N  N66  1  0.99498000  0.08703000  0.79338000  1.0
  N  N67  1  0.70634000  0.29337000  0.79839000  1.0
  N  N68  1  0.56307000  0.69712000  0.81933000  1.0
  N  N69  1  0.12222000  0.31933000  0.25627000  1.0
  N  N70  1  0.93693000  0.75626000  0.13404000  1.0
  N  N71  1  0.37778000  0.63404000  0.19711000  1.0
  N  N72  1  0.43693000  0.30288000  0.18067000  1.0
  N  N73  1  0.87778000  0.68066000  0.74373000  1.0
  N  N74  1  0.06307000  0.24374000  0.86596000  1.0
  N  N75  1  0.62222000  0.36596000  0.80289000  1.0
