# generated using pymatgen
data_ZnH13C19N9O
_symmetry_space_group_name_H-M   'P 1'
_cell_length_a   9.57770000
_cell_length_b   13.94540000
_cell_length_c   15.29970000
_cell_angle_alpha   116.33700000
_cell_angle_beta   90.00170000
_cell_angle_gamma   90.00080000
_symmetry_Int_Tables_number   1
_chemical_formula_structural   ZnH13C19N9O
_chemical_formula_sum   'Zn4 H52 C76 N36 O4'
_cell_volume   1831.38696258
_cell_formula_units_Z   4
loop_
 _symmetry_equiv_pos_site_id
 _symmetry_equiv_pos_as_xyz
  1  'x, y, z'
loop_
 _atom_site_type_symbol
 _atom_site_label
 _atom_site_symmetry_multiplicity
 _atom_site_fract_x
 _atom_site_fract_y
 _atom_site_fract_z
 _atom_site_occupancy
  Zn  Zn0  1  0.64421000  0.24940000  0.26883000  1.0
  Zn  Zn1  1  0.14420000  0.25060000  0.73117000  1.0
  Zn  Zn2  1  0.35580000  0.75061000  0.73118000  1.0
  Zn  Zn3  1  0.85581000  0.74941000  0.26884000  1.0
  H  H4  1  0.01260000  0.50712000  0.24494000  1.0
  H  H5  1  0.51258000  0.99289000  0.75507000  1.0
  H  H6  1  0.98742000  0.49289000  0.75507000  1.0
  H  H7  1  0.48742000  0.00711000  0.24494000  1.0
  H  H8  1  0.02023000  0.62730000  0.42676000  1.0
  H  H9  1  0.52023000  0.87271000  0.57325000  1.0
  H  H10  1  0.97976000  0.37272000  0.57325000  1.0
  H  H11  1  0.47978000  0.12729000  0.42675000  1.0
  H  H12  1  0.86255000  0.58839000  0.53770000  1.0
  H  H13  1  0.36256000  0.91160000  0.46229000  1.0
  H  H14  1  0.13741000  0.41163000  0.46230000  1.0
  H  H15  1  0.63744000  0.08838000  0.53771000  1.0
  H  H16  1  0.60981000  0.54228000  0.76121000  1.0
  H  H17  1  0.10979000  0.95769000  0.23878000  1.0
  H  H18  1  0.39019000  0.45770000  0.23877000  1.0
  H  H19  1  0.89019000  0.04230000  0.76124000  1.0
  H  H20  1  0.47492000  0.56929000  0.91207000  1.0
  H  H21  1  0.97490000  0.93068000  0.08792000  1.0
  H  H22  1  0.52511000  0.43070000  0.08792000  1.0
  H  H23  1  0.02509000  0.06931000  0.91209000  1.0
  H  H24  1  0.31940000  0.29173000  0.59431000  1.0
  H  H25  1  0.81941000  0.20827000  0.40567000  1.0
  H  H26  1  0.68059000  0.70827000  0.40567000  1.0
  H  H27  1  0.18058000  0.79174000  0.59433000  1.0
  H  H28  1  0.27079000  0.44954000  0.89487000  1.0
  H  H29  1  0.77081000  0.05045000  0.10512000  1.0
  H  H30  1  0.72922000  0.55044000  0.10512000  1.0
  H  H31  1  0.22919000  0.94955000  0.89489000  1.0
  H  H32  1  0.85539000  0.20791000  0.64048000  1.0
  H  H33  1  0.35541000  0.29208000  0.35950000  1.0
  H  H34  1  0.14461000  0.79212000  0.35952000  1.0
  H  H35  1  0.64462000  0.70791000  0.64050000  1.0
  H  H36  1  0.62108000  0.17127000  0.69338000  1.0
  H  H37  1  0.12109000  0.32871000  0.30660000  1.0
  H  H38  1  0.37892000  0.82876000  0.30662000  1.0
  H  H39  1  0.87893000  0.67129000  0.69340000  1.0
  H  H40  1  0.59227000  0.19512000  0.86517000  1.0
  H  H41  1  0.09228000  0.30487000  0.13481000  1.0
  H  H42  1  0.40773000  0.80491000  0.13483000  1.0
  H  H43  1  0.90775000  0.69513000  0.86518000  1.0
  H  H44  1  0.01073000  0.31842000  0.92259000  1.0
  H  H45  1  0.51073000  0.18157000  0.07738000  1.0
  H  H46  1  0.98928000  0.68159000  0.07740000  1.0
  H  H47  1  0.48927000  0.81841000  0.92260000  1.0
  H  H48  1  0.23973000  0.02650000  0.12755000  1.0
  H  H49  1  0.73972000  0.47350000  0.87246000  1.0
  H  H50  1  0.76027000  0.97351000  0.87245000  1.0
  H  H51  1  0.26027000  0.52650000  0.12754000  1.0
  H  H52  1  0.32815000  0.92665000  0.06116000  1.0
  H  H53  1  0.82815000  0.57337000  0.93884000  1.0
  H  H54  1  0.67185000  0.07336000  0.93884000  1.0
  H  H55  1  0.17185000  0.42664000  0.06115000  1.0
  C  C56  1  0.85074000  0.40838000  0.26141000  1.0
  C  C57  1  0.35073000  0.09163000  0.73858000  1.0
  C  C58  1  0.14927000  0.59164000  0.73859000  1.0
  C  C59  1  0.64926000  0.90837000  0.26143000  1.0
  C  C60  1  0.94636000  0.49318000  0.29630000  1.0
  C  C61  1  0.44633000  0.00682000  0.70370000  1.0
  C  C62  1  0.05366000  0.50683000  0.70371000  1.0
  C  C63  1  0.55365000  0.99317000  0.29630000  1.0
  C  C64  1  0.95106000  0.55807000  0.39677000  1.0
  C  C65  1  0.45103000  0.94192000  0.60324000  1.0
  C  C66  1  0.04895000  0.44193000  0.60324000  1.0
  C  C67  1  0.54895000  0.05806000  0.39677000  1.0
  C  C68  1  0.86299000  0.53780000  0.45946000  1.0
  C  C69  1  0.36297000  0.96218000  0.54054000  1.0
  C  C70  1  0.13700000  0.46221000  0.54054000  1.0
  C  C71  1  0.63701000  0.03779000  0.45946000  1.0
  C  C72  1  0.77393000  0.44932000  0.41986000  1.0
  C  C73  1  0.27392000  0.05067000  0.58013000  1.0
  C  C74  1  0.22606000  0.55069000  0.58014000  1.0
  C  C75  1  0.72606000  0.94932000  0.41987000  1.0
  C  C76  1  0.67720000  0.41468000  0.47368000  1.0
  C  C77  1  0.17718000  0.08529000  0.52631000  1.0
  C  C78  1  0.32279000  0.58532000  0.52631000  1.0
  C  C79  1  0.82280000  0.91469000  0.47369000  1.0
  C  C80  1  0.54641000  0.39688000  0.57533000  1.0
  C  C81  1  0.04642000  0.10311000  0.42465000  1.0
  C  C82  1  0.45357000  0.60312000  0.42466000  1.0
  C  C83  1  0.95358000  0.89689000  0.57535000  1.0
  C  C84  1  0.82260000  0.33871000  0.15898000  1.0
  C  C85  1  0.32258000  0.16128000  0.84101000  1.0
  C  C86  1  0.17742000  0.66129000  0.84102000  1.0
  C  C87  1  0.67741000  0.83871000  0.15900000  1.0
  C  C88  1  0.79471000  0.27502000  0.00767000  1.0
  C  C89  1  0.29473000  0.22497000  0.99233000  1.0
  C  C90  1  0.20529000  0.72498000  0.99233000  1.0
  C  C91  1  0.70529000  0.77503000  0.00768000  1.0
  C  C92  1  0.47539000  0.41452000  0.66566000  1.0
  C  C93  1  0.97539000  0.08547000  0.33433000  1.0
  C  C94  1  0.52460000  0.58547000  0.33433000  1.0
  C  C95  1  0.02460000  0.91453000  0.66568000  1.0
  C  C96  1  0.51901000  0.49337000  0.75706000  1.0
  C  C97  1  0.01900000  0.00660000  0.24292000  1.0
  C  C98  1  0.48100000  0.50661000  0.24292000  1.0
  C  C99  1  0.98099000  0.99339000  0.75708000  1.0
  C  C100  1  0.44552000  0.50715000  0.84037000  1.0
  C  C101  1  0.94551000  0.99282000  0.15961000  1.0
  C  C102  1  0.55450000  0.49285000  0.15962000  1.0
  C  C103  1  0.05448000  0.00716000  0.84039000  1.0
  C  C104  1  0.35873000  0.35286000  0.66342000  1.0
  C  C105  1  0.85875000  0.14713000  0.33657000  1.0
  C  C106  1  0.64125000  0.64714000  0.33657000  1.0
  C  C107  1  0.14125000  0.85287000  0.66343000  1.0
  C  C108  1  0.33144000  0.44150000  0.83181000  1.0
  C  C109  1  0.83145000  0.05848000  0.16817000  1.0
  C  C110  1  0.66857000  0.55849000  0.16818000  1.0
  C  C111  1  0.16855000  0.94151000  0.83183000  1.0
  C  C112  1  0.83493000  0.22414000  0.71585000  1.0
  C  C113  1  0.33496000  0.27584000  0.28413000  1.0
  C  C114  1  0.16506000  0.77588000  0.28415000  1.0
  C  C115  1  0.66506000  0.72415000  0.71587000  1.0
  C  C116  1  0.70602000  0.20300000  0.74576000  1.0
  C  C117  1  0.20604000  0.29698000  0.25423000  1.0
  C  C118  1  0.29397000  0.79703000  0.25425000  1.0
  C  C119  1  0.79398000  0.70301000  0.74577000  1.0
  C  C120  1  0.68918000  0.21684000  0.84106000  1.0
  C  C121  1  0.18919000  0.28315000  0.15893000  1.0
  C  C122  1  0.31082000  0.78318000  0.15895000  1.0
  C  C123  1  0.81083000  0.71685000  0.84108000  1.0
  C  C124  1  0.80062000  0.25903000  0.90662000  1.0
  C  C125  1  0.30063000  0.24097000  0.09337000  1.0
  C  C126  1  0.19938000  0.74099000  0.09339000  1.0
  C  C127  1  0.69939000  0.75903000  0.90663000  1.0
  C  C128  1  0.92373000  0.28444000  0.87273000  1.0
  C  C129  1  0.42375000  0.21556000  0.12725000  1.0
  C  C130  1  0.07627000  0.71557000  0.12727000  1.0
  C  C131  1  0.57627000  0.78444000  0.87275000  1.0
  N  N132  1  0.51616000  0.31264000  0.48865000  1.0
  N  N133  1  0.01617000  0.18735000  0.51134000  1.0
  N  N134  1  0.48384000  0.68736000  0.51134000  1.0
  N  N135  1  0.98384000  0.81265000  0.48867000  1.0
  N  N136  1  0.64717000  0.46249000  0.56941000  1.0
  N  N137  1  0.14716000  0.03749000  0.43058000  1.0
  N  N138  1  0.35280000  0.53751000  0.43058000  1.0
  N  N139  1  0.85282000  0.96249000  0.56943000  1.0
  N  N140  1  0.60139000  0.32412000  0.42359000  1.0
  N  N141  1  0.10138000  0.17585000  0.57640000  1.0
  N  N142  1  0.39861000  0.67588000  0.57640000  1.0
  N  N143  1  0.89862000  0.82413000  0.42361000  1.0
  N  N144  1  0.76966000  0.38733000  0.32275000  1.0
  N  N145  1  0.26967000  0.11268000  0.67723000  1.0
  N  N146  1  0.23033000  0.61269000  0.67724000  1.0
  N  N147  1  0.73034000  0.88732000  0.32277000  1.0
  N  N148  1  0.73377000  0.25523000  0.13440000  1.0
  N  N149  1  0.23375000  0.24475000  0.86559000  1.0
  N  N150  1  0.26624000  0.74477000  0.86560000  1.0
  N  N151  1  0.76623000  0.75524000  0.13441000  1.0
  N  N152  1  0.71580000  0.21342000  0.03641000  1.0
  N  N153  1  0.21580000  0.28657000  0.96358000  1.0
  N  N154  1  0.28420000  0.78659000  0.96359000  1.0
  N  N155  1  0.78421000  0.71343000  0.03643000  1.0
  N  N156  1  0.86532000  0.35336000  0.08179000  1.0
  N  N157  1  0.36531000  0.14663000  0.91820000  1.0
  N  N158  1  0.13470000  0.64663000  0.91820000  1.0
  N  N159  1  0.63469000  0.85337000  0.08181000  1.0
  N  N160  1  0.94300000  0.26263000  0.77867000  1.0
  N  N161  1  0.44302000  0.23736000  0.22131000  1.0
  N  N162  1  0.05700000  0.73737000  0.22133000  1.0
  N  N163  1  0.55700000  0.76263000  0.77869000  1.0
  N  N164  1  0.28957000  0.36541000  0.74424000  1.0
  N  N165  1  0.78959000  0.13458000  0.25574000  1.0
  N  N166  1  0.71044000  0.63459000  0.25575000  1.0
  N  N167  1  0.21042000  0.86542000  0.74426000  1.0
  O  O168  1  0.33394000  0.99781000  0.11853000  1.0
  O  O169  1  0.83392000  0.50220000  0.88146000  1.0
  O  O170  1  0.66606000  0.00219000  0.88147000  1.0
  O  O171  1  0.16606000  0.49781000  0.11852000  1.0
