# generated using pymatgen
data_HgH33C41N3(ClO3)2
_symmetry_space_group_name_H-M   'P 1'
_cell_length_a   8.82109000
_cell_length_b   12.65860000
_cell_length_c   20.56080000
_cell_angle_alpha   73.40490000
_cell_angle_beta   87.26630000
_cell_angle_gamma   73.49920000
_symmetry_Int_Tables_number   1
_chemical_formula_structural   HgH33C41N3(ClO3)2
_chemical_formula_sum   'Hg2 H66 C82 N6 Cl4 O12'
_cell_volume   2108.23175317
_cell_formula_units_Z   2
loop_
 _symmetry_equiv_pos_site_id
 _symmetry_equiv_pos_as_xyz
  1  'x, y, z'
loop_
 _atom_site_type_symbol
 _atom_site_label
 _atom_site_symmetry_multiplicity
 _atom_site_fract_x
 _atom_site_fract_y
 _atom_site_fract_z
 _atom_site_occupancy
  Hg  Hg0  1  0.87875000  0.26640000  0.71266000  1.0
  Hg  Hg1  1  0.12125000  0.73360000  0.28734000  1.0
  H  H2  1  0.78617000  0.22096000  0.56485000  1.0
  H  H3  1  0.21384000  0.77903000  0.43515000  1.0
  H  H4  1  0.61398000  0.13202000  0.51606000  1.0
  H  H5  1  0.38602000  0.86797000  0.48394000  1.0
  H  H6  1  0.37174000  0.08858000  0.70502000  1.0
  H  H7  1  0.62826000  0.91142000  0.29498000  1.0
  H  H8  1  0.55145000  0.18276000  0.74511000  1.0
  H  H9  1  0.44855000  0.81723000  0.25489000  1.0
  H  H10  1  0.02313000  0.04207000  0.59682000  1.0
  H  H11  1  0.97687000  0.95793000  0.40318000  1.0
  H  H12  1  0.86800000  0.92217000  0.56764000  1.0
  H  H13  1  0.13200000  0.07783000  0.43237000  1.0
  H  H14  1  0.29518000  0.64454000  0.58994000  1.0
  H  H15  1  0.70482000  0.35545000  0.41006000  1.0
  H  H16  1  0.85175000  0.74395000  0.55626000  1.0
  H  H17  1  0.14825000  0.25604000  0.44374000  1.0
  H  H18  1  0.99055000  0.62034000  0.60835000  1.0
  H  H19  1  0.00945000  0.37966000  0.39165000  1.0
  H  H20  1  0.01956000  0.66988000  0.52014000  1.0
  H  H21  1  0.98044000  0.33012000  0.47986000  1.0
  H  H22  1  0.55752000  0.80739000  0.57690000  1.0
  H  H23  1  0.44248000  0.19260000  0.42310000  1.0
  H  H24  1  0.53903000  0.66679000  0.60888000  1.0
  H  H25  1  0.46097000  0.33320000  0.39113000  1.0
  H  H26  1  0.84045000  0.50123000  0.76576000  1.0
  H  H27  1  0.15955000  0.49878000  0.23424000  1.0
  H  H28  1  0.98242000  0.64183000  0.77787000  1.0
  H  H29  1  0.01758000  0.35818000  0.22213000  1.0
  H  H30  1  0.40401000  0.43325000  0.71165000  1.0
  H  H31  1  0.59599000  0.56674000  0.28836000  1.0
  H  H32  1  0.23888000  0.30915000  0.69478000  1.0
  H  H33  1  0.76112000  0.69085000  0.30522000  1.0
  H  H34  1  0.69148000  0.87314000  0.64481000  1.0
  H  H35  1  0.30852000  0.12686000  0.35518000  1.0
  H  H36  1  0.73211000  0.72688000  0.86141000  1.0
  H  H37  1  0.26789000  0.27313000  0.13858000  1.0
  H  H38  1  0.83165000  0.94570000  0.71020000  1.0
  H  H39  1  0.16835000  0.05431000  0.28979000  1.0
  H  H40  1  0.94477000  0.83336000  0.77722000  1.0
  H  H41  1  0.05522000  0.16665000  0.22278000  1.0
  H  H42  1  0.77566000  0.93428000  0.79567000  1.0
  H  H43  1  0.22434000  0.06573000  0.20433000  1.0
  H  H44  1  0.42432000  0.59518000  0.87366000  1.0
  H  H45  1  0.57569000  0.40482000  0.12634000  1.0
  H  H46  1  0.59173000  0.48929000  0.86097000  1.0
  H  H47  1  0.40828000  0.51071000  0.13902000  1.0
  H  H48  1  0.91903000  0.15178000  0.87789000  1.0
  H  H49  1  0.08098000  0.84822000  0.12211000  1.0
  H  H50  1  0.09722000  0.99362000  0.97069000  1.0
  H  H51  1  0.90279000  0.00638000  0.02932000  1.0
  H  H52  1  0.33610000  0.84891000  0.81459000  1.0
  H  H53  1  0.66390000  0.15110000  0.18541000  1.0
  H  H54  1  0.15406000  0.01258000  0.72909000  1.0
  H  H55  1  0.84594000  0.98742000  0.27091000  1.0
  H  H56  1  0.58563000  0.71912000  0.05324000  1.0
  H  H57  1  0.41436000  0.28087000  0.94677000  1.0
  H  H58  1  0.80570000  0.54959000  0.10988000  1.0
  H  H59  1  0.19429000  0.45041000  0.89012000  1.0
  H  H60  1  0.78889000  0.40130000  0.94709000  1.0
  H  H61  1  0.21112000  0.59870000  0.05291000  1.0
  H  H62  1  0.97886000  0.29789000  0.03743000  1.0
  H  H63  1  0.02114000  0.70211000  0.96257000  1.0
  H  H64  1  0.90612000  0.31316000  0.11758000  1.0
  H  H65  1  0.09388000  0.68684000  0.88242000  1.0
  H  H66  1  0.04829000  0.38288000  0.07772000  1.0
  H  H67  1  0.95171000  0.61712000  0.92228000  1.0
  C  C68  1  0.69089000  0.19208000  0.59360000  1.0
  C  C69  1  0.30911000  0.80792000  0.40640000  1.0
  C  C70  1  0.59506000  0.14334000  0.56659000  1.0
  C  C71  1  0.40494000  0.85667000  0.43341000  1.0
  C  C72  1  0.47782000  0.10548000  0.60664000  1.0
  C  C73  1  0.52218000  0.89453000  0.39336000  1.0
  C  C74  1  0.46104000  0.11776000  0.67232000  1.0
  C  C75  1  0.53895000  0.88224000  0.32768000  1.0
  C  C76  1  0.56039000  0.16926000  0.69470000  1.0
  C  C77  1  0.43961000  0.83074000  0.30529000  1.0
  C  C78  1  0.37708000  0.05165000  0.57804000  1.0
  C  C79  1  0.62292000  0.94835000  0.42195000  1.0
  C  C80  1  0.24140000  0.90851000  0.60918000  1.0
  C  C81  1  0.75860000  0.09149000  0.39082000  1.0
  C  C82  1  0.07954000  0.95394000  0.59579000  1.0
  C  C83  1  0.92046000  0.04605000  0.40421000  1.0
  C  C84  1  0.99431000  0.88616000  0.58041000  1.0
  C  C85  1  0.00569000  0.11384000  0.41959000  1.0
  C  C86  1  0.06962000  0.77321000  0.57942000  1.0
  C  C87  1  0.93037000  0.22679000  0.42059000  1.0
  C  C88  1  0.23406000  0.73169000  0.59190000  1.0
  C  C89  1  0.76594000  0.26831000  0.40810000  1.0
  C  C90  1  0.32392000  0.79767000  0.60660000  1.0
  C  C91  1  0.67608000  0.20233000  0.39340000  1.0
  C  C92  1  0.97788000  0.69800000  0.56537000  1.0
  C  C93  1  0.02211000  0.30199000  0.43463000  1.0
  C  C94  1  0.50231000  0.75285000  0.61662000  1.0
  C  C95  1  0.49769000  0.24714000  0.38338000  1.0
  C  C96  1  0.96451000  0.49089000  0.75330000  1.0
  C  C97  1  0.03549000  0.50911000  0.24670000  1.0
  C  C98  1  0.04360000  0.56773000  0.76066000  1.0
  C  C99  1  0.95640000  0.43227000  0.23934000  1.0
  C  C100  1  0.20345000  0.54816000  0.74526000  1.0
  C  C101  1  0.79654000  0.45185000  0.25474000  1.0
  C  C102  1  0.27861000  0.45276000  0.72236000  1.0
  C  C103  1  0.72140000  0.54724000  0.27764000  1.0
  C  C104  1  0.18870000  0.38230000  0.71480000  1.0
  C  C105  1  0.81130000  0.61770000  0.28520000  1.0
  C  C106  1  0.28627000  0.63076000  0.75405000  1.0
  C  C107  1  0.71374000  0.36923000  0.24595000  1.0
  C  C108  1  0.53281000  0.67226000  0.74439000  1.0
  C  C109  1  0.46719000  0.32774000  0.25561000  1.0
  C  C110  1  0.56688000  0.74661000  0.68485000  1.0
  C  C111  1  0.43312000  0.25339000  0.31515000  1.0
  C  C112  1  0.66306000  0.81462000  0.69079000  1.0
  C  C113  1  0.33694000  0.18538000  0.30920000  1.0
  C  C114  1  0.72169000  0.81009000  0.75377000  1.0
  C  C115  1  0.27831000  0.18991000  0.24622000  1.0
  C  C116  1  0.68569000  0.73238000  0.81197000  1.0
  C  C117  1  0.31431000  0.26762000  0.18803000  1.0
  C  C118  1  0.59215000  0.66142000  0.80867000  1.0
  C  C119  1  0.40785000  0.33859000  0.19133000  1.0
  C  C120  1  0.82330000  0.88487000  0.75942000  1.0
  C  C121  1  0.17670000  0.11513000  0.24058000  1.0
  C  C122  1  0.55377000  0.57448000  0.87000000  1.0
  C  C123  1  0.44623000  0.42552000  0.13000000  1.0
  C  C124  1  0.01422000  0.08320000  0.86656000  1.0
  C  C125  1  0.98578000  0.91679000  0.13344000  1.0
  C  C126  1  0.11095000  0.99572000  0.91749000  1.0
  C  C127  1  0.88905000  0.00427000  0.08252000  1.0
  C  C128  1  0.22952000  0.90970000  0.89972000  1.0
  C  C129  1  0.77049000  0.09030000  0.10028000  1.0
  C  C130  1  0.24740000  0.91459000  0.83100000  1.0
  C  C131  1  0.75260000  0.08541000  0.16900000  1.0
  C  C132  1  0.14531000  0.00519000  0.78328000  1.0
  C  C133  1  0.85469000  0.99481000  0.21672000  1.0
  C  C134  1  0.32927000  0.81529000  0.95564000  1.0
  C  C135  1  0.67073000  0.18471000  0.04436000  1.0
  C  C136  1  0.56824000  0.65500000  0.96797000  1.0
  C  C137  1  0.43176000  0.34500000  0.03203000  1.0
  C  C138  1  0.63203000  0.64995000  0.02990000  1.0
  C  C139  1  0.36797000  0.35005000  0.97010000  1.0
  C  C140  1  0.75485000  0.55373000  0.06158000  1.0
  C  C141  1  0.24515000  0.44627000  0.93842000  1.0
  C  C142  1  0.81324000  0.46256000  0.03283000  1.0
  C  C143  1  0.18677000  0.53744000  0.96717000  1.0
  C  C144  1  0.74655000  0.47138000  0.97038000  1.0
  C  C145  1  0.25346000  0.52862000  0.02962000  1.0
  C  C146  1  0.62452000  0.56700000  0.93675000  1.0
  C  C147  1  0.37549000  0.43300000  0.06325000  1.0
  C  C148  1  0.94338000  0.35831000  0.06817000  1.0
  C  C149  1  0.05662000  0.64169000  0.93183000  1.0
  N  N150  1  0.67323000  0.20535000  0.65623000  1.0
  N  N151  1  0.32677000  0.79465000  0.34377000  1.0
  N  N152  1  0.03577000  0.40042000  0.73042000  1.0
  N  N153  1  0.96423000  0.59958000  0.26959000  1.0
  N  N154  1  0.03186000  0.08769000  0.80059000  1.0
  N  N155  1  0.96814000  0.91231000  0.19941000  1.0
  Cl  Cl156  1  0.05174000  0.23973000  0.61864000  1.0
  Cl  Cl157  1  0.94826000  0.76027000  0.38136000  1.0
  Cl  Cl158  1  0.68274000  0.32385000  0.79308000  1.0
  Cl  Cl159  1  0.31727000  0.67615000  0.20692000  1.0
  O  O160  1  0.34830000  0.07086000  0.51766000  1.0
  O  O161  1  0.65171000  0.92914000  0.48233000  1.0
  O  O162  1  0.32675000  0.97430000  0.62845000  1.0
  O  O163  1  0.67325000  0.02571000  0.37155000  1.0
  O  O164  1  0.22368000  0.71473000  0.77385000  1.0
  O  O165  1  0.77631000  0.28528000  0.22616000  1.0
  O  O166  1  0.44109000  0.60055000  0.73807000  1.0
  O  O167  1  0.55891000  0.39945000  0.26193000  1.0
  O  O168  1  0.30158000  0.79951000  0.01581000  1.0
  O  O169  1  0.69842000  0.20048000  0.98419000  1.0
  O  O170  1  0.45305000  0.75074000  0.92909000  1.0
  O  O171  1  0.54695000  0.24926000  0.07091000  1.0
