# generated using pymatgen
data_ZnH20C16(NO)4
_symmetry_space_group_name_H-M   'P 1'
_cell_length_a   7.78692000
_cell_length_b   10.20700000
_cell_length_c   11.62218642
_cell_angle_alpha   64.79977030
_cell_angle_beta   89.99985103
_cell_angle_gamma   89.99960000
_symmetry_Int_Tables_number   1
_chemical_formula_structural   ZnH20C16(NO)4
_chemical_formula_sum   'Zn2 H40 C32 N8 O8'
_cell_volume   835.82705040
_cell_formula_units_Z   2
loop_
 _symmetry_equiv_pos_site_id
 _symmetry_equiv_pos_as_xyz
  1  'x, y, z'
loop_
 _atom_site_type_symbol
 _atom_site_label
 _atom_site_symmetry_multiplicity
 _atom_site_fract_x
 _atom_site_fract_y
 _atom_site_fract_z
 _atom_site_occupancy
  Zn  Zn0  1  0.75371000  0.38980000  0.78034000  1.0
  Zn  Zn1  1  0.25370000  0.61020000  0.21966000  1.0
  H  H2  1  0.12587000  0.54386000  0.66975000  1.0
  H  H3  1  0.62587000  0.45614000  0.33025000  1.0
  H  H4  1  0.02604000  0.02021000  0.16969000  1.0
  H  H5  1  0.52603000  0.97978000  0.83032000  1.0
  H  H6  1  0.99250000  0.23102000  0.50090000  1.0
  H  H7  1  0.49250000  0.76897000  0.49911000  1.0
  H  H8  1  0.09777000  0.06341000  0.41045000  1.0
  H  H9  1  0.59777000  0.93660000  0.58955000  1.0
  H  H10  1  0.04427000  0.79897000  0.52386000  1.0
  H  H11  1  0.54427000  0.20104000  0.47613000  1.0
  H  H12  1  0.78229000  0.86678000  0.81870000  1.0
  H  H13  1  0.28229000  0.13323000  0.18129000  1.0
  H  H14  1  0.51825000  0.58935000  0.84119000  1.0
  H  H15  1  0.01825000  0.41065000  0.15881000  1.0
  H  H16  1  0.29921000  0.54429000  0.88323000  1.0
  H  H17  1  0.79920000  0.45571000  0.11677000  1.0
  H  H18  1  0.35093000  0.70345000  0.74524000  1.0
  H  H19  1  0.85093000  0.29654000  0.25477000  1.0
  H  H20  1  0.53230000  0.39805000  0.54566000  1.0
  H  H21  1  0.03230000  0.60195000  0.45434000  1.0
  H  H22  1  0.46998000  0.24127000  0.68161000  1.0
  H  H23  1  0.96998000  0.75873000  0.31839000  1.0
  H  H24  1  0.17284000  0.31474000  0.64395000  1.0
  H  H25  1  0.67284000  0.68526000  0.35605000  1.0
  H  H26  1  0.24133000  0.45616000  0.49798000  1.0
  H  H27  1  0.74133000  0.54384000  0.50202000  1.0
  H  H28  1  0.10326000  0.31241000  0.85242000  1.0
  H  H29  1  0.60325000  0.68759000  0.14758000  1.0
  H  H30  1  0.19270000  0.14910000  0.97157000  1.0
  H  H31  1  0.69270000  0.85090000  0.02843000  1.0
  H  H32  1  0.18332000  0.30677000  0.99903000  1.0
  H  H33  1  0.68332000  0.69323000  0.00097000  1.0
  H  H34  1  0.71708000  0.06798000  0.25644000  1.0
  H  H35  1  0.21708000  0.93202000  0.74356000  1.0
  H  H36  1  0.71287000  0.95577000  0.17453000  1.0
  H  H37  1  0.21286000  0.04423000  0.82547000  1.0
  H  H38  1  0.56379000  0.14540000  0.00328000  1.0
  H  H39  1  0.06379000  0.85460000  0.99672000  1.0
  H  H40  1  0.58993000  0.26393000  0.07795000  1.0
  H  H41  1  0.08993000  0.73608000  0.92204000  1.0
  C  C42  1  0.80705000  0.15505000  0.72270000  1.0
  C  C43  1  0.30705000  0.84495000  0.27730000  1.0
  C  C44  1  0.87985000  0.05966000  0.66585000  1.0
  C  C45  1  0.37985000  0.94034000  0.33414000  1.0
  C  C46  1  0.97024000  0.11474000  0.55058000  1.0
  C  C47  1  0.47024000  0.88525000  0.44942000  1.0
  C  C48  1  0.02872000  0.02051000  0.50042000  1.0
  C  C49  1  0.52871000  0.97949000  0.49958000  1.0
  C  C50  1  0.99954000  0.87150000  0.56434000  1.0
  C  C51  1  0.49954000  0.12850000  0.43566000  1.0
  C  C52  1  0.91126000  0.81515000  0.68058000  1.0
  C  C53  1  0.41126000  0.18485000  0.31942000  1.0
  C  C54  1  0.85234000  0.91057000  0.72946000  1.0
  C  C55  1  0.35234000  0.08943000  0.27054000  1.0
  C  C56  1  0.86512000  0.65785000  0.75203000  1.0
  C  C57  1  0.36512000  0.34215000  0.24798000  1.0
  C  C58  1  0.38937000  0.59078000  0.80311000  1.0
  C  C59  1  0.88936000  0.40923000  0.19688000  1.0
  C  C60  1  0.38503000  0.50697000  0.72508000  1.0
  C  C61  1  0.88503000  0.49303000  0.27492000  1.0
  C  C62  1  0.45343000  0.35884000  0.63202000  1.0
  C  C63  1  0.95343000  0.64117000  0.36797000  1.0
  C  C64  1  0.26430000  0.40468000  0.60079000  1.0
  C  C65  1  0.76430000  0.59532000  0.39921000  1.0
  C  C66  1  0.11535000  0.24563000  0.95454000  1.0
  C  C67  1  0.61535000  0.75437000  0.04546000  1.0
  C  C68  1  0.94329000  0.20202000  0.01412000  1.0
  C  C69  1  0.44329000  0.79798000  0.98588000  1.0
  C  C70  1  0.74706000  0.06444000  0.16548000  1.0
  C  C71  1  0.24706000  0.93556000  0.83452000  1.0
  C  C72  1  0.65728000  0.18701000  0.05043000  1.0
  C  C73  1  0.15728000  0.81298000  0.94957000  1.0
  N  N74  1  0.51186000  0.42656000  0.71582000  1.0
  N  N75  1  0.01186000  0.57343000  0.28418000  1.0
  N  N76  1  0.24467000  0.50823000  0.65662000  1.0
  N  N77  1  0.74467000  0.49177000  0.34338000  1.0
  N  N78  1  0.79766000  0.26152000  0.96105000  1.0
  N  N79  1  0.29766000  0.73848000  0.03895000  1.0
  N  N80  1  0.92867000  0.09568000  0.13289000  1.0
  N  N81  1  0.42867000  0.90432000  0.86711000  1.0
  O  O82  1  0.86485000  0.28543000  0.68163000  1.0
  O  O83  1  0.36485000  0.71456000  0.31838000  1.0
  O  O84  1  0.69245000  0.10376000  0.80709000  1.0
  O  O85  1  0.19245000  0.89623000  0.19291000  1.0
  O  O86  1  0.89729000  0.57380000  0.69566000  1.0
  O  O87  1  0.39729000  0.42621000  0.30434000  1.0
  O  O88  1  0.79285000  0.61472000  0.85792000  1.0
  O  O89  1  0.29285000  0.38526000  0.14209000  1.0
