# generated using pymatgen
data_Rb2UH12C14N2O13
_symmetry_space_group_name_H-M   'P 1'
_cell_length_a   7.61402000
_cell_length_b   12.11990000
_cell_length_c   12.12000000
_cell_angle_alpha   74.88970000
_cell_angle_beta   73.51100000
_cell_angle_gamma   73.51070000
_symmetry_Int_Tables_number   1
_chemical_formula_structural   Rb2UH12C14N2O13
_chemical_formula_sum   'Rb4 U2 H24 C28 N4 O26'
_cell_volume   1008.41875431
_cell_formula_units_Z   2
loop_
 _symmetry_equiv_pos_site_id
 _symmetry_equiv_pos_as_xyz
  1  'x, y, z'
loop_
 _atom_site_type_symbol
 _atom_site_label
 _atom_site_symmetry_multiplicity
 _atom_site_fract_x
 _atom_site_fract_y
 _atom_site_fract_z
 _atom_site_occupancy
  Rb  Rb0  1  0.03963000  0.63119000  0.26362000  1.0
  Rb  Rb1  1  0.46037000  0.73638000  0.36880000  1.0
  Rb  Rb2  1  0.96037000  0.36881000  0.73638000  1.0
  Rb  Rb3  1  0.53963000  0.26362000  0.63120000  1.0
  U  U4  1  0.00000000  0.50000000  0.00000000  1.0
  U  U5  1  0.50001000  0.00000000  0.50000000  1.0
  H  H6  1  0.43161000  0.50216000  0.25310000  1.0
  H  H7  1  0.06839000  0.74690000  0.49785000  1.0
  H  H8  1  0.56839000  0.49785000  0.74691000  1.0
  H  H9  1  0.93161000  0.25310000  0.50215000  1.0
  H  H10  1  0.57211000  0.58556000  0.18646000  1.0
  H  H11  1  0.92788000  0.81354000  0.41444000  1.0
  H  H12  1  0.42789000  0.41444000  0.81354000  1.0
  H  H13  1  0.07211000  0.18646000  0.58556000  1.0
  H  H14  1  0.75496000  0.47334000  0.44092000  1.0
  H  H15  1  0.74505000  0.55908000  0.52667000  1.0
  H  H16  1  0.24505000  0.52667000  0.55908000  1.0
  H  H17  1  0.25496000  0.44092000  0.47333000  1.0
  H  H18  1  0.95188000  0.11157000  0.38566000  1.0
  H  H19  1  0.54812000  0.61434000  0.88843000  1.0
  H  H20  1  0.04811000  0.88843000  0.61434000  1.0
  H  H21  1  0.45188000  0.38566000  0.11157000  1.0
  H  H22  1  0.17425000  0.95291000  0.28491000  1.0
  H  H23  1  0.32573000  0.71509000  0.04708000  1.0
  H  H24  1  0.82573000  0.04709000  0.71509000  1.0
  H  H25  1  0.67428000  0.28491000  0.95292000  1.0
  H  H26  1  0.34986000  0.00925000  0.07506000  1.0
  H  H27  1  0.15013000  0.92494000  0.99074000  1.0
  H  H28  1  0.65014000  0.99075000  0.92493000  1.0
  H  H29  1  0.84987000  0.07506000  0.00926000  1.0
  C  C30  1  0.99586000  0.24647000  0.23111000  1.0
  C  C31  1  0.50414000  0.76889000  0.75353000  1.0
  C  C32  1  0.00413000  0.75353000  0.76889000  1.0
  C  C33  1  0.49586000  0.23111000  0.24647000  1.0
  C  C34  1  0.02652000  0.13138000  0.29439000  1.0
  C  C35  1  0.47348000  0.70561000  0.86861000  1.0
  C  C36  1  0.97348000  0.86862000  0.70561000  1.0
  C  C37  1  0.52652000  0.29439000  0.13138000  1.0
  C  C38  1  0.15238000  0.04366000  0.23779000  1.0
  C  C39  1  0.34761000  0.76221000  0.95634000  1.0
  C  C40  1  0.84762000  0.95634000  0.76221000  1.0
  C  C41  1  0.65239000  0.23779000  0.04366000  1.0
  C  C42  1  0.24592000  0.07430000  0.12137000  1.0
  C  C43  1  0.25407000  0.87863000  0.92569000  1.0
  C  C44  1  0.75408000  0.92569000  0.87863000  1.0
  C  C45  1  0.74593000  0.12137000  0.07431000  1.0
  C  C46  1  0.20444000  0.19147000  0.06442000  1.0
  C  C47  1  0.29556000  0.93558000  0.80853000  1.0
  C  C48  1  0.79556000  0.80853000  0.93558000  1.0
  C  C49  1  0.70444000  0.06442000  0.19147000  1.0
  C  C50  1  0.87211000  0.34957000  0.28239000  1.0
  C  C51  1  0.62790000  0.71761000  0.65043000  1.0
  C  C52  1  0.12789000  0.65043000  0.71761000  1.0
  C  C53  1  0.37210000  0.28239000  0.34957000  1.0
  C  C54  1  0.29524000  0.23528000  0.93976000  1.0
  C  C55  1  0.20476000  0.06025000  0.76472000  1.0
  C  C56  1  0.70476000  0.76472000  0.06025000  1.0
  C  C57  1  0.79524000  0.93975000  0.23528000  1.0
  N  N58  1  0.08046000  0.27577000  0.11759000  1.0
  N  N59  1  0.41955000  0.88241000  0.72423000  1.0
  N  N60  1  0.91954000  0.72423000  0.88241000  1.0
  N  N61  1  0.58045000  0.11759000  0.27577000  1.0
  O  O62  1  0.85620000  0.44736000  0.20884000  1.0
  O  O63  1  0.64381000  0.79116000  0.55264000  1.0
  O  O64  1  0.14381000  0.55264000  0.79116000  1.0
  O  O65  1  0.35619000  0.20884000  0.44736000  1.0
  O  O66  1  0.20361000  0.66276000  0.60953000  1.0
  O  O67  1  0.29639000  0.39047000  0.33724000  1.0
  O  O68  1  0.79639000  0.33725000  0.39046000  1.0
  O  O69  1  0.70362000  0.60954000  0.66276000  1.0
  O  O70  1  0.22749000  0.34600000  0.90169000  1.0
  O  O71  1  0.27252000  0.09832000  0.65400000  1.0
  O  O72  1  0.77252000  0.65400000  0.09831000  1.0
  O  O73  1  0.72748000  0.90168000  0.34600000  1.0
  O  O74  1  0.57584000  0.83013000  0.11837000  1.0
  O  O75  1  0.92416000  0.88162000  0.16988000  1.0
  O  O76  1  0.42418000  0.16986000  0.88163000  1.0
  O  O77  1  0.07584000  0.11838000  0.83013000  1.0
  O  O78  1  0.18880000  0.53124000  0.04209000  1.0
  O  O79  1  0.31119000  0.95791000  0.46877000  1.0
  O  O80  1  0.81119000  0.46876000  0.95791000  1.0
  O  O81  1  0.68881000  0.04210000  0.53122000  1.0
  O  O82  1  0.43919000  0.58466000  0.22327000  1.0
  O  O83  1  0.06081000  0.77673000  0.41535000  1.0
  O  O84  1  0.56082000  0.41534000  0.77673000  1.0
  O  O85  1  0.93919000  0.22327000  0.58465000  1.0
  O  O86  1  0.75000000  0.55419000  0.44581000  1.0
  O  O87  1  0.25000000  0.44581000  0.55419000  1.0
