# generated using pymatgen
data_Cd3H40C66N6O13
_symmetry_space_group_name_H-M   'P 1'
_cell_length_a   11.29660000
_cell_length_b   13.87130000
_cell_length_c   21.98480000
_cell_angle_alpha   74.94610000
_cell_angle_beta   78.11640000
_cell_angle_gamma   71.60100000
_symmetry_Int_Tables_number   1
_chemical_formula_structural   Cd3H40C66N6O13
_chemical_formula_sum   'Cd6 H80 C132 N12 O26'
_cell_volume   3127.68979281
_cell_formula_units_Z   2
loop_
 _symmetry_equiv_pos_site_id
 _symmetry_equiv_pos_as_xyz
  1  'x, y, z'
loop_
 _atom_site_type_symbol
 _atom_site_label
 _atom_site_symmetry_multiplicity
 _atom_site_fract_x
 _atom_site_fract_y
 _atom_site_fract_z
 _atom_site_occupancy
  Cd  Cd0  1  0.62412000  0.17732000  0.49953000  1.0
  Cd  Cd1  1  0.37589000  0.82268000  0.50047000  1.0
  Cd  Cd2  1  0.78227000  0.27833000  0.85039000  1.0
  Cd  Cd3  1  0.21774000  0.72166000  0.14962000  1.0
  Cd  Cd4  1  0.98137000  0.47554000  0.81073000  1.0
  Cd  Cd5  1  0.01863000  0.52447000  0.18927000  1.0
  H  H6  1  0.55523000  0.29215000  0.57927000  1.0
  H  H7  1  0.44475000  0.70786000  0.42072000  1.0
  H  H8  1  0.65964000  0.35112000  0.55381000  1.0
  H  H9  1  0.34035000  0.64889000  0.44619000  1.0
  H  H10  1  0.23802000  0.32280000  0.64938000  1.0
  H  H11  1  0.76196000  0.67721000  0.35062000  1.0
  H  H12  1  0.38639000  0.01582000  0.32174000  1.0
  H  H13  1  0.61360000  0.98419000  0.67826000  1.0
  H  H14  1  0.93269000  0.02095000  0.74921000  1.0
  H  H15  1  0.06732000  0.97904000  0.25078000  1.0
  H  H16  1  0.46874000  0.11925000  0.33856000  1.0
  H  H17  1  0.53126000  0.88075000  0.66144000  1.0
  H  H18  1  0.33647000  0.88094000  0.28485000  1.0
  H  H19  1  0.66353000  0.11906000  0.71514000  1.0
  H  H20  1  0.29325000  0.33347000  0.18025000  1.0
  H  H21  1  0.70676000  0.66653000  0.81975000  1.0
  H  H22  1  0.37286000  0.20781000  0.13293000  1.0
  H  H23  1  0.62715000  0.79220000  0.86707000  1.0
  H  H24  1  0.33749000  0.00215000  0.63850000  1.0
  H  H25  1  0.66251000  0.99787000  0.36150000  1.0
  H  H26  1  0.43348000  0.44464000  0.30860000  1.0
  H  H27  1  0.56651000  0.55535000  0.69141000  1.0
  H  H28  1  0.26581000  0.69361000  0.72547000  1.0
  H  H29  1  0.73420000  0.30639000  0.27452000  1.0
  H  H30  1  0.31981000  0.86111000  0.69308000  1.0
  H  H31  1  0.68020000  0.13889000  0.30692000  1.0
  H  H32  1  0.88274000  0.85228000  0.78469000  1.0
  H  H33  1  0.11728000  0.14772000  0.21530000  1.0
  H  H34  1  0.33242000  0.06693000  0.09609000  1.0
  H  H35  1  0.66759000  0.93308000  0.90390000  1.0
  H  H36  1  0.00120000  0.13309000  0.75933000  1.0
  H  H37  1  0.99880000  0.86691000  0.24067000  1.0
  H  H38  1  0.16424000  0.26764000  0.09777000  1.0
  H  H39  1  0.83576000  0.73235000  0.90223000  1.0
  H  H40  1  0.28068000  0.35796000  0.75917000  1.0
  H  H41  1  0.71932000  0.64204000  0.24083000  1.0
  H  H42  1  0.76857000  0.50141000  0.93400000  1.0
  H  H43  1  0.23143000  0.49859000  0.06600000  1.0
  H  H44  1  0.74508000  0.46345000  0.05460000  1.0
  H  H45  1  0.25492000  0.53654000  0.94541000  1.0
  H  H46  1  0.93613000  0.35995000  0.10781000  1.0
  H  H47  1  0.06388000  0.64004000  0.89219000  1.0
  H  H48  1  0.21678000  0.04579000  0.95367000  1.0
  H  H49  1  0.78322000  0.95420000  0.04634000  1.0
  H  H50  1  0.36610000  0.20715000  0.02832000  1.0
  H  H51  1  0.63390000  0.79285000  0.97168000  1.0
  H  H52  1  0.20015000  0.99396000  0.36061000  1.0
  H  H53  1  0.79984000  0.00603000  0.63939000  1.0
  H  H54  1  0.08203000  0.14595000  0.86693000  1.0
  H  H55  1  0.91797000  0.85404000  0.13307000  1.0
  H  H56  1  0.48530000  0.19442000  0.91861000  1.0
  H  H57  1  0.51471000  0.80557000  0.08139000  1.0
  H  H58  1  0.92511000  0.08954000  0.14525000  1.0
  H  H59  1  0.07488000  0.91046000  0.85475000  1.0
  H  H60  1  0.96748000  0.74384000  0.45763000  1.0
  H  H61  1  0.03251000  0.25616000  0.54237000  1.0
  H  H62  1  0.61981000  0.93058000  0.54209000  1.0
  H  H63  1  0.38018000  0.06942000  0.45791000  1.0
  H  H64  1  0.78086000  0.34896000  0.42610000  1.0
  H  H65  1  0.21915000  0.65104000  0.57390000  1.0
  H  H66  1  0.14913000  0.18738000  0.34514000  1.0
  H  H67  1  0.85087000  0.81261000  0.65486000  1.0
  H  H68  1  0.70293000  0.18898000  0.16610000  1.0
  H  H69  1  0.29707000  0.81103000  0.83390000  1.0
  H  H70  1  0.75144000  0.75793000  0.52011000  1.0
  H  H71  1  0.24855000  0.24208000  0.47989000  1.0
  H  H72  1  0.48292000  0.24872000  0.80113000  1.0
  H  H73  1  0.51708000  0.75127000  0.19886000  1.0
  H  H74  1  0.99094000  0.35526000  0.36315000  1.0
  H  H75  1  0.00907000  0.64474000  0.63684000  1.0
  H  H76  1  0.13574000  0.83241000  0.40033000  1.0
  H  H77  1  0.86425000  0.16759000  0.59967000  1.0
  H  H78  1  0.11964000  0.03677000  0.06686000  1.0
  H  H79  1  0.88036000  0.96322000  0.93314000  1.0
  H  H80  1  0.39934000  0.42006000  0.03015000  1.0
  H  H81  1  0.60066000  0.57994000  0.96985000  1.0
  H  H82  1  0.51017000  0.31712000  0.12426000  1.0
  H  H83  1  0.48983000  0.68289000  0.87574000  1.0
  H  H84  1  0.51228000  0.40441000  0.92023000  1.0
  H  H85  1  0.48772000  0.59558000  0.07977000  1.0
  C  C86  1  0.31645000  0.50700000  0.20162000  1.0
  C  C87  1  0.68354000  0.49300000  0.79838000  1.0
  C  C88  1  0.04082000  0.66065000  0.77681000  1.0
  C  C89  1  0.95920000  0.33935000  0.22319000  1.0
  C  C90  1  0.05989000  0.36920000  0.95176000  1.0
  C  C91  1  0.94011000  0.63080000  0.04824000  1.0
  C  C92  1  0.16330000  0.05408000  0.70054000  1.0
  C  C93  1  0.83671000  0.94592000  0.29946000  1.0
  C  C94  1  0.21741000  0.24791000  0.66417000  1.0
  C  C95  1  0.78258000  0.75210000  0.33583000  1.0
  C  C96  1  0.37122000  0.02994000  0.27235000  1.0
  C  C97  1  0.62878000  0.97007000  0.72765000  1.0
  C  C98  1  0.38731000  0.21307000  0.25358000  1.0
  C  C99  1  0.61269000  0.78692000  0.74642000  1.0
  C  C100  1  0.50897000  0.25635000  0.39053000  1.0
  C  C101  1  0.49102000  0.74364000  0.60948000  1.0
  C  C102  1  0.37527000  0.12554000  0.23089000  1.0
  C  C103  1  0.62473000  0.87446000  0.76911000  1.0
  C  C104  1  0.13128000  0.95405000  0.71950000  1.0
  C  C105  1  0.86873000  0.04595000  0.28049000  1.0
  C  C106  1  0.00767000  0.94963000  0.74544000  1.0
  C  C107  1  0.99234000  0.05037000  0.25455000  1.0
  C  C108  1  0.43821000  0.19705000  0.30960000  1.0
  C  C109  1  0.56179000  0.80294000  0.69040000  1.0
  C  C110  1  0.07150000  0.76232000  0.75828000  1.0
  C  C111  1  0.92852000  0.23768000  0.24171000  1.0
  C  C112  1  0.34532000  0.95280000  0.25169000  1.0
  C  C113  1  0.65467000  0.04721000  0.74831000  1.0
  C  C114  1  0.17691000  0.33518000  0.91155000  1.0
  C  C115  1  0.82309000  0.66482000  0.08845000  1.0
  C  C116  1  0.41654000  0.17637000  0.59725000  1.0
  C  C117  1  0.58345000  0.82366000  0.40275000  1.0
  C  C118  1  0.34463000  0.31608000  0.22034000  1.0
  C  C119  1  0.65537000  0.68392000  0.77966000  1.0
  C  C120  1  0.45317000  0.27965000  0.33001000  1.0
  C  C121  1  0.54682000  0.72035000  0.67000000  1.0
  C  C122  1  0.36461000  0.13643000  0.16662000  1.0
  C  C123  1  0.63539000  0.86358000  0.83338000  1.0
  C  C124  1  0.27312000  0.06620000  0.65914000  1.0
  C  C125  1  0.72689000  0.93381000  0.34086000  1.0
  C  C126  1  0.36183000  0.39900000  0.23938000  1.0
  C  C127  1  0.63817000  0.60100000  0.76063000  1.0
  C  C128  1  0.11101000  0.23597000  0.70737000  1.0
  C  C129  1  0.88898000  0.76403000  0.29263000  1.0
  C  C130  1  0.41863000  0.38072000  0.29379000  1.0
  C  C131  1  0.58136000  0.61928000  0.70622000  1.0
  C  C132  1  0.30020000  0.16217000  0.64134000  1.0
  C  C133  1  0.69980000  0.83784000  0.35866000  1.0
  C  C134  1  0.03447000  0.32214000  0.74003000  1.0
  C  C135  1  0.96552000  0.67786000  0.25997000  1.0
  C  C136  1  0.19432000  0.76586000  0.73152000  1.0
  C  C137  1  0.80570000  0.23414000  0.26848000  1.0
  C  C138  1  0.28672000  0.27539000  0.94011000  1.0
  C  C139  1  0.71328000  0.72461000  0.05989000  1.0
  C  C140  1  0.22353000  0.86026000  0.71285000  1.0
  C  C141  1  0.77648000  0.13974000  0.28715000  1.0
  C  C142  1  0.97861000  0.85510000  0.76508000  1.0
  C  C143  1  0.02141000  0.14489000  0.23492000  1.0
  C  C144  1  0.05694000  0.34309000  0.01887000  1.0
  C  C145  1  0.94307000  0.65691000  0.98112000  1.0
  C  C146  1  0.34224000  0.05839000  0.14561000  1.0
  C  C147  1  0.65777000  0.94161000  0.85438000  1.0
  C  C148  1  0.08457000  0.13984000  0.72524000  1.0
  C  C149  1  0.91543000  0.86016000  0.27476000  1.0
  C  C150  1  0.16965000  0.28433000  0.04608000  1.0
  C  C151  1  0.83035000  0.71567000  0.95392000  1.0
  C  C152  1  0.28489000  0.33213000  0.81019000  1.0
  C  C153  1  0.71511000  0.66786000  0.18981000  1.0
  C  C154  1  0.84779000  0.45768000  0.96016000  1.0
  C  C155  1  0.15221000  0.54233000  0.03984000  1.0
  C  C156  1  0.73696000  0.24656000  0.00213000  1.0
  C  C157  1  0.26304000  0.75344000  0.99788000  1.0
  C  C158  1  0.83571000  0.43534000  0.02684000  1.0
  C  C159  1  0.16429000  0.56466000  0.97316000  1.0
  C  C160  1  0.86723000  0.18795000  0.98994000  1.0
  C  C161  1  0.13277000  0.81205000  0.01007000  1.0
  C  C162  1  0.94071000  0.37813000  0.05629000  1.0
  C  C163  1  0.05930000  0.62186000  0.94371000  1.0
  C  C164  1  0.86661000  0.00293000  0.45838000  1.0
  C  C165  1  0.13338000  0.99707000  0.54162000  1.0
  C  C166  1  0.11777000  0.08515000  0.96578000  1.0
  C  C167  1  0.88222000  0.91485000  0.03422000  1.0
  C  C168  1  0.27990000  0.25189000  0.00790000  1.0
  C  C169  1  0.72011000  0.74811000  0.99210000  1.0
  C  C170  1  0.94985000  0.90762000  0.44494000  1.0
  C  C171  1  0.05014000  0.09238000  0.55506000  1.0
  C  C172  1  0.10762000  0.99547000  0.38753000  1.0
  C  C173  1  0.89238000  0.00453000  0.61247000  1.0
  C  C174  1  0.04320000  0.14029000  0.91708000  1.0
  C  C175  1  0.95680000  0.85970000  0.08292000  1.0
  C  C176  1  0.67976000  0.24804000  0.06607000  1.0
  C  C177  1  0.32024000  0.75196000  0.93393000  1.0
  C  C178  1  0.90392000  0.09812000  0.43346000  1.0
  C  C179  1  0.09608000  0.90187000  0.56654000  1.0
  C  C180  1  0.39873000  0.24225000  0.89914000  1.0
  C  C181  1  0.60127000  0.75774000  0.10086000  1.0
  C  C182  1  0.87221000  0.13315000  0.10582000  1.0
  C  C183  1  0.12779000  0.86684000  0.89418000  1.0
  C  C184  1  0.90673000  0.81791000  0.46798000  1.0
  C  C185  1  0.09326000  0.18209000  0.53202000  1.0
  C  C186  1  0.71353000  0.92227000  0.51481000  1.0
  C  C187  1  0.28646000  0.07773000  0.48519000  1.0
  C  C188  1  0.02502000  0.09360000  0.39790000  1.0
  C  C189  1  0.97498000  0.90640000  0.60210000  1.0
  C  C190  1  0.85309000  0.27762000  0.41867000  1.0
  C  C191  1  0.14692000  0.72238000  0.58133000  1.0
  C  C192  1  0.05716000  0.18815000  0.37307000  1.0
  C  C193  1  0.94284000  0.81185000  0.62693000  1.0
  C  C194  1  0.74913000  0.18828000  0.11744000  1.0
  C  C195  1  0.25086000  0.81172000  0.88256000  1.0
  C  C196  1  0.78843000  0.82518000  0.50256000  1.0
  C  C197  1  0.21156000  0.17482000  0.49744000  1.0
  C  C198  1  0.93488000  0.13323000  0.04221000  1.0
  C  C199  1  0.06511000  0.86677000  0.95780000  1.0
  C  C200  1  0.39785000  0.27120000  0.83404000  1.0
  C  C201  1  0.60215000  0.72879000  0.16596000  1.0
  C  C202  1  0.97085000  0.28062000  0.38315000  1.0
  C  C203  1  0.02916000  0.71937000  0.61685000  1.0
  C  C204  1  0.07149000  0.90613000  0.40938000  1.0
  C  C205  1  0.92850000  0.09386000  0.59062000  1.0
  C  C206  1  0.06371000  0.08088000  0.02847000  1.0
  C  C207  1  0.93629000  0.91911000  0.97153000  1.0
  C  C208  1  0.49464000  0.36955000  0.02402000  1.0
  C  C209  1  0.50536000  0.63045000  0.97598000  1.0
  C  C210  1  0.55571000  0.31247000  0.07583000  1.0
  C  C211  1  0.44429000  0.68753000  0.92417000  1.0
  C  C212  1  0.55726000  0.36140000  0.96253000  1.0
  C  C213  1  0.44274000  0.63859000  0.03747000  1.0
  C  C214  1  0.28823000  0.89026000  0.16581000  1.0
  C  C215  1  0.71177000  0.10974000  0.83419000  1.0
  C  C216  1  0.32723000  0.96736000  0.18837000  1.0
  C  C217  1  0.67277000  0.03264000  0.81163000  1.0
  N  N218  1  0.75224000  0.00778000  0.49335000  1.0
  N  N219  1  0.24776000  0.99222000  0.50664000  1.0
  N  N220  1  0.82147000  0.18935000  0.44365000  1.0
  N  N221  1  0.17854000  0.81065000  0.55636000  1.0
  N  N222  1  0.67421000  0.30186000  0.95218000  1.0
  N  N223  1  0.32580000  0.69814000  0.04782000  1.0
  N  N224  1  0.92183000  0.18973000  0.92889000  1.0
  N  N225  1  0.07817000  0.81027000  0.07112000  1.0
  N  N226  1  0.95607000  0.42603000  0.92397000  1.0
  N  N227  1  0.04393000  0.57398000  0.07603000  1.0
  N  N228  1  0.17784000  0.36196000  0.84780000  1.0
  N  N229  1  0.82216000  0.63803000  0.15220000  1.0
  O  O230  1  0.50539000  0.09597000  0.58675000  1.0
  O  O231  1  0.49461000  0.90406000  0.41324000  1.0
  O  O232  1  0.42119000  0.26912000  0.57171000  1.0
  O  O233  1  0.57879000  0.73091000  0.42829000  1.0
  O  O234  1  0.04087000  0.41440000  0.71605000  1.0
  O  O235  1  0.95911000  0.58560000  0.28396000  1.0
  O  O236  1  0.97423000  0.29683000  0.79521000  1.0
  O  O237  1  0.02576000  0.70316000  0.20479000  1.0
  O  O238  1  0.93096000  0.65693000  0.80669000  1.0
  O  O239  1  0.06906000  0.34307000  0.19331000  1.0
  O  O240  1  0.12433000  0.58066000  0.76285000  1.0
  O  O241  1  0.87568000  0.41934000  0.23714000  1.0
  O  O242  1  0.52459000  0.16252000  0.42302000  1.0
  O  O243  1  0.47541000  0.83747000  0.57698000  1.0
  O  O244  1  0.53888000  0.32554000  0.40675000  1.0
  O  O245  1  0.46112000  0.67445000  0.59325000  1.0
  O  O246  1  0.36093000  0.57787000  0.20611000  1.0
  O  O247  1  0.63905000  0.42213000  0.79390000  1.0
  O  O248  1  0.23341000  0.52470000  0.16485000  1.0
  O  O249  1  0.76659000  0.47530000  0.83515000  1.0
  O  O250  1  0.29769000  0.89506000  0.10671000  1.0
  O  O251  1  0.70231000  0.10495000  0.89329000  1.0
  O  O252  1  0.24468000  0.82247000  0.20890000  1.0
  O  O253  1  0.75532000  0.17754000  0.79109000  1.0
  O  O254  1  0.64860000  0.28208000  0.57169000  1.0
  O  O255  1  0.35139000  0.71793000  0.42832000  1.0
