# generated using pymatgen
data_DyH12C11O8
_symmetry_space_group_name_H-M   'P 1'
_cell_length_a   5.79620000
_cell_length_b   13.27170000
_cell_length_c   15.53010000
_cell_angle_alpha   94.20950000
_cell_angle_beta   90.00000000
_cell_angle_gamma   90.00000000
_symmetry_Int_Tables_number   1
_chemical_formula_structural   DyH12C11O8
_chemical_formula_sum   'Dy4 H48 C44 O32'
_cell_volume   1191.43677317
_cell_formula_units_Z   4
loop_
 _symmetry_equiv_pos_site_id
 _symmetry_equiv_pos_as_xyz
  1  'x, y, z'
loop_
 _atom_site_type_symbol
 _atom_site_label
 _atom_site_symmetry_multiplicity
 _atom_site_fract_x
 _atom_site_fract_y
 _atom_site_fract_z
 _atom_site_occupancy
  Dy  Dy0  1  0.43996000  0.63388000  0.58288000  1.0
  Dy  Dy1  1  0.93996000  0.86612000  0.91712000  1.0
  Dy  Dy2  1  0.56004000  0.36613000  0.41712000  1.0
  Dy  Dy3  1  0.06004000  0.13388000  0.08288000  1.0
  H  H4  1  0.69016000  0.71415000  0.74281000  1.0
  H  H5  1  0.19016000  0.78585000  0.75719000  1.0
  H  H6  1  0.30984000  0.28585000  0.25719000  1.0
  H  H7  1  0.80985000  0.21415000  0.24281000  1.0
  H  H8  1  0.87480000  0.71786000  0.66666667  1.0
  H  H9  1  0.37480000  0.78214000  0.83332000  1.0
  H  H10  1  0.12520000  0.28215000  0.33333333  1.0
  H  H11  1  0.62521000  0.21785000  0.16668000  1.0
  H  H12  1  0.89961000  0.68903000  0.49506000  1.0
  H  H13  1  0.39961000  0.81097000  0.00494000  1.0
  H  H14  1  0.10039000  0.31097000  0.50494000  1.0
  H  H15  1  0.60039000  0.18903000  0.99506000  1.0
  H  H16  1  0.79600000  0.58800000  0.45912000  1.0
  H  H17  1  0.29600000  0.91200000  0.04088000  1.0
  H  H18  1  0.20400000  0.41200000  0.54088000  1.0
  H  H19  1  0.70400000  0.08800000  0.95912000  1.0
  H  H20  1  0.08558000  0.96382000  0.64637000  1.0
  H  H21  1  0.58558000  0.53617000  0.85362000  1.0
  H  H22  1  0.91442000  0.03618000  0.35363000  1.0
  H  H23  1  0.41442000  0.46382000  0.14637000  1.0
  H  H24  1  0.88360000  0.88075000  0.59613000  1.0
  H  H25  1  0.38359000  0.61925000  0.90386000  1.0
  H  H26  1  0.11641000  0.11925000  0.40386000  1.0
  H  H27  1  0.61641000  0.38075000  0.09613000  1.0
  H  H28  1  0.51293000  0.30724000  0.71088000  1.0
  H  H29  1  0.01293000  0.19276000  0.78912000  1.0
  H  H30  1  0.48707000  0.69276000  0.28911000  1.0
  H  H31  1  0.98707000  0.80723000  0.21089000  1.0
  H  H32  1  0.08750000  0.90243000  0.45147000  1.0
  H  H33  1  0.58751000  0.59757000  0.04853000  1.0
  H  H34  1  0.91249000  0.09757000  0.54853000  1.0
  H  H35  1  0.41249000  0.40242000  0.95147000  1.0
  H  H36  1  0.26477000  0.99483000  0.50476000  1.0
  H  H37  1  0.76476000  0.50517000  0.99523000  1.0
  H  H38  1  0.73523000  0.00518000  0.49524000  1.0
  H  H39  1  0.23523000  0.49482000  0.00476000  1.0
  H  H40  1  0.20520000  0.47484000  0.84212000  1.0
  H  H41  1  0.70520000  0.02516000  0.65788000  1.0
  H  H42  1  0.79479000  0.52516000  0.15787000  1.0
  H  H43  1  0.29480000  0.97484000  0.34212000  1.0
  H  H44  1  0.60871000  0.28379000  0.86292000  1.0
  H  H45  1  0.10871000  0.21621000  0.63709000  1.0
  H  H46  1  0.39129000  0.71620000  0.13708000  1.0
  H  H47  1  0.89129000  0.78379000  0.36292000  1.0
  H  H48  1  0.96438000  0.36358000  0.92951000  1.0
  H  H49  1  0.46438000  0.13642000  0.57049000  1.0
  H  H50  1  0.03562000  0.63642000  0.07048000  1.0
  H  H51  1  0.53562000  0.86358000  0.42951000  1.0
  C  C52  1  0.74047000  0.40448000  0.59647000  1.0
  C  C53  1  0.24047000  0.09552000  0.90353000  1.0
  C  C54  1  0.25953000  0.59553000  0.40353000  1.0
  C  C55  1  0.75954000  0.90448000  0.09647000  1.0
  C  C56  1  0.22402000  0.82341000  0.60072000  1.0
  C  C57  1  0.72402000  0.67659000  0.89928000  1.0
  C  C58  1  0.77598000  0.17659000  0.39928000  1.0
  C  C59  1  0.27599000  0.32341000  0.10072000  1.0
  C  C60  1  0.80777000  0.40122000  0.68954000  1.0
  C  C61  1  0.30778000  0.09878000  0.81046000  1.0
  C  C62  1  0.19222000  0.59879000  0.31045000  1.0
  C  C63  1  0.69223000  0.90122000  0.18954000  1.0
  C  C64  1  0.06058000  0.90933000  0.58998000  1.0
  C  C65  1  0.56058000  0.59067000  0.91002000  1.0
  C  C66  1  0.93941000  0.09067000  0.41002000  1.0
  C  C67  1  0.43942000  0.40933000  0.08998000  1.0
  C  C68  1  0.00137000  0.45040000  0.72782000  1.0
  C  C69  1  0.50137000  0.04960000  0.77219000  1.0
  C  C70  1  0.99862000  0.54960000  0.27218000  1.0
  C  C71  1  0.49864000  0.95040000  0.22782000  1.0
  C  C72  1  0.66546000  0.34356000  0.73978000  1.0
  C  C73  1  0.16546000  0.15644000  0.76023000  1.0
  C  C74  1  0.33453000  0.65644000  0.26022000  1.0
  C  C75  1  0.83454000  0.84356000  0.23978000  1.0
  C  C76  1  0.09250000  0.96026000  0.50598000  1.0
  C  C77  1  0.59250000  0.53974000  0.99401000  1.0
  C  C78  1  0.90750000  0.03974000  0.49402000  1.0
  C  C79  1  0.40750000  0.46026000  0.00598000  1.0
  C  C80  1  0.15471000  0.51547000  0.67879000  1.0
  C  C81  1  0.65471000  0.98453000  0.82121000  1.0
  C  C82  1  0.84529000  0.48454000  0.32120000  1.0
  C  C83  1  0.34530000  0.01547000  0.17879000  1.0
  C  C84  1  0.05334000  0.43694000  0.81446000  1.0
  C  C85  1  0.55334000  0.06306000  0.68554000  1.0
  C  C86  1  0.94666000  0.56306000  0.18554000  1.0
  C  C87  1  0.44667000  0.93694000  0.31446000  1.0
  C  C88  1  0.71958000  0.33095000  0.82583000  1.0
  C  C89  1  0.21957000  0.16905000  0.67418000  1.0
  C  C90  1  0.28043000  0.66905000  0.17417000  1.0
  C  C91  1  0.78042000  0.83095000  0.32583000  1.0
  C  C92  1  0.91683000  0.37629000  0.86323000  1.0
  C  C93  1  0.41683000  0.12371000  0.63677000  1.0
  C  C94  1  0.08315000  0.62372000  0.13677000  1.0
  C  C95  1  0.58316000  0.87629000  0.36323000  1.0
  O  O96  1  0.61283000  0.47526000  0.57240000  1.0
  O  O97  1  0.11283000  0.02474000  0.92760000  1.0
  O  O98  1  0.38717000  0.52474000  0.42760000  1.0
  O  O99  1  0.88717000  0.97526000  0.07240000  1.0
  O  O100  1  0.42241000  0.81822000  0.56774000  1.0
  O  O101  1  0.92241000  0.68178000  0.93226000  1.0
  O  O102  1  0.57758000  0.18178000  0.43225000  1.0
  O  O103  1  0.07759000  0.31822000  0.06775000  1.0
  O  O104  1  0.72068000  0.69052000  0.68198000  1.0
  O  O105  1  0.22067000  0.80947000  0.81802000  1.0
  O  O106  1  0.27932000  0.30948000  0.31802000  1.0
  O  O107  1  0.77933000  0.19052000  0.18198000  1.0
  O  O108  1  0.15300000  0.74861000  0.64497000  1.0
  O  O109  1  0.65300000  0.75139000  0.85503000  1.0
  O  O110  1  0.84700000  0.25139000  0.35503000  1.0
  O  O111  1  0.34701000  0.24861000  0.14498000  1.0
  O  O112  1  0.75034000  0.65440000  0.48947000  1.0
  O  O113  1  0.25034000  0.84560000  0.01053000  1.0
  O  O114  1  0.24967000  0.34560000  0.51053000  1.0
  O  O115  1  0.74967000  0.15440000  0.98947000  1.0
  O  O116  1  0.12640000  0.51749000  0.59604000  1.0
  O  O117  1  0.62640000  0.98250000  0.90396000  1.0
  O  O118  1  0.87360000  0.48251000  0.40396000  1.0
  O  O119  1  0.37361000  0.01749000  0.09604000  1.0
  O  O120  1  0.31247000  0.56826000  0.71648000  1.0
  O  O121  1  0.81247000  0.93174000  0.78352000  1.0
  O  O122  1  0.68753000  0.43174000  0.28352000  1.0
  O  O123  1  0.18754000  0.06826000  0.21648000  1.0
  O  O124  1  0.79131000  0.32996000  0.54347000  1.0
  O  O125  1  0.29131000  0.17005000  0.95654000  1.0
  O  O126  1  0.20869000  0.67005000  0.45653000  1.0
  O  O127  1  0.70869000  0.82995000  0.04347000  1.0
