# generated using pymatgen
data_H7PbC6BrN2O3
_symmetry_space_group_name_H-M   'P 1'
_cell_length_a   6.58862000
_cell_length_b   7.49951000
_cell_length_c   19.27700000
_cell_angle_alpha   90.23790000
_cell_angle_beta   90.00170000
_cell_angle_gamma   89.99950000
_symmetry_Int_Tables_number   1
_chemical_formula_structural   H7PbC6BrN2O3
_chemical_formula_sum   'H28 Pb4 C24 Br4 N8 O12'
_cell_volume   952.49576258
_cell_formula_units_Z   4
loop_
 _symmetry_equiv_pos_site_id
 _symmetry_equiv_pos_as_xyz
  1  'x, y, z'
loop_
 _atom_site_type_symbol
 _atom_site_label
 _atom_site_symmetry_multiplicity
 _atom_site_fract_x
 _atom_site_fract_y
 _atom_site_fract_z
 _atom_site_occupancy
  H  H0  1  0.48975000  0.77398000  0.07460000  1.0
  H  H1  1  0.98977000  0.22603000  0.42540000  1.0
  H  H2  1  0.51026000  0.22599000  0.92539000  1.0
  H  H3  1  0.01024000  0.77402000  0.57463000  1.0
  H  H4  1  0.61186000  0.85815000  0.14024000  1.0
  H  H5  1  0.11191000  0.14189000  0.35978000  1.0
  H  H6  1  0.38813000  0.14184000  0.85977000  1.0
  H  H7  1  0.88819000  0.85817000  0.64025000  1.0
  H  H8  1  0.80313000  0.40798000  0.00162000  1.0
  H  H9  1  0.30319000  0.59201000  0.49838000  1.0
  H  H10  1  0.19685000  0.59199000  0.99839000  1.0
  H  H11  1  0.69683000  0.40799000  0.50161000  1.0
  H  H12  1  0.29149000  0.20231000  0.16514000  1.0
  H  H13  1  0.79143000  0.79766000  0.33487000  1.0
  H  H14  1  0.70851000  0.79768000  0.83488000  1.0
  H  H15  1  0.20855000  0.20233000  0.66512000  1.0
  H  H16  1  0.11963000  0.22884000  0.98956000  1.0
  H  H17  1  0.61969000  0.77115000  0.51044000  1.0
  H  H18  1  0.88032000  0.77113000  0.01045000  1.0
  H  H19  1  0.38037000  0.22888000  0.48955000  1.0
  H  H20  1  0.08694000  0.10082000  0.06737000  1.0
  H  H21  1  0.58698000  0.89916000  0.43264000  1.0
  H  H22  1  0.91304000  0.89918000  0.93264000  1.0
  H  H23  1  0.41304000  0.10085000  0.56737000  1.0
  H  H24  1  0.23847000  0.01844000  0.99769000  1.0
  H  H25  1  0.73852000  0.98154000  0.50232000  1.0
  H  H26  1  0.76150000  0.98155000  0.00233000  1.0
  H  H27  1  0.26154000  0.01846000  0.49768000  1.0
  Pb  Pb28  1  0.21116000  0.71337000  0.21436000  1.0
  Pb  Pb29  1  0.71115000  0.28661000  0.28565000  1.0
  Pb  Pb30  1  0.78882000  0.28661000  0.78564000  1.0
  Pb  Pb31  1  0.28886000  0.71338000  0.71437000  1.0
  C  C32  1  0.71108000  0.38975000  0.10947000  1.0
  C  C33  1  0.21106000  0.61020000  0.39052000  1.0
  C  C34  1  0.28891000  0.61023000  0.89052000  1.0
  C  C35  1  0.78892000  0.38978000  0.60947000  1.0
  C  C36  1  0.68764000  0.36340000  0.03825000  1.0
  C  C37  1  0.18765000  0.63659000  0.46175000  1.0
  C  C38  1  0.31236000  0.63659000  0.96174000  1.0
  C  C39  1  0.81236000  0.36343000  0.53825000  1.0
  C  C40  1  0.37794000  0.22606000  0.05642000  1.0
  C  C41  1  0.87794000  0.77394000  0.44358000  1.0
  C  C42  1  0.62208000  0.77394000  0.94360000  1.0
  C  C43  1  0.12204000  0.22607000  0.55641000  1.0
  C  C44  1  0.40461000  0.25077000  0.12828000  1.0
  C  C45  1  0.90459000  0.74920000  0.37171000  1.0
  C  C46  1  0.59541000  0.74920000  0.87171000  1.0
  C  C47  1  0.09540000  0.25080000  0.62828000  1.0
  C  C48  1  0.89536000  0.48299000  0.13847000  1.0
  C  C49  1  0.39535000  0.51693000  0.36152000  1.0
  C  C50  1  0.10459000  0.51697000  0.86151000  1.0
  C  C51  1  0.60467000  0.48306000  0.63848000  1.0
  C  C52  1  0.19429000  0.13892000  0.02662000  1.0
  C  C53  1  0.69432000  0.86107000  0.47339000  1.0
  C  C54  1  0.80568000  0.86108000  0.97339000  1.0
  C  C55  1  0.30569000  0.13895000  0.52661000  1.0
  Br  Br56  1  0.89333000  0.98922000  0.19029000  1.0
  Br  Br57  1  0.39330000  0.01077000  0.30968000  1.0
  Br  Br58  1  0.10663000  0.01079000  0.80970000  1.0
  Br  Br59  1  0.60665000  0.98925000  0.69029000  1.0
  N  N60  1  0.56960000  0.32969000  0.15403000  1.0
  N  N61  1  0.06960000  0.67026000  0.34597000  1.0
  N  N62  1  0.43039000  0.67031000  0.84597000  1.0
  N  N63  1  0.93040000  0.32971000  0.65402000  1.0
  N  N64  1  0.52358000  0.28074000  0.01245000  1.0
  N  N65  1  0.02361000  0.71926000  0.48754000  1.0
  N  N66  1  0.47644000  0.71925000  0.98755000  1.0
  N  N67  1  0.97640000  0.28076000  0.51244000  1.0
  O  O68  1  0.91462000  0.48722000  0.20498000  1.0
  O  O69  1  0.41458000  0.51277000  0.29501000  1.0
  O  O70  1  0.08537000  0.51282000  0.79500000  1.0
  O  O71  1  0.58541000  0.48725000  0.70498000  1.0
  O  O72  1  0.02004000  0.55351000  0.09741000  1.0
  O  O73  1  0.51997000  0.44637000  0.40259000  1.0
  O  O74  1  0.97996000  0.44647000  0.90257000  1.0
  O  O75  1  0.48004000  0.55366000  0.59742000  1.0
  O  O76  1  0.47951000  0.81131000  0.12475000  1.0
  O  O77  1  0.97954000  0.18869000  0.37525000  1.0
  O  O78  1  0.52049000  0.18868000  0.87525000  1.0
  O  O79  1  0.02051000  0.81130000  0.62477000  1.0
