# generated using pymatgen
data_NiH19C29(NO2)3
_symmetry_space_group_name_H-M   'P 1'
_cell_length_a   19.73070000
_cell_length_b   19.98060000
_cell_length_c   19.98050000
_cell_angle_alpha   71.87060000
_cell_angle_beta   60.41290000
_cell_angle_gamma   60.41300000
_symmetry_Int_Tables_number   1
_chemical_formula_structural   NiH19C29(NO2)3
_chemical_formula_sum   'Ni8 H152 C232 N24 O48'
_cell_volume   5932.97008852
_cell_formula_units_Z   8
loop_
 _symmetry_equiv_pos_site_id
 _symmetry_equiv_pos_as_xyz
  1  'x, y, z'
loop_
 _atom_site_type_symbol
 _atom_site_label
 _atom_site_symmetry_multiplicity
 _atom_site_fract_x
 _atom_site_fract_y
 _atom_site_fract_z
 _atom_site_occupancy
  Ni  Ni0  1  0.11655000  0.53532000  0.86669000  1.0
  Ni  Ni1  1  0.48145000  0.36669000  0.03532000  1.0
  Ni  Ni2  1  0.38345000  0.13331000  0.46468000  1.0
  Ni  Ni3  1  0.01856000  0.96468000  0.63331000  1.0
  Ni  Ni4  1  0.88345000  0.46468000  0.13331000  1.0
  Ni  Ni5  1  0.51856000  0.63331000  0.96468000  1.0
  Ni  Ni6  1  0.61655000  0.86669000  0.53532000  1.0
  Ni  Ni7  1  0.98144000  0.03532000  0.36669000  1.0
  H  H8  1  0.06275000  0.50747000  0.02209000  1.0
  H  H9  1  0.40769000  0.52209000  0.00748000  1.0
  H  H10  1  0.43725000  0.97791000  0.49253000  1.0
  H  H11  1  0.09231000  0.99252000  0.47791000  1.0
  H  H12  1  0.93726000  0.49252000  0.97791000  1.0
  H  H13  1  0.59231000  0.47792000  0.99252000  1.0
  H  H14  1  0.56275000  0.02209000  0.50747000  1.0
  H  H15  1  0.90769000  0.00748000  0.52209000  1.0
  H  H16  1  0.11353000  0.56502000  0.98017000  1.0
  H  H17  1  0.34128000  0.48016000  0.06502000  1.0
  H  H18  1  0.38648000  0.01983000  0.43498000  1.0
  H  H19  1  0.15872000  0.93498000  0.51984000  1.0
  H  H20  1  0.88648000  0.43498000  0.01983000  1.0
  H  H21  1  0.65871000  0.51984000  0.93498000  1.0
  H  H22  1  0.61352000  0.98017000  0.56502000  1.0
  H  H23  1  0.84128000  0.06503000  0.48016000  1.0
  H  H24  1  0.16659000  0.93948000  0.27313000  1.0
  H  H25  1  0.62078000  0.77314000  0.43949000  1.0
  H  H26  1  0.33342000  0.72687000  0.06052000  1.0
  H  H27  1  0.87922000  0.56050000  0.22687000  1.0
  H  H28  1  0.83342000  0.06052000  0.72687000  1.0
  H  H29  1  0.37922000  0.22686000  0.56050000  1.0
  H  H30  1  0.66658000  0.27313000  0.93948000  1.0
  H  H31  1  0.12078000  0.43950000  0.77313000  1.0
  H  H32  1  0.27941000  0.95708000  0.14644000  1.0
  H  H33  1  0.61705000  0.64644000  0.45709000  1.0
  H  H34  1  0.22059000  0.85356000  0.04292000  1.0
  H  H35  1  0.88295000  0.54290000  0.35356000  1.0
  H  H36  1  0.72060000  0.04292000  0.85356000  1.0
  H  H37  1  0.38295000  0.35356000  0.54290000  1.0
  H  H38  1  0.77941000  0.14644000  0.95708000  1.0
  H  H39  1  0.11705000  0.45710000  0.64644000  1.0
  H  H40  1  0.08029000  0.15507000  0.08893000  1.0
  H  H41  1  0.67571000  0.58893000  0.65508000  1.0
  H  H42  1  0.41970000  0.91108000  0.84492000  1.0
  H  H43  1  0.82429000  0.34492000  0.41107000  1.0
  H  H44  1  0.91971000  0.84492000  0.91107000  1.0
  H  H45  1  0.32429000  0.41107000  0.34493000  1.0
  H  H46  1  0.58029000  0.08893000  0.15508000  1.0
  H  H47  1  0.17571000  0.65508000  0.58893000  1.0
  H  H48  1  0.97478000  0.12789000  0.21902000  1.0
  H  H49  1  0.67831000  0.71902000  0.62789000  1.0
  H  H50  1  0.52523000  0.78099000  0.87210000  1.0
  H  H51  1  0.82169000  0.37211000  0.28098000  1.0
  H  H52  1  0.02523000  0.87210000  0.78098000  1.0
  H  H53  1  0.32169000  0.28098000  0.37211000  1.0
  H  H54  1  0.47477000  0.21902000  0.12790000  1.0
  H  H55  1  0.17832000  0.62789000  0.71902000  1.0
  H  H56  1  0.35680000  0.96341000  0.02163000  1.0
  H  H57  1  0.65815000  0.52163000  0.46342000  1.0
  H  H58  1  0.14320000  0.97837000  0.03658000  1.0
  H  H59  1  0.84185000  0.53658000  0.47837000  1.0
  H  H60  1  0.64320000  0.03658000  0.97837000  1.0
  H  H61  1  0.34185000  0.47837000  0.53658000  1.0
  H  H62  1  0.85680000  0.02163000  0.96342000  1.0
  H  H63  1  0.15816000  0.46342000  0.52163000  1.0
  H  H64  1  0.41402000  0.14736000  0.85617000  1.0
  H  H65  1  0.58245000  0.35616000  0.64736000  1.0
  H  H66  1  0.08598000  0.14383000  0.85264000  1.0
  H  H67  1  0.91755000  0.35264000  0.64384000  1.0
  H  H68  1  0.58598000  0.85263000  0.14383000  1.0
  H  H69  1  0.41754000  0.64384000  0.35264000  1.0
  H  H70  1  0.91402000  0.85617000  0.14736000  1.0
  H  H71  1  0.08245000  0.64736000  0.35616000  1.0
  H  H72  1  0.37050000  0.27250000  0.85857000  1.0
  H  H73  1  0.49843000  0.35857000  0.77250000  1.0
  H  H74  1  0.12951000  0.14143000  0.72749000  1.0
  H  H75  1  0.00157000  0.22750000  0.64143000  1.0
  H  H76  1  0.62951000  0.72750000  0.14143000  1.0
  H  H77  1  0.50157000  0.64143000  0.22750000  1.0
  H  H78  1  0.87050000  0.85857000  0.27251000  1.0
  H  H79  1  0.99843000  0.77250000  0.35857000  1.0
  H  H80  1  0.30021000  0.41541000  0.83069000  1.0
  H  H81  1  0.45370000  0.33068000  0.91540000  1.0
  H  H82  1  0.19980000  0.16932000  0.58459000  1.0
  H  H83  1  0.04630000  0.08459000  0.66932000  1.0
  H  H84  1  0.69979000  0.58459000  0.16932000  1.0
  H  H85  1  0.54630000  0.66933000  0.08459000  1.0
  H  H86  1  0.80021000  0.83068000  0.41541000  1.0
  H  H87  1  0.95370000  0.91541000  0.33068000  1.0
  H  H88  1  0.05974000  0.41270000  0.94186000  1.0
  H  H89  1  0.58571000  0.44185000  0.91270000  1.0
  H  H90  1  0.44027000  0.05815000  0.58730000  1.0
  H  H91  1  0.91429000  0.08730000  0.55815000  1.0
  H  H92  1  0.94027000  0.58730000  0.05814000  1.0
  H  H93  1  0.41429000  0.55816000  0.08730000  1.0
  H  H94  1  0.55974000  0.94185000  0.41270000  1.0
  H  H95  1  0.08571000  0.91270000  0.44184000  1.0
  H  H96  1  0.11914000  0.27167000  0.97507000  1.0
  H  H97  1  0.63411000  0.47507000  0.77167000  1.0
  H  H98  1  0.38086000  0.02493000  0.72833000  1.0
  H  H99  1  0.86589000  0.22832000  0.52493000  1.0
  H  H100  1  0.88086000  0.72833000  0.02492000  1.0
  H  H101  1  0.36589000  0.52493000  0.22832000  1.0
  H  H102  1  0.61914000  0.97507000  0.27167000  1.0
  H  H103  1  0.13411000  0.77168000  0.47507000  1.0
  H  H104  1  0.51794000  0.04910000  0.78305000  1.0
  H  H105  1  0.64992000  0.28305000  0.54909000  1.0
  H  H106  1  0.98207000  0.21694000  0.95090000  1.0
  H  H107  1  0.85008000  0.45091000  0.71695000  1.0
  H  H108  1  0.48207000  0.95090000  0.21695000  1.0
  H  H109  1  0.35008000  0.71695000  0.45091000  1.0
  H  H110  1  0.01793000  0.78306000  0.04910000  1.0
  H  H111  1  0.14992000  0.54909000  0.28305000  1.0
  H  H112  1  0.67240000  0.96310000  0.73294000  1.0
  H  H113  1  0.63158000  0.23294000  0.46309000  1.0
  H  H114  1  0.82760000  0.26706000  0.03690000  1.0
  H  H115  1  0.86843000  0.53691000  0.76706000  1.0
  H  H116  1  0.32760000  0.03691000  0.26706000  1.0
  H  H117  1  0.36842000  0.76706000  0.53691000  1.0
  H  H118  1  0.17240000  0.73294000  0.96310000  1.0
  H  H119  1  0.13158000  0.46309000  0.23293000  1.0
  H  H120  1  0.63833000  0.84298000  0.95998000  1.0
  H  H121  1  0.55871000  0.45998000  0.34298000  1.0
  H  H122  1  0.86167000  0.04002000  0.15702000  1.0
  H  H123  1  0.94129000  0.65702000  0.54002000  1.0
  H  H124  1  0.36167000  0.15702000  0.04002000  1.0
  H  H125  1  0.44129000  0.54002000  0.65702000  1.0
  H  H126  1  0.13833000  0.95998000  0.84298000  1.0
  H  H127  1  0.05871000  0.34298000  0.45998000  1.0
  H  H128  1  0.48456000  0.92781000  0.00998000  1.0
  H  H129  1  0.57764000  0.50998000  0.42782000  1.0
  H  H130  1  0.01544000  0.99002000  0.07219000  1.0
  H  H131  1  0.92236000  0.57218000  0.49002000  1.0
  H  H132  1  0.51544000  0.07219000  0.99002000  1.0
  H  H133  1  0.42235000  0.49002000  0.57219000  1.0
  H  H134  1  0.98456000  0.00998000  0.92782000  1.0
  H  H135  1  0.07765000  0.42782000  0.50998000  1.0
  H  H136  1  0.66376000  0.76654000  0.85777000  1.0
  H  H137  1  0.71193000  0.35778000  0.26654000  1.0
  H  H138  1  0.83625000  0.14222000  0.23346000  1.0
  H  H139  1  0.78807000  0.73346000  0.64222000  1.0
  H  H140  1  0.33625000  0.23346000  0.14222000  1.0
  H  H141  1  0.28807000  0.64222000  0.73346000  1.0
  H  H142  1  0.16375000  0.85778000  0.76654000  1.0
  H  H143  1  0.21193000  0.26654000  0.35778000  1.0
  H  H144  1  0.85406000  0.55635000  0.90889000  1.0
  H  H145  1  0.68070000  0.40889000  0.05634000  1.0
  H  H146  1  0.64594000  0.09111000  0.44365000  1.0
  H  H147  1  0.81930000  0.94366000  0.59112000  1.0
  H  H148  1  0.14594000  0.44365000  0.09111000  1.0
  H  H149  1  0.31930000  0.59111000  0.94366000  1.0
  H  H150  1  0.35406000  0.90889000  0.55635000  1.0
  H  H151  1  0.18070000  0.05634000  0.40888000  1.0
  H  H152  1  0.89446000  0.76647000  0.83193000  1.0
  H  H153  1  0.50716000  0.33191000  0.26647000  1.0
  H  H154  1  0.60554000  0.16809000  0.23353000  1.0
  H  H155  1  0.99283000  0.73354000  0.66809000  1.0
  H  H156  1  0.10554000  0.23353000  0.16808000  1.0
  H  H157  1  0.49283000  0.66810000  0.73353000  1.0
  H  H158  1  0.39446000  0.83192000  0.76647000  1.0
  H  H159  1  0.00717000  0.26646000  0.33191000  1.0
  C  C160  1  0.14982000  0.98546000  0.22986000  1.0
  C  C161  1  0.63485000  0.72986000  0.48547000  1.0
  C  C162  1  0.35019000  0.77015000  0.01454000  1.0
  C  C163  1  0.86514000  0.51453000  0.27014000  1.0
  C  C164  1  0.85019000  0.01454000  0.77015000  1.0
  C  C165  1  0.36514000  0.27014000  0.51453000  1.0
  C  C166  1  0.64981000  0.22986000  0.98546000  1.0
  C  C167  1  0.13486000  0.48547000  0.72986000  1.0
  C  C168  1  0.21263000  0.99561000  0.15848000  1.0
  C  C169  1  0.63326000  0.65849000  0.49562000  1.0
  C  C170  1  0.28737000  0.84152000  0.00439000  1.0
  C  C171  1  0.86673000  0.50438000  0.34152000  1.0
  C  C172  1  0.78737000  0.00439000  0.84152000  1.0
  C  C173  1  0.36673000  0.34151000  0.50438000  1.0
  C  C174  1  0.71262000  0.15848000  0.99561000  1.0
  C  C175  1  0.13327000  0.49562000  0.65848000  1.0
  C  C176  1  0.18936000  0.05810000  0.10586000  1.0
  C  C177  1  0.64667000  0.60587000  0.55811000  1.0
  C  C178  1  0.31065000  0.89414000  0.94190000  1.0
  C  C179  1  0.85333000  0.44189000  0.39413000  1.0
  C  C180  1  0.81065000  0.94190000  0.89414000  1.0
  C  C181  1  0.35333000  0.39413000  0.44189000  1.0
  C  C182  1  0.68935000  0.10586000  0.05810000  1.0
  C  C183  1  0.14668000  0.55811000  0.60586000  1.0
  C  C184  1  0.10178000  0.10572000  0.12755000  1.0
  C  C185  1  0.66495000  0.62755000  0.60572000  1.0
  C  C186  1  0.39823000  0.87245000  0.89428000  1.0
  C  C187  1  0.83505000  0.39428000  0.37244000  1.0
  C  C188  1  0.89823000  0.89428000  0.87245000  1.0
  C  C189  1  0.33505000  0.37244000  0.39428000  1.0
  C  C190  1  0.60177000  0.12755000  0.10572000  1.0
  C  C191  1  0.16496000  0.60572000  0.62756000  1.0
  C  C192  1  0.04298000  0.09114000  0.19967000  1.0
  C  C193  1  0.66620000  0.69967000  0.59115000  1.0
  C  C194  1  0.45702000  0.80033000  0.90885000  1.0
  C  C195  1  0.83380000  0.40885000  0.30033000  1.0
  C  C196  1  0.95702000  0.90885000  0.80033000  1.0
  C  C197  1  0.33380000  0.30033000  0.40885000  1.0
  C  C198  1  0.54298000  0.19967000  0.09115000  1.0
  C  C199  1  0.16621000  0.59115000  0.69967000  1.0
  C  C200  1  0.25380000  0.07760000  0.03289000  1.0
  C  C201  1  0.63570000  0.53289000  0.57761000  1.0
  C  C202  1  0.24620000  0.96711000  0.92240000  1.0
  C  C203  1  0.86430000  0.42239000  0.46711000  1.0
  C  C204  1  0.74620000  0.92240000  0.96711000  1.0
  C  C205  1  0.36430000  0.46711000  0.42239000  1.0
  C  C206  1  0.75380000  0.03289000  0.07760000  1.0
  C  C207  1  0.13570000  0.57761000  0.53289000  1.0
  C  C208  1  0.33804000  0.02368000  0.99839000  1.0
  C  C209  1  0.63989000  0.49839000  0.52368000  1.0
  C  C210  1  0.16197000  0.00160000  0.97632000  1.0
  C  C211  1  0.86011000  0.47632000  0.50161000  1.0
  C  C212  1  0.66197000  0.97632000  0.00161000  1.0
  C  C213  1  0.36010000  0.50161000  0.47632000  1.0
  C  C214  1  0.83803000  0.99839000  0.02368000  1.0
  C  C215  1  0.13990000  0.52368000  0.49839000  1.0
  C  C216  1  0.39824000  0.04746000  0.93345000  1.0
  C  C217  1  0.62086000  0.43345000  0.54746000  1.0
  C  C218  1  0.10176000  0.06655000  0.95254000  1.0
  C  C219  1  0.87914000  0.45254000  0.56655000  1.0
  C  C220  1  0.60176000  0.95254000  0.06655000  1.0
  C  C221  1  0.37914000  0.56655000  0.45255000  1.0
  C  C222  1  0.89824000  0.93345000  0.04746000  1.0
  C  C223  1  0.12086000  0.54746000  0.43344000  1.0
  C  C224  1  0.36940000  0.12549000  0.90517000  1.0
  C  C225  1  0.59994000  0.40516000  0.62549000  1.0
  C  C226  1  0.13060000  0.09483000  0.87450000  1.0
  C  C227  1  0.90006000  0.37450000  0.59484000  1.0
  C  C228  1  0.63060000  0.87450000  0.09483000  1.0
  C  C229  1  0.40006000  0.59484000  0.37450000  1.0
  C  C230  1  0.86940000  0.90516000  0.12550000  1.0
  C  C231  1  0.09995000  0.62550000  0.40516000  1.0
  C  C232  1  0.28391000  0.17554000  0.94221000  1.0
  C  C233  1  0.59834000  0.44221000  0.67554000  1.0
  C  C234  1  0.21609000  0.05779000  0.82446000  1.0
  C  C235  1  0.90165000  0.32446000  0.55780000  1.0
  C  C236  1  0.71609000  0.82446000  0.05779000  1.0
  C  C237  1  0.40166000  0.55779000  0.32446000  1.0
  C  C238  1  0.78391000  0.94221000  0.17554000  1.0
  C  C239  1  0.09835000  0.67554000  0.44221000  1.0
  C  C240  1  0.25015000  0.25927000  0.91842000  1.0
  C  C241  1  0.57216000  0.41841000  0.75927000  1.0
  C  C242  1  0.24986000  0.08158000  0.74073000  1.0
  C  C243  1  0.92783000  0.24073000  0.58159000  1.0
  C  C244  1  0.74986000  0.74073000  0.08158000  1.0
  C  C245  1  0.42783000  0.58159000  0.24073000  1.0
  C  C246  1  0.75015000  0.91841000  0.25927000  1.0
  C  C247  1  0.07217000  0.75927000  0.41841000  1.0
  C  C248  1  0.30135000  0.30088000  0.87685000  1.0
  C  C249  1  0.52091000  0.37685000  0.80088000  1.0
  C  C250  1  0.19865000  0.12315000  0.69911000  1.0
  C  C251  1  0.97909000  0.19912000  0.62315000  1.0
  C  C252  1  0.69865000  0.69912000  0.12314000  1.0
  C  C253  1  0.47909000  0.62315000  0.19912000  1.0
  C  C254  1  0.80135000  0.87685000  0.30089000  1.0
  C  C255  1  0.02091000  0.80088000  0.37685000  1.0
  C  C256  1  0.26311000  0.38052000  0.86121000  1.0
  C  C257  1  0.49517000  0.36120000  0.88052000  1.0
  C  C258  1  0.23690000  0.13880000  0.61948000  1.0
  C  C259  1  0.00483000  0.11948000  0.63880000  1.0
  C  C260  1  0.73689000  0.61948000  0.13879000  1.0
  C  C261  1  0.50483000  0.63881000  0.11948000  1.0
  C  C262  1  0.76311000  0.86120000  0.38052000  1.0
  C  C263  1  0.99517000  0.88052000  0.36120000  1.0
  C  C264  1  0.12851000  0.37995000  0.92305000  1.0
  C  C265  1  0.56848000  0.42304000  0.87996000  1.0
  C  C266  1  0.37149000  0.07695000  0.62005000  1.0
  C  C267  1  0.93152000  0.12004000  0.57695000  1.0
  C  C268  1  0.87149000  0.62005000  0.07695000  1.0
  C  C269  1  0.43151000  0.57696000  0.12004000  1.0
  C  C270  1  0.62851000  0.92304000  0.37995000  1.0
  C  C271  1  0.06849000  0.87996000  0.42304000  1.0
  C  C272  1  0.16179000  0.30090000  0.94138000  1.0
  C  C273  1  0.59593000  0.44137000  0.80090000  1.0
  C  C274  1  0.33821000  0.05862000  0.69910000  1.0
  C  C275  1  0.90406000  0.19910000  0.55863000  1.0
  C  C276  1  0.83821000  0.69911000  0.05862000  1.0
  C  C277  1  0.40406000  0.55863000  0.19910000  1.0
  C  C278  1  0.66179000  0.94137000  0.30090000  1.0
  C  C279  1  0.09594000  0.80090000  0.44137000  1.0
  C  C280  1  0.48911000  0.99478000  0.90042000  1.0
  C  C281  1  0.61568000  0.40042000  0.49478000  1.0
  C  C282  1  0.01089000  0.09958000  0.00522000  1.0
  C  C283  1  0.88432000  0.50522000  0.59958000  1.0
  C  C284  1  0.51089000  0.00521000  0.09957000  1.0
  C  C285  1  0.38431000  0.59958000  0.50522000  1.0
  C  C286  1  0.98911000  0.90042000  0.99479000  1.0
  C  C287  1  0.11569000  0.49478000  0.40042000  1.0
  C  C288  1  0.54387000  0.00477000  0.82274000  1.0
  C  C289  1  0.62863000  0.32274000  0.50477000  1.0
  C  C290  1  0.95614000  0.17726000  0.99523000  1.0
  C  C291  1  0.87137000  0.49523000  0.67726000  1.0
  C  C292  1  0.45614000  0.99523000  0.17726000  1.0
  C  C293  1  0.37137000  0.67726000  0.49523000  1.0
  C  C294  1  0.04386000  0.82274000  0.00478000  1.0
  C  C295  1  0.12863000  0.50477000  0.32273000  1.0
  C  C296  1  0.63101000  0.95696000  0.79389000  1.0
  C  C297  1  0.61814000  0.29390000  0.45696000  1.0
  C  C298  1  0.86899000  0.20610000  0.04304000  1.0
  C  C299  1  0.88186000  0.54304000  0.70610000  1.0
  C  C300  1  0.36899000  0.04304000  0.20610000  1.0
  C  C301  1  0.38185000  0.70610000  0.54305000  1.0
  C  C302  1  0.13100000  0.79390000  0.95697000  1.0
  C  C303  1  0.11815000  0.45696000  0.29389000  1.0
  C  C304  1  0.66446000  0.89856000  0.84372000  1.0
  C  C305  1  0.59327000  0.34372000  0.39856000  1.0
  C  C306  1  0.83554000  0.15628000  0.10144000  1.0
  C  C307  1  0.90673000  0.60144000  0.65628000  1.0
  C  C308  1  0.33554000  0.10144000  0.15628000  1.0
  C  C309  1  0.40673000  0.65628000  0.60145000  1.0
  C  C310  1  0.16446000  0.84372000  0.89857000  1.0
  C  C311  1  0.09328000  0.39855000  0.34372000  1.0
  C  C312  1  0.61138000  0.88807000  0.92150000  1.0
  C  C313  1  0.57906000  0.42150000  0.38806000  1.0
  C  C314  1  0.88862000  0.07850000  0.11193000  1.0
  C  C315  1  0.92094000  0.61194000  0.57850000  1.0
  C  C316  1  0.38862000  0.11193000  0.07850000  1.0
  C  C317  1  0.42093000  0.57850000  0.61194000  1.0
  C  C318  1  0.11138000  0.92150000  0.88807000  1.0
  C  C319  1  0.07907000  0.38806000  0.42149000  1.0
  C  C320  1  0.52474000  0.93515000  0.94892000  1.0
  C  C321  1  0.59119000  0.44892000  0.43516000  1.0
  C  C322  1  0.97526000  0.05108000  0.06484000  1.0
  C  C323  1  0.90881000  0.56484000  0.55108000  1.0
  C  C324  1  0.47526000  0.06484000  0.05108000  1.0
  C  C325  1  0.40881000  0.55108000  0.56485000  1.0
  C  C326  1  0.02474000  0.94892000  0.93516000  1.0
  C  C327  1  0.09119000  0.43516000  0.44892000  1.0
  C  C328  1  0.77619000  0.77502000  0.84204000  1.0
  C  C329  1  0.60675000  0.34204000  0.27502000  1.0
  C  C330  1  0.72381000  0.15796000  0.22498000  1.0
  C  C331  1  0.89324000  0.72498000  0.65796000  1.0
  C  C332  1  0.22381000  0.22498000  0.15796000  1.0
  C  C333  1  0.39324000  0.65796000  0.72499000  1.0
  C  C334  1  0.27618000  0.84204000  0.77502000  1.0
  C  C335  1  0.10676000  0.27502000  0.34204000  1.0
  C  C336  1  0.72534000  0.73646000  0.86141000  1.0
  C  C337  1  0.67679000  0.36141000  0.23646000  1.0
  C  C338  1  0.77466000  0.13859000  0.26354000  1.0
  C  C339  1  0.82320000  0.76354000  0.63859000  1.0
  C  C340  1  0.27467000  0.26353000  0.13859000  1.0
  C  C341  1  0.32320000  0.63859000  0.76354000  1.0
  C  C342  1  0.22534000  0.86141000  0.73647000  1.0
  C  C343  1  0.17680000  0.23646000  0.36140000  1.0
  C  C344  1  0.75269000  0.65816000  0.88719000  1.0
  C  C345  1  0.70197000  0.38719000  0.15815000  1.0
  C  C346  1  0.74731000  0.11280000  0.34185000  1.0
  C  C347  1  0.79803000  0.84185000  0.61282000  1.0
  C  C348  1  0.24731000  0.34184000  0.11281000  1.0
  C  C349  1  0.29803000  0.61281000  0.84185000  1.0
  C  C350  1  0.25269000  0.88719000  0.65816000  1.0
  C  C351  1  0.20198000  0.15815000  0.38718000  1.0
  C  C352  1  0.83227000  0.61799000  0.89087000  1.0
  C  C353  1  0.65889000  0.39086000  0.11798000  1.0
  C  C354  1  0.66773000  0.10914000  0.38201000  1.0
  C  C355  1  0.84111000  0.88202000  0.60915000  1.0
  C  C356  1  0.16773000  0.38201000  0.10913000  1.0
  C  C357  1  0.34111000  0.60914000  0.88202000  1.0
  C  C358  1  0.33227000  0.89086000  0.61799000  1.0
  C  C359  1  0.15889000  0.11798000  0.39085000  1.0
  C  C360  1  0.88294000  0.65718000  0.87103000  1.0
  C  C361  1  0.58886000  0.37102000  0.15718000  1.0
  C  C362  1  0.61706000  0.12898000  0.34282000  1.0
  C  C363  1  0.91113000  0.84283000  0.62899000  1.0
  C  C364  1  0.11706000  0.34282000  0.12898000  1.0
  C  C365  1  0.41114000  0.62899000  0.84283000  1.0
  C  C366  1  0.38294000  0.87102000  0.65718000  1.0
  C  C367  1  0.08886000  0.15718000  0.37101000  1.0
  C  C368  1  0.85480000  0.73635000  0.84704000  1.0
  C  C369  1  0.56182000  0.34704000  0.23635000  1.0
  C  C370  1  0.64520000  0.15296000  0.26364000  1.0
  C  C371  1  0.93818000  0.76365000  0.65297000  1.0
  C  C372  1  0.14520000  0.26365000  0.15296000  1.0
  C  C373  1  0.43818000  0.65297000  0.76365000  1.0
  C  C374  1  0.35479000  0.84704000  0.73636000  1.0
  C  C375  1  0.06182000  0.23635000  0.34703000  1.0
  C  C376  1  0.69561000  0.61811000  0.91142000  1.0
  C  C377  1  0.77487000  0.41142000  0.11810000  1.0
  C  C378  1  0.80439000  0.08858000  0.38190000  1.0
  C  C379  1  0.72513000  0.88191000  0.58858000  1.0
  C  C380  1  0.30439000  0.38190000  0.08858000  1.0
  C  C381  1  0.22513000  0.58858000  0.88191000  1.0
  C  C382  1  0.19561000  0.91142000  0.61810000  1.0
  C  C383  1  0.27487000  0.11809000  0.41142000  1.0
  C  C384  1  0.96855000  0.61417000  0.87333000  1.0
  C  C385  1  0.54396000  0.37332000  0.11417000  1.0
  C  C386  1  0.53145000  0.12668000  0.38582000  1.0
  C  C387  1  0.95604000  0.88583000  0.62668000  1.0
  C  C388  1  0.03145000  0.38583000  0.12668000  1.0
  C  C389  1  0.45604000  0.62669000  0.88583000  1.0
  C  C390  1  0.46855000  0.87332000  0.61418000  1.0
  C  C391  1  0.04396000  0.11417000  0.37332000  1.0
  N  N392  1  0.06621000  0.03272000  0.25111000  1.0
  N  N393  1  0.64995000  0.75111000  0.53272000  1.0
  N  N394  1  0.43379000  0.74890000  0.96728000  1.0
  N  N395  1  0.85004000  0.46728000  0.24889000  1.0
  N  N396  1  0.93379000  0.96728000  0.74890000  1.0
  N  N397  1  0.35004000  0.24889000  0.46728000  1.0
  N  N398  1  0.56621000  0.25110000  0.03272000  1.0
  N  N399  1  0.14996000  0.53272000  0.75111000  1.0
  N  N400  1  0.22701000  0.15182000  0.00429000  1.0
  N  N401  1  0.61687000  0.50429000  0.65182000  1.0
  N  N402  1  0.27299000  0.99571000  0.84818000  1.0
  N  N403  1  0.88312000  0.34818000  0.49571000  1.0
  N  N404  1  0.77299000  0.84818000  0.99571000  1.0
  N  N405  1  0.38313000  0.49571000  0.34818000  1.0
  N  N406  1  0.72701000  0.00429000  0.15182000  1.0
  N  N407  1  0.11687000  0.65182000  0.50429000  1.0
  N  N408  1  0.17790000  0.41980000  0.88400000  1.0
  N  N409  1  0.51829000  0.38400000  0.91981000  1.0
  N  N410  1  0.32211000  0.11600000  0.58019000  1.0
  N  N411  1  0.98171000  0.08019000  0.61600000  1.0
  N  N412  1  0.82211000  0.58019000  0.11600000  1.0
  N  N413  1  0.48170000  0.61600000  0.08019000  1.0
  N  N414  1  0.67790000  0.88400000  0.41981000  1.0
  N  N415  1  0.01829000  0.91981000  0.38400000  1.0
  O  O416  1  0.73000000  0.54597000  0.90741000  1.0
  O  O417  1  0.81662000  0.40742000  0.04596000  1.0
  O  O418  1  0.76999000  0.09259000  0.45403000  1.0
  O  O419  1  0.68337000  0.95404000  0.59259000  1.0
  O  O420  1  0.27000000  0.45403000  0.09259000  1.0
  O  O421  1  0.18338000  0.59258000  0.95405000  1.0
  O  O422  1  0.23001000  0.90741000  0.54597000  1.0
  O  O423  1  0.31662000  0.04595000  0.40742000  1.0
  O  O424  1  0.06943000  0.55046000  0.98195000  1.0
  O  O425  1  0.39815000  0.48194000  0.05047000  1.0
  O  O426  1  0.43057000  0.01805000  0.44954000  1.0
  O  O427  1  0.10184000  0.94954000  0.51806000  1.0
  O  O428  1  0.93057000  0.44954000  0.01805000  1.0
  O  O429  1  0.60184000  0.51806000  0.94954000  1.0
  O  O430  1  0.56944000  0.98195000  0.55046000  1.0
  O  O431  1  0.89816000  0.05046000  0.48194000  1.0
  O  O432  1  0.61511000  0.66234000  0.93531000  1.0
  O  O433  1  0.78724000  0.43532000  0.16234000  1.0
  O  O434  1  0.88490000  0.06468000  0.33766000  1.0
  O  O435  1  0.71277000  0.83767000  0.56467000  1.0
  O  O436  1  0.38489000  0.33766000  0.06468000  1.0
  O  O437  1  0.21277000  0.56467000  0.83767000  1.0
  O  O438  1  0.11511000  0.93532000  0.66234000  1.0
  O  O439  1  0.28724000  0.16233000  0.43532000  1.0
  O  O440  1  0.99534000  0.54047000  0.89201000  1.0
  O  O441  1  0.57219000  0.39200000  0.04046000  1.0
  O  O442  1  0.50465000  0.10800000  0.45953000  1.0
  O  O443  1  0.92780000  0.95954000  0.60801000  1.0
  O  O444  1  0.00466000  0.45953000  0.10800000  1.0
  O  O445  1  0.42780000  0.60801000  0.95954000  1.0
  O  O446  1  0.49534000  0.89200000  0.54047000  1.0
  O  O447  1  0.07219000  0.04046000  0.39200000  1.0
  O  O448  1  0.01617000  0.64810000  0.85494000  1.0
  O  O449  1  0.48079000  0.35493000  0.14810000  1.0
  O  O450  1  0.48382000  0.14507000  0.35189000  1.0
  O  O451  1  0.01921000  0.85190000  0.64507000  1.0
  O  O452  1  0.98382000  0.35190000  0.14507000  1.0
  O  O453  1  0.51920000  0.64508000  0.85190000  1.0
  O  O454  1  0.51618000  0.85493000  0.64810000  1.0
  O  O455  1  0.98079000  0.14810000  0.35493000  1.0
  O  O456  1  0.75101000  0.85277000  0.81459000  1.0
  O  O457  1  0.58164000  0.31459000  0.35276000  1.0
  O  O458  1  0.74900000  0.18541000  0.14723000  1.0
  O  O459  1  0.91836000  0.64724000  0.68541000  1.0
  O  O460  1  0.24900000  0.14723000  0.18541000  1.0
  O  O461  1  0.41835000  0.68541000  0.64724000  1.0
  O  O462  1  0.25100000  0.81459000  0.85277000  1.0
  O  O463  1  0.08165000  0.35276000  0.31459000  1.0
