# generated using pymatgen
data_CuP2H10C12(NO5)2
_symmetry_space_group_name_H-M   'P 1'
_cell_length_a   7.20740000
_cell_length_b   10.21740000
_cell_length_c   12.24560000
_cell_angle_alpha   65.44590000
_cell_angle_beta   72.88140000
_cell_angle_gamma   69.34620000
_symmetry_Int_Tables_number   1
_chemical_formula_structural   CuP2H10C12(NO5)2
_chemical_formula_sum   'Cu2 P4 H20 C24 N4 O20'
_cell_volume   755.85390606
_cell_formula_units_Z   2
loop_
 _symmetry_equiv_pos_site_id
 _symmetry_equiv_pos_as_xyz
  1  'x, y, z'
loop_
 _atom_site_type_symbol
 _atom_site_label
 _atom_site_symmetry_multiplicity
 _atom_site_fract_x
 _atom_site_fract_y
 _atom_site_fract_z
 _atom_site_occupancy
  Cu  Cu0  1  0.50000000  0.50000000  0.00000000  1.0
  Cu  Cu1  1  0.00000000  0.00000000  0.50000000  1.0
  P  P2  1  0.78940000  0.21096000  0.98487000  1.0
  P  P3  1  0.98529000  0.28917000  0.51494000  1.0
  P  P4  1  0.21060000  0.78904000  0.01513000  1.0
  P  P5  1  0.01471000  0.71083000  0.48506000  1.0
  H  H6  1  0.20558000  0.24872000  0.84436000  1.0
  H  H7  1  0.29867000  0.25144000  0.65544000  1.0
  H  H8  1  0.79442000  0.75128000  0.15563000  1.0
  H  H9  1  0.70133000  0.74856000  0.34456000  1.0
  H  H10  1  0.10444000  0.71128000  0.79540000  1.0
  H  H11  1  0.61095000  0.78883000  0.70458000  1.0
  H  H12  1  0.89556000  0.28872000  0.20460000  1.0
  H  H13  1  0.38905000  0.21117000  0.29542000  1.0
  H  H14  1  0.74802000  0.71509000  0.89721000  1.0
  H  H15  1  0.36022000  0.78499000  0.60279000  1.0
  H  H16  1  0.25198000  0.28490000  0.10279000  1.0
  H  H17  1  0.63978000  0.21501000  0.39721000  1.0
  H  H18  1  0.00290000  0.01776000  0.09888000  1.0
  H  H19  1  0.11950000  0.48242000  0.40104000  1.0
  H  H20  1  0.99710000  0.98224000  0.90112000  1.0
  H  H21  1  0.88050000  0.51758000  0.59895000  1.0
  H  H22  1  0.61942000  0.39796000  0.64010000  1.0
  H  H23  1  0.65753000  0.10228000  0.85971000  1.0
  H  H24  1  0.38058000  0.60204000  0.35990000  1.0
  H  H25  1  0.34247000  0.89772000  0.14028000  1.0
  C  C26  1  0.90713000  0.36543000  0.91007000  1.0
  C  C27  1  0.18270000  0.13474000  0.58971000  1.0
  C  C28  1  0.09287000  0.63457000  0.08993000  1.0
  C  C29  1  0.81730000  0.86526000  0.41029000  1.0
  C  C30  1  0.10690000  0.35455000  0.85193000  1.0
  C  C31  1  0.31339000  0.14561000  0.64789000  1.0
  C  C32  1  0.89310000  0.64545000  0.14807000  1.0
  C  C33  1  0.68661000  0.85439000  0.35211000  1.0
  C  C34  1  0.18052000  0.48016000  0.80851000  1.0
  C  C35  1  0.46918000  0.01998000  0.69138000  1.0
  C  C36  1  0.81948000  0.51984000  0.19149000  1.0
  C  C37  1  0.53081000  0.98002000  0.30862000  1.0
  C  C38  1  0.05280000  0.61178000  0.82566000  1.0
  C  C39  1  0.49010000  0.88834000  0.67429000  1.0
  C  C40  1  0.94720000  0.38822000  0.17434000  1.0
  C  C41  1  0.50990000  0.11166000  0.32571000  1.0
  C  C42  1  0.85479000  0.61541000  0.88243000  1.0
  C  C43  1  0.35251000  0.88471000  0.61751000  1.0
  C  C44  1  0.14521000  0.38459000  0.11757000  1.0
  C  C45  1  0.64749000  0.11529000  0.38250000  1.0
  C  C46  1  0.39468000  0.47797000  0.74922000  1.0
  C  C47  1  0.62198000  0.02220000  0.75062000  1.0
  C  C48  1  0.60533000  0.52203000  0.25078000  1.0
  C  C49  1  0.37802000  0.97780000  0.24938000  1.0
  N  N50  1  0.78430000  0.49490000  0.92339000  1.0
  N  N51  1  0.20261000  0.00524000  0.57646000  1.0
  N  N52  1  0.21569000  0.50510000  0.07661000  1.0
  N  N53  1  0.79739000  0.99476000  0.42354000  1.0
  O  O54  1  0.56910000  0.28558000  0.02286000  1.0
  O  O55  1  0.87766000  0.21449000  0.47698000  1.0
  O  O56  1  0.43090000  0.71442000  0.97714000  1.0
  O  O57  1  0.12235000  0.78551000  0.52302000  1.0
  O  O58  1  0.88847000  0.11195000  0.10177000  1.0
  O  O59  1  0.10210000  0.38830000  0.39803000  1.0
  O  O60  1  0.11153000  0.88805000  0.89823000  1.0
  O  O61  1  0.89789000  0.61170000  0.60197000  1.0
  O  O62  1  0.82784000  0.12272000  0.90245000  1.0
  O  O63  1  0.85308000  0.37727000  0.59747000  1.0
  O  O64  1  0.17216000  0.87728000  0.09755000  1.0
  O  O65  1  0.14692000  0.62273000  0.40253000  1.0
  O  O66  1  0.48829000  0.54007000  0.77329000  1.0
  O  O67  1  0.80173000  0.96007000  0.72659000  1.0
  O  O68  1  0.51171000  0.45993000  0.22671000  1.0
  O  O69  1  0.19826000  0.03993000  0.27342000  1.0
  O  O70  1  0.46801000  0.40653000  0.67036000  1.0
  O  O71  1  0.54497000  0.09379000  0.82938000  1.0
  O  O72  1  0.53199000  0.59348000  0.32964000  1.0
  O  O73  1  0.45503000  0.90621000  0.17063000  1.0
