# generated using pymatgen
data_ZnH18C20(NO)4
_symmetry_space_group_name_H-M   'P 1'
_cell_length_a   8.06850000
_cell_length_b   14.33150000
_cell_length_c   18.26540000
_cell_angle_alpha   88.98620000
_cell_angle_beta   89.99930000
_cell_angle_gamma   89.99950000
_symmetry_Int_Tables_number   1
_chemical_formula_structural   ZnH18C20(NO)4
_chemical_formula_sum   'Zn4 H72 C80 N16 O16'
_cell_volume   2111.76530340
_cell_formula_units_Z   4
loop_
 _symmetry_equiv_pos_site_id
 _symmetry_equiv_pos_as_xyz
  1  'x, y, z'
loop_
 _atom_site_type_symbol
 _atom_site_label
 _atom_site_symmetry_multiplicity
 _atom_site_fract_x
 _atom_site_fract_y
 _atom_site_fract_z
 _atom_site_occupancy
  Zn  Zn0  1  0.92830000  0.24879000  0.02562000  1.0
  Zn  Zn1  1  0.42829000  0.25121000  0.47438000  1.0
  Zn  Zn2  1  0.07170000  0.75121000  0.97438000  1.0
  Zn  Zn3  1  0.57171000  0.74879000  0.52562000  1.0
  H  H4  1  0.34450000  0.27556000  0.91460000  1.0
  H  H5  1  0.84450000  0.22444000  0.58540000  1.0
  H  H6  1  0.65550000  0.72444000  0.08540000  1.0
  H  H7  1  0.15551000  0.77556000  0.41460000  1.0
  H  H8  1  0.75091000  0.18950000  0.29356000  1.0
  H  H9  1  0.25092000  0.31051000  0.20643000  1.0
  H  H10  1  0.24909000  0.81050000  0.70644000  1.0
  H  H11  1  0.74909000  0.68949000  0.79356000  1.0
  H  H12  1  0.33213000  0.15548000  0.04347000  1.0
  H  H13  1  0.83212000  0.34451000  0.45653000  1.0
  H  H14  1  0.66787000  0.84451000  0.95652000  1.0
  H  H15  1  0.16788000  0.65548000  0.54347000  1.0
  H  H16  1  0.51594000  0.16375000  0.09570000  1.0
  H  H17  1  0.01594000  0.33625000  0.40430000  1.0
  H  H18  1  0.48405000  0.83624000  0.90430000  1.0
  H  H19  1  0.98406000  0.66375000  0.59570000  1.0
  H  H20  1  0.45171000  0.05362000  0.06280000  1.0
  H  H21  1  0.95171000  0.44637000  0.43720000  1.0
  H  H22  1  0.54829000  0.94637000  0.93719000  1.0
  H  H23  1  0.04829000  0.55363000  0.56280000  1.0
  H  H24  1  0.68354000  0.11230000  0.98455000  1.0
  H  H25  1  0.18353000  0.38770000  0.51545000  1.0
  H  H26  1  0.31646000  0.88770000  0.01545000  1.0
  H  H27  1  0.81646000  0.61230000  0.48455000  1.0
  H  H28  1  0.49813000  0.11052000  0.93290000  1.0
  H  H29  1  0.99812000  0.38948000  0.56710000  1.0
  H  H30  1  0.50188000  0.88948000  0.06710000  1.0
  H  H31  1  0.00188000  0.61052000  0.43290000  1.0
  H  H32  1  0.32353000  0.47292000  0.87561000  1.0
  H  H33  1  0.82353000  0.02708000  0.62439000  1.0
  H  H34  1  0.67647000  0.52708000  0.12439000  1.0
  H  H35  1  0.17648000  0.97292000  0.37560000  1.0
  H  H36  1  0.49979000  0.61793000  0.87694000  1.0
  H  H37  1  0.99980000  0.88207000  0.62306000  1.0
  H  H38  1  0.50021000  0.38207000  0.12306000  1.0
  H  H39  1  0.00021000  0.11793000  0.37694000  1.0
  H  H40  1  0.91109000  0.46379000  0.96970000  1.0
  H  H41  1  0.41110000  0.03621000  0.53030000  1.0
  H  H42  1  0.08891000  0.53621000  0.03030000  1.0
  H  H43  1  0.58891000  0.96380000  0.46970000  1.0
  H  H44  1  0.59190000  0.36064000  0.24701000  1.0
  H  H45  1  0.09189000  0.13937000  0.25299000  1.0
  H  H46  1  0.40810000  0.63936000  0.75299000  1.0
  H  H47  1  0.90811000  0.86063000  0.74701000  1.0
  H  H48  1  0.73502000  0.45300000  0.25720000  1.0
  H  H49  1  0.23501000  0.04700000  0.24280000  1.0
  H  H50  1  0.26498000  0.54700000  0.74280000  1.0
  H  H51  1  0.76499000  0.95300000  0.75720000  1.0
  H  H52  1  0.75856000  0.34838000  0.30950000  1.0
  H  H53  1  0.25855000  0.15162000  0.19050000  1.0
  H  H54  1  0.24145000  0.65162000  0.69050000  1.0
  H  H55  1  0.74145000  0.84838000  0.80950000  1.0
  H  H56  1  0.96178000  0.35471000  0.20471000  1.0
  H  H57  1  0.46176000  0.14529000  0.29529000  1.0
  H  H58  1  0.03823000  0.64529000  0.79529000  1.0
  H  H59  1  0.53824000  0.85471000  0.70471000  1.0
  H  H60  1  0.80171000  0.37198000  0.14132000  1.0
  H  H61  1  0.30169000  0.12803000  0.35868000  1.0
  H  H62  1  0.19830000  0.62802000  0.85868000  1.0
  H  H63  1  0.69831000  0.87197000  0.64132000  1.0
  H  H64  1  0.69455000  0.98768000  0.29608000  1.0
  H  H65  1  0.19457000  0.51233000  0.20392000  1.0
  H  H66  1  0.30544000  0.01232000  0.70392000  1.0
  H  H67  1  0.80543000  0.48767000  0.79607000  1.0
  H  H68  1  0.75028000  0.84935000  0.21829000  1.0
  H  H69  1  0.25030000  0.65065000  0.28172000  1.0
  H  H70  1  0.24972000  0.15065000  0.78171000  1.0
  H  H71  1  0.74969000  0.34935000  0.71828000  1.0
  H  H72  1  0.92489000  0.02639000  0.04081000  1.0
  H  H73  1  0.42489000  0.47360000  0.45919000  1.0
  H  H74  1  0.07511000  0.97361000  0.95919000  1.0
  H  H75  1  0.57509000  0.52640000  0.54081000  1.0
  C  C76  1  0.45854000  0.12841000  0.04934000  1.0
  C  C77  1  0.95853000  0.37159000  0.45066000  1.0
  C  C78  1  0.54146000  0.87159000  0.95065000  1.0
  C  C79  1  0.04146000  0.62841000  0.54934000  1.0
  C  C80  1  0.56029000  0.14429000  0.97910000  1.0
  C  C81  1  0.06028000  0.35571000  0.52090000  1.0
  C  C82  1  0.43972000  0.85571000  0.02090000  1.0
  C  C83  1  0.93972000  0.64429000  0.47910000  1.0
  C  C84  1  0.58334000  0.24500000  0.96034000  1.0
  C  C85  1  0.08333000  0.25500000  0.53966000  1.0
  C  C86  1  0.41667000  0.75500000  0.03966000  1.0
  C  C87  1  0.91668000  0.74500000  0.46034000  1.0
  C  C88  1  0.52300000  0.38867000  0.92140000  1.0
  C  C89  1  0.02300000  0.11132000  0.57860000  1.0
  C  C90  1  0.47700000  0.61132000  0.07859000  1.0
  C  C91  1  0.97701000  0.88868000  0.42141000  1.0
  C  C92  1  0.45113000  0.47134000  0.89503000  1.0
  C  C93  1  0.95113000  0.02866000  0.60497000  1.0
  C  C94  1  0.54887000  0.52866000  0.10497000  1.0
  C  C95  1  0.04888000  0.97134000  0.39503000  1.0
  C  C96  1  0.54902000  0.55106000  0.89610000  1.0
  C  C97  1  0.04903000  0.94894000  0.60390000  1.0
  C  C98  1  0.45097000  0.44894000  0.10391000  1.0
  C  C99  1  0.95098000  0.05106000  0.39610000  1.0
  C  C100  1  0.71359000  0.54895000  0.92268000  1.0
  C  C101  1  0.21360000  0.95105000  0.57732000  1.0
  C  C102  1  0.28641000  0.45105000  0.07732000  1.0
  C  C103  1  0.78642000  0.04895000  0.42268000  1.0
  C  C104  1  0.78472000  0.46597000  0.94913000  1.0
  C  C105  1  0.28473000  0.03403000  0.55087000  1.0
  C  C106  1  0.21527000  0.53403000  0.05087000  1.0
  C  C107  1  0.71528000  0.96598000  0.44913000  1.0
  C  C108  1  0.68751000  0.38571000  0.94855000  1.0
  C  C109  1  0.18751000  0.11429000  0.55145000  1.0
  C  C110  1  0.31249000  0.61429000  0.05146000  1.0
  C  C111  1  0.81250000  0.88571000  0.44855000  1.0
  C  C112  1  0.81357000  0.63663000  0.92233000  1.0
  C  C113  1  0.31358000  0.86337000  0.57767000  1.0
  C  C114  1  0.18643000  0.36337000  0.07767000  1.0
  C  C115  1  0.68643000  0.13663000  0.42233000  1.0
  C  C116  1  0.72316000  0.37683000  0.25564000  1.0
  C  C117  1  0.22315000  0.12317000  0.24436000  1.0
  C  C118  1  0.27685000  0.62317000  0.74436000  1.0
  C  C119  1  0.77685000  0.87683000  0.75564000  1.0
  C  C120  1  0.83061000  0.33814000  0.19435000  1.0
  C  C121  1  0.33060000  0.16186000  0.30565000  1.0
  C  C122  1  0.16939000  0.66186000  0.80565000  1.0
  C  C123  1  0.66940000  0.83814000  0.69435000  1.0
  C  C124  1  0.81818000  0.23526000  0.18434000  1.0
  C  C125  1  0.31818000  0.26474000  0.31566000  1.0
  C  C126  1  0.18182000  0.76474000  0.81566000  1.0
  C  C127  1  0.68183000  0.73526000  0.68434000  1.0
  C  C128  1  0.77854000  0.08452000  0.21042000  1.0
  C  C129  1  0.27855000  0.41548000  0.28958000  1.0
  C  C130  1  0.22145000  0.91548000  0.78958000  1.0
  C  C131  1  0.72145000  0.58452000  0.71041000  1.0
  C  C132  1  0.74201000  0.99649000  0.24061000  1.0
  C  C133  1  0.24203000  0.50352000  0.25939000  1.0
  C  C134  1  0.25798000  0.00351000  0.75939000  1.0
  C  C135  1  0.75797000  0.49648000  0.74061000  1.0
  C  C136  1  0.77377000  0.91975000  0.19722000  1.0
  C  C137  1  0.27378000  0.58025000  0.30278000  1.0
  C  C138  1  0.22623000  0.08025000  0.80278000  1.0
  C  C139  1  0.72621000  0.41975000  0.69721000  1.0
  C  C140  1  0.84202000  0.92970000  0.12617000  1.0
  C  C141  1  0.34204000  0.57030000  0.37383000  1.0
  C  C142  1  0.15798000  0.07030000  0.87383000  1.0
  C  C143  1  0.65794000  0.42970000  0.62617000  1.0
  C  C144  1  0.87256000  0.01807000  0.09537000  1.0
  C  C145  1  0.37257000  0.48193000  0.40463000  1.0
  C  C146  1  0.12742000  0.98193000  0.90463000  1.0
  C  C147  1  0.62742000  0.51808000  0.59536000  1.0
  C  C148  1  0.83813000  0.09556000  0.13790000  1.0
  C  C149  1  0.33814000  0.40444000  0.36211000  1.0
  C  C150  1  0.16187000  0.90444000  0.86210000  1.0
  C  C151  1  0.66186000  0.59556000  0.63789000  1.0
  C  C152  1  0.88783000  0.84376000  0.08507000  1.0
  C  C153  1  0.38785000  0.65623000  0.41493000  1.0
  C  C154  1  0.11217000  0.15624000  0.91493000  1.0
  C  C155  1  0.61214000  0.34377000  0.58507000  1.0
  N  N156  1  0.46273000  0.29913000  0.92951000  1.0
  N  N157  1  0.96272000  0.20087000  0.57049000  1.0
  N  N158  1  0.53727000  0.70087000  0.07049000  1.0
  N  N159  1  0.03728000  0.79913000  0.42950000  1.0
  N  N160  1  0.72093000  0.29476000  0.97280000  1.0
  N  N161  1  0.22093000  0.20524000  0.52720000  1.0
  N  N162  1  0.27907000  0.70524000  0.02720000  1.0
  N  N163  1  0.77908000  0.79477000  0.47280000  1.0
  N  N164  1  0.76921000  0.17385000  0.23796000  1.0
  N  N165  1  0.26922000  0.32615000  0.26204000  1.0
  N  N166  1  0.23079000  0.82615000  0.76204000  1.0
  N  N167  1  0.73079000  0.67385000  0.73795000  1.0
  N  N168  1  0.85796000  0.19074000  0.12291000  1.0
  N  N169  1  0.35796000  0.30926000  0.37709000  1.0
  N  N170  1  0.14203000  0.80926000  0.87709000  1.0
  N  N171  1  0.64204000  0.69074000  0.62291000  1.0
  O  O172  1  0.77360000  0.70512000  0.88148000  1.0
  O  O173  1  0.27360000  0.79488000  0.61851000  1.0
  O  O174  1  0.22640000  0.29488000  0.11851000  1.0
  O  O175  1  0.72640000  0.20512000  0.38149000  1.0
  O  O176  1  0.94043000  0.63664000  0.96531000  1.0
  O  O177  1  0.44044000  0.86336000  0.53469000  1.0
  O  O178  1  0.05957000  0.36336000  0.03469000  1.0
  O  O179  1  0.55956000  0.13664000  0.46531000  1.0
  O  O180  1  0.83862000  0.76472000  0.10693000  1.0
  O  O181  1  0.33864000  0.73528000  0.39309000  1.0
  O  O182  1  0.16138000  0.23528000  0.89308000  1.0
  O  O183  1  0.66136000  0.26472000  0.60692000  1.0
  O  O184  1  0.98046000  0.85763000  0.02796000  1.0
  O  O185  1  0.48049000  0.64237000  0.47204000  1.0
  O  O186  1  0.01954000  0.14237000  0.97204000  1.0
  O  O187  1  0.51951000  0.35763000  0.52796000  1.0
