# generated using pymatgen
data_UH15C23(NO2)3
_symmetry_space_group_name_H-M   'P 1'
_cell_length_a   10.17680000
_cell_length_b   10.17680000
_cell_length_c   11.73250000
_cell_angle_alpha   107.08200000
_cell_angle_beta   107.08200000
_cell_angle_gamma   103.45400000
_symmetry_Int_Tables_number   1
_chemical_formula_structural   UH15C23(NO2)3
_chemical_formula_sum   'U2 H30 C46 N6 O12'
_cell_volume   1040.42230613
_cell_formula_units_Z   2
loop_
 _symmetry_equiv_pos_site_id
 _symmetry_equiv_pos_as_xyz
  1  'x, y, z'
loop_
 _atom_site_type_symbol
 _atom_site_label
 _atom_site_symmetry_multiplicity
 _atom_site_fract_x
 _atom_site_fract_y
 _atom_site_fract_z
 _atom_site_occupancy
  U  U0  1  0.31529000  0.68472000  0.25000000  1.0
  U  U1  1  0.68472000  0.31528000  0.75000000  1.0
  H  H2  1  0.09700000  0.54229000  0.93208000  1.0
  H  H3  1  0.45771000  0.90301000  0.56792000  1.0
  H  H4  1  0.90300000  0.45771000  0.06792000  1.0
  H  H5  1  0.54229000  0.09699000  0.43208000  1.0
  H  H6  1  0.05220000  0.37550000  0.71326000  1.0
  H  H7  1  0.62450000  0.94780000  0.78675000  1.0
  H  H8  1  0.94780000  0.62450000  0.28674000  1.0
  H  H9  1  0.37550000  0.05220000  0.21325000  1.0
  H  H10  1  0.21031000  0.21721000  0.68983000  1.0
  H  H11  1  0.78279000  0.78969000  0.81017000  1.0
  H  H12  1  0.78969000  0.78279000  0.31017000  1.0
  H  H13  1  0.21721000  0.21031000  0.18983000  1.0
  H  H14  1  0.40144000  0.23737000  0.88681000  1.0
  H  H15  1  0.76263000  0.59856000  0.61319000  1.0
  H  H16  1  0.59856000  0.76263000  0.11319000  1.0
  H  H17  1  0.23737000  0.40144000  0.38681000  1.0
  H  H18  1  0.54278000  0.25143000  0.04457000  1.0
  H  H19  1  0.74857000  0.45722000  0.45542000  1.0
  H  H20  1  0.45722000  0.74857000  0.95543000  1.0
  H  H21  1  0.25143000  0.54279000  0.54458000  1.0
  H  H22  1  0.72307000  0.27692000  0.25000000  1.0
  H  H23  1  0.27693000  0.72308000  0.75000000  1.0
  H  H24  1  0.96967000  0.85140000  0.13125000  1.0
  H  H25  1  0.14861000  0.03034000  0.36876000  1.0
  H  H26  1  0.03033000  0.14860000  0.86874000  1.0
  H  H27  1  0.85139000  0.96966000  0.63125000  1.0
  H  H28  1  0.18016000  0.98695000  0.89641000  1.0
  H  H29  1  0.01305000  0.81984000  0.60360000  1.0
  H  H30  1  0.81984000  0.01305000  0.10359000  1.0
  H  H31  1  0.98695000  0.18016000  0.39642000  1.0
  C  C32  1  0.16392000  0.47469000  0.91940000  1.0
  C  C33  1  0.52531000  0.83608000  0.58061000  1.0
  C  C34  1  0.83608000  0.52531000  0.08060000  1.0
  C  C35  1  0.47469000  0.16392000  0.41940000  1.0
  C  C36  1  0.13823000  0.37887000  0.79636000  1.0
  C  C37  1  0.62112000  0.86178000  0.70365000  1.0
  C  C38  1  0.86177000  0.62113000  0.20364000  1.0
  C  C39  1  0.37887000  0.13822000  0.29635000  1.0
  C  C40  1  0.22523000  0.29268000  0.78427000  1.0
  C  C41  1  0.70731000  0.77478000  0.71573000  1.0
  C  C42  1  0.77477000  0.70732000  0.21574000  1.0
  C  C43  1  0.29268000  0.22522000  0.28426000  1.0
  C  C44  1  0.33267000  0.30391000  0.89573000  1.0
  C  C45  1  0.69609000  0.66733000  0.60427000  1.0
  C  C46  1  0.66733000  0.69609000  0.10427000  1.0
  C  C47  1  0.30391000  0.33266000  0.39573000  1.0
  C  C48  1  0.35328000  0.40328000  0.01672000  1.0
  C  C49  1  0.59672000  0.64672000  0.48328000  1.0
  C  C50  1  0.64672000  0.59672000  0.98328000  1.0
  C  C51  1  0.40328000  0.35328000  0.51671000  1.0
  C  C52  1  0.46512000  0.41845000  0.13762000  1.0
  C  C53  1  0.58156000  0.53488000  0.36238000  1.0
  C  C54  1  0.53488000  0.58156000  0.86238000  1.0
  C  C55  1  0.41845000  0.46512000  0.63762000  1.0
  C  C56  1  0.55174000  0.32988000  0.13479000  1.0
  C  C57  1  0.67012000  0.44826000  0.36521000  1.0
  C  C58  1  0.44826000  0.67012000  0.86521000  1.0
  C  C59  1  0.32988000  0.55174000  0.63479000  1.0
  C  C60  1  0.65499000  0.34500000  0.25000000  1.0
  C  C61  1  0.34501000  0.65500000  0.75000000  1.0
  C  C62  1  0.17744000  0.81757000  0.03261000  1.0
  C  C63  1  0.18243000  0.82257000  0.46740000  1.0
  C  C64  1  0.82257000  0.18243000  0.96738000  1.0
  C  C65  1  0.81756000  0.17742000  0.53261000  1.0
  C  C66  1  0.08286000  0.90923000  0.01469000  1.0
  C  C67  1  0.09078000  0.91714000  0.48532000  1.0
  C  C68  1  0.91714000  0.09077000  0.98530000  1.0
  C  C69  1  0.90923000  0.08286000  0.51470000  1.0
  C  C70  1  0.98169000  0.91634000  0.07354000  1.0
  C  C71  1  0.08366000  0.01831000  0.42647000  1.0
  C  C72  1  0.01831000  0.08366000  0.92645000  1.0
  C  C73  1  0.91634000  0.98169000  0.57355000  1.0
  C  C74  1  0.10055000  0.99347000  0.94101000  1.0
  C  C75  1  0.00654000  0.89945000  0.55899000  1.0
  C  C76  1  0.89945000  0.00653000  0.05898000  1.0
  C  C77  1  0.99347000  0.10055000  0.44102000  1.0
  N  N78  1  0.27064000  0.48979000  0.02748000  1.0
  N  N79  1  0.51021000  0.72936000  0.47252000  1.0
  N  N80  1  0.72936000  0.51021000  0.97252000  1.0
  N  N81  1  0.48978000  0.27064000  0.52748000  1.0
  N  N82  1  0.47981000  0.52019000  0.25000000  1.0
  N  N83  1  0.52019000  0.47981000  0.75000000  1.0
  O  O84  1  0.17537000  0.53524000  0.24812000  1.0
  O  O85  1  0.46477000  0.82464000  0.25189000  1.0
  O  O86  1  0.82464000  0.46477000  0.75188000  1.0
  O  O87  1  0.53522000  0.17535000  0.74811000  1.0
  O  O88  1  0.15863000  0.74482000  0.10625000  1.0
  O  O89  1  0.25519000  0.84138000  0.39376000  1.0
  O  O90  1  0.84138000  0.25519000  0.89375000  1.0
  O  O91  1  0.74480000  0.15861000  0.60624000  1.0
  O  O92  1  0.26662000  0.81405000  0.97999000  1.0
  O  O93  1  0.18595000  0.73338000  0.52000000  1.0
  O  O94  1  0.73339000  0.18595000  0.02000000  1.0
  O  O95  1  0.81404000  0.26660000  0.47999000  1.0
