# generated using pymatgen
data_CuH30C16S2Br
_symmetry_space_group_name_H-M   'P 1'
_cell_length_a   8.38458000
_cell_length_b   10.23040000
_cell_length_c   10.67470000
_cell_angle_alpha   75.53490000
_cell_angle_beta   77.33050000
_cell_angle_gamma   87.38850000
_symmetry_Int_Tables_number   1
_chemical_formula_structural   CuH30C16S2Br
_chemical_formula_sum   'Cu2 H60 C32 S4 Br2'
_cell_volume   864.99484559
_cell_formula_units_Z   2
loop_
 _symmetry_equiv_pos_site_id
 _symmetry_equiv_pos_as_xyz
  1  'x, y, z'
loop_
 _atom_site_type_symbol
 _atom_site_label
 _atom_site_symmetry_multiplicity
 _atom_site_fract_x
 _atom_site_fract_y
 _atom_site_fract_z
 _atom_site_occupancy
  Cu  Cu0  1  0.04359000  0.16135000  0.46690000  1.0
  Cu  Cu1  1  0.95641000  0.83865000  0.53310000  1.0
  H  H2  1  0.92596000  0.51333000  0.17545000  1.0
  H  H3  1  0.07404000  0.48667000  0.82455000  1.0
  H  H4  1  0.16744000  0.46870000  0.35970000  1.0
  H  H5  1  0.83256000  0.53130000  0.64030000  1.0
  H  H6  1  0.99115000  0.57018000  0.37225000  1.0
  H  H7  1  0.00885000  0.42983000  0.62775000  1.0
  H  H8  1  0.23708000  0.71428000  0.25998000  1.0
  H  H9  1  0.76292000  0.28573000  0.74002000  1.0
  H  H10  1  0.10594000  0.72235000  0.15033000  1.0
  H  H11  1  0.89406000  0.27765000  0.84967000  1.0
  H  H12  1  0.39300000  0.69359000  0.03603000  1.0
  H  H13  1  0.60700000  0.30641000  0.96396000  1.0
  H  H14  1  0.40948000  0.54519000  0.15941000  1.0
  H  H15  1  0.59052000  0.45481000  0.84059000  1.0
  H  H16  1  0.35096000  0.48448000  0.96224000  1.0
  H  H17  1  0.64903000  0.51552000  0.03775000  1.0
  H  H18  1  0.17760000  0.58913000  0.96706000  1.0
  H  H19  1  0.82240000  0.41087000  0.03294000  1.0
  H  H20  1  0.22510000  0.33020000  0.17542000  1.0
  H  H21  1  0.77490000  0.66980000  0.82458000  1.0
  H  H22  1  0.09031000  0.35073000  0.06693000  1.0
  H  H23  1  0.90969000  0.64927000  0.93307000  1.0
  H  H24  1  0.70064000  0.29109000  0.52271000  1.0
  H  H25  1  0.29936000  0.70891000  0.47729000  1.0
  H  H26  1  0.77532000  0.45836000  0.45322000  1.0
  H  H27  1  0.22468000  0.54164000  0.54679000  1.0
  H  H28  1  0.62912000  0.47679000  0.26533000  1.0
  H  H29  1  0.37088000  0.52321000  0.73467000  1.0
  H  H30  1  0.49529000  0.45545000  0.42126000  1.0
  H  H31  1  0.50471000  0.54455000  0.57874000  1.0
  H  H32  1  0.42094000  0.31432000  0.27734000  1.0
  H  H33  1  0.57905000  0.68568000  0.72267000  1.0
  H  H34  1  0.60792000  0.23011000  0.28026000  1.0
  H  H35  1  0.39207000  0.76989000  0.71974000  1.0
  H  H36  1  0.51387000  0.15716000  0.53681000  1.0
  H  H37  1  0.48613000  0.84284000  0.46320000  1.0
  H  H38  1  0.40744000  0.08364000  0.44309000  1.0
  H  H39  1  0.59256000  0.91635000  0.55691000  1.0
  H  H40  1  0.08589000  0.16965000  0.75610000  1.0
  H  H41  1  0.91411000  0.83034000  0.24390000  1.0
  H  H42  1  0.29937000  0.32066000  0.77543000  1.0
  H  H43  1  0.70062000  0.67934000  0.22456000  1.0
  H  H44  1  0.45249000  0.20065000  0.74439000  1.0
  H  H45  1  0.54751000  0.79935000  0.25560000  1.0
  H  H46  1  0.36918000  0.18004000  0.98609000  1.0
  H  H47  1  0.63082000  0.81996000  0.01391000  1.0
  H  H48  1  0.16235000  0.16172000  0.98316000  1.0
  H  H49  1  0.83765000  0.83828000  0.01684000  1.0
  H  H50  1  0.27743000  0.93880000  0.06480000  1.0
  H  H51  1  0.72257000  0.06120000  0.93520000  1.0
  H  H52  1  0.43681000  0.96424000  0.92121000  1.0
  H  H53  1  0.56319000  0.03576000  0.07880000  1.0
  H  H54  1  0.07133000  0.94379000  0.92492000  1.0
  H  H55  1  0.92868000  0.05621000  0.07508000  1.0
  H  H56  1  0.21944000  0.82050000  0.89686000  1.0
  H  H57  1  0.78056000  0.17950000  0.10314000  1.0
  H  H58  1  0.36918000  0.98165000  0.69414000  1.0
  H  H59  1  0.63082000  0.01835000  0.30586000  1.0
  H  H60  1  0.16380000  0.96045000  0.68335000  1.0
  H  H61  1  0.83619000  0.03954000  0.31665000  1.0
  C  C62  1  0.01552000  0.45151000  0.22606000  1.0
  C  C63  1  0.98448000  0.54849000  0.77394000  1.0
  C  C64  1  0.08797000  0.53424000  0.30134000  1.0
  C  C65  1  0.91203000  0.46576000  0.69866000  1.0
  C  C66  1  0.18734000  0.65424000  0.20482000  1.0
  C  C67  1  0.81265000  0.34576000  0.79518000  1.0
  C  C68  1  0.32301000  0.60684000  0.10547000  1.0
  C  C69  1  0.67699000  0.39316000  0.89453000  1.0
  C  C70  1  0.25248000  0.52312000  0.02970000  1.0
  C  C71  1  0.74752000  0.47688000  0.97030000  1.0
  C  C72  1  0.14750000  0.40471000  0.12309000  1.0
  C  C73  1  0.85249000  0.59529000  0.87692000  1.0
  C  C74  1  0.73236000  0.36944000  0.42948000  1.0
  C  C75  1  0.26764000  0.63056000  0.57052000  1.0
  C  C76  1  0.58842000  0.40372000  0.36116000  1.0
  C  C77  1  0.41158000  0.59628000  0.63884000  1.0
  C  C78  1  0.51229000  0.28131000  0.33838000  1.0
  C  C79  1  0.48771000  0.71869000  0.66163000  1.0
  C  C80  1  0.43421000  0.17854000  0.46500000  1.0
  C  C81  1  0.56579000  0.82145000  0.53500000  1.0
  C  C82  1  0.21595000  0.15178000  0.71730000  1.0
  C  C83  1  0.78404000  0.84822000  0.28270000  1.0
  C  C84  1  0.32229000  0.21196000  0.78869000  1.0
  C  C85  1  0.67771000  0.78804000  0.21131000  1.0
  C  C86  1  0.28809000  0.13969000  0.93627000  1.0
  C  C87  1  0.71191000  0.86031000  0.06373000  1.0
  C  C88  1  0.30769000  0.98681000  0.95811000  1.0
  C  C89  1  0.69231000  0.01319000  0.04189000  1.0
  C  C90  1  0.20186000  0.92990000  0.88404000  1.0
  C  C91  1  0.79814000  0.07009000  0.11596000  1.0
  C  C92  1  0.24068000  0.00034000  0.73647000  1.0
  C  C93  1  0.75932000  0.99966000  0.26353000  1.0
  S  S94  1  0.90368000  0.29907000  0.33045000  1.0
  S  S95  1  0.09632000  0.70093000  0.66955000  1.0
  S  S96  1  0.24026000  0.24181000  0.54276000  1.0
  S  S97  1  0.75974000  0.75819000  0.45723000  1.0
  Br  Br98  1  0.82677000  0.02461000  0.64577000  1.0
  Br  Br99  1  0.17323000  0.97538000  0.35422000  1.0
