# generated using pymatgen
data_ZnH11C14N4O5
_symmetry_space_group_name_H-M   'P 1'
_cell_length_a   9.33639000
_cell_length_b   9.42955000
_cell_length_c   9.62614000
_cell_angle_alpha   91.72270000
_cell_angle_beta   112.37400000
_cell_angle_gamma   98.02050000
_symmetry_Int_Tables_number   1
_chemical_formula_structural   ZnH11C14N4O5
_chemical_formula_sum   'Zn2 H22 C28 N8 O10'
_cell_volume   772.79394864
_cell_formula_units_Z   2
loop_
 _symmetry_equiv_pos_site_id
 _symmetry_equiv_pos_as_xyz
  1  'x, y, z'
loop_
 _atom_site_type_symbol
 _atom_site_label
 _atom_site_symmetry_multiplicity
 _atom_site_fract_x
 _atom_site_fract_y
 _atom_site_fract_z
 _atom_site_occupancy
  Zn  Zn0  1  0.84071000  0.56753000  0.00357000  1.0
  Zn  Zn1  1  0.15930000  0.43246000  0.99643000  1.0
  H  H2  1  0.43078000  0.43225000  0.56156000  1.0
  H  H3  1  0.56922000  0.56775000  0.43845000  1.0
  H  H4  1  0.36031000  0.34961000  0.69196000  1.0
  H  H5  1  0.63969000  0.65040000  0.30805000  1.0
  H  H6  1  0.34677000  0.62985000  0.45517000  1.0
  H  H7  1  0.65323000  0.37015000  0.54483000  1.0
  H  H8  1  0.14330000  0.78973000  0.39039000  1.0
  H  H9  1  0.85670000  0.21027000  0.60961000  1.0
  H  H10  1  0.96087000  0.77259000  0.52849000  1.0
  H  H11  1  0.03913000  0.22741000  0.47151000  1.0
  H  H12  1  0.17675000  0.76312000  0.06486000  1.0
  H  H13  1  0.82326000  0.23688000  0.93514000  1.0
  H  H14  1  0.01683000  0.09207000  0.24451000  1.0
  H  H15  1  0.98315000  0.90792000  0.75548000  1.0
  H  H16  1  0.27430000  0.16480000  0.19374000  1.0
  H  H17  1  0.72570000  0.83520000  0.80626000  1.0
  H  H18  1  0.33908000  0.02861000  0.11286000  1.0
  H  H19  1  0.66092000  0.97139000  0.88714000  1.0
  H  H20  1  0.31897000  0.17825000  0.46410000  1.0
  H  H21  1  0.68103000  0.82175000  0.53590000  1.0
  H  H22  1  0.48946000  0.12932000  0.72446000  1.0
  H  H23  1  0.51053000  0.87068000  0.27554000  1.0
  C  C24  1  0.56233000  0.51360000  0.79593000  1.0
  C  C25  1  0.43768000  0.48638000  0.20406000  1.0
  C  C26  1  0.40869000  0.45217000  0.66382000  1.0
  C  C27  1  0.59131000  0.54783000  0.33619000  1.0
  C  C28  1  0.27082000  0.63404000  0.51679000  1.0
  C  C29  1  0.72918000  0.36596000  0.48321000  1.0
  C  C30  1  0.15710000  0.72030000  0.48075000  1.0
  C  C31  1  0.84289000  0.27971000  0.51925000  1.0
  C  C32  1  0.05796000  0.71168000  0.55964000  1.0
  C  C33  1  0.94204000  0.28832000  0.44036000  1.0
  C  C34  1  0.07674000  0.62466000  0.67697000  1.0
  C  C35  1  0.92326000  0.37534000  0.32303000  1.0
  C  C36  1  0.20228000  0.54100000  0.71982000  1.0
  C  C37  1  0.79772000  0.45900000  0.28018000  1.0
  C  C38  1  0.96170000  0.62035000  0.75200000  1.0
  C  C39  1  0.03830000  0.37965000  0.24800000  1.0
  C  C40  1  0.10110000  0.82232000  0.09744000  1.0
  C  C41  1  0.89890000  0.17767000  0.90257000  1.0
  C  C42  1  0.01727000  0.98869000  0.19215000  1.0
  C  C43  1  0.98273000  0.01131000  0.80785000  1.0
  C  C44  1  0.29481000  0.05319000  0.19967000  1.0
  C  C45  1  0.70518000  0.94681000  0.80033000  1.0
  C  C46  1  0.40517000  0.02829000  0.35479000  1.0
  C  C47  1  0.59482000  0.97172000  0.64521000  1.0
  C  C48  1  0.39865000  0.10008000  0.48117000  1.0
  C  C49  1  0.60135000  0.89993000  0.51883000  1.0
  C  C50  1  0.49318000  0.07201000  0.62590000  1.0
  C  C51  1  0.50682000  0.92799000  0.37409000  1.0
  N  N52  1  0.29024000  0.54626000  0.62910000  1.0
  N  N53  1  0.70977000  0.45375000  0.37090000  1.0
  N  N54  1  0.95735000  0.77183000  0.08757000  1.0
  N  N55  1  0.04265000  0.22816000  0.91243000  1.0
  N  N56  1  0.90337000  0.87656000  0.14840000  1.0
  N  N57  1  0.09663000  0.12343000  0.85160000  1.0
  N  N58  1  0.14232000  0.95973000  0.16104000  1.0
  N  N59  1  0.85768000  0.04027000  0.83896000  1.0
  O  O60  1  0.66348000  0.42714000  0.83850000  1.0
  O  O61  1  0.33652000  0.57286000  0.16150000  1.0
  O  O62  1  0.58558000  0.63975000  0.85293000  1.0
  O  O63  1  0.41444000  0.36026000  0.14708000  1.0
  O  O64  1  0.24001000  0.46005000  0.82516000  1.0
  O  O65  1  0.76000000  0.53997000  0.17485000  1.0
  O  O66  1  0.99207000  0.55954000  0.87719000  1.0
  O  O67  1  0.00793000  0.44046000  0.12281000  1.0
  O  O68  1  0.84277000  0.67861000  0.69329000  1.0
  O  O69  1  0.15723000  0.32139000  0.30671000  1.0
