# generated using pymatgen
data_AlH9C15S4NO19
_symmetry_space_group_name_H-M   'P 1'
_cell_length_a   6.58632000
_cell_length_b   20.39950000
_cell_length_c   22.38510000
_cell_angle_alpha   89.95580000
_cell_angle_beta   89.90890000
_cell_angle_gamma   92.80890000
_symmetry_Int_Tables_number   1
_chemical_formula_structural   AlH9C15S4NO19
_chemical_formula_sum   'Al4 H36 C60 S16 N4 O76'
_cell_volume   3003.99067803
_cell_formula_units_Z   4
loop_
 _symmetry_equiv_pos_site_id
 _symmetry_equiv_pos_as_xyz
  1  'x, y, z'
loop_
 _atom_site_type_symbol
 _atom_site_label
 _atom_site_symmetry_multiplicity
 _atom_site_fract_x
 _atom_site_fract_y
 _atom_site_fract_z
 _atom_site_occupancy
  Al  Al0  1  0.99277000  0.30947000  0.50024000  1.0
  Al  Al1  1  0.00054000  0.68670000  0.99943000  1.0
  Al  Al2  1  0.48604000  0.31011000  0.49682000  1.0
  Al  Al3  1  0.50556000  0.68531000  0.99544000  1.0
  H  H4  1  0.03399000  0.50165000  0.05385000  1.0
  H  H5  1  0.96060000  0.49300000  0.55193000  1.0
  H  H6  1  0.50549000  0.19418000  0.34658000  1.0
  H  H7  1  0.48804000  0.80622000  0.84723000  1.0
  H  H8  1  0.05425000  0.89313000  0.24335000  1.0
  H  H9  1  0.94810000  0.11602000  0.75021000  1.0
  H  H10  1  0.96409000  0.01771000  0.35878000  1.0
  H  H11  1  0.04014000  0.97881000  0.86566000  1.0
  H  H12  1  0.80320000  0.18323000  0.25500000  1.0
  H  H13  1  0.21163000  0.82070000  0.74912000  1.0
  H  H14  1  0.62008000  0.99255000  0.09812000  1.0
  H  H15  1  0.49134000  0.96603000  0.66666667  1.0
  H  H16  1  0.74021000  0.82686000  0.08226000  1.0
  H  H17  1  0.48266000  0.99326000  0.55647000  1.0
  H  H18  1  0.81571000  0.08531000  0.43101000  1.0
  H  H19  1  0.18182000  0.90558000  0.93820000  1.0
  H  H20  1  0.86410000  0.68288000  0.17340000  1.0
  H  H21  1  0.09919000  0.32553000  0.67407000  1.0
  H  H22  1  0.45342000  0.31762000  0.20192000  1.0
  H  H23  1  0.54972000  0.67792000  0.73368000  1.0
  H  H24  1  0.87487000  0.31681000  0.12245000  1.0
  H  H25  1  0.06499000  0.68264000  0.60723000  1.0
  H  H26  1  0.42620000  0.70083000  0.12766000  1.0
  H  H27  1  0.54262000  0.30054000  0.63044000  1.0
  H  H28  1  0.32892000  0.51415000  0.47972000  1.0
  H  H29  1  0.67802000  0.48312000  0.97137000  1.0
  H  H30  1  0.68954000  0.49813000  0.22159000  1.0
  H  H31  1  0.32239000  0.51382000  0.71494000  1.0
  H  H32  1  0.86143000  0.58604000  0.29502000  1.0
  H  H33  1  0.36794000  0.34312000  0.83525000  1.0
  H  H34  1  0.91848000  0.26804000  0.31707000  1.0
  H  H35  1  0.08196000  0.73231000  0.81105000  1.0
  H  H36  1  0.74257000  0.28321000  0.42782000  1.0
  H  H37  1  0.24831000  0.71147000  0.92582000  1.0
  H  H38  1  0.23614000  0.27164000  0.56898000  1.0
  H  H39  1  0.74199000  0.65562000  0.07115000  1.0
  C  C40  1  0.73236000  0.39475000  0.57125000  1.0
  C  C41  1  0.25753000  0.60152000  0.07118000  1.0
  C  C42  1  0.74518000  0.22047000  0.57370000  1.0
  C  C43  1  0.24857000  0.77802000  0.07164000  1.0
  C  C44  1  0.23333000  0.22134000  0.42734000  1.0
  C  C45  1  0.75666000  0.77544000  0.92884000  1.0
  C  C46  1  0.23867000  0.39959000  0.42647000  1.0
  C  C47  1  0.75666000  0.59770000  0.92363000  1.0
  C  C48  1  0.05578000  0.44492000  0.13397000  1.0
  C  C49  1  0.93879000  0.55338000  0.62960000  1.0
  C  C50  1  0.24509000  0.54695000  0.11608000  1.0
  C  C51  1  0.74725000  0.45048000  0.61515000  1.0
  C  C52  1  0.41672000  0.50264000  0.39709000  1.0
  C  C53  1  0.57475000  0.49659000  0.89158000  1.0
  C  C54  1  0.55723000  0.53157000  0.35598000  1.0
  C  C55  1  0.42425000  0.47458000  0.85038000  1.0
  C  C56  1  0.54098000  0.51361000  0.29593000  1.0
  C  C57  1  0.44779000  0.49392000  0.79048000  1.0
  C  C58  1  0.35569000  0.48469000  0.27412000  1.0
  C  C59  1  0.64222000  0.51796000  0.77071000  1.0
  C  C60  1  0.22712000  0.44723000  0.31694000  1.0
  C  C61  1  0.77448000  0.55280000  0.81374000  1.0
  C  C62  1  0.28931000  0.49199000  0.21253000  1.0
  C  C63  1  0.70850000  0.50883000  0.70969000  1.0
  C  C64  1  0.15598000  0.43934000  0.18989000  1.0
  C  C65  1  0.84459000  0.56032000  0.68625000  1.0
  C  C66  1  0.10248000  0.38638000  0.22938000  1.0
  C  C67  1  0.90349000  0.61275000  0.72580000  1.0
  C  C68  1  0.09055000  0.39847000  0.29064000  1.0
  C  C69  1  0.91551000  0.60011000  0.78714000  1.0
  C  C70  1  0.33032000  0.54718000  0.17312000  1.0
  C  C71  1  0.66035000  0.45299000  0.67191000  1.0
  C  C72  1  0.11024000  0.49629000  0.09650000  1.0
  C  C73  1  0.88439000  0.50018000  0.59440000  1.0
  C  C74  1  0.27031000  0.45361000  0.37907000  1.0
  C  C75  1  0.72770000  0.54488000  0.87550000  1.0
  C  C76  1  0.25985000  0.83663000  0.11323000  1.0
  C  C77  1  0.74246000  0.16348000  0.61720000  1.0
  C  C78  1  0.13143000  0.83894000  0.16407000  1.0
  C  C79  1  0.86972000  0.16503000  0.66872000  1.0
  C  C80  1  0.15257000  0.89111000  0.20427000  1.0
  C  C81  1  0.85275000  0.11465000  0.71050000  1.0
  C  C82  1  0.29461000  0.94267000  0.19506000  1.0
  C  C83  1  0.71870000  0.06025000  0.70138000  1.0
  C  C84  1  0.42450000  0.94308000  0.14434000  1.0
  C  C85  1  0.60168000  0.05555000  0.64863000  1.0
  C  C86  1  0.40378000  0.88942000  0.10373000  1.0
  C  C87  1  0.61376000  0.10771000  0.60723000  1.0
  C  C88  1  0.39149000  0.10272000  0.30901000  1.0
  C  C89  1  0.61039000  0.89844000  0.81254000  1.0
  C  C90  1  0.38413000  0.15620000  0.34715000  1.0
  C  C91  1  0.61180000  0.84335000  0.84909000  1.0
  C  C92  1  0.23539000  0.05209000  0.31443000  1.0
  C  C93  1  0.76980000  0.94810000  0.81947000  1.0
  C  C94  1  0.22478000  0.16304000  0.38775000  1.0
  C  C95  1  0.76868000  0.83410000  0.88976000  1.0
  C  C96  1  0.06799000  0.11358000  0.39191000  1.0
  C  C97  1  0.92760000  0.88255000  0.89593000  1.0
  C  C98  1  0.08051000  0.05752000  0.35643000  1.0
  C  C99  1  0.92140000  0.93995000  0.86183000  1.0
  S  S100  1  0.60039000  0.09938000  0.25817000  1.0
  S  S101  1  0.39975000  0.90731000  0.76417000  1.0
  S  S102  1  0.54884000  0.89653000  0.03593000  1.0
  S  S103  1  0.47226000  0.09498000  0.53903000  1.0
  S  S104  1  0.91320000  0.78688000  0.18386000  1.0
  S  S105  1  0.08570000  0.22110000  0.68374000  1.0
  S  S106  1  0.12233000  0.30388000  0.20449000  1.0
  S  S107  1  0.87079000  0.69590000  0.70464000  1.0
  S  S108  1  0.79602000  0.41741000  0.11667000  1.0
  S  S109  1  0.18781000  0.58679000  0.60809000  1.0
  S  S110  1  0.47228000  0.62248000  0.19518000  1.0
  S  S111  1  0.50069000  0.38104000  0.69515000  1.0
  S  S112  1  0.75998000  0.58498000  0.38582000  1.0
  S  S113  1  0.21130000  0.42201000  0.87362000  1.0
  S  S114  1  0.84663000  0.36794000  0.32079000  1.0
  S  S115  1  0.15316000  0.63259000  0.81814000  1.0
  N  N116  1  0.30864000  0.99909000  0.23090000  1.0
  N  N117  1  0.69740000  0.00533000  0.73822000  1.0
  N  N118  1  0.21953000  0.99398000  0.28077000  1.0
  N  N119  1  0.79704000  0.00650000  0.78647000  1.0
  O  O120  1  0.58096000  0.25069000  0.56627000  1.0
  O  O121  1  0.41217000  0.74659000  0.06450000  1.0
  O  O122  1  0.89884000  0.36848000  0.56067000  1.0
  O  O123  1  0.09064000  0.62700000  0.05947000  1.0
  O  O124  1  0.07092000  0.38637000  0.45238000  1.0
  O  O125  1  0.92454000  0.61063000  0.94948000  1.0
  O  O126  1  0.91443000  0.23509000  0.55030000  1.0
  O  O127  1  0.07769000  0.76221000  0.04990000  1.0
  O  O128  1  0.06855000  0.24691000  0.44179000  1.0
  O  O129  1  0.91885000  0.74841000  0.94291000  1.0
  O  O130  1  0.56170000  0.38269000  0.54696000  1.0
  O  O131  1  0.42795000  0.61387000  0.04646000  1.0
  O  O132  1  0.74075000  0.30728000  0.46527000  1.0
  O  O133  1  0.25120000  0.68911000  0.96418000  1.0
  O  O134  1  0.41058000  0.24272000  0.44293000  1.0
  O  O135  1  0.57930000  0.75534000  0.94542000  1.0
  O  O136  1  0.40260000  0.37151000  0.43725000  1.0
  O  O137  1  0.59166000  0.62564000  0.93483000  1.0
  O  O138  1  0.24215000  0.30514000  0.53725000  1.0
  O  O139  1  0.74998000  0.68465000  0.03662000  1.0
  O  O140  1  0.69824000  0.03842000  0.26586000  1.0
  O  O141  1  0.55288000  0.12511000  0.20015000  1.0
  O  O142  1  0.75283000  0.15558000  0.28837000  1.0
  O  O143  1  0.29909000  0.96596000  0.77925000  1.0
  O  O144  1  0.44373000  0.89342000  0.70163000  1.0
  O  O145  1  0.25485000  0.84540000  0.78510000  1.0
  O  O146  1  0.55629000  0.99380000  0.13875000  1.0
  O  O147  1  0.48232000  0.00201000  0.63620000  1.0
  O  O148  1  0.42177000  0.87497000  0.98685000  1.0
  O  O149  1  0.63406000  0.96371000  0.03183000  1.0
  O  O150  1  0.72907000  0.85085000  0.04168000  1.0
  O  O151  1  0.25908000  0.09707000  0.55165000  1.0
  O  O152  1  0.56731000  0.13380000  0.49254000  1.0
  O  O153  1  0.52740000  0.02157000  0.52230000  1.0
  O  O154  1  0.91739000  0.12172000  0.43128000  1.0
  O  O155  1  0.07241000  0.87155000  0.93588000  1.0
  O  O156  1  0.87189000  0.79519000  0.24616000  1.0
  O  O157  1  0.74367000  0.79997000  0.14389000  1.0
  O  O158  1  0.98257000  0.71589000  0.17061000  1.0
  O  O159  1  0.15060000  0.20838000  0.74379000  1.0
  O  O160  1  0.23632000  0.21694000  0.63672000  1.0
  O  O161  1  0.98926000  0.29019000  0.67976000  1.0
  O  O162  1  0.00311000  0.25761000  0.24052000  1.0
  O  O163  1  0.11064000  0.29910000  0.13993000  1.0
  O  O164  1  0.34792000  0.29181000  0.22429000  1.0
  O  O165  1  0.01582000  0.74231000  0.73214000  1.0
  O  O166  1  0.83427000  0.70048000  0.64113000  1.0
  O  O167  1  0.66740000  0.70955000  0.73976000  1.0
  O  O168  1  0.66998000  0.45171000  0.15841000  1.0
  O  O169  1  0.76461000  0.42753000  0.05400000  1.0
  O  O170  1  0.75367000  0.34288000  0.13292000  1.0
  O  O171  1  0.33209000  0.56355000  0.65107000  1.0
  O  O172  1  0.21642000  0.57103000  0.54623000  1.0
  O  O173  1  0.19764000  0.66340000  0.61692000  1.0
  O  O174  1  0.44410000  0.63214000  0.25771000  1.0
  O  O175  1  0.67667000  0.62161000  0.16938000  1.0
  O  O176  1  0.35735000  0.67703000  0.16247000  1.0
  O  O177  1  0.52194000  0.37210000  0.75848000  1.0
  O  O178  1  0.30131000  0.38600000  0.66861000  1.0
  O  O179  1  0.60882000  0.32266000  0.66598000  1.0
  O  O180  1  0.45158000  0.51679000  0.45484000  1.0
  O  O181  1  0.55219000  0.47665000  0.94851000  1.0
  O  O182  1  0.70312000  0.52423000  0.25913000  1.0
  O  O183  1  0.29233000  0.48870000  0.75221000  1.0
  O  O184  1  0.67245000  0.63637000  0.41908000  1.0
  O  O185  1  0.90722000  0.54441000  0.41284000  1.0
  O  O186  1  0.85340000  0.61905000  0.32723000  1.0
  O  O187  1  0.15414000  0.43570000  0.93391000  1.0
  O  O188  1  0.06126000  0.41988000  0.82714000  1.0
  O  O189  1  0.32146000  0.35376000  0.87600000  1.0
  O  O190  1  0.79152000  0.41129000  0.36705000  1.0
  O  O191  1  0.71639000  0.35868000  0.26936000  1.0
  O  O192  1  0.88113000  0.29836000  0.34952000  1.0
  O  O193  1  0.20654000  0.59107000  0.86598000  1.0
  O  O194  1  0.29087000  0.64267000  0.76807000  1.0
  O  O195  1  0.11214000  0.70304000  0.84518000  1.0
