# generated using pymatgen
data_Zn2H13C24N8ClO
_symmetry_space_group_name_H-M   'P 1'
_cell_length_a   15.69700000
_cell_length_b   15.85910000
_cell_length_c   17.49930000
_cell_angle_alpha   102.91400000
_cell_angle_beta   107.99800000
_cell_angle_gamma   112.70900000
_symmetry_Int_Tables_number   1
_chemical_formula_structural   Zn2H13C24N8ClO
_chemical_formula_sum   'Zn4 H26 C48 N16 Cl2 O2'
_cell_volume   3518.16473101
_cell_formula_units_Z   2
loop_
 _symmetry_equiv_pos_site_id
 _symmetry_equiv_pos_as_xyz
  1  'x, y, z'
loop_
 _atom_site_type_symbol
 _atom_site_label
 _atom_site_symmetry_multiplicity
 _atom_site_fract_x
 _atom_site_fract_y
 _atom_site_fract_z
 _atom_site_occupancy
  Zn  Zn0  1  0.87001000  0.86884000  0.49412000  1.0
  Zn  Zn1  1  0.13584000  0.13755000  0.49762000  1.0
  Zn  Zn2  1  0.12286000  0.99792000  0.61125000  1.0
  Zn  Zn3  1  0.88272000  0.00669000  0.38042000  1.0
  H  H4  1  0.80652000  0.76860000  0.63366000  1.0
  H  H5  1  0.89186000  0.77330000  0.96576000  1.0
  H  H6  1  0.17738000  0.34830000  0.46234000  1.0
  H  H7  1  0.12333000  0.13665000  0.77702000  1.0
  H  H8  1  0.82529000  0.16000000  0.48137000  1.0
  H  H9  1  0.13861000  0.32245000  0.62787000  1.0
  H  H10  1  0.81325000  0.97923000  0.63512000  1.0
  H  H11  1  0.64016000  0.66799000  0.35229000  1.0
  H  H12  1  0.22108000  0.74830000  0.45574000  1.0
  H  H13  1  0.18949000  0.71191000  0.53695000  1.0
  H  H14  1  0.35723000  0.85710000  0.65475000  1.0
  H  H15  1  0.38162000  0.21821000  0.53007000  1.0
  H  H16  1  0.37821000  0.77982000  0.58049000  1.0
  H  H17  1  0.38993000  0.89399000  0.57398000  1.0
  H  H18  1  0.24532000  0.88712000  0.13724000  1.0
  H  H19  1  0.24257000  0.99965000  0.14236000  1.0
  H  H20  1  0.31558000  0.01051000  0.03306000  1.0
  H  H21  1  0.39906000  0.00648000  0.12648000  1.0
  H  H22  1  0.31850000  0.89828000  0.02772000  1.0
  H  H23  1  0.87145000  0.85245000  0.21628000  1.0
  H  H24  1  0.20245000  0.01712000  0.37267000  1.0
  H  H25  1  0.84909000  0.68511000  0.35261000  1.0
  H  H26  1  0.65577000  0.85276000  0.20268000  1.0
  H  H27  1  0.36200000  0.03780000  0.68356000  1.0
  H  H28  1  0.32895000  0.42633000  0.04120000  1.0
  H  H29  1  0.33016000  0.57785000  0.95673000  1.0
  C  C30  1  0.88882000  0.81635000  0.65921000  1.0
  C  C31  1  0.92840000  0.73680000  0.39988000  1.0
  C  C32  1  0.66821000  0.82085000  0.25114000  1.0
  C  C33  1  0.09686000  0.29161000  0.42856000  1.0
  C  C34  1  0.35023000  0.08008000  0.64440000  1.0
  C  C35  1  0.60570000  0.72580000  0.24634000  1.0
  C  C36  1  0.41654000  0.13525000  0.61368000  1.0
  C  C37  1  0.01312000  0.71958000  0.42166000  1.0
  C  C38  1  0.04278000  0.91535000  0.26201000  1.0
  C  C39  1  0.73611000  0.11907000  0.60411000  1.0
  C  C40  1  0.67043000  0.13502000  0.61769000  1.0
  C  C41  1  0.01117000  0.30015000  0.38263000  1.0
  C  C42  1  0.59037000  0.14349000  0.62410000  1.0
  C  C43  1  0.51177000  0.14385000  0.62269000  1.0
  C  C44  1  0.00842000  0.38442000  0.37323000  1.0
  C  C45  1  0.12225000  0.16817000  0.72791000  1.0
  C  C46  1  0.00670000  0.46085000  0.37181000  1.0
  C  C47  1  0.00702000  0.54724000  0.37829000  1.0
  C  C48  1  0.01042000  0.62830000  0.39424000  1.0
  C  C49  1  0.18582000  0.34869000  0.81288000  1.0
  C  C50  1  0.30679000  0.50472000  0.96002000  1.0
  C  C51  1  0.35333000  0.49938000  0.03766000  1.0
  C  C52  1  0.14385000  0.26573000  0.73581000  1.0
  C  C53  1  0.43586000  0.58082000  0.11219000  1.0
  C  C54  1  0.23662000  0.42124000  0.88222000  1.0
  C  C55  1  0.51353000  0.64851000  0.17608000  1.0
  C  C56  1  0.05334000  0.88025000  0.18624000  1.0
  C  C57  1  0.83094000  0.10900000  0.51235000  1.0
  C  C58  1  0.05414000  0.84530000  0.03267000  1.0
  C  C59  1  0.96306000  0.80447000  0.95912000  1.0
  C  C60  1  0.95992000  0.80902000  0.87976000  1.0
  C  C61  1  0.05651000  0.85848000  0.11585000  1.0
  C  C62  1  0.95992000  0.82096000  0.81301000  1.0
  C  C63  1  0.79724000  0.08802000  0.57538000  1.0
  C  C64  1  0.13029000  0.26344000  0.65160000  1.0
  C  C65  1  0.82432000  0.01611000  0.59090000  1.0
  C  C66  1  0.92826000  0.20372000  0.35369000  1.0
  C  C67  1  0.05681000  0.90607000  0.73722000  1.0
  C  C68  1  0.96685000  0.84413000  0.74189000  1.0
  C  C69  1  0.23367000  0.77556000  0.52403000  1.0
  C  C70  1  0.34647000  0.83035000  0.58709000  1.0
  C  C71  1  0.23958000  0.93432000  0.10045000  1.0
  C  C72  1  0.32312000  0.96411000  0.07000000  1.0
  C  C73  1  0.66016000  0.72635000  0.32764000  1.0
  C  C74  1  0.35988000  0.17174000  0.56530000  1.0
  C  C75  1  0.09577000  0.81302000  0.48747000  1.0
  C  C76  1  0.94996000  0.90072000  0.26640000  1.0
  C  C77  1  0.11954000  0.98488000  0.34637000  1.0
  N  N78  1  0.92940000  0.85799000  0.61100000  1.0
  N  N79  1  0.10030000  0.11436000  0.64644000  1.0
  N  N80  1  0.87200000  0.05225000  0.49152000  1.0
  N  N81  1  0.10549000  0.17278000  0.59964000  1.0
  N  N82  1  0.86789000  0.99529000  0.53951000  1.0
  N  N83  1  0.96156000  0.14432000  0.37993000  1.0
  N  N84  1  0.03421000  0.91408000  0.65972000  1.0
  N  N85  1  0.74695000  0.81398000  0.37596000  1.0
  N  N86  1  0.26817000  0.14029000  0.56716000  1.0
  N  N87  1  0.06115000  0.87757000  0.50200000  1.0
  N  N88  1  0.97126000  0.95871000  0.34599000  1.0
  N  N89  1  0.07500000  0.01045000  0.39506000  1.0
  N  N90  1  0.95782000  0.83014000  0.44857000  1.0
  N  N91  1  0.75193000  0.87259000  0.32834000  1.0
  N  N92  1  0.26229000  0.08314000  0.61618000  1.0
  N  N93  1  0.06674000  0.19926000  0.42669000  1.0
  Cl  Cl94  1  0.80039000  0.16005000  0.29461000  1.0
  Cl  Cl95  1  0.18103000  0.96709000  0.81487000  1.0
  O  O96  1  0.19566000  0.84533000  0.53597000  1.0
  O  O97  1  0.14285000  0.87937000  0.02313000  1.0
