# generated using pymatgen
data_AlH8C15NO9
_symmetry_space_group_name_H-M   'P 1'
_cell_length_a   6.59337000
_cell_length_b   10.97190000
_cell_length_c   16.98940000
_cell_angle_alpha   84.92160000
_cell_angle_beta   81.18460000
_cell_angle_gamma   74.23070000
_symmetry_Int_Tables_number   1
_chemical_formula_structural   AlH8C15NO9
_chemical_formula_sum   'Al2 H16 C30 N2 O18'
_cell_volume   1167.39468273
_cell_formula_units_Z   2
loop_
 _symmetry_equiv_pos_site_id
 _symmetry_equiv_pos_as_xyz
  1  'x, y, z'
loop_
 _atom_site_type_symbol
 _atom_site_label
 _atom_site_symmetry_multiplicity
 _atom_site_fract_x
 _atom_site_fract_y
 _atom_site_fract_z
 _atom_site_occupancy
  Al  Al0  1  0.49221000  0.49371000  0.50167000  1.0
  Al  Al1  1  0.99816000  0.49074000  0.50017000  1.0
  H  H2  1  0.19354000  0.64272000  0.44823000  1.0
  H  H3  1  0.81135000  0.33441000  0.50721000  1.0
  H  H4  1  0.81008000  0.54842000  0.74014000  1.0
  H  H5  1  0.75283000  0.54701000  0.88977000  1.0
  H  H6  1  0.42548000  0.39111000  0.89257000  1.0
  H  H7  1  0.48476000  0.39957000  0.74285000  1.0
  H  H8  1  0.54335000  0.58602000  0.11271000  1.0
  H  H9  1  0.21138000  0.40858000  0.11030000  1.0
  H  H10  1  0.16576000  0.41178000  0.25991000  1.0
  H  H11  1  0.49648000  0.58600000  0.26303000  1.0
  H  H12  1  0.87845000  0.76972000  0.60772000  1.0
  H  H13  1  0.58607000  0.23781000  0.60144000  1.0
  H  H14  1  0.44936000  0.18557000  0.33964000  1.0
  H  H15  1  0.56584000  0.84903000  0.33039000  1.0
  H  H16  1  0.89845000  0.80464000  0.76662000  1.0
  H  H17  1  0.81724000  0.31319000  0.63341000  1.0
  C  C18  1  0.63044000  0.71557000  0.51528000  1.0
  C  C19  1  0.80453000  0.50098000  0.35789000  1.0
  C  C20  1  0.36719000  0.26560000  0.48928000  1.0
  C  C21  1  0.18207000  0.47820000  0.64455000  1.0
  C  C22  1  0.15070000  0.47554000  0.73287000  1.0
  C  C23  1  0.94374000  0.51624000  0.77423000  1.0
  C  C24  1  0.91135000  0.51471000  0.85671000  1.0
  C  C25  1  0.08713000  0.46940000  0.89911000  1.0
  C  C26  1  0.29318000  0.42700000  0.85802000  1.0
  C  C27  1  0.32527000  0.43130000  0.77514000  1.0
  C  C28  1  0.67730000  0.54770000  0.14617000  1.0
  C  C29  1  0.87946000  0.49830000  0.10359000  1.0
  C  C30  1  0.05690000  0.44809000  0.14449000  1.0
  C  C31  1  0.03144000  0.45002000  0.22684000  1.0
  C  C32  1  0.82920000  0.49976000  0.26963000  1.0
  C  C33  1  0.65174000  0.54770000  0.22897000  1.0
  C  C34  1  0.56571000  0.85784000  0.51083000  1.0
  C  C35  1  0.65760000  0.92903000  0.55503000  1.0
  C  C36  1  0.41694000  0.91909000  0.46059000  1.0
  C  C37  1  0.81519000  0.87234000  0.60535000  1.0
  C  C38  1  0.89531000  0.94522000  0.64857000  1.0
  C  C39  1  0.43772000  0.12410000  0.49622000  1.0
  C  C40  1  0.35828000  0.05331000  0.45089000  1.0
  C  C41  1  0.58422000  0.06432000  0.55004000  1.0
  C  C42  1  0.65819000  0.13619000  0.59938000  1.0
  C  C43  1  0.81280000  0.07989000  0.64684000  1.0
  C  C44  1  0.21522000  0.11839000  0.39008000  1.0
  C  C45  1  0.32462000  0.84659000  0.41034000  1.0
  C  C46  1  0.08283000  0.88181000  0.69175000  1.0
  C  C47  1  0.87674000  0.15513000  0.70372000  1.0
  N  N48  1  0.07434000  0.46301000  0.98292000  1.0
  N  N49  1  0.88861000  0.50389000  0.01970000  1.0
  O  O50  1  0.48349000  0.65910000  0.53100000  1.0
  O  O51  1  0.97339000  0.47559000  0.39111000  1.0
  O  O52  1  0.16860000  0.31607000  0.50234000  1.0
  O  O53  1  0.37303000  0.45385000  0.60818000  1.0
  O  O54  1  0.51135000  0.32394000  0.47224000  1.0
  O  O55  1  0.01583000  0.50289000  0.60981000  1.0
  O  O56  1  0.82706000  0.66185000  0.49996000  1.0
  O  O57  1  0.61569000  0.52861000  0.39530000  1.0
  O  O58  1  0.22978000  0.55409000  0.46847000  1.0
  O  O59  1  0.76702000  0.41589000  0.53240000  1.0
  O  O60  1  0.30348000  0.18973000  0.33186000  1.0
  O  O61  1  0.03626000  0.10869000  0.38964000  1.0
  O  O62  1  0.43471000  0.82163000  0.33653000  1.0
  O  O63  1  0.16153000  0.81393000  0.43049000  1.0
  O  O64  1  0.05023000  0.79915000  0.75351000  1.0
  O  O65  1  0.25962000  0.89598000  0.66929000  1.0
  O  O66  1  0.85551000  0.28037000  0.68689000  1.0
  O  O67  1  0.93972000  0.10583000  0.76589000  1.0
