# generated using pymatgen
data_Cd2H29C30(NO2)5
_symmetry_space_group_name_H-M   'P 1'
_cell_length_a   10.24180000
_cell_length_b   10.89330000
_cell_length_c   12.61471452
_cell_angle_alpha   65.30667656
_cell_angle_beta   81.09981088
_cell_angle_gamma   63.97800000
_symmetry_Int_Tables_number   1
_chemical_formula_structural   Cd2H29C30(NO2)5
_chemical_formula_sum   'Cd2 H29 C30 N5 O10'
_cell_volume   1148.36023162
_cell_formula_units_Z   1
loop_
 _symmetry_equiv_pos_site_id
 _symmetry_equiv_pos_as_xyz
  1  'x, y, z'
loop_
 _atom_site_type_symbol
 _atom_site_label
 _atom_site_symmetry_multiplicity
 _atom_site_fract_x
 _atom_site_fract_y
 _atom_site_fract_z
 _atom_site_occupancy
  Cd  Cd0  1  0.22806000  0.76489000  0.24861000  1.0
  Cd  Cd1  1  0.90233000  0.96557000  0.04132000  1.0
  H  H2  1  0.42312000  0.98892000  0.02934000  1.0
  H  H3  1  0.07340000  0.29615000  0.77265000  1.0
  H  H4  1  0.10935000  0.35418000  0.28379000  1.0
  H  H5  1  0.85055000  0.84897000  0.48665000  1.0
  H  H6  1  0.92080000  0.81023000  0.35917000  1.0
  H  H7  1  0.66804000  0.13309000  0.42739000  1.0
  H  H8  1  0.73884000  0.21953000  0.48053000  1.0
  H  H9  1  0.78788000  0.02570000  0.55287000  1.0
  H  H10  1  0.67046000  0.39335000  0.28122000  1.0
  H  H11  1  0.74296000  0.77565000  0.21805000  1.0
  H  H12  1  0.45480000  0.37617000  0.75563000  1.0
  H  H13  1  0.26211000  0.05236000  0.16575000  1.0
  H  H14  1  0.24822000  0.17629000  0.22707000  1.0
  H  H15  1  0.13203000  0.24216000  0.10691000  1.0
  H  H16  1  0.41763000  0.42148000  0.41153000  1.0
  H  H17  1  0.43991000  0.28953000  0.56027000  1.0
  H  H18  1  0.50445000  0.42960000  0.51792000  1.0
  H  H19  1  0.92471000  0.75427000  0.69914000  1.0
  H  H20  1  0.98249000  0.56203000  0.78715000  1.0
  H  H21  1  0.84861000  0.64917000  0.67452000  1.0
  H  H22  1  0.70994000  0.20283000  0.06415000  1.0
  H  H23  1  0.83787000  0.19687000  0.12731000  1.0
  H  H24  1  0.15761000  0.86308000  0.86061000  1.0
  H  H25  1  0.36943000  0.73495000  0.81200000  1.0
  H  H26  1  0.34281000  0.61574000  0.76205000  1.0
  H  H27  1  0.45462000  0.53650000  0.88928000  1.0
  H  H28  1  0.11921000  0.52362000  0.03525000  1.0
  H  H29  1  0.31295000  0.42134000  0.04090000  1.0
  H  H30  1  0.20654000  0.44907000  0.92702000  1.0
  C  C31  1  0.15091000  0.04666000  0.96762000  1.0
  C  C32  1  0.89239000  0.09350000  0.39039000  1.0
  C  C33  1  0.23884000  0.13502000  0.90674000  1.0
  C  C34  1  0.27241000  0.50566000  0.53055000  1.0
  C  C35  1  0.69219000  0.59128000  0.25187000  1.0
  C  C36  1  0.93795000  0.57077000  0.24592000  1.0
  C  C37  1  0.37697000  0.09025000  0.95121000  1.0
  C  C38  1  0.18027000  0.26477000  0.80611000  1.0
  C  C39  1  0.99201000  0.41814000  0.27332000  1.0
  C  C40  1  0.52985000  0.67928000  0.24514000  1.0
  C  C41  1  0.89804000  0.35004000  0.28880000  1.0
  C  C42  1  0.94508000  0.82829000  0.43206000  1.0
  C  C43  1  0.76534000  0.11837000  0.46680000  1.0
  C  C44  1  0.95361000  0.19046000  0.31607000  1.0
  C  C45  1  0.74775000  0.43965000  0.27523000  1.0
  C  C46  1  0.07616000  0.10317000  0.26884000  1.0
  C  C47  1  0.78757000  0.65731000  0.23712000  1.0
  C  C48  1  0.25878000  0.35071000  0.74813000  1.0
  C  C49  1  0.39426000  0.30787000  0.79619000  1.0
  C  C50  1  0.45226000  0.18008000  0.89784000  1.0
  C  C51  1  0.18503000  0.14589333  0.18744000  1.0
  C  C52  1  0.59069000  0.14686000  0.95228000  1.0
  C  C53  1  0.04582000  0.63428000  0.23103000  1.0
  C  C54  1  0.20191000  0.48237000  0.63894000  1.0
  C  C55  1  0.41630000  0.40589000  0.50329000  1.0
  C  C56  1  0.06883000  0.60633000  0.61780000  1.0
  C  C57  1  0.94963000  0.64577000  0.69799000  1.0
  C  C58  1  0.13014000  0.76765000  0.91278000  1.0
  C  C59  1  0.35669000  0.63105000  0.83991000  1.0
  C  C60  1  0.21591000  0.49954000  0.98321000  1.0
  N  N61  1  0.08533000  0.96449000  0.30832000  1.0
  N  N62  1  0.18748000  0.63423000  0.44851000  1.0
  N  N63  1  0.97532000  0.95924000  0.38380000  1.0
  N  N64  1  0.06523000  0.69548000  0.50226000  1.0
  N  N65  1  0.23059000  0.63790000  0.91260000  1.0
  O  O66  1  0.99521000  0.77530000  0.21362000  1.0
  O  O67  1  0.21017000  0.92131000  0.05050000  1.0
  O  O68  1  0.68300000  0.01054000  0.99182000  1.0
  O  O69  1  0.17917000  0.55410000  0.24062000  1.0
  O  O70  1  0.60445000  0.25529000  0.95573000  1.0
  O  O71  1  0.47502000  0.80539000  0.24966000  1.0
  O  O72  1  0.01876000  0.10509000  0.93014000  1.0
  O  O73  1  0.45469000  0.61370000  0.23804000  1.0
  O  O74  1  0.01377000  0.78317000  0.96630000  1.0
  O  O75  1  0.78392000  0.14015000  0.13217000  1.0
