# generated using pymatgen
data_ZnCrH40C20(NO)4
_symmetry_space_group_name_H-M   'P 1'
_cell_length_a   9.87233000
_cell_length_b   10.99010000
_cell_length_c   13.25587202
_cell_angle_alpha   66.45242371
_cell_angle_beta   78.24517245
_cell_angle_gamma   88.59750000
_symmetry_Int_Tables_number   1
_chemical_formula_structural   ZnCrH40C20(NO)4
_chemical_formula_sum   'Zn2 Cr2 H80 C40 N8 O8'
_cell_volume   1288.22192903
_cell_formula_units_Z   2
loop_
 _symmetry_equiv_pos_site_id
 _symmetry_equiv_pos_as_xyz
  1  'x, y, z'
loop_
 _atom_site_type_symbol
 _atom_site_label
 _atom_site_symmetry_multiplicity
 _atom_site_fract_x
 _atom_site_fract_y
 _atom_site_fract_z
 _atom_site_occupancy
  Zn  Zn0  1  1.00000000  0.00001000  0.99991000  1.0
  Zn  Zn1  1  1.00000000  0.99999000  0.49999000  1.0
  Cr  Cr2  1  0.07165000  0.11335000  0.69883000  1.0
  Cr  Cr3  1  0.92836000  0.88665000  0.30116000  1.0
  H  H4  1  0.22274000  0.00582000  0.06052000  1.0
  H  H5  1  0.77713000  0.99418000  0.93949000  1.0
  H  H6  1  0.02167000  0.22893000  0.83947000  1.0
  H  H7  1  0.97833000  0.77114000  0.16049000  1.0
  H  H8  1  0.26071000  0.16178000  0.81636000  1.0
  H  H9  1  0.73931000  0.83824000  0.18362000  1.0
  H  H10  1  0.48287000  0.12909000  0.88353000  1.0
  H  H11  1  0.51712000  0.87090000  0.11649000  1.0
  H  H12  1  0.41177000  0.19024000  0.98698000  1.0
  H  H13  1  0.58821000  0.80974000  0.01304000  1.0
  H  H14  1  0.45319000  0.34648000  0.73089000  1.0
  H  H15  1  0.54683000  0.65351000  0.26913000  1.0
  H  H16  1  0.55767000  0.36845000  0.81658000  1.0
  H  H17  1  0.44233000  0.63153000  0.18346000  1.0
  H  H18  1  0.35528000  0.43783000  0.92319000  1.0
  H  H19  1  0.64471000  0.56216000  0.07683000  1.0
  H  H20  1  0.37757000  0.53872000  0.77816000  1.0
  H  H21  1  0.62245000  0.46127000  0.22186000  1.0
  H  H22  1  0.12884000  0.46336000  0.86589000  1.0
  H  H23  1  0.87117000  0.53665000  0.13410000  1.0
  H  H24  1  0.19240000  0.40489000  0.75981000  1.0
  H  H25  1  0.80763000  0.59513000  0.24018000  1.0
  H  H26  1  0.15589000  0.24141000  0.01336000  1.0
  H  H27  1  0.84408000  0.75858000  0.98664000  1.0
  H  H28  1  0.91182000  0.38883000  0.88752000  1.0
  H  H29  1  0.08815000  0.61118000  0.11249000  1.0
  H  H30  1  0.68284000  0.29362000  0.96624000  1.0
  H  H31  1  0.31715000  0.70637000  0.03378000  1.0
  H  H32  1  0.76639000  0.22384000  0.87322000  1.0
  H  H33  1  0.23358000  0.77617000  0.12679000  1.0
  H  H34  1  0.26554000  0.92522000  0.86977000  1.0
  H  H35  1  0.73453000  0.07477000  0.13023000  1.0
  H  H36  1  0.39971000  0.92684000  0.93993000  1.0
  H  H37  1  0.60029000  0.07315000  0.06013000  1.0
  H  H38  1  0.99133000  0.36441000  0.05641000  1.0
  H  H39  1  0.00867000  0.63560000  0.94358000  1.0
  H  H40  1  0.90904000  0.20162000  0.13207000  1.0
  H  H41  1  0.09099000  0.79838000  0.86792000  1.0
  H  H42  1  0.80803000  0.34428000  0.08979000  1.0
  H  H43  1  0.19198000  0.65570000  0.91022000  1.0
  H  H44  1  0.75961000  0.95004000  0.47036000  1.0
  H  H45  1  0.24039000  0.04995000  0.52964000  1.0
  H  H46  1  0.97626000  0.86417000  0.70543000  1.0
  H  H47  1  0.02375000  0.13585000  0.29455000  1.0
  H  H48  1  0.74285000  0.95157000  0.69504000  1.0
  H  H49  1  0.25715000  0.04842000  0.30496000  1.0
  H  H50  1  0.56339000  0.79954000  0.61424000  1.0
  H  H51  1  0.43661000  0.20044000  0.38576000  1.0
  H  H52  1  0.51192000  0.93704000  0.64743000  1.0
  H  H53  1  0.48808000  0.06296000  0.35255000  1.0
  H  H54  1  0.41609000  0.72509000  0.80882000  1.0
  H  H55  1  0.58390000  0.27492000  0.19117000  1.0
  H  H56  1  0.53336000  0.81018000  0.84597000  1.0
  H  H57  1  0.46664000  0.18984000  0.15401000  1.0
  H  H58  1  0.58021000  0.56851000  0.91299000  1.0
  H  H59  1  0.41978000  0.43151000  0.08701000  1.0
  H  H60  1  0.60133000  0.57867000  0.77440000  1.0
  H  H61  1  0.39866000  0.42133000  0.22561000  1.0
  H  H62  1  0.83094000  0.59275000  0.81872000  1.0
  H  H63  1  0.16905000  0.40726000  0.18128000  1.0
  H  H64  1  0.78443000  0.73106000  0.85176000  1.0
  H  H65  1  0.21556000  0.26897000  0.14823000  1.0
  H  H66  1  0.81105000  0.72445000  0.61959000  1.0
  H  H67  1  0.18895000  0.27553000  0.38042000  1.0
  H  H68  1  0.05659000  0.65024000  0.75151000  1.0
  H  H69  1  0.94341000  0.34975000  0.24850000  1.0
  H  H70  1  0.22352000  0.84281000  0.68065000  1.0
  H  H71  1  0.77648000  0.15718000  0.31936000  1.0
  H  H72  1  0.28816000  0.70558000  0.65353000  1.0
  H  H73  1  0.71183000  0.29441000  0.34648000  1.0
  H  H74  1  0.61191000  0.11573000  0.50957000  1.0
  H  H75  1  0.38809000  0.88426000  0.49044000  1.0
  H  H76  1  0.75452000  0.16493000  0.55089000  1.0
  H  H77  1  0.24548000  0.83507000  0.44911000  1.0
  H  H78  1  0.96111000  0.56689000  0.63509000  1.0
  H  H79  1  0.03889000  0.43311000  0.36491000  1.0
  H  H80  1  0.14247000  0.57233000  0.59620000  1.0
  H  H81  1  0.85753000  0.42766000  0.40380000  1.0
  H  H82  1  0.04892000  0.69776000  0.50863000  1.0
  H  H83  1  0.95108000  0.30224000  0.49137000  1.0
  C  C84  1  0.26242000  0.15670000  0.90088000  1.0
  C  C85  1  0.73757000  0.84331000  0.09911000  1.0
  C  C86  1  0.40901000  0.19811000  0.90158000  1.0
  C  C87  1  0.59098000  0.80188000  0.09844000  1.0
  C  C88  1  0.45166000  0.34069000  0.81610000  1.0
  C  C89  1  0.54835000  0.65930000  0.18392000  1.0
  C  C90  1  0.34934000  0.43660000  0.84129000  1.0
  C  C91  1  0.65067000  0.56339000  0.15872000  1.0
  C  C92  1  0.20164000  0.39610000  0.84387000  1.0
  C  C93  1  0.79837000  0.60390000  0.15613000  1.0
  C  C94  1  0.15746000  0.25249000  0.92664000  1.0
  C  C95  1  0.84254000  0.74751000  0.07335000  1.0
  C  C96  1  0.90165000  0.28705000  0.95490000  1.0
  C  C97  1  0.09835000  0.71297000  0.04509000  1.0
  C  C98  1  0.76261000  0.22501000  0.95666000  1.0
  C  C99  1  0.23738000  0.77499000  0.04335000  1.0
  C  C100  1  0.28633000  0.91359000  0.95153000  1.0
  C  C101  1  0.71369000  0.08640000  0.04849000  1.0
  C  C102  1  0.90287000  0.29960000  0.06508000  1.0
  C  C103  1  0.09714000  0.70040000  0.93492000  1.0
  C  C104  1  0.72927000  0.89680000  0.64329000  1.0
  C  C105  1  0.27073000  0.10319000  0.35671000  1.0
  C  C106  1  0.57597000  0.85066000  0.66891000  1.0
  C  C107  1  0.42403000  0.14933000  0.33108000  1.0
  C  C108  1  0.52622000  0.75632000  0.79241000  1.0
  C  C109  1  0.47378000  0.24369000  0.20758000  1.0
  C  C110  1  0.61466000  0.63609000  0.82373000  1.0
  C  C111  1  0.38535000  0.36392000  0.17627000  1.0
  C  C112  1  0.76769000  0.67986000  0.79822000  1.0
  C  C113  1  0.23231000  0.32015000  0.20178000  1.0
  C  C114  1  0.81951000  0.77539000  0.67498000  1.0
  C  C115  1  0.18049000  0.22461000  0.32502000  1.0
  C  C116  1  0.07084000  0.71858000  0.66170000  1.0
  C  C117  1  0.92916000  0.28141000  0.33831000  1.0
  C  C118  1  0.21733000  0.78617000  0.62910000  1.0
  C  C119  1  0.78267000  0.21383000  0.37090000  1.0
  C  C120  1  0.72619000  0.12288000  0.49482000  1.0
  C  C121  1  0.27382000  0.87712000  0.50518000  1.0
  C  C122  1  0.05425000  0.63519000  0.59604000  1.0
  C  C123  1  0.94575000  0.36481000  0.40396000  1.0
  N  N124  1  0.21643000  0.01873000  0.98060000  1.0
  N  N125  1  0.78354000  0.98127000  0.01938000  1.0
  N  N126  1  0.01726000  0.21149000  0.92373000  1.0
  N  N127  1  0.98273000  0.78853000  0.07624000  1.0
  N  N128  1  0.78107000  0.98954000  0.52516000  1.0
  N  N129  1  0.21894000  0.01045000  0.47484000  1.0
  N  N130  1  0.96657000  0.82086000  0.65117000  1.0
  N  N131  1  0.03343000  0.17914000  0.34883000  1.0
  O  O132  1  0.06309000  0.26426000  0.69637000  1.0
  O  O133  1  0.93692000  0.73575000  0.30361000  1.0
  O  O134  1  0.23403000  0.08242000  0.66015000  1.0
  O  O135  1  0.76598000  0.91761000  0.33983000  1.0
  O  O136  1  0.97942000  0.09943000  0.61156000  1.0
  O  O137  1  0.02059000  0.90056000  0.38843000  1.0
  O  O138  1  0.00523000  0.00229000  0.83012000  1.0
  O  O139  1  0.99479000  0.99772000  0.16988000  1.0
