# generated using pymatgen
data_CdH23C25(NO2)3
_symmetry_space_group_name_H-M   'P 1'
_cell_length_a   9.59861000
_cell_length_b   11.75200000
_cell_length_c   12.22150000
_cell_angle_alpha   77.96270000
_cell_angle_beta   71.21480000
_cell_angle_gamma   70.88740000
_symmetry_Int_Tables_number   1
_chemical_formula_structural   CdH23C25(NO2)3
_chemical_formula_sum   'Cd2 H46 C50 N6 O12'
_cell_volume   1225.01883390
_cell_formula_units_Z   2
loop_
 _symmetry_equiv_pos_site_id
 _symmetry_equiv_pos_as_xyz
  1  'x, y, z'
loop_
 _atom_site_type_symbol
 _atom_site_label
 _atom_site_symmetry_multiplicity
 _atom_site_fract_x
 _atom_site_fract_y
 _atom_site_fract_z
 _atom_site_occupancy
  Cd  Cd0  1  0.77421000  0.27262000  0.21109000  1.0
  Cd  Cd1  1  0.22579000  0.72738000  0.78891000  1.0
  H  H2  1  0.61406000  0.91066000  0.28478000  1.0
  H  H3  1  0.38595000  0.08934000  0.71522000  1.0
  H  H4  1  0.46908000  0.00438000  0.38631000  1.0
  H  H5  1  0.53092000  0.99562000  0.61369000  1.0
  H  H6  1  0.70941000  0.94254000  0.09645000  1.0
  H  H7  1  0.29060000  0.05746000  0.90355000  1.0
  H  H8  1  0.22800000  0.06965000  0.11554000  1.0
  H  H9  1  0.77201000  0.93034000  0.88445000  1.0
  H  H10  1  0.28649000  0.26506000  0.19984000  1.0
  H  H11  1  0.71351000  0.73494000  0.80016000  1.0
  H  H12  1  0.20106000  0.22319000  0.34718000  1.0
  H  H13  1  0.79894000  0.77681000  0.65282000  1.0
  H  H14  1  0.98670000  0.30253000  0.46677000  1.0
  H  H15  1  0.01330000  0.69746000  0.53323000  1.0
  H  H16  1  0.17568000  0.60712000  0.35284000  1.0
  H  H17  1  0.82432000  0.39288000  0.64716000  1.0
  H  H18  1  0.81327000  0.18962000  0.46372000  1.0
  H  H19  1  0.18673000  0.81037000  0.53628000  1.0
  H  H20  1  0.67485000  0.19150000  0.67709000  1.0
  H  H21  1  0.32514000  0.80850000  0.32291000  1.0
  H  H22  1  0.40018000  0.31519000  0.73550000  1.0
  H  H23  1  0.59982000  0.68481000  0.26450000  1.0
  H  H24  1  0.27446000  0.43333000  0.57783000  1.0
  H  H25  1  0.72555000  0.56669000  0.42217000  1.0
  H  H26  1  0.42950000  0.42249000  0.37130000  1.0
  H  H27  1  0.57050000  0.57752000  0.62870000  1.0
  H  H28  1  0.43337000  0.41543000  0.18877000  1.0
  H  H29  1  0.56663000  0.58457000  0.81123000  1.0
  H  H30  1  0.27650000  0.61807000  0.12487000  1.0
  H  H31  1  0.72350000  0.38193000  0.87513000  1.0
  H  H32  1  0.40906000  0.78170000  0.02427000  1.0
  H  H33  1  0.59094000  0.21830000  0.97573000  1.0
  H  H34  1  0.68916000  0.73425000  0.00413000  1.0
  H  H35  1  0.31084000  0.26575000  0.99587000  1.0
  H  H36  1  0.82477000  0.52945000  0.08759000  1.0
  H  H37  1  0.17523000  0.47055000  0.91241000  1.0
  H  H38  1  0.84566000  0.08260000  0.02479000  1.0
  H  H39  1  0.15434000  0.91741000  0.97521000  1.0
  H  H40  1  0.97481000  0.04852000  0.81475000  1.0
  H  H41  1  0.02518000  0.95148000  0.18525000  1.0
  H  H42  1  0.10514000  0.19945000  0.68407000  1.0
  H  H43  1  0.89486000  0.80055000  0.31593000  1.0
  H  H44  1  0.10310000  0.37930000  0.77017000  1.0
  H  H45  1  0.89689000  0.62070000  0.22983000  1.0
  H  H46  1  0.98559000  0.38985000  0.98245000  1.0
  H  H47  1  0.01440000  0.61016000  0.01755000  1.0
  C  C48  1  0.61668000  0.09791000  0.25483000  1.0
  C  C49  1  0.38333000  0.90208000  0.74517000  1.0
  C  C50  1  0.53052000  0.00083000  0.29349000  1.0
  C  C51  1  0.46949000  0.99917000  0.70651000  1.0
  C  C52  1  0.46320000  0.00754000  0.11977000  1.0
  C  C53  1  0.53681000  0.99246000  0.88022000  1.0
  C  C54  1  0.61693000  0.96884000  0.05489000  1.0
  C  C55  1  0.38308000  0.03115000  0.94511000  1.0
  C  C56  1  0.34691000  0.03829000  0.06409000  1.0
  C  C57  1  0.65310000  0.96170000  0.93591000  1.0
  C  C58  1  0.04029000  0.29945000  0.24289000  1.0
  C  C59  1  0.95971000  0.70055000  0.75712000  1.0
  C  C60  1  0.18568000  0.29296000  0.27322000  1.0
  C  C61  1  0.81432000  0.70704000  0.72678000  1.0
  C  C62  1  0.09303000  0.44943000  0.39698000  1.0
  C  C63  1  0.90697000  0.55057000  0.60302000  1.0
  C  C64  1  0.99394000  0.38877000  0.48042000  1.0
  C  C65  1  0.00606000  0.61123000  0.51958000  1.0
  C  C66  1  0.09801000  0.56060000  0.41760000  1.0
  C  C67  1  0.90199000  0.43940000  0.58240000  1.0
  C  C68  1  0.69452000  0.24370000  0.49393000  1.0
  C  C69  1  0.30548000  0.75630000  0.50607000  1.0
  C  C70  1  0.61715000  0.24515000  0.61184000  1.0
  C  C71  1  0.38285000  0.75485000  0.38816000  1.0
  C  C72  1  0.46383000  0.31330000  0.64395000  1.0
  C  C73  1  0.53617000  0.68670000  0.35605000  1.0
  C  C74  1  0.39369000  0.37827000  0.55729000  1.0
  C  C75  1  0.60632000  0.62174000  0.44271000  1.0
  C  C76  1  0.48018000  0.37288000  0.44147000  1.0
  C  C77  1  0.51983000  0.62713000  0.55853000  1.0
  C  C78  1  0.48474000  0.48956000  0.15032000  1.0
  C  C79  1  0.51526000  0.51044000  0.84968000  1.0
  C  C80  1  0.39828000  0.60302000  0.11284000  1.0
  C  C81  1  0.60171000  0.39698000  0.88715000  1.0
  C  C82  1  0.47116000  0.69308000  0.05826000  1.0
  C  C83  1  0.52884000  0.30691000  0.94174000  1.0
  C  C84  1  0.62785000  0.66656000  0.04571000  1.0
  C  C85  1  0.37214000  0.33344000  0.95429000  1.0
  C  C86  1  0.70460000  0.55268000  0.08976000  1.0
  C  C87  1  0.29540000  0.44732000  0.91024000  1.0
  C  C88  1  0.90743000  0.14408000  0.96520000  1.0
  C  C89  1  0.09257000  0.85593000  0.03480000  1.0
  C  C90  1  0.97679000  0.12664000  0.84840000  1.0
  C  C91  1  0.02320000  0.87336000  0.15160000  1.0
  C  C92  1  0.05081000  0.21050000  0.77590000  1.0
  C  C93  1  0.94918000  0.78950000  0.22410000  1.0
  C  C94  1  0.05316000  0.30807000  0.82304000  1.0
  C  C95  1  0.94684000  0.69194000  0.17696000  1.0
  C  C96  1  0.98454000  0.31637000  0.94146000  1.0
  C  C97  1  0.01545000  0.68363000  0.05854000  1.0
  N  N98  1  0.62772000  0.30708000  0.40993000  1.0
  N  N99  1  0.37229000  0.69292000  0.59007000  1.0
  N  N100  1  0.63506000  0.46502000  0.14052000  1.0
  N  N101  1  0.36494000  0.53498000  0.85948000  1.0
  N  N102  1  0.91216000  0.23640000  0.01173000  1.0
  N  N103  1  0.08783000  0.76360000  0.98827000  1.0
  O  O104  1  0.74091000  0.07062000  0.28342000  1.0
  O  O105  1  0.25910000  0.92938000  0.71658000  1.0
  O  O106  1  0.56106000  0.19825000  0.20034000  1.0
  O  O107  1  0.43894000  0.80174000  0.79967000  1.0
  O  O108  1  0.41554000  0.01726000  0.23695000  1.0
  O  O109  1  0.58447000  0.98274000  0.76305000  1.0
  O  O110  1  0.00429000  0.19986000  0.26377000  1.0
  O  O111  1  0.99571000  0.80014000  0.73623000  1.0
  O  O112  1  0.96576000  0.39847000  0.19878000  1.0
  O  O113  1  0.03423000  0.60153000  0.80123000  1.0
  O  O114  1  0.18936000  0.40662000  0.29486000  1.0
  O  O115  1  0.81064000  0.59337000  0.70514000  1.0
