# generated using pymatgen
data_CdH8C8BrN5
_symmetry_space_group_name_H-M   'P 1'
_cell_length_a   7.50580000
_cell_length_b   7.62593000
_cell_length_c   10.37900000
_cell_angle_alpha   79.83780000
_cell_angle_beta   73.34610000
_cell_angle_gamma   83.18390000
_symmetry_Int_Tables_number   1
_chemical_formula_structural   CdH8C8BrN5
_chemical_formula_sum   'Cd2 H16 C16 Br2 N10'
_cell_volume   558.76850437
_cell_formula_units_Z   2
loop_
 _symmetry_equiv_pos_site_id
 _symmetry_equiv_pos_as_xyz
  1  'x, y, z'
loop_
 _atom_site_type_symbol
 _atom_site_label
 _atom_site_symmetry_multiplicity
 _atom_site_fract_x
 _atom_site_fract_y
 _atom_site_fract_z
 _atom_site_occupancy
  Cd  Cd0  1  0.57440000  0.68939000  0.83393000  1.0
  Cd  Cd1  1  0.42560000  0.31061000  0.16607000  1.0
  H  H2  1  0.77240000  0.96482000  0.88309000  1.0
  H  H3  1  0.22761000  0.03519000  0.11691000  1.0
  H  H4  1  0.79030000  0.79059000  0.99833000  1.0
  H  H5  1  0.20971000  0.20941000  0.00166000  1.0
  H  H6  1  0.70789000  0.65579000  0.51188000  1.0
  H  H7  1  0.29210000  0.34421000  0.48812000  1.0
  H  H8  1  0.98568000  0.71628000  0.30852000  1.0
  H  H9  1  0.01432000  0.28372000  0.69148000  1.0
  H  H10  1  0.27068000  0.81660000  0.34529000  1.0
  H  H11  1  0.72932000  0.18339000  0.65471000  1.0
  H  H12  1  0.27134000  0.84898000  0.58221000  1.0
  H  H13  1  0.72866000  0.15102000  0.41779000  1.0
  H  H14  1  0.02781000  0.64227000  0.86088000  1.0
  H  H15  1  0.97219000  0.35772000  0.13912000  1.0
  H  H16  1  0.09238000  0.86369000  0.81480000  1.0
  H  H17  1  0.90763000  0.13630000  0.18519000  1.0
  C  C18  1  0.83676000  0.69892000  0.52095000  1.0
  C  C19  1  0.16323000  0.30108000  0.47904000  1.0
  C  C20  1  0.99016000  0.73276000  0.40957000  1.0
  C  C21  1  0.00983000  0.26724000  0.59043000  1.0
  C  C22  1  0.14897000  0.78754000  0.43089000  1.0
  C  C23  1  0.85103000  0.21246000  0.56911000  1.0
  C  C24  1  0.15009000  0.80605000  0.56171000  1.0
  C  C25  1  0.84991000  0.19395000  0.43829000  1.0
  C  C26  1  0.99102000  0.76754000  0.66887000  1.0
  C  C27  1  0.00899000  0.23246000  0.33113000  1.0
  C  C28  1  0.98622000  0.77642000  0.81432000  1.0
  C  C29  1  0.01378000  0.22358000  0.18568000  1.0
  C  C30  1  0.37314000  0.40911000  0.74284000  1.0
  C  C31  1  0.62686000  0.59088000  0.25716000  1.0
  C  C32  1  0.37967000  0.10636000  0.75723000  1.0
  C  C33  1  0.62033000  0.89363000  0.24277000  1.0
  Br  Br34  1  0.28858000  0.67355000  0.06476000  1.0
  Br  Br35  1  0.71142000  0.32646000  0.93524000  1.0
  N  N36  1  0.83847000  0.71561000  0.64723000  1.0
  N  N37  1  0.16153000  0.28439000  0.35277000  1.0
  N  N38  1  0.79887000  0.82868000  0.89709000  1.0
  N  N39  1  0.20113000  0.17132000  0.10290000  1.0
  N  N40  1  0.42992000  0.55280000  0.70996000  1.0
  N  N41  1  0.57010000  0.44721000  0.29004000  1.0
  N  N42  1  0.29485000  0.25929000  0.78468000  1.0
  N  N43  1  0.70514000  0.74073000  0.21532000  1.0
  N  N44  1  0.44168000  0.96072000  0.73845000  1.0
  N  N45  1  0.55831000  0.03930000  0.26156000  1.0
