# generated using pymatgen
data_ZnH11C13N2O5
_symmetry_space_group_name_H-M   'P 1'
_cell_length_a   7.65296000
_cell_length_b   11.93900000
_cell_length_c   16.16040000
_cell_angle_alpha   71.47400000
_cell_angle_beta   89.99940000
_cell_angle_gamma   89.99980000
_symmetry_Int_Tables_number   1
_chemical_formula_structural   ZnH11C13N2O5
_chemical_formula_sum   'Zn4 H44 C52 N8 O20'
_cell_volume   1400.03887502
_cell_formula_units_Z   4
loop_
 _symmetry_equiv_pos_site_id
 _symmetry_equiv_pos_as_xyz
  1  'x, y, z'
loop_
 _atom_site_type_symbol
 _atom_site_label
 _atom_site_symmetry_multiplicity
 _atom_site_fract_x
 _atom_site_fract_y
 _atom_site_fract_z
 _atom_site_occupancy
  Zn  Zn0  1  0.01317000  0.82608000  0.31412000  1.0
  Zn  Zn1  1  0.51317000  0.17392000  0.18588000  1.0
  Zn  Zn2  1  0.98684000  0.17392000  0.68588000  1.0
  Zn  Zn3  1  0.48683000  0.82608000  0.81412000  1.0
  H  H4  1  0.78278000  0.57016000  0.21215000  1.0
  H  H5  1  0.28278000  0.42984000  0.28785000  1.0
  H  H6  1  0.21721000  0.42984000  0.78785000  1.0
  H  H7  1  0.71722000  0.57015000  0.71215000  1.0
  H  H8  1  0.90880000  0.66432000  0.22604000  1.0
  H  H9  1  0.40881000  0.33568000  0.27396000  1.0
  H  H10  1  0.09118000  0.33568000  0.77397000  1.0
  H  H11  1  0.59119000  0.66431000  0.72604000  1.0
  H  H12  1  0.47868000  0.01531000  0.85734000  1.0
  H  H13  1  0.97869000  0.98470000  0.64266000  1.0
  H  H14  1  0.52132000  0.98469000  0.14266000  1.0
  H  H15  1  0.02131000  0.01531000  0.35734000  1.0
  H  H16  1  0.32925000  0.03152000  0.77924000  1.0
  H  H17  1  0.82925000  0.96849000  0.72076000  1.0
  H  H18  1  0.67076000  0.96848000  0.22076000  1.0
  H  H19  1  0.17076000  0.03151000  0.27924000  1.0
  H  H20  1  0.02867000  0.65179000  0.49690000  1.0
  H  H21  1  0.52867000  0.34820000  0.00310000  1.0
  H  H22  1  0.97133000  0.34821000  0.50310000  1.0
  H  H23  1  0.47133000  0.65179000  0.99690000  1.0
  H  H24  1  0.32113000  0.71493000  0.27125000  1.0
  H  H25  1  0.82113000  0.28507000  0.22875000  1.0
  H  H26  1  0.67886000  0.28508000  0.72876000  1.0
  H  H27  1  0.17886000  0.71493000  0.77125000  1.0
  H  H28  1  0.25027000  0.51356000  0.58546000  1.0
  H  H29  1  0.75028000  0.48643000  0.91455000  1.0
  H  H30  1  0.74973000  0.48645000  0.41455000  1.0
  H  H31  1  0.24973000  0.51356000  0.08545000  1.0
  H  H32  1  0.86646000  0.81119000  0.06681000  1.0
  H  H33  1  0.36647000  0.18881000  0.43319000  1.0
  H  H34  1  0.13354000  0.18881000  0.93319000  1.0
  H  H35  1  0.63353000  0.81119000  0.56681000  1.0
  H  H36  1  0.39623000  0.93414000  0.01228000  1.0
  H  H37  1  0.89624000  0.06585000  0.48772000  1.0
  H  H38  1  0.60377000  0.06585000  0.98772000  1.0
  H  H39  1  0.10377000  0.93415000  0.51228000  1.0
  H  H40  1  0.06052000  0.91637000  0.80351000  1.0
  H  H41  1  0.56053000  0.08364000  0.69649000  1.0
  H  H42  1  0.93948000  0.08364000  0.19649000  1.0
  H  H43  1  0.43948000  0.91637000  0.30351000  1.0
  H  H44  1  0.55906000  0.58479000  0.34794000  1.0
  H  H45  1  0.05906000  0.41521000  0.15206000  1.0
  H  H46  1  0.44094000  0.41522000  0.65206000  1.0
  H  H47  1  0.94094000  0.58479000  0.84794000  1.0
  C  C48  1  0.14704000  0.63092000  0.46731000  1.0
  C  C49  1  0.64705000  0.36907000  0.03270000  1.0
  C  C50  1  0.85295000  0.36909000  0.53270000  1.0
  C  C51  1  0.35295000  0.63092000  0.96730000  1.0
  C  C52  1  0.30972000  0.66608000  0.34048000  1.0
  C  C53  1  0.80973000  0.33392000  0.15952000  1.0
  C  C54  1  0.69028000  0.33392000  0.65953000  1.0
  C  C55  1  0.19027000  0.66608000  0.84048000  1.0
  C  C56  1  0.27398000  0.55535000  0.51590000  1.0
  C  C57  1  0.77398000  0.44465000  0.98410000  1.0
  C  C58  1  0.72602000  0.44466000  0.48411000  1.0
  C  C59  1  0.22602000  0.55534000  0.01590000  1.0
  C  C60  1  0.76909000  0.83469000  0.90310000  1.0
  C  C61  1  0.26908000  0.16531000  0.59690000  1.0
  C  C62  1  0.23092000  0.16530000  0.09690000  1.0
  C  C63  1  0.73092000  0.83469000  0.40310000  1.0
  C  C64  1  0.97296000  0.84323000  0.02086000  1.0
  C  C65  1  0.47296000  0.15676000  0.47914000  1.0
  C  C66  1  0.02704000  0.15677000  0.97914000  1.0
  C  C67  1  0.52704000  0.84323000  0.52086000  1.0
  C  C68  1  0.13477000  0.87046000  0.04933000  1.0
  C  C69  1  0.63478000  0.12954000  0.45067000  1.0
  C  C70  1  0.86523000  0.12954000  0.95067000  1.0
  C  C71  1  0.36522000  0.87046000  0.54933000  1.0
  C  C72  1  0.26963000  0.91526000  0.98905000  1.0
  C  C73  1  0.76964000  0.08474000  0.51095000  1.0
  C  C74  1  0.73037000  0.08474000  0.01096000  1.0
  C  C75  1  0.23037000  0.91526000  0.48905000  1.0
  C  C76  1  0.07896000  0.90591000  0.87233000  1.0
  C  C77  1  0.57896000  0.09409000  0.62767000  1.0
  C  C78  1  0.92105000  0.09409000  0.12767000  1.0
  C  C79  1  0.42105000  0.90591000  0.37233000  1.0
  C  C80  1  0.16145000  0.85803000  0.14361000  1.0
  C  C81  1  0.66145000  0.14197000  0.35639000  1.0
  C  C82  1  0.83855000  0.14197000  0.85639000  1.0
  C  C83  1  0.33854000  0.85803000  0.64361000  1.0
  C  C84  1  0.24106000  0.93405000  0.90043000  1.0
  C  C85  1  0.74106000  0.06595000  0.59957000  1.0
  C  C86  1  0.75895000  0.06596000  0.09957000  1.0
  C  C87  1  0.25894000  0.93405000  0.40043000  1.0
  C  C88  1  0.94492000  0.86082000  0.93215000  1.0
  C  C89  1  0.44492000  0.13918000  0.56785000  1.0
  C  C90  1  0.05508000  0.13918000  0.06785000  1.0
  C  C91  1  0.55508000  0.86082000  0.43215000  1.0
  C  C92  1  0.44312000  0.59303000  0.38467000  1.0
  C  C93  1  0.94313000  0.40697000  0.11533000  1.0
  C  C94  1  0.55687000  0.40698000  0.61533000  1.0
  C  C95  1  0.05687000  0.59303000  0.88467000  1.0
  C  C96  1  0.42856000  0.53698000  0.47501000  1.0
  C  C97  1  0.92856000  0.46302000  0.02500000  1.0
  C  C98  1  0.57145000  0.46303000  0.52500000  1.0
  C  C99  1  0.07145000  0.53697000  0.97500000  1.0
  N  N100  1  0.37726000  0.97348000  0.83703000  1.0
  N  N101  1  0.87727000  0.02652000  0.66296000  1.0
  N  N102  1  0.62274000  0.02652000  0.16297000  1.0
  N  N103  1  0.12274000  0.97348000  0.33704000  1.0
  N  N104  1  0.16482000  0.68643000  0.38098000  1.0
  N  N105  1  0.66483000  0.31357000  0.11902000  1.0
  N  N106  1  0.83518000  0.31357000  0.61902000  1.0
  N  N107  1  0.33517000  0.68643000  0.88097000  1.0
  O  O108  1  0.30012000  0.89262000  0.16895000  1.0
  O  O109  1  0.80012000  0.10737000  0.33105000  1.0
  O  O110  1  0.69988000  0.10738000  0.83105000  1.0
  O  O111  1  0.19988000  0.89262000  0.66895000  1.0
  O  O112  1  0.85365000  0.58769000  0.25644000  1.0
  O  O113  1  0.35365000  0.41231000  0.24356000  1.0
  O  O114  1  0.14633000  0.41231000  0.74356000  1.0
  O  O115  1  0.64635000  0.58769000  0.75644000  1.0
  O  O116  1  0.03110000  0.81140000  0.19509000  1.0
  O  O117  1  0.53111000  0.18860000  0.30490000  1.0
  O  O118  1  0.96889000  0.18860000  0.80490000  1.0
  O  O119  1  0.46889000  0.81140000  0.69510000  1.0
  O  O120  1  0.64721000  0.80159000  0.95742000  1.0
  O  O121  1  0.14722000  0.19841000  0.54258000  1.0
  O  O122  1  0.35279000  0.19840000  0.04257000  1.0
  O  O123  1  0.85278000  0.80159000  0.45743000  1.0
  O  O124  1  0.74645000  0.84854000  0.82038000  1.0
  O  O125  1  0.24645000  0.15146000  0.67962000  1.0
  O  O126  1  0.25356000  0.15146000  0.17962000  1.0
  O  O127  1  0.75355000  0.84854000  0.32038000  1.0
