# generated using pymatgen
data_CaH8(C2O)4
_symmetry_space_group_name_H-M   'P 1'
_cell_length_a   6.78529000
_cell_length_b   9.61078000
_cell_length_c   12.64920000
_cell_angle_alpha   75.75400000
_cell_angle_beta   89.99990000
_cell_angle_gamma   89.99990000
_symmetry_Int_Tables_number   1
_chemical_formula_structural   CaH8(C2O)4
_chemical_formula_sum   'Ca4 H32 C32 O16'
_cell_volume   799.51214271
_cell_formula_units_Z   4
loop_
 _symmetry_equiv_pos_site_id
 _symmetry_equiv_pos_as_xyz
  1  'x, y, z'
loop_
 _atom_site_type_symbol
 _atom_site_label
 _atom_site_symmetry_multiplicity
 _atom_site_fract_x
 _atom_site_fract_y
 _atom_site_fract_z
 _atom_site_occupancy
  Ca  Ca0  1  0.98459000  0.30988000  0.48803000  1.0
  Ca  Ca1  1  0.48459000  0.19012000  0.51197000  1.0
  Ca  Ca2  1  0.01541000  0.69012000  0.51197000  1.0
  Ca  Ca3  1  0.51541000  0.80988000  0.48803000  1.0
  H  H4  1  0.14238000  0.03455000  0.21463000  1.0
  H  H5  1  0.64238000  0.46545000  0.78537000  1.0
  H  H6  1  0.85762000  0.96545000  0.78537000  1.0
  H  H7  1  0.35762000  0.53455000  0.21463000  1.0
  H  H8  1  0.10663000  0.32113000  0.27727000  1.0
  H  H9  1  0.60663000  0.17887000  0.72273000  1.0
  H  H10  1  0.89337000  0.67887000  0.72274000  1.0
  H  H11  1  0.39337000  0.82113000  0.27727000  1.0
  H  H12  1  0.28993000  0.26324000  0.20221000  1.0
  H  H13  1  0.78994000  0.23676000  0.79779000  1.0
  H  H14  1  0.71006000  0.73676000  0.79779000  1.0
  H  H15  1  0.21006000  0.76324000  0.20221000  1.0
  H  H16  1  0.07565000  0.42734000  0.06757000  1.0
  H  H17  1  0.57565000  0.07266000  0.93243000  1.0
  H  H18  1  0.92435000  0.57266000  0.93243000  1.0
  H  H19  1  0.42435000  0.92734000  0.06757000  1.0
  H  H20  1  0.78609000  0.32105000  0.00579000  1.0
  H  H21  1  0.28609000  0.17894000  0.99421000  1.0
  H  H22  1  0.21392000  0.67894000  0.99421000  1.0
  H  H23  1  0.71391000  0.82106000  0.00579000  1.0
  H  H24  1  0.80462000  0.04355000  0.09589000  1.0
  H  H25  1  0.30462000  0.45645000  0.90411000  1.0
  H  H26  1  0.19538000  0.95645000  0.90411000  1.0
  H  H27  1  0.69538000  0.54355000  0.09589000  1.0
  H  H28  1  0.61099000  0.13244000  0.14171000  1.0
  H  H29  1  0.11099000  0.36756000  0.85829000  1.0
  H  H30  1  0.38901000  0.86756000  0.85829000  1.0
  H  H31  1  0.88901000  0.63244000  0.14171000  1.0
  H  H32  1  0.82848000  0.95252000  0.28127000  1.0
  H  H33  1  0.32848000  0.54748000  0.71873000  1.0
  H  H34  1  0.17152000  0.04748000  0.71874000  1.0
  H  H35  1  0.67152000  0.45252000  0.28127000  1.0
  C  C36  1  0.14903000  0.03786000  0.38041000  1.0
  C  C37  1  0.64903000  0.46214000  0.61959000  1.0
  C  C38  1  0.85097000  0.96214000  0.61959000  1.0
  C  C39  1  0.35097000  0.53786000  0.38041000  1.0
  C  C40  1  0.07278000  0.09972000  0.26480000  1.0
  C  C41  1  0.57278000  0.40028000  0.73520000  1.0
  C  C42  1  0.92722000  0.90028000  0.73520000  1.0
  C  C43  1  0.42722000  0.59972000  0.26480000  1.0
  C  C44  1  0.12971000  0.25681000  0.21755000  1.0
  C  C45  1  0.62971000  0.24319000  0.78245000  1.0
  C  C46  1  0.87029000  0.74319000  0.78245000  1.0
  C  C47  1  0.37029000  0.75681000  0.21755000  1.0
  C  C48  1  0.02015000  0.32420000  0.11528000  1.0
  C  C49  1  0.52014000  0.17581000  0.88472000  1.0
  C  C50  1  0.97985000  0.67581000  0.88472000  1.0
  C  C51  1  0.47985000  0.82419000  0.11527000  1.0
  C  C52  1  0.85981000  0.26640000  0.08153000  1.0
  C  C53  1  0.35981000  0.23360000  0.91846000  1.0
  C  C54  1  0.14019000  0.73360000  0.91847000  1.0
  C  C55  1  0.64019000  0.76640000  0.08154000  1.0
  C  C56  1  0.77307000  0.12555000  0.14118000  1.0
  C  C57  1  0.27307000  0.37445000  0.85882000  1.0
  C  C58  1  0.22693000  0.87445000  0.85882000  1.0
  C  C59  1  0.72693000  0.62556000  0.14118000  1.0
  C  C60  1  0.84941000  0.06927000  0.25902000  1.0
  C  C61  1  0.34941000  0.43073000  0.74098000  1.0
  C  C62  1  0.15059000  0.93073000  0.74098000  1.0
  C  C63  1  0.65059000  0.56927000  0.25902000  1.0
  C  C64  1  0.72125000  0.12429000  0.33867000  1.0
  C  C65  1  0.22125000  0.37571000  0.66133000  1.0
  C  C66  1  0.27875000  0.87571000  0.66133000  1.0
  C  C67  1  0.77875000  0.62429000  0.33867000  1.0
  O  O68  1  0.17032000  0.12077000  0.44425000  1.0
  O  O69  1  0.67032000  0.37923000  0.55575000  1.0
  O  O70  1  0.82968000  0.87923000  0.55575000  1.0
  O  O71  1  0.32968000  0.62077000  0.44425000  1.0
  O  O72  1  0.18776000  0.90413000  0.40761000  1.0
  O  O73  1  0.68776000  0.59587000  0.59239000  1.0
  O  O74  1  0.81224000  0.09587000  0.59238000  1.0
  O  O75  1  0.31224000  0.40413000  0.40762000  1.0
  O  O76  1  0.75987000  0.24133000  0.36483000  1.0
  O  O77  1  0.25987000  0.25866000  0.63517000  1.0
  O  O78  1  0.24013000  0.75867000  0.63517000  1.0
  O  O79  1  0.74013000  0.74133000  0.36483000  1.0
  O  O80  1  0.56986000  0.04980000  0.37790000  1.0
  O  O81  1  0.06986000  0.45020000  0.62210000  1.0
  O  O82  1  0.43014000  0.95021000  0.62210000  1.0
  O  O83  1  0.93014000  0.54979000  0.37790000  1.0
