# generated using pymatgen
data_BiH13C19N6O5
_symmetry_space_group_name_H-M   'P 1'
_cell_length_a   9.89703000
_cell_length_b   10.14420000
_cell_length_c   10.65940000
_cell_angle_alpha   105.43700000
_cell_angle_beta   95.53570000
_cell_angle_gamma   106.17500000
_symmetry_Int_Tables_number   1
_chemical_formula_structural   BiH13C19N6O5
_chemical_formula_sum   'Bi2 H26 C38 N12 O10'
_cell_volume   973.76365388
_cell_formula_units_Z   2
loop_
 _symmetry_equiv_pos_site_id
 _symmetry_equiv_pos_as_xyz
  1  'x, y, z'
loop_
 _atom_site_type_symbol
 _atom_site_label
 _atom_site_symmetry_multiplicity
 _atom_site_fract_x
 _atom_site_fract_y
 _atom_site_fract_z
 _atom_site_occupancy
  Bi  Bi0  1  0.07836000  0.36266000  0.08522000  1.0
  Bi  Bi1  1  0.92164000  0.63735000  0.91478000  1.0
  H  H2  1  0.87526000  0.73986000  0.57017000  1.0
  H  H3  1  0.12475000  0.26014000  0.42984000  1.0
  H  H4  1  0.66082000  0.52774000  0.54078000  1.0
  H  H5  1  0.33918000  0.47225000  0.45922000  1.0
  H  H6  1  0.35917000  0.56329000  0.95555000  1.0
  H  H7  1  0.64083000  0.43671000  0.04444000  1.0
  H  H8  1  0.23818000  0.08092000  0.63381000  1.0
  H  H9  1  0.76182000  0.91908000  0.36619000  1.0
  H  H10  1  0.82238000  0.03535000  0.00771000  1.0
  H  H11  1  0.17762000  0.96465000  0.99229000  1.0
  H  H12  1  0.47549000  0.26841000  0.64719000  1.0
  H  H13  1  0.52451000  0.73158000  0.35280000  1.0
  H  H14  1  0.10885000  0.84340000  0.50784000  1.0
  H  H15  1  0.89115000  0.15660000  0.49217000  1.0
  H  H16  1  0.11126000  0.12775000  0.22725000  1.0
  H  H17  1  0.88874000  0.87226000  0.77275000  1.0
  H  H18  1  0.25889000  0.22597000  0.18817000  1.0
  H  H19  1  0.74111000  0.77404000  0.81183000  1.0
  H  H20  1  0.19322000  0.68399000  0.32909000  1.0
  H  H21  1  0.80678000  0.31601000  0.67091000  1.0
  H  H22  1  0.51661000  0.27359000  0.41626000  1.0
  H  H23  1  0.48339000  0.72641000  0.58374000  1.0
  H  H24  1  0.48799000  0.04361000  0.23858000  1.0
  H  H25  1  0.51201000  0.95640000  0.76141000  1.0
  H  H26  1  0.58635000  0.90798000  0.05837000  1.0
  H  H27  1  0.41364000  0.09202000  0.94162000  1.0
  C  C28  1  0.91334000  0.67548000  0.49113000  1.0
  C  C29  1  0.08665000  0.32451000  0.50887000  1.0
  C  C30  1  0.69663000  0.46448000  0.45881000  1.0
  C  C31  1  0.30337000  0.53552000  0.54120000  1.0
  C  C32  1  0.88353000  0.45023000  0.32257000  1.0
  C  C33  1  0.11647000  0.54977000  0.67743000  1.0
  C  C34  1  0.33706000  0.45685000  0.88442000  1.0
  C  C35  1  0.66294000  0.54314000  0.11558000  1.0
  C  C36  1  0.05406000  0.10743000  0.80749000  1.0
  C  C37  1  0.94594000  0.89256000  0.19252000  1.0
  C  C38  1  0.27122000  0.18862000  0.70456000  1.0
  C  C39  1  0.72877000  0.81137000  0.29544000  1.0
  C  C40  1  0.83018000  0.53087000  0.42528000  1.0
  C  C41  1  0.16982000  0.46912000  0.57472000  1.0
  C  C42  1  0.77575000  0.08983000  0.08632000  1.0
  C  C43  1  0.22425000  0.91018000  0.91368000  1.0
  C  C44  1  0.39958000  0.29260000  0.71023000  1.0
  C  C45  1  0.60042000  0.70740000  0.28977000  1.0
  C  C46  1  0.04356000  0.73226000  0.45720000  1.0
  C  C47  1  0.95645000  0.26774000  0.54281000  1.0
  C  C48  1  0.80068000  0.30256000  0.25124000  1.0
  C  C49  1  0.19932000  0.69744000  0.74876000  1.0
  C  C50  1  0.43343000  0.43049000  0.80095000  1.0
  C  C51  1  0.56656000  0.56950000  0.19905000  1.0
  C  C52  1  0.18537000  0.22144000  0.79732000  1.0
  C  C53  1  0.81463000  0.77856000  0.20268000  1.0
  C  C54  1  0.08977000  0.64441000  0.35662000  1.0
  C  C55  1  0.91023000  0.35559000  0.64339000  1.0
  C  C56  1  0.61888000  0.32453000  0.39173000  1.0
  C  C57  1  0.38112000  0.67547000  0.60827000  1.0
  C  C58  1  0.57491000  0.54457000  0.81757000  1.0
  C  C59  1  0.42509000  0.45543000  0.18243000  1.0
  C  C60  1  0.66827000  0.24040000  0.28665000  1.0
  C  C61  1  0.33173000  0.75960000  0.71335000  1.0
  C  C62  1  0.59040000  0.09555000  0.21526000  1.0
  C  C63  1  0.40960000  0.90445000  0.78473000  1.0
  C  C64  1  0.64411000  0.01987000  0.11529000  1.0
  C  C65  1  0.35589000  0.98014000  0.88471000  1.0
  N  N66  1  0.85135000  0.22643000  0.15231000  1.0
  N  N67  1  0.14865000  0.77357000  0.84768000  1.0
  N  N68  1  0.21911000  0.35324000  0.88578000  1.0
  N  N69  1  0.78088000  0.64676000  0.11421000  1.0
  N  N70  1  0.22810000  0.71714000  0.11279000  1.0
  N  N71  1  0.77191000  0.28286000  0.88722000  1.0
  N  N72  1  0.12724000  0.61297000  0.05125000  1.0
  N  N73  1  0.87277000  0.38703000  0.94875000  1.0
  N  N74  1  0.01132000  0.50854000  0.29069000  1.0
  N  N75  1  0.98867000  0.49146000  0.70932000  1.0
  N  N76  1  0.32568000  0.81633000  0.17289000  1.0
  N  N77  1  0.67432000  0.18367000  0.82711000  1.0
  O  O78  1  0.58451000  0.67584000  0.86197000  1.0
  O  O79  1  0.41549000  0.32416000  0.13803000  1.0
  O  O80  1  0.67719000  0.49435000  0.78733000  1.0
  O  O81  1  0.32281000  0.50565000  0.21265000  1.0
  O  O82  1  0.00124000  0.13512000  0.91315000  1.0
  O  O83  1  0.99876000  0.86488000  0.08686000  1.0
  O  O84  1  0.00586000  0.99079000  0.71462000  1.0
  O  O85  1  0.99413000  0.00921000  0.28538000  1.0
  O  O86  1  0.16583000  0.22274000  0.21707000  1.0
  O  O87  1  0.83417000  0.77727000  0.78295000  1.0
