# generated using pymatgen
data_CuH16C20(N3O2)2
_symmetry_space_group_name_H-M   'P 1'
_cell_length_a   7.95043000
_cell_length_b   11.40410000
_cell_length_c   11.40420000
_cell_angle_alpha   87.41540000
_cell_angle_beta   70.66370000
_cell_angle_gamma   70.66630000
_symmetry_Int_Tables_number   1
_chemical_formula_structural   CuH16C20(N3O2)2
_chemical_formula_sum   'Cu2 H32 C40 N12 O8'
_cell_volume   918.22225707
_cell_formula_units_Z   2
loop_
 _symmetry_equiv_pos_site_id
 _symmetry_equiv_pos_as_xyz
  1  'x, y, z'
loop_
 _atom_site_type_symbol
 _atom_site_label
 _atom_site_symmetry_multiplicity
 _atom_site_fract_x
 _atom_site_fract_y
 _atom_site_fract_z
 _atom_site_occupancy
  Cu  Cu0  1  0.44237000  0.88824000  0.14885000  1.0
  Cu  Cu1  1  0.94238000  0.14885000  0.88825000  1.0
  H  H2  1  0.48239000  0.34672000  0.34287000  1.0
  H  H3  1  0.98239000  0.34287000  0.34672000  1.0
  H  H4  1  0.68771000  0.26312000  0.22133000  1.0
  H  H5  1  0.18771000  0.22133000  0.26312000  1.0
  H  H6  1  0.68215000  0.24942000  0.38001000  1.0
  H  H7  1  0.18216000  0.38002000  0.24942000  1.0
  H  H8  1  0.32207000  0.31802000  0.54495000  1.0
  H  H9  1  0.82208000  0.54495000  0.31802000  1.0
  H  H10  1  0.30180000  0.36417000  0.75860000  1.0
  H  H11  1  0.80180000  0.75860000  0.36417000  1.0
  H  H12  1  0.41772000  0.18991000  0.88635000  1.0
  H  H13  1  0.91772000  0.88635000  0.18991000  1.0
  H  H14  1  0.53272000  0.97162000  0.80139000  1.0
  H  H15  1  0.03274000  0.80139000  0.97162000  1.0
  H  H16  1  0.55798000  0.92480000  0.58280000  1.0
  H  H17  1  0.05800000  0.58281000  0.92479000  1.0
  H  H18  1  0.60237000  0.38759000  0.92700000  1.0
  H  H19  1  0.10236000  0.92700000  0.38760000  1.0
  H  H20  1  0.36802000  0.44439000  0.92401000  1.0
  H  H21  1  0.86801000  0.92400000  0.44440000  1.0
  H  H22  1  0.41250000  0.43383000  0.06922000  1.0
  H  H23  1  0.91248000  0.06922000  0.43385000  1.0
  H  H24  1  0.62311000  0.43532000  0.74008000  1.0
  H  H25  1  0.12311000  0.74008000  0.43532000  1.0
  H  H26  1  0.62209000  0.40026000  0.53084000  1.0
  H  H27  1  0.12209000  0.53084000  0.40027000  1.0
  H  H28  1  0.49608000  0.58062000  0.41315000  1.0
  H  H29  1  0.99608000  0.41314000  0.58064000  1.0
  H  H30  1  0.38694000  0.79584000  0.50685000  1.0
  H  H31  1  0.88694000  0.50685000  0.79586000  1.0
  H  H32  1  0.36572000  0.83097000  0.72729000  1.0
  H  H33  1  0.86573000  0.72729000  0.83097000  1.0
  C  C34  1  0.57948000  0.08889000  0.08642000  1.0
  C  C35  1  0.07949000  0.08642000  0.08888000  1.0
  C  C36  1  0.53164000  0.08190000  0.22373000  1.0
  C  C37  1  0.03165000  0.22372000  0.08190000  1.0
  C  C38  1  0.53594000  0.14991000  0.32000000  1.0
  C  C39  1  0.03595000  0.32000000  0.14991000  1.0
  C  C40  1  0.60059000  0.25803000  0.31705000  1.0
  C  C41  1  0.10059000  0.31705000  0.25803000  1.0
  C  C42  1  0.44668000  0.11875000  0.55047000  1.0
  C  C43  1  0.94670000  0.55047000  0.11875000  1.0
  C  C44  1  0.37278000  0.24222000  0.59944000  1.0
  C  C45  1  0.87279000  0.59944000  0.24221000  1.0
  C  C46  1  0.36042000  0.26750000  0.72106000  1.0
  C  C47  1  0.86043000  0.72106000  0.26750000  1.0
  C  C48  1  0.42109000  0.17072000  0.79275000  1.0
  C  C49  1  0.92109000  0.79275000  0.17071000  1.0
  C  C50  1  0.48919000  0.04707000  0.74410000  1.0
  C  C51  1  0.98919000  0.74410000  0.04706000  1.0
  C  C52  1  0.50255000  0.02052000  0.62253000  1.0
  C  C53  1  0.00257000  0.62253000  0.02051000  1.0
  C  C54  1  0.42215000  0.64885000  0.20092000  1.0
  C  C55  1  0.92215000  0.20093000  0.64885000  1.0
  C  C56  1  0.45375000  0.66013000  0.06631000  1.0
  C  C57  1  0.95376000  0.06631000  0.66013000  1.0
  C  C58  1  0.46571000  0.58460000  0.97005000  1.0
  C  C59  1  0.96571000  0.97005000  0.58460000  1.0
  C  C60  1  0.46116000  0.45578000  0.97194000  1.0
  C  C61  1  0.96115000  0.97194000  0.45579000  1.0
  C  C62  1  0.48647000  0.63554000  0.74780000  1.0
  C  C63  1  0.98647000  0.74780000  0.63554000  1.0
  C  C64  1  0.56055000  0.51418000  0.69311000  1.0
  C  C65  1  0.06055000  0.69312000  0.51417000  1.0
  C  C66  1  0.56339000  0.49532000  0.57243000  1.0
  C  C67  1  0.06339000  0.57243000  0.49532000  1.0
  C  C68  1  0.49899000  0.59572000  0.50599000  1.0
  C  C69  1  0.99899000  0.50599000  0.59573000  1.0
  C  C70  1  0.43317000  0.71714000  0.56006000  1.0
  C  C71  1  0.93317000  0.56006000  0.71715000  1.0
  C  C72  1  0.42308000  0.73767000  0.68186000  1.0
  C  C73  1  0.92308000  0.68187000  0.73768000  1.0
  N  N74  1  0.46301000  0.98976000  0.27483000  1.0
  N  N75  1  0.96301000  0.27483000  0.98976000  1.0
  N  N76  1  0.42324000  0.99359000  0.39554000  1.0
  N  N77  1  0.92326000  0.39554000  0.99358000  1.0
  N  N78  1  0.46756000  0.09169000  0.42418000  1.0
  N  N79  1  0.96757000  0.42417000  0.09169000  1.0
  N  N80  1  0.46288000  0.77104000  0.02094000  1.0
  N  N81  1  0.96288000  0.02094000  0.77104000  1.0
  N  N82  1  0.47901000  0.77263000  0.90345000  1.0
  N  N83  1  0.97901000  0.90345000  0.77263000  1.0
  N  N84  1  0.47931000  0.65893000  0.87137000  1.0
  N  N85  1  0.97932000  0.87137000  0.65893000  1.0
  O  O86  1  0.55136000  0.00328000  0.03237000  1.0
  O  O87  1  0.05136000  0.03237000  0.00328000  1.0
  O  O88  1  0.63791000  0.17338000  0.03314000  1.0
  O  O89  1  0.13792000  0.03314000  0.17337000  1.0
  O  O90  1  0.39651000  0.75228000  0.26009000  1.0
  O  O91  1  0.89652000  0.26009000  0.75228000  1.0
  O  O92  1  0.41945000  0.54923000  0.24963000  1.0
  O  O93  1  0.91946000  0.24963000  0.54924000  1.0
