# generated using pymatgen
data_Cu3H7C9(IN)3
_symmetry_space_group_name_H-M   'P 1'
_cell_length_a   8.29025000
_cell_length_b   8.54166000
_cell_length_c   19.77640000
_cell_angle_alpha   89.99940000
_cell_angle_beta   89.99960000
_cell_angle_gamma   79.30000000
_symmetry_Int_Tables_number   1
_chemical_formula_structural   Cu3H7C9(IN)3
_chemical_formula_sum   'Cu12 H28 C36 I12 N12'
_cell_volume   1376.06693945
_cell_formula_units_Z   4
loop_
 _symmetry_equiv_pos_site_id
 _symmetry_equiv_pos_as_xyz
  1  'x, y, z'
loop_
 _atom_site_type_symbol
 _atom_site_label
 _atom_site_symmetry_multiplicity
 _atom_site_fract_x
 _atom_site_fract_y
 _atom_site_fract_z
 _atom_site_occupancy
  Cu  Cu0  1  0.07786000  0.12461000  0.53274000  1.0
  Cu  Cu1  1  0.42214000  0.87539000  0.03273000  1.0
  Cu  Cu2  1  0.92214000  0.87539000  0.46727000  1.0
  Cu  Cu3  1  0.57786000  0.12461000  0.96727000  1.0
  Cu  Cu4  1  0.22683000  0.87812000  0.37267000  1.0
  Cu  Cu5  1  0.27317000  0.12187000  0.87267000  1.0
  Cu  Cu6  1  0.77317000  0.12188000  0.62733000  1.0
  Cu  Cu7  1  0.72683000  0.87812000  0.12733000  1.0
  Cu  Cu8  1  0.90874000  0.27257000  0.71612000  1.0
  Cu  Cu9  1  0.59126000  0.72743000  0.21612000  1.0
  Cu  Cu10  1  0.09126000  0.72742000  0.28388000  1.0
  Cu  Cu11  1  0.40873000  0.27257000  0.78388000  1.0
  H  H12  1  0.75023000  0.64563000  0.34509000  1.0
  H  H13  1  0.74977000  0.35437000  0.84510000  1.0
  H  H14  1  0.24976000  0.35437000  0.65491000  1.0
  H  H15  1  0.25023000  0.64563000  0.15490000  1.0
  H  H16  1  0.70466000  0.48520000  0.44513000  1.0
  H  H17  1  0.79534000  0.51481000  0.94513000  1.0
  H  H18  1  0.29534000  0.51481000  0.55487000  1.0
  H  H19  1  0.20466000  0.48520000  0.05487000  1.0
  H  H20  1  0.38186000  0.25998000  0.32091000  1.0
  H  H21  1  0.11815000  0.74001000  0.82091000  1.0
  H  H22  1  0.61815000  0.74001000  0.67909000  1.0
  H  H23  1  0.88185000  0.25999000  0.17909000  1.0
  H  H24  1  0.44431000  0.42918000  0.22569000  1.0
  H  H25  1  0.05570000  0.57081000  0.72569000  1.0
  H  H26  1  0.55570000  0.57081000  0.77431000  1.0
  H  H27  1  0.94431000  0.42919000  0.27431000  1.0
  H  H28  1  0.74053000  0.25607000  0.49733000  1.0
  H  H29  1  0.75947000  0.74392000  0.99733000  1.0
  H  H30  1  0.25946000  0.74393000  0.50267000  1.0
  H  H31  1  0.24053000  0.25607000  0.00267000  1.0
  H  H32  1  0.40793000  0.06938000  0.61576000  1.0
  H  H33  1  0.09207000  0.93062000  0.11576000  1.0
  H  H34  1  0.59207000  0.93062000  0.38424000  1.0
  H  H35  1  0.90793000  0.06937000  0.88424000  1.0
  H  H36  1  0.24447000  0.26288000  0.42939000  1.0
  H  H37  1  0.25553000  0.73712000  0.92939000  1.0
  H  H38  1  0.75553000  0.73713000  0.57061000  1.0
  H  H39  1  0.74447000  0.26288000  0.07061000  1.0
  C  C40  1  0.66800000  0.55992000  0.34220000  1.0
  C  C41  1  0.83200000  0.44008000  0.84220000  1.0
  C  C42  1  0.33200000  0.44009000  0.65780000  1.0
  C  C43  1  0.16800000  0.55992000  0.15780000  1.0
  C  C44  1  0.64236000  0.46928000  0.39778000  1.0
  C  C45  1  0.85763000  0.53073000  0.89778000  1.0
  C  C46  1  0.35763000  0.53074000  0.60222000  1.0
  C  C47  1  0.14236000  0.46927000  0.10222000  1.0
  C  C48  1  0.53360000  0.36212000  0.39265000  1.0
  C  C49  1  0.96640000  0.63788000  0.89265000  1.0
  C  C50  1  0.46640000  0.63788000  0.60735000  1.0
  C  C51  1  0.03360000  0.36212000  0.10735000  1.0
  C  C52  1  0.46214000  0.34586000  0.32932000  1.0
  C  C53  1  0.03787000  0.65413000  0.82932000  1.0
  C  C54  1  0.53787000  0.65414000  0.67068000  1.0
  C  C55  1  0.96213000  0.34586000  0.17068000  1.0
  C  C56  1  0.49660000  0.43975000  0.27571000  1.0
  C  C57  1  0.00341000  0.56024000  0.77572000  1.0
  C  C58  1  0.50340000  0.56024000  0.72428000  1.0
  C  C59  1  0.99660000  0.43976000  0.22429000  1.0
  C  C60  1  0.49816000  0.27453000  0.45302000  1.0
  C  C61  1  0.00184000  0.72547000  0.95302000  1.0
  C  C62  1  0.50184000  0.72547000  0.54698000  1.0
  C  C63  1  0.99815000  0.27453000  0.04698000  1.0
  C  C64  1  0.61684000  0.23241000  0.50316000  1.0
  C  C65  1  0.88316000  0.76759000  0.00316000  1.0
  C  C66  1  0.38316000  0.76760000  0.49684000  1.0
  C  C67  1  0.11684000  0.23241000  0.99684000  1.0
  C  C68  1  0.43463000  0.12640000  0.56868000  1.0
  C  C69  1  0.06538000  0.87360000  0.06868000  1.0
  C  C70  1  0.56537000  0.87360000  0.43132000  1.0
  C  C71  1  0.93462000  0.12640000  0.93132000  1.0
  C  C72  1  0.34539000  0.23432000  0.46526000  1.0
  C  C73  1  0.15461000  0.76568000  0.96526000  1.0
  C  C74  1  0.65461000  0.76569000  0.53474000  1.0
  C  C75  1  0.84539000  0.23432000  0.03474000  1.0
  I  I76  1  0.98426000  0.12053000  0.40187000  1.0
  I  I77  1  0.51575000  0.87947000  0.90187000  1.0
  I  I78  1  0.01574000  0.87947000  0.59813000  1.0
  I  I79  1  0.48426000  0.12053000  0.09813000  1.0
  I  I80  1  0.91870000  0.38454000  0.59386000  1.0
  I  I81  1  0.58130000  0.61546000  0.09386000  1.0
  I  I82  1  0.08130000  0.61546000  0.40614000  1.0
  I  I83  1  0.41870000  0.38453000  0.90614000  1.0
  I  I84  1  0.29899000  0.91302000  0.24711000  1.0
  I  I85  1  0.20101000  0.08697000  0.74711000  1.0
  I  I86  1  0.70101000  0.08697000  0.75289000  1.0
  I  I87  1  0.79899000  0.91302000  0.25289000  1.0
  N  N88  1  0.59444000  0.54892000  0.28199000  1.0
  N  N89  1  0.90556000  0.45107000  0.78199000  1.0
  N  N90  1  0.40556000  0.45108000  0.71801000  1.0
  N  N91  1  0.09444000  0.54893000  0.21801000  1.0
  N  N92  1  0.58606000  0.16008000  0.56100000  1.0
  N  N93  1  0.91395000  0.83992000  0.06100000  1.0
  N  N94  1  0.41395000  0.83992000  0.43900000  1.0
  N  N95  1  0.08605000  0.16008000  0.93900000  1.0
  N  N96  1  0.31349000  0.15980000  0.52267000  1.0
  N  N97  1  0.18650000  0.84020000  0.02267000  1.0
  N  N98  1  0.68651000  0.84020000  0.47733000  1.0
  N  N99  1  0.81349000  0.15980000  0.97733000  1.0
