# generated using pymatgen
data_CuH13(C4O)5
_symmetry_space_group_name_H-M   'P 1'
_cell_length_a   12.35140000
_cell_length_b   15.89513815
_cell_length_c   30.65320000
_cell_angle_alpha   90.00015541
_cell_angle_beta   90.00020000
_cell_angle_gamma   67.16156380
_symmetry_Int_Tables_number   1
_chemical_formula_structural   CuH13(C4O)5
_chemical_formula_sum   'Cu4 H52 C80 O20'
_cell_volume   5546.25948625
_cell_formula_units_Z   4
loop_
 _symmetry_equiv_pos_site_id
 _symmetry_equiv_pos_as_xyz
  1  'x, y, z'
loop_
 _atom_site_type_symbol
 _atom_site_label
 _atom_site_symmetry_multiplicity
 _atom_site_fract_x
 _atom_site_fract_y
 _atom_site_fract_z
 _atom_site_occupancy
  Cu  Cu0  1  0.10865000  0.45613000  1.00000000  1.0
  Cu  Cu1  1  0.89137000  0.54387000  0.00000000  1.0
  Cu  Cu2  1  0.56475000  0.54390000  0.50000000  1.0
  Cu  Cu3  1  0.43525000  0.45610000  0.50000000  1.0
  H  H4  1  0.87782000  0.84824000  0.15823000  1.0
  H  H5  1  0.12217000  0.15176000  0.15823000  1.0
  H  H6  1  0.72614000  0.15188000  0.34165000  1.0
  H  H7  1  0.27385000  0.84812000  0.34166000  1.0
  H  H8  1  0.12218000  0.15175000  0.84177000  1.0
  H  H9  1  0.87783000  0.84824000  0.84177000  1.0
  H  H10  1  0.27385000  0.84812000  0.65835000  1.0
  H  H11  1  0.72614000  0.15188000  0.65835000  1.0
  H  H12  1  0.97341000  0.93812000  0.18381000  1.0
  H  H13  1  0.02659000  0.06188000  0.18381000  1.0
  H  H14  1  0.91143000  0.06202000  0.31627000  1.0
  H  H15  1  0.08856000  0.93799000  0.31627000  1.0
  H  H16  1  0.02659000  0.06188000  0.81619000  1.0
  H  H17  1  0.97341000  0.93812000  0.81619000  1.0
  H  H18  1  0.08857000  0.93798000  0.68373000  1.0
  H  H19  1  0.91143000  0.06202000  0.68373000  1.0
  H  H20  1  0.22924000  0.64956000  0.17849000  1.0
  H  H21  1  0.77076000  0.35045000  0.17849000  1.0
  H  H22  1  0.87898000  0.35067000  0.32159000  1.0
  H  H23  1  0.12101000  0.64933000  0.32158000  1.0
  H  H24  1  0.77076000  0.35045000  0.82151000  1.0
  H  H25  1  0.22924000  0.64956000  0.82151000  1.0
  H  H26  1  0.12102000  0.64932000  0.67842000  1.0
  H  H27  1  0.87898000  0.35068000  0.67841000  1.0
  H  H28  1  0.85834000  0.76191000  0.09307000  1.0
  H  H29  1  0.14166000  0.23808000  0.09306000  1.0
  H  H30  1  0.62023000  0.23810000  0.40680000  1.0
  H  H31  1  0.37975000  0.76190000  0.40681000  1.0
  H  H32  1  0.14167000  0.23807000  0.90694000  1.0
  H  H33  1  0.85834000  0.76191000  0.90693000  1.0
  H  H34  1  0.37976000  0.76190000  0.59319000  1.0
  H  H35  1  0.62023000  0.23810000  0.59320000  1.0
  H  H36  1  0.20874000  0.56426000  0.11295000  1.0
  H  H37  1  0.79127000  0.43574000  0.11295000  1.0
  H  H38  1  0.77287000  0.43593000  0.38708000  1.0
  H  H39  1  0.22712000  0.56407000  0.38708000  1.0
  H  H40  1  0.79128000  0.43574000  0.88705000  1.0
  H  H41  1  0.20873000  0.56426000  0.88705000  1.0
  H  H42  1  0.22712000  0.56407000  0.61292000  1.0
  H  H43  1  0.77287000  0.43593000  0.61291000  1.0
  H  H44  1  0.15795000  0.68361000  0.24999000  1.0
  H  H45  1  0.84205000  0.31640000  0.24999000  1.0
  H  H46  1  0.84206000  0.31640000  0.75001000  1.0
  H  H47  1  0.15795000  0.68361000  0.75001000  1.0
  H  H48  1  0.30140000  0.32123000  0.02522000  1.0
  H  H49  1  0.69860000  0.67877000  0.02522000  1.0
  H  H50  1  0.62293000  0.67881000  0.47478000  1.0
  H  H51  1  0.37706000  0.32119000  0.47478000  1.0
  H  H52  1  0.69860000  0.67877000  0.97478000  1.0
  H  H53  1  0.30140000  0.32123000  0.97478000  1.0
  H  H54  1  0.37708000  0.32118000  0.52522000  1.0
  H  H55  1  0.62293000  0.67881000  0.52522000  1.0
  C  C56  1  0.01915000  0.60376000  0.06091000  1.0
  C  C57  1  0.98087000  0.39623000  0.06091000  1.0
  C  C58  1  0.62278000  0.39625000  0.43907000  1.0
  C  C59  1  0.37720000  0.60375000  0.43908000  1.0
  C  C60  1  0.98088000  0.39622000  0.93909000  1.0
  C  C61  1  0.01915000  0.60376000  0.93909000  1.0
  C  C62  1  0.37720000  0.60375000  0.56092000  1.0
  C  C63  1  0.62278000  0.39625000  0.56093000  1.0
  C  C64  1  0.02516000  0.94952000  0.25005000  1.0
  C  C65  1  0.97483000  0.05049000  0.25005000  1.0
  C  C66  1  0.97483000  0.05049000  0.74995000  1.0
  C  C67  1  0.02516000  0.94952000  0.74995000  1.0
  C  C68  1  0.05471000  0.75483000  0.17311000  1.0
  C  C69  1  0.94529000  0.24518000  0.17311000  1.0
  C  C70  1  0.80968000  0.24534000  0.32687000  1.0
  C  C71  1  0.19031000  0.75467000  0.32687000  1.0
  C  C72  1  0.94530000  0.24517000  0.82689000  1.0
  C  C73  1  0.05471000  0.75483000  0.82689000  1.0
  C  C74  1  0.19031000  0.75467000  0.67313000  1.0
  C  C75  1  0.80968000  0.24534000  0.67313000  1.0
  C  C76  1  0.03228000  0.65761000  0.09906000  1.0
  C  C77  1  0.96772000  0.34239000  0.09906000  1.0
  C  C78  1  0.68974000  0.34251000  0.40090000  1.0
  C  C79  1  0.31025000  0.65749000  0.40090000  1.0
  C  C80  1  0.96774000  0.34238000  0.90094000  1.0
  C  C81  1  0.03228000  0.65761000  0.90094000  1.0
  C  C82  1  0.31025000  0.65749000  0.59910000  1.0
  C  C83  1  0.68975000  0.34251000  0.59910000  1.0
  C  C84  1  0.95111000  0.78640000  0.14813000  1.0
  C  C85  1  0.04890000  0.21359000  0.14814000  1.0
  C  C86  1  0.73750000  0.21376000  0.35177000  1.0
  C  C87  1  0.26249000  0.78624000  0.35177000  1.0
  C  C88  1  0.04890000  0.21359000  0.85186000  1.0
  C  C89  1  0.95111000  0.78640000  0.85187000  1.0
  C  C90  1  0.26249000  0.78624000  0.64823000  1.0
  C  C91  1  0.73751000  0.21376000  0.64823000  1.0
  C  C92  1  0.01723000  0.90089000  0.21289000  1.0
  C  C93  1  0.98276000  0.09912000  0.21289000  1.0
  C  C94  1  0.91825000  0.09918000  0.28719000  1.0
  C  C95  1  0.08173000  0.90083000  0.28719000  1.0
  C  C96  1  0.98277000  0.09912000  0.78711000  1.0
  C  C97  1  0.01723000  0.90089000  0.78711000  1.0
  C  C98  1  0.08173000  0.90083000  0.71281000  1.0
  C  C99  1  0.91826000  0.09918000  0.71281000  1.0
  C  C100  1  0.14732000  0.67410000  0.16002000  1.0
  C  C101  1  0.85268000  0.32591000  0.16002000  1.0
  C  C102  1  0.82159000  0.32606000  0.34002000  1.0
  C  C103  1  0.17840000  0.67395000  0.34002000  1.0
  C  C104  1  0.85268000  0.32591000  0.83998000  1.0
  C  C105  1  0.14731000  0.67410000  0.83998000  1.0
  C  C106  1  0.17840000  0.67394000  0.65998000  1.0
  C  C107  1  0.82160000  0.32606000  0.65998000  1.0
  C  C108  1  0.93957000  0.73814000  0.11182000  1.0
  C  C109  1  0.06043000  0.26185000  0.11182000  1.0
  C  C110  1  0.67773000  0.26193000  0.38811000  1.0
  C  C111  1  0.32226000  0.73808000  0.38811000  1.0
  C  C112  1  0.06043000  0.26185000  0.88818000  1.0
  C  C113  1  0.93957000  0.73814000  0.88818000  1.0
  C  C114  1  0.32227000  0.73807000  0.61189000  1.0
  C  C115  1  0.67773000  0.26193000  0.61189000  1.0
  C  C116  1  0.06474000  0.80516000  0.21239000  1.0
  C  C117  1  0.93526000  0.19484000  0.21240000  1.0
  C  C118  1  0.87020000  0.19491000  0.28763000  1.0
  C  C119  1  0.12979000  0.80510000  0.28763000  1.0
  C  C120  1  0.93526000  0.19484000  0.78760000  1.0
  C  C121  1  0.06473000  0.80517000  0.78761000  1.0
  C  C122  1  0.12979000  0.80510000  0.71237000  1.0
  C  C123  1  0.87021000  0.19491000  0.71237000  1.0
  C  C124  1  0.13672000  0.62641000  0.12331000  1.0
  C  C125  1  0.86328000  0.37359000  0.12330000  1.0
  C  C126  1  0.76310000  0.37373000  0.37670000  1.0
  C  C127  1  0.23690000  0.62627000  0.37670000  1.0
  C  C128  1  0.86329000  0.37359000  0.87670000  1.0
  C  C129  1  0.13672000  0.62641000  0.87669000  1.0
  C  C130  1  0.23689000  0.62627000  0.62330000  1.0
  C  C131  1  0.76310000  0.37373000  0.62330000  1.0
  C  C132  1  0.12073000  0.75808000  0.25001000  1.0
  C  C133  1  0.87926000  0.24193000  0.25001000  1.0
  C  C134  1  0.87927000  0.24193000  0.74999000  1.0
  C  C135  1  0.12074000  0.75808000  0.74999000  1.0
  O  O136  1  0.11254000  0.54050000  0.04675000  1.0
  O  O137  1  0.88749000  0.45949000  0.04675000  1.0
  O  O138  1  0.65305000  0.45945000  0.45328000  1.0
  O  O139  1  0.34694000  0.54056000  0.45328000  1.0
  O  O140  1  0.88750000  0.45948000  0.95325000  1.0
  O  O141  1  0.11253000  0.54050000  0.95325000  1.0
  O  O142  1  0.34694000  0.54056000  0.54672000  1.0
  O  O143  1  0.65305000  0.45945000  0.54672000  1.0
  O  O144  1  0.91535000  0.62416000  0.04592000  1.0
  O  O145  1  0.08467000  0.37583000  0.04592000  1.0
  O  O146  1  0.53933000  0.37588000  0.45405000  1.0
  O  O147  1  0.46066000  0.62412000  0.45405000  1.0
  O  O148  1  0.08469000  0.37582000  0.95408000  1.0
  O  O149  1  0.91534000  0.62416000  0.95408000  1.0
  O  O150  1  0.46066000  0.62412000  0.54595000  1.0
  O  O151  1  0.53933000  0.37588000  0.54596000  1.0
  O  O152  1  0.30455000  0.35756000  0.00000000  1.0
  O  O153  1  0.69546000  0.64244000  0.00000000  1.0
  O  O154  1  0.66222000  0.64238000  0.50000000  1.0
  O  O155  1  0.33778000  0.35761000  0.50000000  1.0
