# generated using pymatgen
data_DyH6C10NO8
_symmetry_space_group_name_H-M   'P 1'
_cell_length_a   8.19221000
_cell_length_b   10.97120000
_cell_length_c   13.01910000
_cell_angle_alpha   89.99970000
_cell_angle_beta   86.38500000
_cell_angle_gamma   89.99990000
_symmetry_Int_Tables_number   1
_chemical_formula_structural   DyH6C10NO8
_chemical_formula_sum   'Dy4 H24 C40 N4 O32'
_cell_volume   1167.80727299
_cell_formula_units_Z   4
loop_
 _symmetry_equiv_pos_site_id
 _symmetry_equiv_pos_as_xyz
  1  'x, y, z'
loop_
 _atom_site_type_symbol
 _atom_site_label
 _atom_site_symmetry_multiplicity
 _atom_site_fract_x
 _atom_site_fract_y
 _atom_site_fract_z
 _atom_site_occupancy
  Dy  Dy0  1  0.54628000  0.45047000  0.80754000  1.0
  Dy  Dy1  1  0.95372000  0.95047000  0.19246000  1.0
  Dy  Dy2  1  0.45371000  0.54953000  0.19246000  1.0
  Dy  Dy3  1  0.04629000  0.04953000  0.80754000  1.0
  H  H4  1  0.43769000  0.19928000  0.73330000  1.0
  H  H5  1  0.06231000  0.69928000  0.26670000  1.0
  H  H6  1  0.56231000  0.80072000  0.26670000  1.0
  H  H7  1  0.93769000  0.30073000  0.73330000  1.0
  H  H8  1  0.62659000  0.19000000  0.75671000  1.0
  H  H9  1  0.87341000  0.69000000  0.24329000  1.0
  H  H10  1  0.37341000  0.81000000  0.24329000  1.0
  H  H11  1  0.12659000  0.31000000  0.75671000  1.0
  H  H12  1  0.92748000  0.41891000  0.21581000  1.0
  H  H13  1  0.57253000  0.91892000  0.78419000  1.0
  H  H14  1  0.07253000  0.58108000  0.78419000  1.0
  H  H15  1  0.42747000  0.08109000  0.21581000  1.0
  H  H16  1  0.04224000  0.26808000  0.33696000  1.0
  H  H17  1  0.45778000  0.76807000  0.66305000  1.0
  H  H18  1  0.95777000  0.73192000  0.66305000  1.0
  H  H19  1  0.54223000  0.23193000  0.33696000  1.0
  H  H20  1  0.95329000  0.28276000  0.52792000  1.0
  H  H21  1  0.54672000  0.78276000  0.47208000  1.0
  H  H22  1  0.04671000  0.71723000  0.47208000  1.0
  H  H23  1  0.45329000  0.21724000  0.52792000  1.0
  H  H24  1  0.64269000  0.58270000  0.45085000  1.0
  H  H25  1  0.85731000  0.08270000  0.54916000  1.0
  H  H26  1  0.35732000  0.41730000  0.54916000  1.0
  H  H27  1  0.14269000  0.91730000  0.45084000  1.0
  C  C28  1  0.89273000  0.41697000  0.29759000  1.0
  C  C29  1  0.60727000  0.91698000  0.70241000  1.0
  C  C30  1  0.10727000  0.58303000  0.70241000  1.0
  C  C31  1  0.39273000  0.08303000  0.29759000  1.0
  C  C32  1  0.95499000  0.33608000  0.36700000  1.0
  C  C33  1  0.54501000  0.83609000  0.63301000  1.0
  C  C34  1  0.04501000  0.66391000  0.63301000  1.0
  C  C35  1  0.45499000  0.16391000  0.36699000  1.0
  C  C36  1  0.90510000  0.34392000  0.47124000  1.0
  C  C37  1  0.59491000  0.84392000  0.52876000  1.0
  C  C38  1  0.09491000  0.65608000  0.52876000  1.0
  C  C39  1  0.40510000  0.15608000  0.47124000  1.0
  C  C40  1  0.79103000  0.43323000  0.50339000  1.0
  C  C41  1  0.70897000  0.93322000  0.49662000  1.0
  C  C42  1  0.20898000  0.56677000  0.49662000  1.0
  C  C43  1  0.29103000  0.06677000  0.50338000  1.0
  C  C44  1  0.73177000  0.51226000  0.43133000  1.0
  C  C45  1  0.76823000  0.01226000  0.56867000  1.0
  C  C46  1  0.26823000  0.48774000  0.56867000  1.0
  C  C47  1  0.23177000  0.98774000  0.43133000  1.0
  C  C48  1  0.72323000  0.44530000  0.61266000  1.0
  C  C49  1  0.77677000  0.94530000  0.38735000  1.0
  C  C50  1  0.27677000  0.55470000  0.38735000  1.0
  C  C51  1  0.22323000  0.05471000  0.61265000  1.0
  C  C52  1  0.72900000  0.29971000  0.99098000  1.0
  C  C53  1  0.77099000  0.79971000  0.00902000  1.0
  C  C54  1  0.27099000  0.70029000  0.00902000  1.0
  C  C55  1  0.22901000  0.20029000  0.99098000  1.0
  C  C56  1  0.80261000  0.17834000  0.00410000  1.0
  C  C57  1  0.69738000  0.67834000  0.99590000  1.0
  C  C58  1  0.19738000  0.82165000  0.99589000  1.0
  C  C59  1  0.30262000  0.32165000  0.00410000  1.0
  C  C60  1  0.74572000  0.17875000  0.11381000  1.0
  C  C61  1  0.75427000  0.67875000  0.88619000  1.0
  C  C62  1  0.25428000  0.82125000  0.88619000  1.0
  C  C63  1  0.24572000  0.32125000  0.11381000  1.0
  C  C64  1  0.67173000  0.29989000  0.10145000  1.0
  C  C65  1  0.82826000  0.79989000  0.89855000  1.0
  C  C66  1  0.32826000  0.70011000  0.89855000  1.0
  C  C67  1  0.17174000  0.20011000  0.10145000  1.0
  N  N68  1  0.78203000  0.50320000  0.33055000  1.0
  N  N69  1  0.71797000  0.00321000  0.66945000  1.0
  N  N70  1  0.21797000  0.49679000  0.66945000  1.0
  N  N71  1  0.28203000  0.99680000  0.33055000  1.0
  O  O72  1  0.72313000  0.58050000  0.26338000  1.0
  O  O73  1  0.77689000  0.08051000  0.73661000  1.0
  O  O74  1  0.27687000  0.41949000  0.73663000  1.0
  O  O75  1  0.22312000  0.91950000  0.26338000  1.0
  O  O76  1  0.53136000  0.24633000  0.75695000  1.0
  O  O77  1  0.96864000  0.74633000  0.24305000  1.0
  O  O78  1  0.46864000  0.75367000  0.24305000  1.0
  O  O79  1  0.03135000  0.25367000  0.75695000  1.0
  O  O80  1  0.79193000  0.39168000  0.68465000  1.0
  O  O81  1  0.70807000  0.89168000  0.31535000  1.0
  O  O82  1  0.20808000  0.60832000  0.31536000  1.0
  O  O83  1  0.29194000  0.10833000  0.68464000  1.0
  O  O84  1  0.59230000  0.50732000  0.62938000  1.0
  O  O85  1  0.90770000  0.00733000  0.37063000  1.0
  O  O86  1  0.40769000  0.49266000  0.37063000  1.0
  O  O87  1  0.09231000  0.99268000  0.62937000  1.0
  O  O88  1  0.72310000  0.37037000  0.91526000  1.0
  O  O89  1  0.77689000  0.87037000  0.08474000  1.0
  O  O90  1  0.27689000  0.62963000  0.08473000  1.0
  O  O91  1  0.22311000  0.12964000  0.91526000  1.0
  O  O92  1  0.88144000  0.10381000  0.94737000  1.0
  O  O93  1  0.61856000  0.60381000  0.05264000  1.0
  O  O94  1  0.11857000  0.89619000  0.05264000  1.0
  O  O95  1  0.38144000  0.39618000  0.94735000  1.0
  O  O96  1  0.75613000  0.10681000  0.18848000  1.0
  O  O97  1  0.74386000  0.60682000  0.81152000  1.0
  O  O98  1  0.24388000  0.89318000  0.81152000  1.0
  O  O99  1  0.25613000  0.39318000  0.18848000  1.0
  O  O100  1  0.59464000  0.37015000  0.16398000  1.0
  O  O101  1  0.90534000  0.87015000  0.83602000  1.0
  O  O102  1  0.40535000  0.62985000  0.83602000  1.0
  O  O103  1  0.09465000  0.12985000  0.16398000  1.0
