# generated using pymatgen
data_ZnH12C20(NO2)3
_symmetry_space_group_name_H-M   'P 1'
_cell_length_a   14.81580000
_cell_length_b   15.91390000
_cell_length_c   19.17090000
_cell_angle_alpha   89.98610000
_cell_angle_beta   90.00000000
_cell_angle_gamma   89.99830000
_symmetry_Int_Tables_number   1
_chemical_formula_structural   ZnH12C20(NO2)3
_chemical_formula_sum   'Zn2 H24 C40 N6 O12'
_cell_volume   4520.06021436
_cell_formula_units_Z   2
loop_
 _symmetry_equiv_pos_site_id
 _symmetry_equiv_pos_as_xyz
  1  'x, y, z'
loop_
 _atom_site_type_symbol
 _atom_site_label
 _atom_site_symmetry_multiplicity
 _atom_site_fract_x
 _atom_site_fract_y
 _atom_site_fract_z
 _atom_site_occupancy
  Zn  Zn0  1  0.40587000  0.49715000  0.50458000  1.0
  Zn  Zn1  1  0.59413000  0.49714000  0.50458000  1.0
  H  H2  1  0.35527000  0.51550000  0.72536000  1.0
  H  H3  1  0.08442000  0.36466000  0.48849000  1.0
  H  H4  1  0.91558000  0.36466000  0.48849000  1.0
  H  H5  1  0.08442000  0.63437000  0.51731000  1.0
  H  H6  1  0.36729000  0.80844000  0.38002000  1.0
  H  H7  1  0.30576000  0.89242000  0.33820000  1.0
  H  H8  1  0.25122000  0.82607000  0.40123000  1.0
  H  H9  1  0.63260000  0.18836000  0.38137000  1.0
  H  H10  1  0.69367000  0.10536000  0.33788000  1.0
  H  H11  1  0.74865000  0.16996000  0.40189000  1.0
  H  H12  1  0.30631000  0.10537000  0.33790000  1.0
  H  H13  1  0.64461000  0.51505000  0.28321000  1.0
  H  H14  1  0.36738000  0.18837000  0.38140000  1.0
  H  H15  1  0.25133000  0.16996000  0.40191000  1.0
  H  H16  1  0.69421000  0.89240000  0.33818000  1.0
  H  H17  1  0.63270000  0.80842000  0.38002000  1.0
  H  H18  1  0.74877000  0.82606000  0.40120000  1.0
  H  H19  1  0.35538000  0.51505000  0.28320000  1.0
  H  H20  1  0.64473000  0.51551000  0.72535000  1.0
  H  H21  1  0.35470000  0.54344000  0.85414000  1.0
  H  H22  1  0.64531000  0.54300000  0.15418000  1.0
  H  H23  1  0.35470000  0.54300000  0.15417000  1.0
  H  H24  1  0.64531000  0.54344000  0.85414000  1.0
  H  H25  1  0.91558000  0.63437000  0.51731000  1.0
  C  C26  1  0.50000000  0.66047000  0.49374000  1.0
  C  C27  1  0.95316000  0.57602000  0.51090000  1.0
  C  C28  1  0.09334000  0.49950000  0.50287000  1.0
  C  C29  1  0.90666000  0.49950000  0.50287000  1.0
  C  C30  1  0.18923000  0.49907000  0.50353000  1.0
  C  C31  1  0.81077000  0.49907000  0.50352000  1.0
  C  C32  1  0.50000000  0.50265000  0.64021000  1.0
  C  C33  1  0.50000000  0.50246000  0.36797000  1.0
  C  C34  1  0.41821000  0.52155000  0.75429000  1.0
  C  C35  1  0.58183000  0.52115000  0.25407000  1.0
  C  C36  1  0.41817000  0.52115000  0.25407000  1.0
  C  C37  1  0.49999000  0.33454000  0.49330000  1.0
  C  C38  1  0.58180000  0.52155000  0.75428000  1.0
  C  C39  1  0.41793000  0.53695000  0.82564000  1.0
  C  C40  1  0.58212000  0.53656000  0.18274000  1.0
  C  C41  1  0.41789000  0.53656000  0.18274000  1.0
  C  C42  1  0.58208000  0.53695000  0.82564000  1.0
  C  C43  1  0.50001000  0.54570000  0.86189000  1.0
  C  C44  1  0.50000000  0.54536000  0.14657000  1.0
  C  C45  1  0.50000000  0.51453000  0.71788000  1.0
  C  C46  1  0.50000000  0.51421000  0.29036000  1.0
  C  C47  1  0.50000000  0.56306000  0.07157000  1.0
  C  C48  1  0.49999000  0.17272000  0.45844000  1.0
  C  C49  1  0.50001000  0.56325000  0.93689000  1.0
  C  C50  1  0.41682000  0.04167000  0.43961000  1.0
  C  C51  1  0.58316000  0.95350000  0.43999000  1.0
  C  C52  1  0.41683000  0.95350000  0.44000000  1.0
  C  C53  1  0.58317000  0.04167000  0.43960000  1.0
  C  C54  1  0.49999000  0.08598000  0.44365000  1.0
  C  C55  1  0.50000000  0.90923000  0.44433000  1.0
  C  C56  1  0.31490000  0.85664000  0.38695000  1.0
  C  C57  1  0.68485000  0.13984000  0.38728000  1.0
  C  C58  1  0.31513000  0.13985000  0.38730000  1.0
  C  C59  1  0.50000000  0.82244000  0.45916000  1.0
  C  C60  1  0.68510000  0.85663000  0.38693000  1.0
  C  C61  1  0.49999000  0.74858000  0.47611000  1.0
  C  C62  1  0.49999000  0.24651000  0.47557000  1.0
  C  C63  1  0.04683000  0.57602000  0.51090000  1.0
  C  C64  1  0.95318000  0.42301000  0.49462000  1.0
  C  C65  1  0.04682000  0.42301000  0.49462000  1.0
  N  N66  1  0.57981000  0.57539000  0.96996000  1.0
  N  N67  1  0.42021000  0.57525000  0.03857000  1.0
  N  N68  1  0.57980000  0.57525000  0.03857000  1.0
  N  N69  1  0.42020000  0.57539000  0.96996000  1.0
  N  N70  1  0.73250000  0.49816000  0.50425000  1.0
  N  N71  1  0.26750000  0.49817000  0.50426000  1.0
  O  O72  1  0.42293000  0.62564000  0.50024000  1.0
  O  O73  1  0.66449000  0.08217000  0.44291000  1.0
  O  O74  1  0.33549000  0.08217000  0.44292000  1.0
  O  O75  1  0.66440000  0.91285000  0.44349000  1.0
  O  O76  1  0.57710000  0.36927000  0.49984000  1.0
  O  O77  1  0.42288000  0.36927000  0.49984000  1.0
  O  O78  1  0.57707000  0.62563000  0.50024000  1.0
  O  O79  1  0.42336000  0.49881000  0.61017000  1.0
  O  O80  1  0.57668000  0.49870000  0.39782000  1.0
  O  O81  1  0.42330000  0.49870000  0.39782000  1.0
  O  O82  1  0.57664000  0.49880000  0.61017000  1.0
  O  O83  1  0.33560000  0.91285000  0.44351000  1.0
