# generated using pymatgen
data_CoH9C8NO7
_symmetry_space_group_name_H-M   'P 1'
_cell_length_a   8.78591000
_cell_length_b   10.16440000
_cell_length_c   11.10220000
_cell_angle_alpha   89.92720000
_cell_angle_beta   109.24200000
_cell_angle_gamma   89.90900000
_symmetry_Int_Tables_number   1
_chemical_formula_structural   CoH9C8NO7
_chemical_formula_sum   'Co4 H36 C32 N4 O28'
_cell_volume   936.07431923
_cell_formula_units_Z   4
loop_
 _symmetry_equiv_pos_site_id
 _symmetry_equiv_pos_as_xyz
  1  'x, y, z'
loop_
 _atom_site_type_symbol
 _atom_site_label
 _atom_site_symmetry_multiplicity
 _atom_site_fract_x
 _atom_site_fract_y
 _atom_site_fract_z
 _atom_site_occupancy
  Co  Co0  1  0.12027000  0.61279000  0.47324000  1.0
  Co  Co1  1  0.88146000  0.11170000  0.02672000  1.0
  Co  Co2  1  0.87934000  0.38717000  0.52675000  1.0
  Co  Co3  1  0.11821000  0.88837000  0.97334000  1.0
  H  H4  1  0.38133000  0.42437000  0.46404000  1.0
  H  H5  1  0.63047000  0.91764000  0.03433000  1.0
  H  H6  1  0.62879000  0.58404000  0.53615000  1.0
  H  H7  1  0.37640000  0.07673000  0.96589000  1.0
  H  H8  1  0.23326000  0.43171000  0.33597000  1.0
  H  H9  1  0.76914000  0.93509000  0.16530000  1.0
  H  H10  1  0.76843000  0.56501000  0.66629000  1.0
  H  H11  1  0.23185000  0.06715000  0.83620000  1.0
  H  H12  1  0.20958000  0.71983000  0.29038000  1.0
  H  H13  1  0.79052000  0.21983000  0.20904000  1.0
  H  H14  1  0.78991000  0.27972000  0.70961000  1.0
  H  H15  1  0.20906000  0.78052000  0.79096000  1.0
  H  H16  1  0.02297000  0.75465000  0.27665000  1.0
  H  H17  1  0.97709000  0.25416000  0.22280000  1.0
  H  H18  1  0.97685000  0.24586000  0.72348000  1.0
  H  H19  1  0.02286000  0.74535000  0.77732000  1.0
  H  H20  1  0.49365000  0.30934000  0.03686000  1.0
  H  H21  1  0.50675000  0.80980000  0.46252000  1.0
  H  H22  1  0.50606000  0.69038000  0.96280000  1.0
  H  H23  1  0.49288000  0.19063000  0.53717000  1.0
  H  H24  1  0.37453000  0.38605000  0.63350000  1.0
  H  H25  1  0.62463000  0.88720000  0.86502000  1.0
  H  H26  1  0.62395000  0.61314000  0.36564000  1.0
  H  H27  1  0.37414000  0.11315000  0.13441000  1.0
  H  H28  1  0.07264000  0.51852000  0.84700000  1.0
  H  H29  1  0.92646000  0.01952000  0.65137000  1.0
  H  H30  1  0.92718000  0.48130000  0.15295000  1.0
  H  H31  1  0.07330000  0.98073000  0.34876000  1.0
  H  H32  1  0.20859000  0.53372000  0.07122000  1.0
  H  H33  1  0.79032000  0.03442000  0.42707000  1.0
  H  H34  1  0.79128000  0.46582000  0.92885000  1.0
  H  H35  1  0.20994000  0.96594000  0.57322000  1.0
  H  H36  1  0.36859000  0.42282000  0.14505000  1.0
  H  H37  1  0.63099000  0.92329000  0.35380000  1.0
  H  H38  1  0.63124000  0.57665000  0.85479000  1.0
  H  H39  1  0.36891000  0.07744000  0.64616000  1.0
  C  C40  1  0.41603000  0.34904000  0.94603000  1.0
  C  C41  1  0.58426000  0.84940000  0.55323000  1.0
  C  C42  1  0.58371000  0.65080000  0.05369000  1.0
  C  C43  1  0.41545000  0.15078000  0.44657000  1.0
  C  C44  1  0.44900000  0.33729000  0.83236000  1.0
  C  C45  1  0.55140000  0.83768000  0.66699000  1.0
  C  C46  1  0.55062000  0.66252000  0.16730000  1.0
  C  C47  1  0.44820000  0.16238000  0.33275000  1.0
  C  C48  1  0.34663000  0.39503000  0.72130000  1.0
  C  C49  1  0.65327000  0.89592000  0.77754000  1.0
  C  C50  1  0.65279000  0.60453000  0.27826000  1.0
  C  C51  1  0.34620000  0.10419000  0.22219000  1.0
  C  C52  1  0.20466000  0.45981000  0.72124000  1.0
  C  C53  1  0.79498000  0.96065000  0.77741000  1.0
  C  C54  1  0.79499000  0.53994000  0.27861000  1.0
  C  C55  1  0.20465000  0.03941000  0.22258000  1.0
  C  C56  1  0.17835000  0.46850000  0.83958000  1.0
  C  C57  1  0.82110000  0.96937000  0.65899000  1.0
  C  C58  1  0.82142000  0.53131000  0.16030000  1.0
  C  C59  1  0.17865000  0.03077000  0.34104000  1.0
  C  C60  1  0.59600000  0.26012000  0.83225000  1.0
  C  C61  1  0.40514000  0.76024000  0.66778000  1.0
  C  C62  1  0.40362000  0.73970000  0.16751000  1.0
  C  C63  1  0.59437000  0.23994000  0.33197000  1.0
  C  C64  1  0.25302000  0.43320000  0.06803000  1.0
  C  C65  1  0.74649000  0.93388000  0.43077000  1.0
  C  C66  1  0.74676000  0.56633000  0.93190000  1.0
  C  C67  1  0.25339000  0.06657000  0.56930000  1.0
  C  C68  1  0.13276000  0.33689000  0.09356000  1.0
  C  C69  1  0.86747000  0.83770000  0.40584000  1.0
  C  C70  1  0.86700000  0.66266000  0.90648000  1.0
  C  C71  1  0.13213000  0.16250000  0.59427000  1.0
  N  N72  1  0.28291000  0.41618000  0.94639000  1.0
  N  N73  1  0.71679000  0.91693000  0.55250000  1.0
  N  N74  1  0.71683000  0.58351000  0.05347000  1.0
  N  N75  1  0.28295000  0.08339000  0.44747000  1.0
  O  O76  1  0.09465000  0.50854000  0.61902000  1.0
  O  O77  1  0.90476000  0.00927000  0.87938000  1.0
  O  O78  1  0.90484000  0.49125000  0.38083000  1.0
  O  O79  1  0.09474000  0.99074000  0.12062000  1.0
  O  O80  1  0.61472000  0.23698000  0.72625000  1.0
  O  O81  1  0.38574000  0.73841000  0.77373000  1.0
  O  O82  1  0.38510000  0.76281000  0.27358000  1.0
  O  O83  1  0.61401000  0.26158000  0.22607000  1.0
  O  O84  1  0.68812000  0.22558000  0.94256000  1.0
  O  O85  1  0.31442000  0.72405000  0.55773000  1.0
  O  O86  1  0.31138000  0.77419000  0.05723000  1.0
  O  O87  1  0.68480000  0.27658000  0.44199000  1.0
  O  O88  1  0.05568000  0.25780000  0.00813000  1.0
  O  O89  1  0.94536000  0.75884000  0.49164000  1.0
  O  O90  1  0.94319000  0.74245000  0.99154000  1.0
  O  O91  1  0.05327000  0.24065000  0.50813000  1.0
  O  O92  1  0.12123000  0.35058000  0.20449000  1.0
  O  O93  1  0.87886000  0.85136000  0.29484000  1.0
  O  O94  1  0.87938000  0.64828000  0.79588000  1.0
  O  O95  1  0.12138000  0.14937000  0.70552000  1.0
  O  O96  1  0.29509000  0.48197000  0.41412000  1.0
  O  O97  1  0.70524000  0.98253000  0.08544000  1.0
  O  O98  1  0.70370000  0.51841000  0.58645000  1.0
  O  O99  1  0.29387000  0.01716000  0.91487000  1.0
  O  O100  1  0.10768000  0.68458000  0.29961000  1.0
  O  O101  1  0.89251000  0.18427000  0.20014000  1.0
  O  O102  1  0.89157000  0.31550000  0.70031000  1.0
  O  O103  1  0.10689000  0.81565000  0.79983000  1.0
