# generated using pymatgen
data_AgH13C14(SN)2
_symmetry_space_group_name_H-M   'P 1'
_cell_length_a   5.79432000
_cell_length_b   15.59071028
_cell_length_c   15.85070000
_cell_angle_alpha   88.20257938
_cell_angle_beta   80.28280000
_cell_angle_gamma   79.29060023
_symmetry_Int_Tables_number   1
_chemical_formula_structural   AgH13C14(SN)2
_chemical_formula_sum   'Ag4 H52 C56 S8 N8'
_cell_volume   1386.78696296
_cell_formula_units_Z   4
loop_
 _symmetry_equiv_pos_site_id
 _symmetry_equiv_pos_as_xyz
  1  'x, y, z'
loop_
 _atom_site_type_symbol
 _atom_site_label
 _atom_site_symmetry_multiplicity
 _atom_site_fract_x
 _atom_site_fract_y
 _atom_site_fract_z
 _atom_site_occupancy
  Ag  Ag0  1  0.68620000  0.08738000  0.97013000  1.0
  Ag  Ag1  1  0.73891000  0.91122000  0.03106000  1.0
  Ag  Ag2  1  0.23485000  0.03158000  0.08561000  1.0
  Ag  Ag3  1  0.34365000  0.96702000  0.91312000  1.0
  H  H4  1  0.27645000  0.86258000  0.63091000  1.0
  H  H5  1  0.79374000  0.14046000  0.36867000  1.0
  H  H6  1  0.85270000  0.37323000  0.85837000  1.0
  H  H7  1  0.07655000  0.62888000  0.14077000  1.0
  H  H8  1  0.26612000  0.83747000  0.74137000  1.0
  H  H9  1  0.85884000  0.16428000  0.25786000  1.0
  H  H10  1  0.89224000  0.26027000  0.83576000  1.0
  H  H11  1  0.98668000  0.74222000  0.16225000  1.0
  H  H12  1  0.37322000  0.70891000  0.59224000  1.0
  H  H13  1  0.69354000  0.29382000  0.40703000  1.0
  H  H14  1  0.90607000  0.40824000  0.70683000  1.0
  H  H15  1  0.02633000  0.59198000  0.29101000  1.0
  H  H16  1  0.22302000  0.57169000  0.57496000  1.0
  H  H17  1  0.38603000  0.42989000  0.42332000  1.0
  H  H18  1  0.18915000  0.42205000  0.57209000  1.0
  H  H19  1  0.19634000  0.57706000  0.42624000  1.0
  H  H20  1  0.81558000  0.55568000  0.64790000  1.0
  H  H21  1  0.03320000  0.44390000  0.34891000  1.0
  H  H22  1  0.61467000  0.34790000  0.55915000  1.0
  H  H23  1  0.53354000  0.65173000  0.44110000  1.0
  H  H24  1  0.56691000  0.67553000  0.74076000  1.0
  H  H25  1  0.99672000  0.32308000  0.25605000  1.0
  H  H26  1  0.75080000  0.25792000  0.67996000  1.0
  H  H27  1  0.69075000  0.74342000  0.32169000  1.0
  H  H28  1  0.72092000  0.80989000  0.76054000  1.0
  H  H29  1  0.30691000  0.18971000  0.23760000  1.0
  H  H30  1  0.46634000  0.24141000  0.81200000  1.0
  H  H31  1  0.51420000  0.76103000  0.18930000  1.0
  H  H32  1  0.66912000  0.98715000  0.66607000  1.0
  H  H33  1  0.33097000  0.02093000  0.33416000  1.0
  H  H34  1  0.34056000  0.33993000  0.98101000  1.0
  H  H35  1  0.65368000  0.65786000  0.02328000  1.0
  H  H36  1  0.88386000  0.91869000  0.59285000  1.0
  H  H37  1  0.42077000  0.08634000  0.40716000  1.0
  H  H38  1  0.17373000  0.41445000  0.91767000  1.0
  H  H39  1  0.49311000  0.58488000  0.08449000  1.0
  H  H40  1  0.73540000  0.06575000  0.51006000  1.0
  H  H41  1  0.30608000  0.94048000  0.48633000  1.0
  H  H42  1  0.20002000  0.49159000  0.06579000  1.0
  H  H43  1  0.75748000  0.51083000  0.93621000  1.0
  H  H44  1  0.18233000  0.24607000  0.49703000  1.0
  H  H45  1  0.89367000  0.74915000  0.50711000  1.0
  H  H46  1  0.59088000  0.50086000  0.24718000  1.0
  H  H47  1  0.34489000  0.49670000  0.74963000  1.0
  H  H48  1  0.35201000  0.18046000  0.62442000  1.0
  H  H49  1  0.14263000  0.81225000  0.38517000  1.0
  H  H50  1  0.47952000  0.37521000  0.17901000  1.0
  H  H51  1  0.03121000  0.61899000  0.81655000  1.0
  H  H52  1  0.20606000  0.05042000  0.69565000  1.0
  H  H53  1  0.95996000  0.94662000  0.31192000  1.0
  H  H54  1  0.74186000  0.30702000  0.04716000  1.0
  H  H55  1  0.08639000  0.68820000  0.95059000  1.0
  C  C56  1  0.89021000  0.94891000  0.79641000  1.0
  C  C57  1  0.64991000  0.05067000  0.20441000  1.0
  C  C58  1  0.15369000  0.20580000  0.94851000  1.0
  C  C59  1  0.30676000  0.79374000  0.05061000  1.0
  C  C60  1  0.15868000  0.84867000  0.68980000  1.0
  C  C61  1  0.71584000  0.15311000  0.30977000  1.0
  C  C62  1  0.98645000  0.31293000  0.84661000  1.0
  C  C63  1  0.14155000  0.68870000  0.15239000  1.0
  C  C64  1  0.05802000  0.76795000  0.67757000  1.0
  C  C65  1  0.52096000  0.23317000  0.32133000  1.0
  C  C66  1  0.16676000  0.32375000  0.76788000  1.0
  C  C67  1  0.25760000  0.67760000  0.23166000  1.0
  C  C68  1  0.19775000  0.70040000  0.62527000  1.0
  C  C69  1  0.54093000  0.30126000  0.37367000  1.0
  C  C70  1  0.09121000  0.37488000  0.69990000  1.0
  C  C71  1  0.17049000  0.62560000  0.29882000  1.0
  C  C72  1  0.11135000  0.62425000  0.61494000  1.0
  C  C73  1  0.36670000  0.37684000  0.38335000  1.0
  C  C74  1  0.25121000  0.38335000  0.62512000  1.0
  C  C75  1  0.26867000  0.61652000  0.37390000  1.0
  C  C76  1  0.88358000  0.61514000  0.65575000  1.0
  C  C77  1  0.16937000  0.38487000  0.34172000  1.0
  C  C78  1  0.48940000  0.34190000  0.61771000  1.0
  C  C79  1  0.45717000  0.65827000  0.38238000  1.0
  C  C80  1  0.74352000  0.68247000  0.70783000  1.0
  C  C81  1  0.14852000  0.31701000  0.28959000  1.0
  C  C82  1  0.56604000  0.29128000  0.68551000  1.0
  C  C83  1  0.54555000  0.70983000  0.31535000  1.0
  C  C84  1  0.83069000  0.75832000  0.71884000  1.0
  C  C85  1  0.32368000  0.24172000  0.27933000  1.0
  C  C86  1  0.40531000  0.28211000  0.76003000  1.0
  C  C87  1  0.44574000  0.71963000  0.24060000  1.0
  C  C88  1  0.86160000  0.96772000  0.64343000  1.0
  C  C89  1  0.48765000  0.03637000  0.35701000  1.0
  C  C90  1  0.16136000  0.36151000  0.96486000  1.0
  C  C91  1  0.47919000  0.63747000  0.03667000  1.0
  C  C92  1  0.96108000  0.04665000  0.60704000  1.0
  C  C93  1  0.61795000  0.95496000  0.39460000  1.0
  C  C94  1  0.99085000  0.39550000  0.04494000  1.0
  C  C95  1  0.42607000  0.60325000  0.95511000  1.0
  C  C96  1  0.87430000  0.08954000  0.53660000  1.0
  C  C97  1  0.49352000  0.91362000  0.46265000  1.0
  C  C98  1  0.03941000  0.46471000  0.08923000  1.0
  C  C99  1  0.59278000  0.53580000  0.91131000  1.0
  C  C100  1  0.12106000  0.18959000  0.52956000  1.0
  C  C101  1  0.81853000  0.80756000  0.47406000  1.0
  C  C102  1  0.70274000  0.46966000  0.18987000  1.0
  C  C103  1  0.36484000  0.52824000  0.80784000  1.0
  C  C104  1  0.21717000  0.15249000  0.60022000  1.0
  C  C105  1  0.95800000  0.84318000  0.40633000  1.0
  C  C106  1  0.63952000  0.40002000  0.15136000  1.0
  C  C107  1  0.18895000  0.59607000  0.84567000  1.0
  C  C108  1  0.13568000  0.07995000  0.63970000  1.0
  C  C109  1  0.85598000  0.91806000  0.36578000  1.0
  C  C110  1  0.78600000  0.36224000  0.07778000  1.0
  C  C111  1  0.22001000  0.63431000  0.92048000  1.0
  S  S112  1  0.65762000  0.03625000  0.81660000  1.0
  S  S113  1  0.52188000  0.96338000  0.18546000  1.0
  S  S114  1  0.29979000  0.18680000  0.03537000  1.0
  S  S115  1  0.51945000  0.81091000  0.96478000  1.0
  S  S116  1  0.01643000  0.88990000  0.87536000  1.0
  S  S117  1  0.79348000  0.10831000  0.12502000  1.0
  S  S118  1  0.08352000  0.12481000  0.89244000  1.0
  S  S119  1  0.10699000  0.87626000  0.10582000  1.0
  N  N120  1  0.97278000  0.92513000  0.71348000  1.0
  N  N121  1  0.63015000  0.07583000  0.28709000  1.0
  N  N122  1  0.09542000  0.28993000  0.92293000  1.0
  N  N123  1  0.30201000  0.71005000  0.07636000  1.0
  N  N124  1  0.95041000  0.15915000  0.49792000  1.0
  N  N125  1  0.58842000  0.84181000  0.50222000  1.0
  N  N126  1  0.90094000  0.50175000  0.15977000  1.0
  N  N127  1  0.56588000  0.49833000  0.83963000  1.0
