# generated using pymatgen
data_ZnH6(C3N2)2
_symmetry_space_group_name_H-M   'P 1'
_cell_length_a   9.72655000
_cell_length_b   23.67030000
_cell_length_c   24.51340000
_cell_angle_alpha   90.00000000
_cell_angle_beta   89.99950000
_cell_angle_gamma   89.99990000
_symmetry_Int_Tables_number   1
_chemical_formula_structural   ZnH6(C3N2)2
_chemical_formula_sum   'Zn16 H96 C96 N64'
_cell_volume   5643.72881995
_cell_formula_units_Z   16
loop_
 _symmetry_equiv_pos_site_id
 _symmetry_equiv_pos_as_xyz
  1  'x, y, z'
loop_
 _atom_site_type_symbol
 _atom_site_label
 _atom_site_symmetry_multiplicity
 _atom_site_fract_x
 _atom_site_fract_y
 _atom_site_fract_z
 _atom_site_occupancy
  Zn  Zn0  1  0.01478000  0.49955000  0.82234000  1.0
  Zn  Zn1  1  0.48522000  0.99955000  0.17766000  1.0
  Zn  Zn2  1  0.98521000  0.00045000  0.32234000  1.0
  Zn  Zn3  1  0.51478000  0.50045000  0.67766000  1.0
  Zn  Zn4  1  0.98522000  0.50045000  0.17766000  1.0
  Zn  Zn5  1  0.51479000  0.00045000  0.82234000  1.0
  Zn  Zn6  1  0.01480000  0.99955000  0.67766000  1.0
  Zn  Zn7  1  0.48522000  0.49955000  0.32234000  1.0
  Zn  Zn8  1  0.00017000  0.67622000  0.99931000  1.0
  Zn  Zn9  1  0.49983000  0.17623000  0.00069000  1.0
  Zn  Zn10  1  0.99983000  0.82378000  0.49932000  1.0
  Zn  Zn11  1  0.50017000  0.32377000  0.50069000  1.0
  Zn  Zn12  1  0.99983000  0.32378000  0.00069000  1.0
  Zn  Zn13  1  0.50017000  0.82378000  0.99932000  1.0
  Zn  Zn14  1  0.00017000  0.17622000  0.50068000  1.0
  Zn  Zn15  1  0.49983000  0.67622000  0.49931000  1.0
  H  H16  1  0.95240000  0.55435000  0.94268000  1.0
  H  H17  1  0.54760000  0.05435000  0.05732000  1.0
  H  H18  1  0.04760000  0.94565000  0.44268000  1.0
  H  H19  1  0.45239000  0.44564000  0.55732000  1.0
  H  H20  1  0.04760000  0.44565000  0.05732000  1.0
  H  H21  1  0.45241000  0.94565000  0.94269000  1.0
  H  H22  1  0.95241000  0.05435000  0.55732000  1.0
  H  H23  1  0.54760000  0.55435000  0.44268000  1.0
  H  H24  1  0.30342000  0.72102000  0.96528000  1.0
  H  H25  1  0.19657000  0.22102000  0.03471000  1.0
  H  H26  1  0.69657000  0.77898000  0.46529000  1.0
  H  H27  1  0.80343000  0.27898000  0.53472000  1.0
  H  H28  1  0.69658000  0.27898000  0.03472000  1.0
  H  H29  1  0.80342000  0.77898000  0.96529000  1.0
  H  H30  1  0.30342000  0.22102000  0.53471000  1.0
  H  H31  1  0.19658000  0.72102000  0.46529000  1.0
  H  H32  1  0.98998000  0.58920000  0.72394000  1.0
  H  H33  1  0.51002000  0.08921000  0.27605000  1.0
  H  H34  1  0.01002000  0.91080000  0.22395000  1.0
  H  H35  1  0.48998000  0.41080000  0.77606000  1.0
  H  H36  1  0.01002000  0.41080000  0.27605000  1.0
  H  H37  1  0.48999000  0.91079000  0.72395000  1.0
  H  H38  1  0.98999000  0.08921000  0.77605000  1.0
  H  H39  1  0.51001000  0.58920000  0.22394000  1.0
  H  H40  1  0.98581000  0.79954000  0.05432000  1.0
  H  H41  1  0.51419000  0.29954000  0.94568000  1.0
  H  H42  1  0.01419000  0.70046000  0.55432000  1.0
  H  H43  1  0.48582000  0.20046000  0.44567000  1.0
  H  H44  1  0.01418000  0.20046000  0.94567000  1.0
  H  H45  1  0.48581000  0.70046000  0.05432000  1.0
  H  H46  1  0.98581000  0.29954000  0.44568000  1.0
  H  H47  1  0.51419000  0.79954000  0.55433000  1.0
  H  H48  1  0.70731000  0.46822000  0.78096000  1.0
  H  H49  1  0.79268000  0.96821000  0.21904000  1.0
  H  H50  1  0.29268000  0.03179000  0.28096000  1.0
  H  H51  1  0.20732000  0.53179000  0.71904000  1.0
  H  H52  1  0.29269000  0.53179000  0.21904000  1.0
  H  H53  1  0.20733000  0.03179000  0.78096000  1.0
  H  H54  1  0.70732000  0.96822000  0.71904000  1.0
  H  H55  1  0.79269000  0.46822000  0.28096000  1.0
  H  H56  1  0.21922000  0.86694000  0.05768000  1.0
  H  H57  1  0.28079000  0.36694000  0.94232000  1.0
  H  H58  1  0.78078000  0.63306000  0.55768000  1.0
  H  H59  1  0.71922000  0.13306000  0.44231000  1.0
  H  H60  1  0.78077000  0.13307000  0.94231000  1.0
  H  H61  1  0.71922000  0.63306000  0.05769000  1.0
  H  H62  1  0.21922000  0.36694000  0.44231000  1.0
  H  H63  1  0.28078000  0.86693000  0.55769000  1.0
  H  H64  1  0.07022000  0.44690000  0.94143000  1.0
  H  H65  1  0.42977000  0.94690000  0.05858000  1.0
  H  H66  1  0.92978000  0.05310000  0.44142000  1.0
  H  H67  1  0.57022000  0.55310000  0.55857000  1.0
  H  H68  1  0.92979000  0.55310000  0.05857000  1.0
  H  H69  1  0.57023000  0.05310000  0.94142000  1.0
  H  H70  1  0.07021000  0.94690000  0.55858000  1.0
  H  H71  1  0.42978000  0.44690000  0.44143000  1.0
  H  H72  1  0.75719000  0.59126000  0.65868000  1.0
  H  H73  1  0.74281000  0.09126000  0.34131000  1.0
  H  H74  1  0.24281000  0.90874000  0.15869000  1.0
  H  H75  1  0.25718000  0.40874000  0.84131000  1.0
  H  H76  1  0.24281000  0.40874000  0.34131000  1.0
  H  H77  1  0.25720000  0.90874000  0.65869000  1.0
  H  H78  1  0.75720000  0.09126000  0.84131000  1.0
  H  H79  1  0.74281000  0.59126000  0.15868000  1.0
  H  H80  1  0.16604000  0.61741000  0.80631000  1.0
  H  H81  1  0.33397000  0.11740000  0.19369000  1.0
  H  H82  1  0.83396000  0.88260000  0.30631000  1.0
  H  H83  1  0.66603000  0.38260000  0.69369000  1.0
  H  H84  1  0.83398000  0.38260000  0.19369000  1.0
  H  H85  1  0.66604000  0.88260000  0.80631000  1.0
  H  H86  1  0.16603000  0.11740000  0.69369000  1.0
  H  H87  1  0.33397000  0.61740000  0.30631000  1.0
  H  H88  1  0.81427000  0.31113000  0.89666000  1.0
  H  H89  1  0.68572000  0.81113000  0.10334000  1.0
  H  H90  1  0.18572000  0.18887000  0.39666000  1.0
  H  H91  1  0.31427000  0.68887000  0.60333000  1.0
  H  H92  1  0.18571000  0.68888000  0.10334000  1.0
  H  H93  1  0.31428000  0.18887000  0.89666000  1.0
  H  H94  1  0.81429000  0.81112000  0.60335000  1.0
  H  H95  1  0.68572000  0.31112000  0.39666000  1.0
  H  H96  1  0.14514000  0.70183000  0.88418000  1.0
  H  H97  1  0.35486000  0.20183000  0.11582000  1.0
  H  H98  1  0.85485000  0.79817000  0.38419000  1.0
  H  H99  1  0.64515000  0.29817000  0.61582000  1.0
  H  H100  1  0.85486000  0.29817000  0.11582000  1.0
  H  H101  1  0.64515000  0.79817000  0.88418000  1.0
  H  H102  1  0.14513000  0.20183000  0.61582000  1.0
  H  H103  1  0.35485000  0.70183000  0.38418000  1.0
  H  H104  1  0.81652000  0.39036000  0.81334000  1.0
  H  H105  1  0.68347000  0.89035000  0.18666000  1.0
  H  H106  1  0.18347000  0.10965000  0.31334000  1.0
  H  H107  1  0.31653000  0.60964000  0.68666000  1.0
  H  H108  1  0.18346000  0.60965000  0.18666000  1.0
  H  H109  1  0.31654000  0.10965000  0.81334000  1.0
  H  H110  1  0.81656000  0.89035000  0.68667000  1.0
  H  H111  1  0.68345000  0.39035000  0.31334000  1.0
  C  C112  1  0.00867000  0.58305000  0.91629000  1.0
  C  C113  1  0.49133000  0.08304000  0.08370000  1.0
  C  C114  1  0.99133000  0.91696000  0.41630000  1.0
  C  C115  1  0.50866000  0.41695000  0.58370000  1.0
  C  C116  1  0.99133000  0.41696000  0.08370000  1.0
  C  C117  1  0.50868000  0.91696000  0.91630000  1.0
  C  C118  1  0.00868000  0.08304000  0.58370000  1.0
  C  C119  1  0.49133000  0.58304000  0.41630000  1.0
  C  C120  1  0.24809000  0.75183000  0.98970000  1.0
  C  C121  1  0.25190000  0.25183000  0.01030000  1.0
  C  C122  1  0.75190000  0.74817000  0.48970000  1.0
  C  C123  1  0.74810000  0.24817000  0.51030000  1.0
  C  C124  1  0.75190000  0.24817000  0.01030000  1.0
  C  C125  1  0.74809000  0.74817000  0.98970000  1.0
  C  C126  1  0.24810000  0.25183000  0.51030000  1.0
  C  C127  1  0.25190000  0.75183000  0.48970000  1.0
  C  C128  1  0.89790000  0.56343000  0.72572000  1.0
  C  C129  1  0.60210000  0.06344000  0.27427000  1.0
  C  C130  1  0.10210000  0.93657000  0.22573000  1.0
  C  C131  1  0.39790000  0.43657000  0.77428000  1.0
  C  C132  1  0.10210000  0.43657000  0.27427000  1.0
  C  C133  1  0.39791000  0.93656000  0.72573000  1.0
  C  C134  1  0.89791000  0.06343000  0.77427000  1.0
  C  C135  1  0.60209000  0.56343000  0.22572000  1.0
  C  C136  1  0.08626000  0.79320000  0.03611000  1.0
  C  C137  1  0.41373000  0.29320000  0.96389000  1.0
  C  C138  1  0.91373000  0.70680000  0.53611000  1.0
  C  C139  1  0.58626000  0.20680000  0.46388000  1.0
  C  C140  1  0.91372000  0.20681000  0.96388000  1.0
  C  C141  1  0.58626000  0.70680000  0.03612000  1.0
  C  C142  1  0.08626000  0.29319000  0.46388000  1.0
  C  C143  1  0.41373000  0.79319000  0.53612000  1.0
  C  C144  1  0.75431000  0.50050000  0.75567000  1.0
  C  C145  1  0.74568000  0.00050000  0.24433000  1.0
  C  C146  1  0.24569000  0.99950000  0.25567000  1.0
  C  C147  1  0.25432000  0.49950000  0.74433000  1.0
  C  C148  1  0.24569000  0.49950000  0.24433000  1.0
  C  C149  1  0.25432000  0.99950000  0.75567000  1.0
  C  C150  1  0.75432000  0.00050000  0.74434000  1.0
  C  C151  1  0.74568000  0.50050000  0.25567000  1.0
  C  C152  1  0.20204000  0.82669000  0.03766000  1.0
  C  C153  1  0.29795000  0.32669000  0.96234000  1.0
  C  C154  1  0.79795000  0.67331000  0.53766000  1.0
  C  C155  1  0.70205000  0.17331000  0.46234000  1.0
  C  C156  1  0.79794000  0.17332000  0.96233000  1.0
  C  C157  1  0.70205000  0.67332000  0.03766000  1.0
  C  C158  1  0.20206000  0.32668000  0.46234000  1.0
  C  C159  1  0.29795000  0.82668000  0.53767000  1.0
  C  C160  1  0.99954000  0.42082000  0.91808000  1.0
  C  C161  1  0.50044000  0.92082000  0.08192000  1.0
  C  C162  1  0.00045000  0.07918000  0.41808000  1.0
  C  C163  1  0.49955000  0.57918000  0.58192000  1.0
  C  C164  1  0.00046000  0.57918000  0.08192000  1.0
  C  C165  1  0.49955000  0.07918000  0.91808000  1.0
  C  C166  1  0.99954000  0.92082000  0.58192000  1.0
  C  C167  1  0.50046000  0.42082000  0.41808000  1.0
  C  C168  1  0.78221000  0.56461000  0.69330000  1.0
  C  C169  1  0.71778000  0.06462000  0.30669000  1.0
  C  C170  1  0.21779000  0.93539000  0.19331000  1.0
  C  C171  1  0.28222000  0.43539000  0.80670000  1.0
  C  C172  1  0.21779000  0.43539000  0.30669000  1.0
  C  C173  1  0.28223000  0.93539000  0.69331000  1.0
  C  C174  1  0.78223000  0.06462000  0.80669000  1.0
  C  C175  1  0.71778000  0.56461000  0.19330000  1.0
  C  C176  1  0.11814000  0.61668000  0.84627000  1.0
  C  C177  1  0.38187000  0.11668000  0.15373000  1.0
  C  C178  1  0.88186000  0.88332000  0.34627000  1.0
  C  C179  1  0.61813000  0.38332000  0.65373000  1.0
  C  C180  1  0.88187000  0.38332000  0.15373000  1.0
  C  C181  1  0.61814000  0.88332000  0.84627000  1.0
  C  C182  1  0.11814000  0.11668000  0.65373000  1.0
  C  C183  1  0.38186000  0.61668000  0.34627000  1.0
  C  C184  1  0.86685000  0.35143000  0.89381000  1.0
  C  C185  1  0.63313000  0.85143000  0.10619000  1.0
  C  C186  1  0.13313000  0.14857000  0.39381000  1.0
  C  C187  1  0.36686000  0.64857000  0.60619000  1.0
  C  C188  1  0.13314000  0.64857000  0.10619000  1.0
  C  C189  1  0.36687000  0.14857000  0.89381000  1.0
  C  C190  1  0.86687000  0.85143000  0.60620000  1.0
  C  C191  1  0.63314000  0.35143000  0.39381000  1.0
  C  C192  1  0.10892000  0.65851000  0.88512000  1.0
  C  C193  1  0.39108000  0.15851000  0.11488000  1.0
  C  C194  1  0.89108000  0.84149000  0.38513000  1.0
  C  C195  1  0.60892000  0.34148000  0.61488000  1.0
  C  C196  1  0.89109000  0.34149000  0.11488000  1.0
  C  C197  1  0.60892000  0.84149000  0.88512000  1.0
  C  C198  1  0.10891000  0.15851000  0.61488000  1.0
  C  C199  1  0.39108000  0.65851000  0.38512000  1.0
  C  C200  1  0.86765000  0.39098000  0.85263000  1.0
  C  C201  1  0.63234000  0.89098000  0.14738000  1.0
  C  C202  1  0.13235000  0.10902000  0.35262000  1.0
  C  C203  1  0.36765000  0.60902000  0.64737000  1.0
  C  C204  1  0.13235000  0.60902000  0.14737000  1.0
  C  C205  1  0.36766000  0.10902000  0.85263000  1.0
  C  C206  1  0.86767000  0.89097000  0.64738000  1.0
  C  C207  1  0.63234000  0.39098000  0.35262000  1.0
  N  N208  1  0.87965000  0.52247000  0.76519000  1.0
  N  N209  1  0.62034000  0.02247000  0.23481000  1.0
  N  N210  1  0.12035000  0.97753000  0.26520000  1.0
  N  N211  1  0.37966000  0.47753000  0.73481000  1.0
  N  N212  1  0.12034000  0.47753000  0.23480000  1.0
  N  N213  1  0.37967000  0.97753000  0.76520000  1.0
  N  N214  1  0.87967000  0.02247000  0.73481000  1.0
  N  N215  1  0.62035000  0.52247000  0.26519000  1.0
  N  N216  1  0.69156000  0.52450000  0.71261000  1.0
  N  N217  1  0.80844000  0.02451000  0.28739000  1.0
  N  N218  1  0.30844000  0.97550000  0.21262000  1.0
  N  N219  1  0.19156000  0.47550000  0.78739000  1.0
  N  N220  1  0.30844000  0.47549000  0.28738000  1.0
  N  N221  1  0.19157000  0.97550000  0.71262000  1.0
  N  N222  1  0.69156000  0.02451000  0.78739000  1.0
  N  N223  1  0.80844000  0.52451000  0.21261000  1.0
  N  N224  1  0.11622000  0.74572000  0.00553000  1.0
  N  N225  1  0.38377000  0.24572000  0.99447000  1.0
  N  N226  1  0.88377000  0.75428000  0.50553000  1.0
  N  N227  1  0.61623000  0.25428000  0.49447000  1.0
  N  N228  1  0.88378000  0.25428000  0.99446000  1.0
  N  N229  1  0.61622000  0.75428000  0.00553000  1.0
  N  N230  1  0.11623000  0.24572000  0.49447000  1.0
  N  N231  1  0.38378000  0.74572000  0.50553000  1.0
  N  N232  1  0.30424000  0.80018000  0.00813000  1.0
  N  N233  1  0.19575000  0.30018000  0.99187000  1.0
  N  N234  1  0.69576000  0.69982000  0.50813000  1.0
  N  N235  1  0.80424000  0.19982000  0.49187000  1.0
  N  N236  1  0.69576000  0.19982000  0.99186000  1.0
  N  N237  1  0.80424000  0.69982000  0.00813000  1.0
  N  N238  1  0.30424000  0.30018000  0.49186000  1.0
  N  N239  1  0.19576000  0.80017000  0.50813000  1.0
  N  N240  1  0.05421000  0.56895000  0.86630000  1.0
  N  N241  1  0.44578000  0.06895000  0.13370000  1.0
  N  N242  1  0.94578000  0.93106000  0.36630000  1.0
  N  N243  1  0.55421000  0.43105000  0.63370000  1.0
  N  N244  1  0.94579000  0.43106000  0.13370000  1.0
  N  N245  1  0.55423000  0.93106000  0.86631000  1.0
  N  N246  1  0.05422000  0.06894000  0.63369000  1.0
  N  N247  1  0.44578000  0.56894000  0.36630000  1.0
  N  N248  1  0.03967000  0.63677000  0.92960000  1.0
  N  N249  1  0.46032000  0.13677000  0.07040000  1.0
  N  N250  1  0.96033000  0.86323000  0.42960000  1.0
  N  N251  1  0.53967000  0.36323000  0.57040000  1.0
  N  N252  1  0.96033000  0.36323000  0.07040000  1.0
  N  N253  1  0.53968000  0.86323000  0.92960000  1.0
  N  N254  1  0.03968000  0.13677000  0.57040000  1.0
  N  N255  1  0.46032000  0.63677000  0.42960000  1.0
  N  N256  1  0.95180000  0.43511000  0.86828000  1.0
  N  N257  1  0.54819000  0.93511000  0.13173000  1.0
  N  N258  1  0.04819000  0.06489000  0.36827000  1.0
  N  N259  1  0.45181000  0.56489000  0.63172000  1.0
  N  N260  1  0.04820000  0.56489000  0.13173000  1.0
  N  N261  1  0.45181000  0.06489000  0.86827000  1.0
  N  N262  1  0.95181000  0.93511000  0.63173000  1.0
  N  N263  1  0.54820000  0.43511000  0.36827000  1.0
  N  N264  1  0.95088000  0.37063000  0.93522000  1.0
  N  N265  1  0.54910000  0.87063000  0.06478000  1.0
  N  N266  1  0.04911000  0.12937000  0.43522000  1.0
  N  N267  1  0.45088000  0.62937000  0.56478000  1.0
  N  N268  1  0.04912000  0.62937000  0.06478000  1.0
  N  N269  1  0.45089000  0.12938000  0.93522000  1.0
  N  N270  1  0.95088000  0.87063000  0.56479000  1.0
  N  N271  1  0.54912000  0.37063000  0.43522000  1.0
