# generated using pymatgen
data_DyH19C24(N3O4)2
_symmetry_space_group_name_H-M   'P 1'
_cell_length_a   11.20950000
_cell_length_b   13.03490000
_cell_length_c   18.94550000
_cell_angle_alpha   89.99950000
_cell_angle_beta   90.86700000
_cell_angle_gamma   89.99980000
_symmetry_Int_Tables_number   1
_chemical_formula_structural   DyH19C24(N3O4)2
_chemical_formula_sum   'Dy4 H76 C96 N24 O32'
_cell_volume   2767.89934389
_cell_formula_units_Z   4
loop_
 _symmetry_equiv_pos_site_id
 _symmetry_equiv_pos_as_xyz
  1  'x, y, z'
loop_
 _atom_site_type_symbol
 _atom_site_label
 _atom_site_symmetry_multiplicity
 _atom_site_fract_x
 _atom_site_fract_y
 _atom_site_fract_z
 _atom_site_occupancy
  Dy  Dy0  1  0.64885000  0.90587000  0.00461000  1.0
  Dy  Dy1  1  0.85115000  0.40588000  0.49539000  1.0
  Dy  Dy2  1  0.35115000  0.09412000  0.99539000  1.0
  Dy  Dy3  1  0.14885000  0.59413000  0.50461000  1.0
  H  H4  1  0.72951000  0.81526000  0.13214000  1.0
  H  H5  1  0.77050000  0.31527000  0.36786000  1.0
  H  H6  1  0.27049000  0.18473000  0.86786000  1.0
  H  H7  1  0.22950000  0.68474000  0.63214000  1.0
  H  H8  1  0.66224000  0.72233000  0.09181000  1.0
  H  H9  1  0.83777000  0.22234000  0.40819000  1.0
  H  H10  1  0.33775000  0.27766000  0.90819000  1.0
  H  H11  1  0.16224000  0.77767000  0.59181000  1.0
  H  H12  1  0.89322000  0.93065000  0.98630000  1.0
  H  H13  1  0.60679000  0.43066000  0.51371000  1.0
  H  H14  1  0.10679000  0.06934000  0.01371000  1.0
  H  H15  1  0.39321000  0.56935000  0.48629000  1.0
  H  H16  1  0.85007000  0.02732000  0.02512000  1.0
  H  H17  1  0.64993000  0.52732000  0.47488000  1.0
  H  H18  1  0.14993000  0.97267000  0.97488000  1.0
  H  H19  1  0.35008000  0.47268000  0.52513000  1.0
  H  H20  1  0.99268000  0.71793000  0.63745000  1.0
  H  H21  1  0.50731000  0.21792000  0.86255000  1.0
  H  H22  1  0.00733000  0.28208000  0.36255000  1.0
  H  H23  1  0.49269000  0.78207000  0.13745000  1.0
  H  H24  1  0.98557000  0.07708000  0.78755000  1.0
  H  H25  1  0.51442000  0.57707000  0.71244000  1.0
  H  H26  1  0.01442000  0.92293000  0.21244000  1.0
  H  H27  1  0.48558000  0.42292000  0.28756000  1.0
  H  H28  1  0.17560000  0.90635000  0.50370000  1.0
  H  H29  1  0.32440000  0.40634000  0.99630000  1.0
  H  H30  1  0.82439000  0.09366000  0.49630000  1.0
  H  H31  1  0.67560000  0.59365000  0.00370000  1.0
  H  H32  1  0.89137000  0.85158000  0.80106000  1.0
  H  H33  1  0.60863000  0.35158000  0.69894000  1.0
  H  H34  1  0.10864000  0.14843000  0.19895000  1.0
  H  H35  1  0.39137000  0.64842000  0.30106000  1.0
  H  H36  1  0.89844000  0.57717000  0.67359000  1.0
  H  H37  1  0.60154000  0.07716000  0.82640000  1.0
  H  H38  1  0.10157000  0.42284000  0.32641000  1.0
  H  H39  1  0.39844000  0.92283000  0.17359000  1.0
  H  H40  1  0.76154000  0.49171000  0.75614000  1.0
  H  H41  1  0.73844000  0.99170000  0.74385000  1.0
  H  H42  1  0.23847000  0.50830000  0.24385000  1.0
  H  H43  1  0.26154000  0.00829000  0.25614000  1.0
  H  H44  1  0.68759000  0.58682000  0.86161000  1.0
  H  H45  1  0.81240000  0.08680000  0.63839000  1.0
  H  H46  1  0.31241000  0.41319000  0.13839000  1.0
  H  H47  1  0.18760000  0.91318000  0.36161000  1.0
  H  H48  1  0.01236000  0.24337000  0.63195000  1.0
  H  H49  1  0.48766000  0.74336000  0.86805000  1.0
  H  H50  1  0.98764000  0.75664000  0.36805000  1.0
  H  H51  1  0.51235000  0.25663000  0.13195000  1.0
  H  H52  1  0.15292000  0.49466000  0.75586000  1.0
  H  H53  1  0.34708000  0.99466000  0.74414000  1.0
  H  H54  1  0.84709000  0.50534000  0.24414000  1.0
  H  H55  1  0.65291000  0.00533000  0.25586000  1.0
  H  H56  1  0.14925000  0.38338000  0.86392000  1.0
  H  H57  1  0.35075000  0.88338000  0.63608000  1.0
  H  H58  1  0.85076000  0.61662000  0.13607000  1.0
  H  H59  1  0.64925000  0.11661000  0.36392000  1.0
  H  H60  1  0.08165000  0.20324000  0.85461000  1.0
  H  H61  1  0.41834000  0.70323000  0.64539000  1.0
  H  H62  1  0.91834000  0.79677000  0.14539000  1.0
  H  H63  1  0.58166000  0.29676000  0.35461000  1.0
  H  H64  1  0.07097000  0.16843000  0.52649000  1.0
  H  H65  1  0.42903000  0.66843000  0.97351000  1.0
  H  H66  1  0.92902000  0.83158000  0.47351000  1.0
  H  H67  1  0.57097000  0.33157000  0.02649000  1.0
  H  H68  1  0.33881000  0.29422000  0.39036000  1.0
  H  H69  1  0.16120000  0.79421000  0.10964000  1.0
  H  H70  1  0.66119000  0.70579000  0.60964000  1.0
  H  H71  1  0.83880000  0.20578000  0.89037000  1.0
  H  H72  1  0.42883000  0.11965000  0.37842000  1.0
  H  H73  1  0.07118000  0.61964000  0.12158000  1.0
  H  H74  1  0.57117000  0.88036000  0.62158000  1.0
  H  H75  1  0.92882000  0.38035000  0.87842000  1.0
  H  H76  1  0.34863000  0.97368000  0.44659000  1.0
  H  H77  1  0.15137000  0.47368000  0.05341000  1.0
  H  H78  1  0.65136000  0.02632000  0.55341000  1.0
  H  H79  1  0.84863000  0.52632000  0.94658000  1.0
  C  C80  1  0.74430000  0.78112000  0.90042000  1.0
  C  C81  1  0.75570000  0.28112000  0.59958000  1.0
  C  C82  1  0.25570000  0.21888000  0.09958000  1.0
  C  C83  1  0.24431000  0.71888000  0.40042000  1.0
  C  C84  1  0.78695000  0.72357000  0.83780000  1.0
  C  C85  1  0.71305000  0.22357000  0.66220000  1.0
  C  C86  1  0.21306000  0.27644000  0.16221000  1.0
  C  C87  1  0.28695000  0.77643000  0.33780000  1.0
  C  C88  1  0.86411000  0.77295000  0.79121000  1.0
  C  C89  1  0.63589000  0.27294000  0.70879000  1.0
  C  C90  1  0.13590000  0.22705000  0.20879000  1.0
  C  C91  1  0.36411000  0.72705000  0.29121000  1.0
  C  C92  1  0.90406000  0.72067000  0.73156000  1.0
  C  C93  1  0.59592000  0.22067000  0.76844000  1.0
  C  C94  1  0.09594000  0.27934000  0.26844000  1.0
  C  C95  1  0.40407000  0.77932000  0.23156000  1.0
  C  C96  1  0.86730000  0.61838000  0.71994000  1.0
  C  C97  1  0.63268000  0.11837000  0.78006000  1.0
  C  C98  1  0.13271000  0.38163000  0.28006000  1.0
  C  C99  1  0.36730000  0.88161000  0.21993000  1.0
  C  C100  1  0.79040000  0.57025000  0.76644000  1.0
  C  C101  1  0.70958000  0.07024000  0.73356000  1.0
  C  C102  1  0.20961000  0.42976000  0.23356000  1.0
  C  C103  1  0.29041000  0.92975000  0.26644000  1.0
  C  C104  1  0.74918000  0.62278000  0.82539000  1.0
  C  C105  1  0.75081000  0.12277000  0.67460000  1.0
  C  C106  1  0.25083000  0.37723000  0.17460000  1.0
  C  C107  1  0.24918000  0.87722000  0.32539000  1.0
  C  C108  1  0.01494000  0.86162000  0.66954000  1.0
  C  C109  1  0.48505000  0.36161000  0.83046000  1.0
  C  C110  1  0.98506000  0.13839000  0.33047000  1.0
  C  C111  1  0.51495000  0.63838000  0.16954000  1.0
  C  C112  1  0.03092000  0.03114000  0.69198000  1.0
  C  C113  1  0.46908000  0.53113000  0.80802000  1.0
  C  C114  1  0.96908000  0.96887000  0.30802000  1.0
  C  C115  1  0.53092000  0.46886000  0.19198000  1.0
  C  C116  1  0.10587000  0.96897000  0.59112000  1.0
  C  C117  1  0.39414000  0.46896000  0.90888000  1.0
  C  C118  1  0.89414000  0.03104000  0.40888000  1.0
  C  C119  1  0.60586000  0.53103000  0.09112000  1.0
  C  C120  1  0.04928000  0.20984000  0.74196000  1.0
  C  C121  1  0.45072000  0.70984000  0.75804000  1.0
  C  C122  1  0.95072000  0.79016000  0.25804000  1.0
  C  C123  1  0.54928000  0.29015000  0.24196000  1.0
  C  C124  1  0.04500000  0.27316000  0.68221000  1.0
  C  C125  1  0.45501000  0.77316000  0.81779000  1.0
  C  C126  1  0.95500000  0.72684000  0.31779000  1.0
  C  C127  1  0.54500000  0.22683000  0.18221000  1.0
  C  C128  1  0.08186000  0.37557000  0.68815000  1.0
  C  C129  1  0.41815000  0.87556000  0.81185000  1.0
  C  C130  1  0.91814000  0.62444000  0.31184000  1.0
  C  C131  1  0.58185000  0.12443000  0.18815000  1.0
  C  C132  1  0.12278000  0.41533000  0.75289000  1.0
  C  C133  1  0.37722000  0.91533000  0.74711000  1.0
  C  C134  1  0.87723000  0.58467000  0.24711000  1.0
  C  C135  1  0.62277000  0.08466000  0.25289000  1.0
  C  C136  1  0.12078000  0.35334000  0.81270000  1.0
  C  C137  1  0.37922000  0.85333000  0.68729000  1.0
  C  C138  1  0.87923000  0.64666000  0.18729000  1.0
  C  C139  1  0.62078000  0.14665000  0.31271000  1.0
  C  C140  1  0.08348000  0.25152000  0.80753000  1.0
  C  C141  1  0.41652000  0.75152000  0.69247000  1.0
  C  C142  1  0.91652000  0.74848000  0.19247000  1.0
  C  C143  1  0.58348000  0.24848000  0.30753000  1.0
  C  C144  1  0.07546000  0.44450000  0.62523000  1.0
  C  C145  1  0.42454000  0.94449000  0.87476000  1.0
  C  C146  1  0.92454000  0.55551000  0.37477000  1.0
  C  C147  1  0.57545000  0.05550000  0.12524000  1.0
  C  C148  1  0.20727000  0.06242000  0.49329000  1.0
  C  C149  1  0.29274000  0.56241000  0.00671000  1.0
  C  C150  1  0.79273000  0.93759000  0.50670000  1.0
  C  C151  1  0.70726000  0.43759000  0.99329000  1.0
  C  C152  1  0.15203000  0.15842000  0.49653000  1.0
  C  C153  1  0.34798000  0.65842000  0.00347000  1.0
  C  C154  1  0.84797000  0.84159000  0.50346000  1.0
  C  C155  1  0.65202000  0.34159000  0.99654000  1.0
  C  C156  1  0.20157000  0.24141000  0.46049000  1.0
  C  C157  1  0.29844000  0.74140000  0.03951000  1.0
  C  C158  1  0.79843000  0.75860000  0.53951000  1.0
  C  C159  1  0.70156000  0.25860000  0.96050000  1.0
  C  C160  1  0.30317000  0.22904000  0.41926000  1.0
  C  C161  1  0.19684000  0.72903000  0.08074000  1.0
  C  C162  1  0.69683000  0.77097000  0.58074000  1.0
  C  C163  1  0.80317000  0.27096000  0.91926000  1.0
  C  C164  1  0.35348000  0.13168000  0.41302000  1.0
  C  C165  1  0.14653000  0.63168000  0.08698000  1.0
  C  C166  1  0.64652000  0.86832000  0.58698000  1.0
  C  C167  1  0.85347000  0.36832000  0.91302000  1.0
  C  C168  1  0.30758000  0.04926000  0.45066000  1.0
  C  C169  1  0.19242000  0.54925000  0.04933000  1.0
  C  C170  1  0.69241000  0.95075000  0.54933000  1.0
  C  C171  1  0.80758000  0.45074000  0.95066000  1.0
  C  C172  1  0.13906000  0.34225000  0.46390000  1.0
  C  C173  1  0.36093000  0.84225000  0.03610000  1.0
  C  C174  1  0.86093000  0.65776000  0.53610000  1.0
  C  C175  1  0.63906000  0.15775000  0.96391000  1.0
  N  N176  1  0.97908000  0.76325000  0.68102000  1.0
  N  N177  1  0.52091000  0.26324000  0.81897000  1.0
  N  N178  1  0.02093000  0.23676000  0.31898000  1.0
  N  N179  1  0.47909000  0.73675000  0.18103000  1.0
  N  N180  1  0.98928000  0.93858000  0.71316000  1.0
  N  N181  1  0.51071000  0.43857000  0.78684000  1.0
  N  N182  1  0.01072000  0.06143000  0.28684000  1.0
  N  N183  1  0.48929000  0.56142000  0.21316000  1.0
  N  N184  1  0.08289000  0.05277000  0.63014000  1.0
  N  N185  1  0.41711000  0.55276000  0.86986000  1.0
  N  N186  1  0.91711000  0.94724000  0.36986000  1.0
  N  N187  1  0.58289000  0.44723000  0.13014000  1.0
  N  N188  1  0.07934000  0.87205000  0.60992000  1.0
  N  N189  1  0.42065000  0.37204000  0.89008000  1.0
  N  N190  1  0.92067000  0.12796000  0.39008000  1.0
  N  N191  1  0.57934000  0.62795000  0.10992000  1.0
  N  N192  1  0.01561000  0.10609000  0.74127000  1.0
  N  N193  1  0.48439000  0.60609000  0.75873000  1.0
  N  N194  1  0.98438000  0.89391000  0.25873000  1.0
  N  N195  1  0.51561000  0.39390000  0.24127000  1.0
  N  N196  1  0.16224000  0.97564000  0.52795000  1.0
  N  N197  1  0.33776000  0.47563000  0.97205000  1.0
  N  N198  1  0.83775000  0.02437000  0.47205000  1.0
  N  N199  1  0.66224000  0.52436000  0.02794000  1.0
  O  O200  1  0.77870000  0.87446000  0.90953000  1.0
  O  O201  1  0.72131000  0.37447000  0.59048000  1.0
  O  O202  1  0.22130000  0.12554000  0.09048000  1.0
  O  O203  1  0.27870000  0.62554000  0.40953000  1.0
  O  O204  1  0.67263000  0.73981000  0.94430000  1.0
  O  O205  1  0.82737000  0.23981000  0.55570000  1.0
  O  O206  1  0.32737000  0.26019000  0.05571000  1.0
  O  O207  1  0.17264000  0.76019000  0.44430000  1.0
  O  O208  1  0.99213000  0.42998000  0.57956000  1.0
  O  O209  1  0.50789000  0.92997000  0.92043000  1.0
  O  O210  1  0.00788000  0.57004000  0.42043000  1.0
  O  O211  1  0.49212000  0.07002000  0.07957000  1.0
  O  O212  1  0.15228000  0.51554000  0.61887000  1.0
  O  O213  1  0.34772000  0.01553000  0.88113000  1.0
  O  O214  1  0.84772000  0.48447000  0.38113000  1.0
  O  O215  1  0.65228000  0.98446000  0.11887000  1.0
  O  O216  1  0.02659000  0.34150000  0.45188000  1.0
  O  O217  1  0.47341000  0.84149000  0.04811000  1.0
  O  O218  1  0.97340000  0.65851000  0.54812000  1.0
  O  O219  1  0.52659000  0.15851000  0.95189000  1.0
  O  O220  1  0.19943000  0.42247000  0.47752000  1.0
  O  O221  1  0.30057000  0.92246000  0.02249000  1.0
  O  O222  1  0.80057000  0.57754000  0.52249000  1.0
  O  O223  1  0.69942000  0.07754000  0.97752000  1.0
  O  O224  1  0.71717000  0.78537000  0.08549000  1.0
  O  O225  1  0.78283000  0.28538000  0.41451000  1.0
  O  O226  1  0.28282000  0.21462000  0.91451000  1.0
  O  O227  1  0.21717000  0.71462000  0.58549000  1.0
  O  O228  1  0.86752000  0.95430000  0.03282000  1.0
  O  O229  1  0.63248000  0.45430000  0.46718000  1.0
  O  O230  1  0.13248000  0.04570000  0.96718000  1.0
  O  O231  1  0.36752000  0.54570000  0.53283000  1.0
