# generated using pymatgen
data_CuH4(C3N)2
_symmetry_space_group_name_H-M   'P 1'
_cell_length_a   8.48278000
_cell_length_b   11.36970000
_cell_length_c   12.45990000
_cell_angle_alpha   89.99990000
_cell_angle_beta   79.22000000
_cell_angle_gamma   89.99990000
_symmetry_Int_Tables_number   1
_chemical_formula_structural   CuH4(C3N)2
_chemical_formula_sum   'Cu8 H32 C48 N16'
_cell_volume   1180.50862586
_cell_formula_units_Z   8
loop_
 _symmetry_equiv_pos_site_id
 _symmetry_equiv_pos_as_xyz
  1  'x, y, z'
loop_
 _atom_site_type_symbol
 _atom_site_label
 _atom_site_symmetry_multiplicity
 _atom_site_fract_x
 _atom_site_fract_y
 _atom_site_fract_z
 _atom_site_occupancy
  Cu  Cu0  1  0.98160000  0.09510000  0.54755000  1.0
  Cu  Cu1  1  0.51841000  0.59510000  0.95245000  1.0
  Cu  Cu2  1  0.01841000  0.90490000  0.45246000  1.0
  Cu  Cu3  1  0.48160000  0.40490000  0.04755000  1.0
  Cu  Cu4  1  0.13740000  0.85062000  0.81577000  1.0
  Cu  Cu5  1  0.36260000  0.35063000  0.68424000  1.0
  Cu  Cu6  1  0.86260000  0.14937000  0.18424000  1.0
  Cu  Cu7  1  0.63740000  0.64938000  0.31576000  1.0
  H  H8  1  0.21163000  0.11380000  0.17883000  1.0
  H  H9  1  0.28837000  0.61380000  0.32117000  1.0
  H  H10  1  0.78837000  0.88620000  0.82117000  1.0
  H  H11  1  0.71163000  0.38620000  0.67883000  1.0
  H  H12  1  0.46270000  0.09969000  0.03979000  1.0
  H  H13  1  0.03730000  0.59969000  0.46021000  1.0
  H  H14  1  0.53730000  0.90031000  0.96021000  1.0
  H  H15  1  0.96270000  0.40031000  0.53979000  1.0
  H  H16  1  0.17131000  0.12760000  0.79045000  1.0
  H  H17  1  0.32869000  0.62760000  0.70955000  1.0
  H  H18  1  0.82868000  0.87240000  0.20955000  1.0
  H  H19  1  0.67131000  0.37240000  0.29045000  1.0
  H  H20  1  0.93334000  0.14901000  0.94158000  1.0
  H  H21  1  0.56666000  0.64901000  0.55842000  1.0
  H  H22  1  0.06666000  0.85099000  0.05842000  1.0
  H  H23  1  0.43334000  0.35099000  0.44158000  1.0
  H  H24  1  0.63259000  0.20078000  0.91215000  1.0
  H  H25  1  0.86741000  0.70077000  0.58785000  1.0
  H  H26  1  0.36741000  0.79923000  0.08785000  1.0
  H  H27  1  0.13259000  0.29922000  0.41215000  1.0
  H  H28  1  0.37995000  0.00792000  0.69703000  1.0
  H  H29  1  0.12005000  0.50792000  0.80296000  1.0
  H  H30  1  0.62006000  0.99208000  0.30296000  1.0
  H  H31  1  0.87995000  0.49208000  0.19703000  1.0
  H  H32  1  0.87666000  0.19098000  0.76504000  1.0
  H  H33  1  0.62334000  0.69097000  0.73496000  1.0
  H  H34  1  0.12334000  0.80903000  0.23497000  1.0
  H  H35  1  0.37666000  0.30902000  0.26504000  1.0
  H  H36  1  0.63693000  0.00513000  0.56003000  1.0
  H  H37  1  0.86307000  0.50512000  0.93997000  1.0
  H  H38  1  0.36307000  0.99487000  0.43997000  1.0
  H  H39  1  0.13693000  0.49487000  0.06003000  1.0
  C  C40  1  0.06488000  0.92676000  0.59780000  1.0
  C  C41  1  0.43511000  0.42674000  0.90221000  1.0
  C  C42  1  0.93511000  0.07326000  0.40221000  1.0
  C  C43  1  0.56489000  0.57324000  0.09780000  1.0
  C  C44  1  0.12238000  0.20526000  0.59085000  1.0
  C  C45  1  0.37763000  0.70526000  0.90914000  1.0
  C  C46  1  0.87763000  0.79474000  0.40914000  1.0
  C  C47  1  0.62237000  0.29474000  0.09086000  1.0
  C  C48  1  0.20874000  0.11807000  0.09172000  1.0
  C  C49  1  0.29127000  0.61807000  0.40828000  1.0
  C  C50  1  0.79127000  0.88193000  0.90828000  1.0
  C  C51  1  0.70874000  0.38193000  0.59172000  1.0
  C  C52  1  0.34804000  0.10886000  0.01347000  1.0
  C  C53  1  0.15196000  0.60886000  0.48653000  1.0
  C  C54  1  0.65196000  0.89114000  0.98653000  1.0
  C  C55  1  0.84804000  0.39114000  0.51347000  1.0
  C  C56  1  0.33871000  0.11060000  0.90221000  1.0
  C  C57  1  0.16129000  0.61060000  0.59779000  1.0
  C  C58  1  0.66129000  0.88940000  0.09779000  1.0
  C  C59  1  0.83871000  0.38940000  0.40220000  1.0
  C  C60  1  0.18598000  0.12270000  0.87532000  1.0
  C  C61  1  0.31402000  0.62270000  0.62468000  1.0
  C  C62  1  0.81402000  0.87730000  0.12468000  1.0
  C  C63  1  0.68598000  0.37730000  0.37532000  1.0
  C  C64  1  0.05350000  0.13595000  0.95882000  1.0
  C  C65  1  0.44650000  0.63595000  0.54118000  1.0
  C  C66  1  0.94650000  0.86404000  0.04118000  1.0
  C  C67  1  0.55350000  0.36405000  0.45882000  1.0
  C  C68  1  0.48500000  0.10399000  0.81743000  1.0
  C  C69  1  0.01500000  0.60399000  0.68257000  1.0
  C  C70  1  0.51500000  0.89601000  0.18257000  1.0
  C  C71  1  0.98500000  0.39601000  0.31743000  1.0
  C  C72  1  0.62844000  0.15451000  0.83613000  1.0
  C  C73  1  0.87156000  0.65451000  0.66387000  1.0
  C  C74  1  0.37155000  0.84549000  0.16387000  1.0
  C  C75  1  0.12844000  0.34549000  0.33613000  1.0
  C  C76  1  0.48725000  0.04983000  0.71588000  1.0
  C  C77  1  0.01275000  0.54982000  0.78412000  1.0
  C  C78  1  0.51275000  0.95017000  0.28412000  1.0
  C  C79  1  0.98725000  0.45017000  0.21587000  1.0
  C  C80  1  0.76407000  0.15006000  0.75467000  1.0
  C  C81  1  0.73593000  0.65005000  0.74534000  1.0
  C  C82  1  0.23592000  0.84995000  0.24534000  1.0
  C  C83  1  0.26407000  0.34994000  0.25467000  1.0
  C  C84  1  0.62969000  0.04778000  0.63933000  1.0
  C  C85  1  0.87031000  0.54777000  0.86067000  1.0
  C  C86  1  0.37031000  0.95223000  0.36067000  1.0
  C  C87  1  0.12969000  0.45222000  0.13933000  1.0
  N  N88  1  0.10219000  0.90184000  0.68181000  1.0
  N  N89  1  0.39780000  0.40184000  0.81820000  1.0
  N  N90  1  0.89780000  0.09816000  0.31819000  1.0
  N  N91  1  0.60220000  0.59816000  0.18181000  1.0
  N  N92  1  0.20743000  0.27223000  0.62469000  1.0
  N  N93  1  0.29258000  0.77222000  0.87530000  1.0
  N  N94  1  0.79258000  0.72778000  0.37530000  1.0
  N  N95  1  0.70742000  0.22777000  0.12470000  1.0
  N  N96  1  0.76650000  0.09737000  0.65751000  1.0
  N  N97  1  0.73349000  0.59737000  0.84249000  1.0
  N  N98  1  0.23349000  0.90263000  0.34249000  1.0
  N  N99  1  0.26651000  0.40263000  0.15752000  1.0
  N  N100  1  0.06293000  0.13298000  0.06560000  1.0
  N  N101  1  0.43707000  0.63298000  0.43440000  1.0
  N  N102  1  0.93707000  0.86702000  0.93440000  1.0
  N  N103  1  0.56293000  0.36702000  0.56560000  1.0
