# generated using pymatgen
data_ZnH9(CN)7
_symmetry_space_group_name_H-M   'P 1'
_cell_length_a   6.12180000
_cell_length_b   10.83640000
_cell_length_c   16.02850000
_cell_angle_alpha   90.00010000
_cell_angle_beta   90.00000000
_cell_angle_gamma   103.27800000
_symmetry_Int_Tables_number   1
_chemical_formula_structural   ZnH9(CN)7
_chemical_formula_sum   'Zn4 H36 C28 N28'
_cell_volume   1034.87787982
_cell_formula_units_Z   4
loop_
 _symmetry_equiv_pos_site_id
 _symmetry_equiv_pos_as_xyz
  1  'x, y, z'
loop_
 _atom_site_type_symbol
 _atom_site_label
 _atom_site_symmetry_multiplicity
 _atom_site_fract_x
 _atom_site_fract_y
 _atom_site_fract_z
 _atom_site_occupancy
  Zn  Zn0  1  0.01555000  0.21267000  0.21224000  1.0
  Zn  Zn1  1  0.48446000  0.78733000  0.71224000  1.0
  Zn  Zn2  1  0.98446000  0.78733000  0.78776000  1.0
  Zn  Zn3  1  0.51555000  0.21267000  0.28776000  1.0
  H  H4  1  0.21082000  0.19742000  0.89924000  1.0
  H  H5  1  0.28918000  0.80258000  0.39925000  1.0
  H  H6  1  0.78919000  0.80258000  0.10075000  1.0
  H  H7  1  0.71081000  0.19742000  0.60075000  1.0
  H  H8  1  0.72496000  0.41305000  0.96627000  1.0
  H  H9  1  0.77503000  0.58694000  0.46627000  1.0
  H  H10  1  0.27503000  0.58694000  0.03373000  1.0
  H  H11  1  0.22497000  0.41306000  0.53373000  1.0
  H  H12  1  0.76954000  0.35144000  0.11341000  1.0
  H  H13  1  0.73046000  0.64856000  0.61342000  1.0
  H  H14  1  0.23045000  0.64856000  0.88658000  1.0
  H  H15  1  0.26955000  0.35144000  0.38658000  1.0
  H  H16  1  0.15994000  0.02243000  0.08364000  1.0
  H  H17  1  0.34007000  0.97757000  0.58364000  1.0
  H  H18  1  0.84005000  0.97757000  0.91637000  1.0
  H  H19  1  0.65994000  0.02243000  0.41636000  1.0
  H  H20  1  0.35227000  0.08197000  0.00181000  1.0
  H  H21  1  0.14773000  0.91803000  0.50181000  1.0
  H  H22  1  0.64772000  0.91803000  0.99819000  1.0
  H  H23  1  0.85228000  0.08197000  0.49819000  1.0
  H  H24  1  0.38400000  0.15484000  0.10200000  1.0
  H  H25  1  0.11600000  0.84517000  0.60200000  1.0
  H  H26  1  0.61600000  0.84516000  0.89800000  1.0
  H  H27  1  0.88400000  0.15483000  0.39800000  1.0
  H  H28  1  0.81600000  0.27342000  0.79944000  1.0
  H  H29  1  0.68399000  0.72658000  0.29945000  1.0
  H  H30  1  0.18400000  0.72658000  0.20055000  1.0
  H  H31  1  0.31601000  0.27342000  0.70055000  1.0
  H  H32  1  0.10722000  0.34698000  0.79699000  1.0
  H  H33  1  0.39277000  0.65301000  0.29700000  1.0
  H  H34  1  0.89277000  0.65302000  0.20301000  1.0
  H  H35  1  0.60723000  0.34699000  0.70300000  1.0
  H  H36  1  0.90622000  0.43678000  0.82367000  1.0
  H  H37  1  0.59377000  0.56321000  0.32367000  1.0
  H  H38  1  0.09378000  0.56322000  0.17633000  1.0
  H  H39  1  0.40621000  0.43678000  0.67632000  1.0
  C  C40  1  0.11646000  0.19584000  0.02795000  1.0
  C  C41  1  0.38354000  0.80416000  0.52796000  1.0
  C  C42  1  0.88354000  0.80416000  0.97205000  1.0
  C  C43  1  0.61646000  0.19584000  0.47204000  1.0
  C  C44  1  0.10480000  0.23087000  0.94462000  1.0
  C  C45  1  0.39521000  0.76913000  0.44463000  1.0
  C  C46  1  0.89521000  0.76913000  0.05538000  1.0
  C  C47  1  0.60479000  0.23087000  0.55537000  1.0
  C  C48  1  0.96455000  0.30933000  0.91943000  1.0
  C  C49  1  0.53545000  0.69067000  0.41944000  1.0
  C  C50  1  0.03545000  0.69067000  0.08057000  1.0
  C  C51  1  0.46454000  0.30933000  0.58057000  1.0
  C  C52  1  0.83778000  0.35174000  0.98141000  1.0
  C  C53  1  0.66222000  0.64826000  0.48141000  1.0
  C  C54  1  0.16221000  0.64826000  0.01859000  1.0
  C  C55  1  0.33778000  0.35174000  0.51859000  1.0
  C  C56  1  0.85937000  0.31634000  0.06339000  1.0
  C  C57  1  0.64063000  0.68366000  0.56339000  1.0
  C  C58  1  0.14063000  0.68366000  0.93661000  1.0
  C  C59  1  0.35937000  0.31634000  0.43661000  1.0
  C  C60  1  0.26110000  0.10911000  0.05501000  1.0
  C  C61  1  0.23890000  0.89090000  0.55501000  1.0
  C  C62  1  0.73890000  0.89089000  0.94499000  1.0
  C  C63  1  0.76110000  0.10911000  0.44499000  1.0
  C  C64  1  0.94956000  0.34454000  0.82992000  1.0
  C  C65  1  0.55043000  0.65546000  0.32992000  1.0
  C  C66  1  0.05044000  0.65546000  0.17008000  1.0
  C  C67  1  0.44956000  0.34454000  0.67008000  1.0
  N  N68  1  0.17419000  0.09296000  0.27154000  1.0
  N  N69  1  0.32581000  0.90704000  0.77154000  1.0
  N  N70  1  0.82582000  0.90705000  0.72846000  1.0
  N  N71  1  0.67419000  0.09295000  0.22846000  1.0
  N  N72  1  0.08914000  0.99413000  0.30602000  1.0
  N  N73  1  0.41086000  0.00587000  0.80602000  1.0
  N  N74  1  0.91087000  0.00588000  0.69398000  1.0
  N  N75  1  0.58913000  0.99413000  0.19398000  1.0
  N  N76  1  0.01119000  0.89940000  0.33966000  1.0
  N  N77  1  0.48882000  0.10061000  0.83967000  1.0
  N  N78  1  0.98883000  0.10061000  0.66034000  1.0
  N  N79  1  0.51118000  0.89940000  0.16033000  1.0
  N  N80  1  0.35520000  0.33306000  0.22655000  1.0
  N  N81  1  0.14480000  0.66694000  0.72656000  1.0
  N  N82  1  0.64480000  0.66693000  0.77344000  1.0
  N  N83  1  0.85520000  0.33307000  0.27344000  1.0
  N  N84  1  0.43576000  0.41895000  0.17938000  1.0
  N  N85  1  0.06425000  0.58106000  0.67939000  1.0
  N  N86  1  0.56425000  0.58106000  0.82061000  1.0
  N  N87  1  0.93575000  0.41894000  0.32061000  1.0
  N  N88  1  0.50882000  0.50145000  0.13390000  1.0
  N  N89  1  0.99119000  0.49855000  0.63390000  1.0
  N  N90  1  0.49118000  0.49854000  0.86610000  1.0
  N  N91  1  0.00882000  0.50145000  0.36610000  1.0
  N  N92  1  0.99448000  0.23995000  0.08692000  1.0
  N  N93  1  0.50552000  0.76005000  0.58693000  1.0
  N  N94  1  0.00552000  0.76005000  0.91307000  1.0
  N  N95  1  0.49448000  0.23994000  0.41307000  1.0
