# generated using pymatgen
data_CoH10C14(NO2)2
_symmetry_space_group_name_H-M   'P 1'
_cell_length_a   7.31502000
_cell_length_b   9.25590000
_cell_length_c   9.48737000
_cell_angle_alpha   99.62190000
_cell_angle_beta   91.35550000
_cell_angle_gamma   110.65000000
_symmetry_Int_Tables_number   1
_chemical_formula_structural   CoH10C14(NO2)2
_chemical_formula_sum   'Co2 H20 C28 N4 O8'
_cell_volume   590.25577210
_cell_formula_units_Z   2
loop_
 _symmetry_equiv_pos_site_id
 _symmetry_equiv_pos_as_xyz
  1  'x, y, z'
loop_
 _atom_site_type_symbol
 _atom_site_label
 _atom_site_symmetry_multiplicity
 _atom_site_fract_x
 _atom_site_fract_y
 _atom_site_fract_z
 _atom_site_occupancy
  Co  Co0  1  0.68189000  0.95027000  0.90741000  1.0
  Co  Co1  1  0.31811000  0.04973000  0.09259000  1.0
  H  H2  1  0.75927000  0.26308000  0.37544000  1.0
  H  H3  1  0.24073000  0.73692000  0.62457000  1.0
  H  H4  1  0.99630000  0.25494000  0.39948000  1.0
  H  H5  1  0.00370000  0.74506000  0.60053000  1.0
  H  H6  1  0.67554000  0.52710000  0.98840000  1.0
  H  H7  1  0.32447000  0.47290000  0.01160000  1.0
  H  H8  1  0.78210000  0.98708000  0.24510000  1.0
  H  H9  1  0.21791000  0.01292000  0.75490000  1.0
  H  H10  1  0.61427000  0.67493000  0.64316000  1.0
  H  H11  1  0.38573000  0.32507000  0.35683000  1.0
  H  H12  1  0.80739000  0.26102000  0.75507000  1.0
  H  H13  1  0.19261000  0.73898000  0.24493000  1.0
  H  H14  1  0.82868000  0.46671000  0.59596000  1.0
  H  H15  1  0.17133000  0.53329000  0.40404000  1.0
  H  H16  1  0.05760000  0.44907000  0.63533000  1.0
  H  H17  1  0.94240000  0.55093000  0.36468000  1.0
  H  H18  1  0.60062000  0.54204000  0.38677000  1.0
  H  H19  1  0.39937000  0.45796000  0.61322000  1.0
  H  H20  1  0.67743000  0.69599000  0.19300000  1.0
  H  H21  1  0.32257000  0.30401000  0.80700000  1.0
  C  C22  1  0.83335000  0.37739000  0.02779000  1.0
  C  C23  1  0.16666000  0.62261000  0.97221000  1.0
  C  C24  1  0.01842000  0.36268000  0.03316000  1.0
  C  C25  1  0.98159000  0.63732000  0.96684000  1.0
  C  C26  1  0.65229000  0.25633000  0.06521000  1.0
  C  C27  1  0.34771000  0.74367000  0.93479000  1.0
  C  C28  1  0.04287000  0.21741000  0.06620000  1.0
  C  C29  1  0.95713000  0.78259000  0.93380000  1.0
  C  C30  1  0.87599000  0.27537000  0.45671000  1.0
  C  C31  1  0.12401000  0.72464000  0.54329000  1.0
  C  C32  1  0.75068000  0.99045000  0.47340000  1.0
  C  C33  1  0.24932000  0.00955000  0.52660000  1.0
  C  C34  1  0.70181000  0.90442000  0.58565000  1.0
  C  C35  1  0.29818000  0.09558000  0.41435000  1.0
  C  C36  1  0.81754000  0.51387000  0.99405000  1.0
  C  C37  1  0.18246000  0.48613000  0.00595000  1.0
  C  C38  1  0.74420000  0.91960000  0.33070000  1.0
  C  C39  1  0.25581000  0.08040000  0.66930000  1.0
  C  C40  1  0.64781000  0.74086000  0.55646000  1.0
  C  C41  1  0.35218000  0.25914000  0.44353000  1.0
  C  C42  1  0.78086000  0.15284000  0.67928000  1.0
  C  C43  1  0.21914000  0.84716000  0.32072000  1.0
  C  C44  1  0.95094000  0.43981000  0.54721000  1.0
  C  C45  1  0.04906000  0.56019000  0.45279000  1.0
  C  C46  1  0.64021000  0.66894000  0.41392000  1.0
  C  C47  1  0.35978000  0.33106000  0.58608000  1.0
  C  C48  1  0.68641000  0.75654000  0.30311000  1.0
  C  C49  1  0.31359000  0.24346000  0.69689000  1.0
  N  N50  1  0.72175000  0.01001000  0.71396000  1.0
  N  N51  1  0.27825000  0.98999000  0.28604000  1.0
  N  N52  1  0.80196000  0.14761000  0.53718000  1.0
  N  N53  1  0.19804000  0.85239000  0.46282000  1.0
  O  O54  1  0.89076000  0.09503000  0.06391000  1.0
  O  O55  1  0.10924000  0.90497000  0.93609000  1.0
  O  O56  1  0.54478000  0.14094000  0.96624000  1.0
  O  O57  1  0.45522000  0.85906000  0.03375000  1.0
  O  O58  1  0.60095000  0.27393000  0.19015000  1.0
  O  O59  1  0.39905000  0.72607000  0.80985000  1.0
  O  O60  1  0.21777000  0.22755000  0.09722000  1.0
  O  O61  1  0.78223000  0.77245000  0.90278000  1.0
