# generated using pymatgen
data_CdH9C4N(ClO)2
_symmetry_space_group_name_H-M   'P 1'
_cell_length_a   8.15113000
_cell_length_b   8.15113000
_cell_length_c   14.00050000
_cell_angle_alpha   76.62860000
_cell_angle_beta   76.62860000
_cell_angle_gamma   64.43730000
_symmetry_Int_Tables_number   1
_chemical_formula_structural   CdH9C4N(ClO)2
_chemical_formula_sum   'Cd4 H36 C16 N4 Cl8 O8'
_cell_volume   807.19141667
_cell_formula_units_Z   4
loop_
 _symmetry_equiv_pos_site_id
 _symmetry_equiv_pos_as_xyz
  1  'x, y, z'
loop_
 _atom_site_type_symbol
 _atom_site_label
 _atom_site_symmetry_multiplicity
 _atom_site_fract_x
 _atom_site_fract_y
 _atom_site_fract_z
 _atom_site_occupancy
  Cd  Cd0  1  0.00000000  0.00000000  0.50000000  1.0
  Cd  Cd1  1  0.00000000  0.00000000  0.00000000  1.0
  Cd  Cd2  1  0.97471000  0.02529000  0.75000000  1.0
  Cd  Cd3  1  0.02529000  0.97471000  0.25000000  1.0
  H  H4  1  0.61892000  0.65152000  0.42391000  1.0
  H  H5  1  0.34848000  0.38108000  0.07609000  1.0
  H  H6  1  0.38109000  0.34848000  0.57609000  1.0
  H  H7  1  0.65152000  0.61891000  0.92391000  1.0
  H  H8  1  0.80901000  0.50966000  0.48386000  1.0
  H  H9  1  0.49034000  0.19099000  0.01613000  1.0
  H  H10  1  0.19099000  0.49035000  0.51613000  1.0
  H  H11  1  0.50965000  0.80901000  0.98386000  1.0
  H  H12  1  0.45550000  0.80757000  0.57387000  1.0
  H  H13  1  0.19243000  0.54450000  0.92613000  1.0
  H  H14  1  0.54450000  0.19243000  0.42613000  1.0
  H  H15  1  0.80757000  0.45550000  0.07387000  1.0
  H  H16  1  0.50945000  0.57229000  0.59369000  1.0
  H  H17  1  0.42771000  0.49055000  0.90631000  1.0
  H  H18  1  0.49055000  0.42771000  0.40631000  1.0
  H  H19  1  0.57229000  0.50945000  0.09369000  1.0
  H  H20  1  0.81300000  0.56329000  0.65547000  1.0
  H  H21  1  0.43670000  0.18700000  0.84453000  1.0
  H  H22  1  0.18700000  0.43670000  0.34453000  1.0
  H  H23  1  0.56330000  0.81300000  0.15547000  1.0
  H  H24  1  0.60696000  0.57381000  0.73535000  1.0
  H  H25  1  0.42619000  0.39304000  0.76465000  1.0
  H  H26  1  0.39304000  0.42619000  0.26465000  1.0
  H  H27  1  0.57381000  0.60697000  0.23535000  1.0
  H  H28  1  0.70560000  0.81520000  0.74981000  1.0
  H  H29  1  0.18480000  0.29440000  0.75019000  1.0
  H  H30  1  0.29440000  0.18480000  0.25019000  1.0
  H  H31  1  0.81521000  0.70560000  0.24981000  1.0
  H  H32  1  0.68064000  0.89705000  0.62846000  1.0
  H  H33  1  0.10295000  0.31936000  0.87154000  1.0
  H  H34  1  0.31937000  0.10295000  0.37154000  1.0
  H  H35  1  0.89705000  0.68063000  0.12846000  1.0
  H  H36  1  0.49800000  0.89672000  0.71703000  1.0
  H  H37  1  0.10328000  0.50200000  0.78297000  1.0
  H  H38  1  0.50200000  0.10328000  0.28297000  1.0
  H  H39  1  0.89672000  0.49800000  0.21703000  1.0
  C  C40  1  0.78668000  0.78384000  0.43714000  1.0
  C  C41  1  0.21616000  0.21332000  0.06286000  1.0
  C  C42  1  0.21332000  0.21616000  0.56286000  1.0
  C  C43  1  0.78383000  0.78668000  0.93714000  1.0
  C  C44  1  0.69686000  0.64818000  0.47928000  1.0
  C  C45  1  0.35182000  0.30314000  0.02072000  1.0
  C  C46  1  0.30314000  0.35182000  0.52072000  1.0
  C  C47  1  0.64818000  0.69686000  0.97928000  1.0
  C  C48  1  0.57178000  0.67254000  0.57925000  1.0
  C  C49  1  0.32746000  0.42822000  0.92075000  1.0
  C  C50  1  0.42822000  0.32746000  0.42075000  1.0
  C  C51  1  0.67254000  0.57178000  0.07925000  1.0
  C  C52  1  0.66417000  0.64445000  0.66880000  1.0
  C  C53  1  0.35555000  0.33583000  0.83120000  1.0
  C  C54  1  0.33583000  0.35555000  0.33120000  1.0
  C  C55  1  0.64445000  0.66417000  0.16880000  1.0
  N  N56  1  0.63600000  0.82499000  0.69293000  1.0
  N  N57  1  0.17501000  0.36400000  0.80707000  1.0
  N  N58  1  0.36400000  0.17501000  0.30707000  1.0
  N  N59  1  0.82499000  0.63600000  0.19293000  1.0
  Cl  Cl60  1  0.10451000  0.74197000  0.65529000  1.0
  Cl  Cl61  1  0.25803000  0.89549000  0.84471000  1.0
  Cl  Cl62  1  0.89549000  0.25803000  0.34471000  1.0
  Cl  Cl63  1  0.74197000  0.10451000  0.15529000  1.0
  Cl  Cl64  1  0.26289000  0.80534000  0.37367000  1.0
  Cl  Cl65  1  0.19466000  0.73711000  0.12633000  1.0
  Cl  Cl66  1  0.73711000  0.19466000  0.62633000  1.0
  Cl  Cl67  1  0.80534000  0.26289000  0.87367000  1.0
  O  O68  1  0.79063000  0.88129000  0.49533000  1.0
  O  O69  1  0.11871000  0.20937000  0.00467000  1.0
  O  O70  1  0.20938000  0.11871000  0.50467000  1.0
  O  O71  1  0.88129000  0.79062000  0.99533000  1.0
  O  O72  1  0.14413000  0.20866000  0.65461000  1.0
  O  O73  1  0.79134000  0.85587000  0.84539000  1.0
  O  O74  1  0.85586000  0.79135000  0.34539000  1.0
  O  O75  1  0.20865000  0.14413000  0.15461000  1.0
