# generated using pymatgen
data_CaH12C14(NO4)2
_symmetry_space_group_name_H-M   'P 1'
_cell_length_a   5.31953000
_cell_length_b   9.72047000
_cell_length_c   14.72940000
_cell_angle_alpha   74.39700000
_cell_angle_beta   89.99940000
_cell_angle_gamma   89.99950000
_symmetry_Int_Tables_number   1
_chemical_formula_structural   CaH12C14(NO4)2
_chemical_formula_sum   'Ca2 H24 C28 N4 O16'
_cell_volume   733.56538301
_cell_formula_units_Z   2
loop_
 _symmetry_equiv_pos_site_id
 _symmetry_equiv_pos_as_xyz
  1  'x, y, z'
loop_
 _atom_site_type_symbol
 _atom_site_label
 _atom_site_symmetry_multiplicity
 _atom_site_fract_x
 _atom_site_fract_y
 _atom_site_fract_z
 _atom_site_occupancy
  Ca  Ca0  1  0.70109000  0.68738000  0.47205000  1.0
  Ca  Ca1  1  0.20103000  0.31262000  0.52794000  1.0
  H  H2  1  0.93452000  0.73235000  0.26740000  1.0
  H  H3  1  0.43453000  0.26759000  0.73262000  1.0
  H  H4  1  0.58389000  0.85781000  0.19532000  1.0
  H  H5  1  0.08391000  0.14218000  0.80469000  1.0
  H  H6  1  0.57720000  0.42981000  0.31581000  1.0
  H  H7  1  0.07714000  0.57021000  0.68417000  1.0
  H  H8  1  0.11714000  0.13066000  0.33531000  1.0
  H  H9  1  0.61715000  0.86937000  0.66467000  1.0
  H  H10  1  0.03262000  0.66737000  0.04368000  1.0
  H  H11  1  0.53268000  0.33262000  0.95633000  1.0
  H  H12  1  0.90033000  0.24358000  0.04311000  1.0
  H  H13  1  0.40030000  0.75643000  0.95688000  1.0
  H  H14  1  0.36577000  0.49759000  0.02415000  1.0
  H  H15  1  0.86581000  0.50242000  0.97585000  1.0
  H  H16  1  0.20913000  0.07109000  0.01179000  1.0
  H  H17  1  0.70912000  0.92891000  0.98821000  1.0
  H  H18  1  0.95815000  0.92243000  0.54675000  1.0
  H  H19  1  0.45813000  0.07757000  0.45327000  1.0
  H  H20  1  0.40660000  0.68196000  0.66856000  1.0
  H  H21  1  0.90658000  0.31805000  0.33144000  1.0
  H  H22  1  0.12814000  0.88798000  0.46703000  1.0
  H  H23  1  0.62811000  0.11202000  0.53298000  1.0
  H  H24  1  0.26726000  0.74098000  0.57286000  1.0
  H  H25  1  0.76722000  0.25903000  0.42716000  1.0
  C  C26  1  0.26941000  0.57110000  0.26843000  1.0
  C  C27  1  0.76941000  0.42889000  0.73157000  1.0
  C  C28  1  0.49662000  0.45186000  0.16816000  1.0
  C  C29  1  0.99660000  0.54816000  0.83184000  1.0
  C  C30  1  0.44778000  0.92418000  0.32868000  1.0
  C  C31  1  0.94780000  0.07584000  0.67131000  1.0
  C  C32  1  0.22757000  0.59362000  0.36261000  1.0
  C  C33  1  0.72753000  0.40636000  0.63740000  1.0
  C  C34  1  0.11496000  0.64056000  0.19049000  1.0
  C  C35  1  0.61499000  0.35942000  0.80951000  1.0
  C  C36  1  0.45918000  0.47937000  0.25573000  1.0
  C  C37  1  0.95916000  0.52063000  0.74427000  1.0
  C  C38  1  0.13930000  0.11828000  0.26443000  1.0
  C  C39  1  0.63930000  0.88173000  0.73555000  1.0
  C  C40  1  0.31036000  0.01775000  0.24899000  1.0
  C  C41  1  0.81033000  0.98226000  0.75100000  1.0
  C  C42  1  0.33861000  0.00286000  0.15601000  1.0
  C  C43  1  0.83859000  0.99714000  0.84398000  1.0
  C  C44  1  0.15237000  0.61335000  0.10256000  1.0
  C  C45  1  0.65242000  0.38663000  0.89744000  1.0
  C  C46  1  0.99281000  0.20079000  0.19129000  1.0
  C  C47  1  0.49283000  0.79922000  0.80870000  1.0
  C  C48  1  0.01851000  0.18191000  0.09968000  1.0
  C  C49  1  0.51850000  0.81809000  0.90032000  1.0
  C  C50  1  0.33843000  0.51980000  0.09215000  1.0
  C  C51  1  0.83842000  0.48023000  0.90785000  1.0
  C  C52  1  0.19009000  0.08616000  0.08216000  1.0
  C  C53  1  0.69007000  0.91383000  0.91783000  1.0
  N  N54  1  0.67436000  0.35825000  0.14843000  1.0
  N  N55  1  0.17437000  0.64176000  0.85158000  1.0
  N  N56  1  0.82449000  0.29720000  0.21454000  1.0
  N  N57  1  0.32444000  0.70281000  0.78546000  1.0
  O  O58  1  0.37396000  0.53284000  0.43139000  1.0
  O  O59  1  0.87393000  0.46713000  0.56862000  1.0
  O  O60  1  0.41259000  0.93130000  0.41408000  1.0
  O  O61  1  0.91267000  0.06870000  0.58591000  1.0
  O  O62  1  0.59867000  0.83030000  0.31328000  1.0
  O  O63  1  0.09869000  0.16972000  0.68672000  1.0
  O  O64  1  0.04344000  0.67268000  0.37308000  1.0
  O  O65  1  0.54341000  0.32732000  0.62692000  1.0
  O  O66  1  0.99683000  0.84577000  0.51505000  1.0
  O  O67  1  0.49682000  0.15423000  0.48496000  1.0
  O  O68  1  0.93401000  0.73171000  0.19880000  1.0
  O  O69  1  0.43404000  0.26828000  0.80121000  1.0
  O  O70  1  0.49947000  0.91027000  0.13501000  1.0
  O  O71  1  0.99947000  0.08972000  0.86498000  1.0
  O  O72  1  0.42387000  0.69070000  0.59926000  1.0
  O  O73  1  0.92383000  0.30931000  0.40075000  1.0
