# generated using pymatgen
data_CuH7C10IN2
_symmetry_space_group_name_H-M   'P 1'
_cell_length_a   9.78369000
_cell_length_b   9.78368000
_cell_length_c   16.62440000
_cell_angle_alpha   83.94430000
_cell_angle_beta   83.94430000
_cell_angle_gamma   89.02410000
_symmetry_Int_Tables_number   1
_chemical_formula_structural   CuH7C10IN2
_chemical_formula_sum   'Cu4 H28 C40 I4 N8'
_cell_volume   1573.55779685
_cell_formula_units_Z   4
loop_
 _symmetry_equiv_pos_site_id
 _symmetry_equiv_pos_as_xyz
  1  'x, y, z'
loop_
 _atom_site_type_symbol
 _atom_site_label
 _atom_site_symmetry_multiplicity
 _atom_site_fract_x
 _atom_site_fract_y
 _atom_site_fract_z
 _atom_site_occupancy
  Cu  Cu0  1  0.40992000  0.08918000  0.52105000  1.0
  Cu  Cu1  1  0.91081000  0.59008000  0.97895000  1.0
  Cu  Cu2  1  0.59010000  0.91081000  0.47894000  1.0
  Cu  Cu3  1  0.08919000  0.40990000  0.02105000  1.0
  H  H4  1  0.42969000  0.22548000  0.66760000  1.0
  H  H5  1  0.14394000  0.02408000  0.85705000  1.0
  H  H6  1  0.20428000  0.90008000  0.61367000  1.0
  H  H7  1  0.11714000  0.24048000  0.88620000  1.0
  H  H8  1  0.54331000  0.25703000  0.78507000  1.0
  H  H9  1  0.57956000  0.42902000  0.88253000  1.0
  H  H10  1  0.37895000  0.49804000  0.97705000  1.0
  H  H11  1  0.77452000  0.57031000  0.83240000  1.0
  H  H12  1  0.97592000  0.85606000  0.64295000  1.0
  H  H13  1  0.09993000  0.79571000  0.88633000  1.0
  H  H14  1  0.75952000  0.88286000  0.61379000  1.0
  H  H15  1  0.74298000  0.45669000  0.71493000  1.0
  H  H16  1  0.57098000  0.42043000  0.61747000  1.0
  H  H17  1  0.50197000  0.62105000  0.52295000  1.0
  H  H18  1  0.57030000  0.77452000  0.33240000  1.0
  H  H19  1  0.85605000  0.97593000  0.14295000  1.0
  H  H20  1  0.79571000  0.09992000  0.38633000  1.0
  H  H21  1  0.88285000  0.75952000  0.11380000  1.0
  H  H22  1  0.45669000  0.74298000  0.21493000  1.0
  H  H23  1  0.42043000  0.57098000  0.11746000  1.0
  H  H24  1  0.62105000  0.50197000  0.02295000  1.0
  H  H25  1  0.22548000  0.42969000  0.16759000  1.0
  H  H26  1  0.02407000  0.14395000  0.35705000  1.0
  H  H27  1  0.90008000  0.20429000  0.11367000  1.0
  H  H28  1  0.24048000  0.11715000  0.38620000  1.0
  H  H29  1  0.25702000  0.54332000  0.28507000  1.0
  H  H30  1  0.42902000  0.57956000  0.38253000  1.0
  H  H31  1  0.49803000  0.37895000  0.47706000  1.0
  C  C32  1  0.35246000  0.14769000  0.69008000  1.0
  C  C33  1  0.29235000  0.13729000  0.77069000  1.0
  C  C34  1  0.19350000  0.03512000  0.79487000  1.0
  C  C35  1  0.15763000  0.94852000  0.73876000  1.0
  C  C36  1  0.22443000  0.96686000  0.65973000  1.0
  C  C37  1  0.22244000  0.27731000  0.88395000  1.0
  C  C38  1  0.32628000  0.23519000  0.82711000  1.0
  C  C39  1  0.45795000  0.29034000  0.82626000  1.0
  C  C40  1  0.47824000  0.38556000  0.88049000  1.0
  C  C41  1  0.36866000  0.42197000  0.93460000  1.0
  C  C42  1  0.85231000  0.64754000  0.80992000  1.0
  C  C43  1  0.86271000  0.70765000  0.72931000  1.0
  C  C44  1  0.96488000  0.80650000  0.70513000  1.0
  C  C45  1  0.05148000  0.84236000  0.76124000  1.0
  C  C46  1  0.03314000  0.77557000  0.84027000  1.0
  C  C47  1  0.72269000  0.77757000  0.61605000  1.0
  C  C48  1  0.76481000  0.67372000  0.67289000  1.0
  C  C49  1  0.70967000  0.54206000  0.67374000  1.0
  C  C50  1  0.61444000  0.52177000  0.61951000  1.0
  C  C51  1  0.57803000  0.63134000  0.56541000  1.0
  C  C52  1  0.64754000  0.85230000  0.30992000  1.0
  C  C53  1  0.70765000  0.86271000  0.22931000  1.0
  C  C54  1  0.80650000  0.96489000  0.20514000  1.0
  C  C55  1  0.84236000  0.05149000  0.26124000  1.0
  C  C56  1  0.77557000  0.03313000  0.34027000  1.0
  C  C57  1  0.77757000  0.72269000  0.11605000  1.0
  C  C58  1  0.67371000  0.76481000  0.17289000  1.0
  C  C59  1  0.54205000  0.70966000  0.17373000  1.0
  C  C60  1  0.52178000  0.61445000  0.11951000  1.0
  C  C61  1  0.63133000  0.57804000  0.06541000  1.0
  C  C62  1  0.14770000  0.35246000  0.19009000  1.0
  C  C63  1  0.13729000  0.29236000  0.27069000  1.0
  C  C64  1  0.03512000  0.19350000  0.29487000  1.0
  C  C65  1  0.94852000  0.15763000  0.23876000  1.0
  C  C66  1  0.96686000  0.22443000  0.15973000  1.0
  C  C67  1  0.27731000  0.22243000  0.38395000  1.0
  C  C68  1  0.23520000  0.32628000  0.32711000  1.0
  C  C69  1  0.29034000  0.45794000  0.32626000  1.0
  C  C70  1  0.38556000  0.47823000  0.38049000  1.0
  C  C71  1  0.42197000  0.36865000  0.43459000  1.0
  I  I72  1  0.32958000  0.86056000  0.45599000  1.0
  I  I73  1  0.13944000  0.67041000  0.04402000  1.0
  I  I74  1  0.67041000  0.13945000  0.54402000  1.0
  I  I75  1  0.86055000  0.32959000  0.95598000  1.0
  N  N76  1  0.31955000  0.06460000  0.63542000  1.0
  N  N77  1  0.24205000  0.36741000  0.93735000  1.0
  N  N78  1  0.93540000  0.68044000  0.86458000  1.0
  N  N79  1  0.63260000  0.75795000  0.56264000  1.0
  N  N80  1  0.68043000  0.93539000  0.36458000  1.0
  N  N81  1  0.75794000  0.63258000  0.06264000  1.0
  N  N82  1  0.06460000  0.31956000  0.13542000  1.0
  N  N83  1  0.36741000  0.24205000  0.43736000  1.0
