# generated using pymatgen
data_Cu3H34C40(N3O4)2
_symmetry_space_group_name_H-M   'P 1'
_cell_length_a   8.99914000
_cell_length_b   22.56030000
_cell_length_c   23.16150000
_cell_angle_alpha   89.99990000
_cell_angle_beta   90.00030000
_cell_angle_gamma   89.99980000
_symmetry_Int_Tables_number   1
_chemical_formula_structural   Cu3H34C40(N3O4)2
_chemical_formula_sum   'Cu12 H136 C160 N24 O32'
_cell_volume   4702.32411982
_cell_formula_units_Z   4
loop_
 _symmetry_equiv_pos_site_id
 _symmetry_equiv_pos_as_xyz
  1  'x, y, z'
loop_
 _atom_site_type_symbol
 _atom_site_label
 _atom_site_symmetry_multiplicity
 _atom_site_fract_x
 _atom_site_fract_y
 _atom_site_fract_z
 _atom_site_occupancy
  Cu  Cu0  1  0.39736000  0.03268000  0.53134000  1.0
  Cu  Cu1  1  0.10265000  0.96732000  0.03135000  1.0
  Cu  Cu2  1  0.60264000  0.53268000  0.46866000  1.0
  Cu  Cu3  1  0.89735000  0.46732000  0.96865000  1.0
  Cu  Cu4  1  0.60266000  0.96732000  0.46865000  1.0
  Cu  Cu5  1  0.89734000  0.03268000  0.96865000  1.0
  Cu  Cu6  1  0.39734000  0.46733000  0.53135000  1.0
  Cu  Cu7  1  0.10265000  0.53268000  0.03135000  1.0
  Cu  Cu8  1  0.25862000  0.25000000  0.52675000  1.0
  Cu  Cu9  1  0.24136000  0.75000000  0.02675000  1.0
  Cu  Cu10  1  0.74138000  0.75000000  0.47325000  1.0
  Cu  Cu11  1  0.75862000  0.25000000  0.97325000  1.0
  H  H12  1  0.60013000  0.15390000  0.38298000  1.0
  H  H13  1  0.55939000  0.96479000  0.61601000  1.0
  H  H14  1  0.66865000  0.98480000  0.71328000  1.0
  H  H15  1  0.54874000  0.16897000  0.69019000  1.0
  H  H16  1  0.44698000  0.14191000  0.59474000  1.0
  H  H17  1  0.70085000  0.13815000  0.77628000  1.0
  H  H18  1  0.76839000  0.06461000  0.78153000  1.0
  H  H19  1  0.44702000  0.10329000  0.80608000  1.0
  H  H20  1  0.50937000  0.02937000  0.80614000  1.0
  H  H21  1  0.61293000  0.12781000  0.88885000  1.0
  H  H22  1  0.69727000  0.05738000  0.88467000  1.0
  H  H23  1  0.19995000  0.09042000  0.01208000  1.0
  H  H24  1  0.39055000  0.13873000  0.94994000  1.0
  H  H25  1  0.53199000  0.96396000  0.89773000  1.0
  H  H26  1  0.33593000  0.92261000  0.96226000  1.0
  H  H27  1  0.89988000  0.84610000  0.88298000  1.0
  H  H28  1  0.94061000  0.03521000  0.11601000  1.0
  H  H29  1  0.83135000  0.01519000  0.21329000  1.0
  H  H30  1  0.95126000  0.83103000  0.19019000  1.0
  H  H31  1  0.05302000  0.85809000  0.09474000  1.0
  H  H32  1  0.79915000  0.86185000  0.27628000  1.0
  H  H33  1  0.73161000  0.93539000  0.28153000  1.0
  H  H34  1  0.05299000  0.89671000  0.30608000  1.0
  H  H35  1  0.99062000  0.97064000  0.30614000  1.0
  H  H36  1  0.88707000  0.87219000  0.38885000  1.0
  H  H37  1  0.80274000  0.94262000  0.38467000  1.0
  H  H38  1  0.30005000  0.90958000  0.51208000  1.0
  H  H39  1  0.10945000  0.86127000  0.44994000  1.0
  H  H40  1  0.96802000  0.03605000  0.39773000  1.0
  H  H41  1  0.16407000  0.07739000  0.46227000  1.0
  H  H42  1  0.39987000  0.65390000  0.61702000  1.0
  H  H43  1  0.44061000  0.46479000  0.38399000  1.0
  H  H44  1  0.33135000  0.48480000  0.28672000  1.0
  H  H45  1  0.45127000  0.66897000  0.30981000  1.0
  H  H46  1  0.55302000  0.64191000  0.40526000  1.0
  H  H47  1  0.29915000  0.63815000  0.22372000  1.0
  H  H48  1  0.23160000  0.56461000  0.21847000  1.0
  H  H49  1  0.55298000  0.60329000  0.19392000  1.0
  H  H50  1  0.49062000  0.52937000  0.19386000  1.0
  H  H51  1  0.38707000  0.62781000  0.11115000  1.0
  H  H52  1  0.30273000  0.55738000  0.11533000  1.0
  H  H53  1  0.80005000  0.59042000  0.98792000  1.0
  H  H54  1  0.60945000  0.63873000  0.05006000  1.0
  H  H55  1  0.46802000  0.46396000  0.10227000  1.0
  H  H56  1  0.66407000  0.42261000  0.03773000  1.0
  H  H57  1  0.10013000  0.34610000  0.11702000  1.0
  H  H58  1  0.05939000  0.53521000  0.88399000  1.0
  H  H59  1  0.16866000  0.51519000  0.78671000  1.0
  H  H60  1  0.04874000  0.33103000  0.80981000  1.0
  H  H61  1  0.94698000  0.35809000  0.90526000  1.0
  H  H62  1  0.20086000  0.36185000  0.72372000  1.0
  H  H63  1  0.26840000  0.43539000  0.71847000  1.0
  H  H64  1  0.94702000  0.39671000  0.69392000  1.0
  H  H65  1  0.00938000  0.47063000  0.69386000  1.0
  H  H66  1  0.11293000  0.37219000  0.61115000  1.0
  H  H67  1  0.19726000  0.44262000  0.61533000  1.0
  H  H68  1  0.69995000  0.40958000  0.48792000  1.0
  H  H69  1  0.89055000  0.36127000  0.55006000  1.0
  H  H70  1  0.03198000  0.53605000  0.60227000  1.0
  H  H71  1  0.83593000  0.57739000  0.53774000  1.0
  H  H72  1  0.39987000  0.84609000  0.61702000  1.0
  H  H73  1  0.44061000  0.03521000  0.38398000  1.0
  H  H74  1  0.33134000  0.01519000  0.28671000  1.0
  H  H75  1  0.45127000  0.83103000  0.30981000  1.0
  H  H76  1  0.55302000  0.85809000  0.40526000  1.0
  H  H77  1  0.29914000  0.86185000  0.22372000  1.0
  H  H78  1  0.23161000  0.93539000  0.21847000  1.0
  H  H79  1  0.55298000  0.89671000  0.19392000  1.0
  H  H80  1  0.49062000  0.97063000  0.19386000  1.0
  H  H81  1  0.38707000  0.87219000  0.11115000  1.0
  H  H82  1  0.30273000  0.94262000  0.11533000  1.0
  H  H83  1  0.80005000  0.90958000  0.98793000  1.0
  H  H84  1  0.60944000  0.86127000  0.05006000  1.0
  H  H85  1  0.46801000  0.03604000  0.10227000  1.0
  H  H86  1  0.66407000  0.07739000  0.03774000  1.0
  H  H87  1  0.10013000  0.15390000  0.11702000  1.0
  H  H88  1  0.05939000  0.96479000  0.88399000  1.0
  H  H89  1  0.16865000  0.98481000  0.78671000  1.0
  H  H90  1  0.04873000  0.16897000  0.80981000  1.0
  H  H91  1  0.94697000  0.14191000  0.90526000  1.0
  H  H92  1  0.20085000  0.13815000  0.72372000  1.0
  H  H93  1  0.26840000  0.06461000  0.71847000  1.0
  H  H94  1  0.94702000  0.10329000  0.69392000  1.0
  H  H95  1  0.00938000  0.02937000  0.69386000  1.0
  H  H96  1  0.11294000  0.12781000  0.61115000  1.0
  H  H97  1  0.19728000  0.05738000  0.61533000  1.0
  H  H98  1  0.69996000  0.09042000  0.48793000  1.0
  H  H99  1  0.89056000  0.13873000  0.55006000  1.0
  H  H100  1  0.03199000  0.96396000  0.60227000  1.0
  H  H101  1  0.83593000  0.92261000  0.53774000  1.0
  H  H102  1  0.60012000  0.34610000  0.38298000  1.0
  H  H103  1  0.55940000  0.53521000  0.61602000  1.0
  H  H104  1  0.66866000  0.51519000  0.71329000  1.0
  H  H105  1  0.54874000  0.33103000  0.69020000  1.0
  H  H106  1  0.44698000  0.35809000  0.59474000  1.0
  H  H107  1  0.70086000  0.36185000  0.77628000  1.0
  H  H108  1  0.76840000  0.43539000  0.78153000  1.0
  H  H109  1  0.44702000  0.39671000  0.80608000  1.0
  H  H110  1  0.50938000  0.47063000  0.80614000  1.0
  H  H111  1  0.61293000  0.37219000  0.88885000  1.0
  H  H112  1  0.69727000  0.44262000  0.88467000  1.0
  H  H113  1  0.19996000  0.40958000  0.01207000  1.0
  H  H114  1  0.39056000  0.36127000  0.94994000  1.0
  H  H115  1  0.53198000  0.53604000  0.89773000  1.0
  H  H116  1  0.33592000  0.57739000  0.96226000  1.0
  H  H117  1  0.89988000  0.65391000  0.88298000  1.0
  H  H118  1  0.94061000  0.46479000  0.11602000  1.0
  H  H119  1  0.83135000  0.48481000  0.21329000  1.0
  H  H120  1  0.95127000  0.66897000  0.19019000  1.0
  H  H121  1  0.05303000  0.64191000  0.09474000  1.0
  H  H122  1  0.79914000  0.63815000  0.27628000  1.0
  H  H123  1  0.73160000  0.56462000  0.28153000  1.0
  H  H124  1  0.05298000  0.60329000  0.30608000  1.0
  H  H125  1  0.99062000  0.52937000  0.30614000  1.0
  H  H126  1  0.88706000  0.62781000  0.38885000  1.0
  H  H127  1  0.80272000  0.55738000  0.38467000  1.0
  H  H128  1  0.30004000  0.59043000  0.51207000  1.0
  H  H129  1  0.10943000  0.63873000  0.44994000  1.0
  H  H130  1  0.96802000  0.46396000  0.39773000  1.0
  H  H131  1  0.16408000  0.42261000  0.46226000  1.0
  H  H132  1  0.05445000  0.25000000  0.72691000  1.0
  H  H133  1  0.79228000  0.25000000  0.69545000  1.0
  H  H134  1  0.73196000  0.25000000  0.58780000  1.0
  H  H135  1  0.69141000  0.25000000  0.33916000  1.0
  H  H136  1  0.44556000  0.75000000  0.22691000  1.0
  H  H137  1  0.70773000  0.75000000  0.19545000  1.0
  H  H138  1  0.76803000  0.75000000  0.08779000  1.0
  H  H139  1  0.80859000  0.75000000  0.83916000  1.0
  H  H140  1  0.94555000  0.75000000  0.27309000  1.0
  H  H141  1  0.20773000  0.75000000  0.30455000  1.0
  H  H142  1  0.26803000  0.75000000  0.41220000  1.0
  H  H143  1  0.30859000  0.75000000  0.66084000  1.0
  H  H144  1  0.55443000  0.25000000  0.77309000  1.0
  H  H145  1  0.29226000  0.25000000  0.80455000  1.0
  H  H146  1  0.23196000  0.25000000  0.91220000  1.0
  H  H147  1  0.19141000  0.25000000  0.16085000  1.0
  C  C148  1  0.46211000  0.19842000  0.44433000  1.0
  C  C149  1  0.56178000  0.19690000  0.39822000  1.0
  C  C150  1  0.40864000  0.14262000  0.47374000  1.0
  C  C151  1  0.56001000  0.00925000  0.63457000  1.0
  C  C152  1  0.62074000  0.02118000  0.68839000  1.0
  C  C153  1  0.61851000  0.07895000  0.71087000  1.0
  C  C154  1  0.55653000  0.12302000  0.67581000  1.0
  C  C155  1  0.49790000  0.10835000  0.62217000  1.0
  C  C156  1  0.66930000  0.09131000  0.77142000  1.0
  C  C157  1  0.54504000  0.07534000  0.81431000  1.0
  C  C158  1  0.59191000  0.08128000  0.87772000  1.0
  C  C159  1  0.27592000  0.06426000  0.98576000  1.0
  C  C160  1  0.38200000  0.09062000  0.95062000  1.0
  C  C161  1  0.47685000  0.05551000  0.91722000  1.0
  C  C162  1  0.45927000  0.99390000  0.92156000  1.0
  C  C163  1  0.35111000  0.97028000  0.95728000  1.0
  C  C164  1  0.03789000  0.80158000  0.94433000  1.0
  C  C165  1  0.93823000  0.80310000  0.89822000  1.0
  C  C166  1  0.09136000  0.85737000  0.97374000  1.0
  C  C167  1  0.93999000  0.99075000  0.13457000  1.0
  C  C168  1  0.87926000  0.97882000  0.18839000  1.0
  C  C169  1  0.88149000  0.92104000  0.21087000  1.0
  C  C170  1  0.94347000  0.87698000  0.17581000  1.0
  C  C171  1  0.00209000  0.89165000  0.12217000  1.0
  C  C172  1  0.83070000  0.90869000  0.27142000  1.0
  C  C173  1  0.95496000  0.92466000  0.31431000  1.0
  C  C174  1  0.90810000  0.91872000  0.37772000  1.0
  C  C175  1  0.22408000  0.93575000  0.48576000  1.0
  C  C176  1  0.11800000  0.90938000  0.45063000  1.0
  C  C177  1  0.02316000  0.94449000  0.41722000  1.0
  C  C178  1  0.04074000  0.00610000  0.42157000  1.0
  C  C179  1  0.14890000  0.02972000  0.45728000  1.0
  C  C180  1  0.53790000  0.69842000  0.55567000  1.0
  C  C181  1  0.43823000  0.69690000  0.60178000  1.0
  C  C182  1  0.59136000  0.64262000  0.52626000  1.0
  C  C183  1  0.43999000  0.50925000  0.36543000  1.0
  C  C184  1  0.37926000  0.52118000  0.31161000  1.0
  C  C185  1  0.38149000  0.57895000  0.28913000  1.0
  C  C186  1  0.44347000  0.62302000  0.32419000  1.0
  C  C187  1  0.50210000  0.60835000  0.37783000  1.0
  C  C188  1  0.33070000  0.59131000  0.22858000  1.0
  C  C189  1  0.45496000  0.57534000  0.18569000  1.0
  C  C190  1  0.40810000  0.58128000  0.12228000  1.0
  C  C191  1  0.72408000  0.56426000  0.01424000  1.0
  C  C192  1  0.61800000  0.59062000  0.04938000  1.0
  C  C193  1  0.52316000  0.55551000  0.08278000  1.0
  C  C194  1  0.54073000  0.49390000  0.07844000  1.0
  C  C195  1  0.64890000  0.47028000  0.04272000  1.0
  C  C196  1  0.96211000  0.30158000  0.05567000  1.0
  C  C197  1  0.06178000  0.30310000  0.10178000  1.0
  C  C198  1  0.90864000  0.35738000  0.02626000  1.0
  C  C199  1  0.06001000  0.49075000  0.86543000  1.0
  C  C200  1  0.12075000  0.47882000  0.81160000  1.0
  C  C201  1  0.11851000  0.42104000  0.78913000  1.0
  C  C202  1  0.05653000  0.37698000  0.82419000  1.0
  C  C203  1  0.99790000  0.39165000  0.87783000  1.0
  C  C204  1  0.16930000  0.40869000  0.72858000  1.0
  C  C205  1  0.04504000  0.42466000  0.68569000  1.0
  C  C206  1  0.09190000  0.41872000  0.62228000  1.0
  C  C207  1  0.77592000  0.43575000  0.51424000  1.0
  C  C208  1  0.88200000  0.40939000  0.54938000  1.0
  C  C209  1  0.97684000  0.44449000  0.58278000  1.0
  C  C210  1  0.95926000  0.50610000  0.57844000  1.0
  C  C211  1  0.85110000  0.52972000  0.54272000  1.0
  C  C212  1  0.53789000  0.80158000  0.55567000  1.0
  C  C213  1  0.43823000  0.80310000  0.60178000  1.0
  C  C214  1  0.59136000  0.85737000  0.52626000  1.0
  C  C215  1  0.43999000  0.99075000  0.36543000  1.0
  C  C216  1  0.37926000  0.97882000  0.31160000  1.0
  C  C217  1  0.38149000  0.92104000  0.28913000  1.0
  C  C218  1  0.44348000  0.87698000  0.32419000  1.0
  C  C219  1  0.50210000  0.89165000  0.37783000  1.0
  C  C220  1  0.33070000  0.90869000  0.22858000  1.0
  C  C221  1  0.45496000  0.92465000  0.18568000  1.0
  C  C222  1  0.40809000  0.91872000  0.12228000  1.0
  C  C223  1  0.72408000  0.93575000  0.01424000  1.0
  C  C224  1  0.61799000  0.90938000  0.04938000  1.0
  C  C225  1  0.52315000  0.94449000  0.08278000  1.0
  C  C226  1  0.54073000  0.00610000  0.07844000  1.0
  C  C227  1  0.64890000  0.02972000  0.04272000  1.0
  C  C228  1  0.96211000  0.19842000  0.05567000  1.0
  C  C229  1  0.06178000  0.19690000  0.10178000  1.0
  C  C230  1  0.90864000  0.14262000  0.02626000  1.0
  C  C231  1  0.06001000  0.00925000  0.86543000  1.0
  C  C232  1  0.12074000  0.02118000  0.81160000  1.0
  C  C233  1  0.11851000  0.07896000  0.78913000  1.0
  C  C234  1  0.05652000  0.12302000  0.82419000  1.0
  C  C235  1  0.99790000  0.10835000  0.87783000  1.0
  C  C236  1  0.16930000  0.09131000  0.72858000  1.0
  C  C237  1  0.04504000  0.07534000  0.68569000  1.0
  C  C238  1  0.09191000  0.08128000  0.62228000  1.0
  C  C239  1  0.77593000  0.06426000  0.51425000  1.0
  C  C240  1  0.88201000  0.09062000  0.54938000  1.0
  C  C241  1  0.97686000  0.05551000  0.58278000  1.0
  C  C242  1  0.95927000  0.99390000  0.57844000  1.0
  C  C243  1  0.85110000  0.97028000  0.54272000  1.0
  C  C244  1  0.46211000  0.30158000  0.44433000  1.0
  C  C245  1  0.56178000  0.30310000  0.39822000  1.0
  C  C246  1  0.40864000  0.35738000  0.47374000  1.0
  C  C247  1  0.56002000  0.49075000  0.63457000  1.0
  C  C248  1  0.62075000  0.47882000  0.68840000  1.0
  C  C249  1  0.61852000  0.42104000  0.71087000  1.0
  C  C250  1  0.55653000  0.37698000  0.67581000  1.0
  C  C251  1  0.49790000  0.39166000  0.62217000  1.0
  C  C252  1  0.66931000  0.40869000  0.77142000  1.0
  C  C253  1  0.54504000  0.42465000  0.81432000  1.0
  C  C254  1  0.59191000  0.41872000  0.87772000  1.0
  C  C255  1  0.27592000  0.43574000  0.98576000  1.0
  C  C256  1  0.38201000  0.40938000  0.95062000  1.0
  C  C257  1  0.47685000  0.44449000  0.91722000  1.0
  C  C258  1  0.45926000  0.50610000  0.92156000  1.0
  C  C259  1  0.35110000  0.52972000  0.95728000  1.0
  C  C260  1  0.03790000  0.69842000  0.94433000  1.0
  C  C261  1  0.93823000  0.69690000  0.89823000  1.0
  C  C262  1  0.09137000  0.64263000  0.97374000  1.0
  C  C263  1  0.94000000  0.50925000  0.13457000  1.0
  C  C264  1  0.87926000  0.52118000  0.18840000  1.0
  C  C265  1  0.88149000  0.57896000  0.21087000  1.0
  C  C266  1  0.94348000  0.62302000  0.17581000  1.0
  C  C267  1  0.00211000  0.60835000  0.12217000  1.0
  C  C268  1  0.83070000  0.59131000  0.27142000  1.0
  C  C269  1  0.95496000  0.57535000  0.31431000  1.0
  C  C270  1  0.90809000  0.58128000  0.37772000  1.0
  C  C271  1  0.22407000  0.56426000  0.48575000  1.0
  C  C272  1  0.11799000  0.59062000  0.45062000  1.0
  C  C273  1  0.02315000  0.55551000  0.41722000  1.0
  C  C274  1  0.04073000  0.49390000  0.42156000  1.0
  C  C275  1  0.14891000  0.47028000  0.45728000  1.0
  C  C276  1  0.13993000  0.25000000  0.63957000  1.0
  C  C277  1  0.02775000  0.25000000  0.68109000  1.0
  C  C278  1  0.87946000  0.25000000  0.66279000  1.0
  C  C279  1  0.84601000  0.25000000  0.60383000  1.0
  C  C280  1  0.96373000  0.25000000  0.56453000  1.0
  C  C281  1  0.30642000  0.25000000  0.65056000  1.0
  C  C282  1  0.95109000  0.25000000  0.49899000  1.0
  C  C283  1  0.61156000  0.25000000  0.37453000  1.0
  C  C284  1  0.36006000  0.75000000  0.13957000  1.0
  C  C285  1  0.47225000  0.75000000  0.18109000  1.0
  C  C286  1  0.62055000  0.75000000  0.16278000  1.0
  C  C287  1  0.65398000  0.75000000  0.10383000  1.0
  C  C288  1  0.53626000  0.75000000  0.06452000  1.0
  C  C289  1  0.19358000  0.75000000  0.15055000  1.0
  C  C290  1  0.54888000  0.75000000  0.99899000  1.0
  C  C291  1  0.88844000  0.75000000  0.87453000  1.0
  C  C292  1  0.86007000  0.75000000  0.36043000  1.0
  C  C293  1  0.97225000  0.75000000  0.31891000  1.0
  C  C294  1  0.12054000  0.75000000  0.33721000  1.0
  C  C295  1  0.15399000  0.75000000  0.39617000  1.0
  C  C296  1  0.03626000  0.75000000  0.43548000  1.0
  C  C297  1  0.69358000  0.75000000  0.34945000  1.0
  C  C298  1  0.04891000  0.75000000  0.50101000  1.0
  C  C299  1  0.38844000  0.75000000  0.62547000  1.0
  C  C300  1  0.63993000  0.25000000  0.86043000  1.0
  C  C301  1  0.52774000  0.25000000  0.81891000  1.0
  C  C302  1  0.37944000  0.25000000  0.83721000  1.0
  C  C303  1  0.34600000  0.25000000  0.89617000  1.0
  C  C304  1  0.46373000  0.25000000  0.93547000  1.0
  C  C305  1  0.80641000  0.25000000  0.84944000  1.0
  C  C306  1  0.45109000  0.25000000  0.00101000  1.0
  C  C307  1  0.11156000  0.25000000  0.12547000  1.0
  N  N308  1  0.49715000  0.05210000  0.60155000  1.0
  N  N309  1  0.25871000  0.00483000  0.98886000  1.0
  N  N310  1  0.00285000  0.94790000  0.10155000  1.0
  N  N311  1  0.24130000  0.99517000  0.48886000  1.0
  N  N312  1  0.50285000  0.55210000  0.39845000  1.0
  N  N313  1  0.74130000  0.50483000  0.01114000  1.0
  N  N314  1  0.99715000  0.44790000  0.89845000  1.0
  N  N315  1  0.75870000  0.49517000  0.51114000  1.0
  N  N316  1  0.50285000  0.94790000  0.39845000  1.0
  N  N317  1  0.74130000  0.99517000  0.01114000  1.0
  N  N318  1  0.99714000  0.05210000  0.89845000  1.0
  N  N319  1  0.75870000  0.00483000  0.51114000  1.0
  N  N320  1  0.49715000  0.44790000  0.60155000  1.0
  N  N321  1  0.25870000  0.49517000  0.98886000  1.0
  N  N322  1  0.00286000  0.55210000  0.10155000  1.0
  N  N323  1  0.24130000  0.50483000  0.48886000  1.0
  N  N324  1  0.10450000  0.25000000  0.58333000  1.0
  N  N325  1  0.41239000  0.25000000  0.46609000  1.0
  N  N326  1  0.39548000  0.75000000  0.08333000  1.0
  N  N327  1  0.08762000  0.75000000  0.96609000  1.0
  N  N328  1  0.89549000  0.75000000  0.41667000  1.0
  N  N329  1  0.58762000  0.75000000  0.53391000  1.0
  N  N330  1  0.60450000  0.25000000  0.91667000  1.0
  N  N331  1  0.91239000  0.25000000  0.03391000  1.0
  O  O332  1  0.47029000  0.09431000  0.45829000  1.0
  O  O333  1  0.30993000  0.14745000  0.51243000  1.0
  O  O334  1  0.02971000  0.90568000  0.95829000  1.0
  O  O335  1  0.19007000  0.85254000  0.01243000  1.0
  O  O336  1  0.52971000  0.59431000  0.54171000  1.0
  O  O337  1  0.69008000  0.64745000  0.48757000  1.0
  O  O338  1  0.97029000  0.40569000  0.04171000  1.0
  O  O339  1  0.80993000  0.35255000  0.98757000  1.0
  O  O340  1  0.52972000  0.90568000  0.54171000  1.0
  O  O341  1  0.69008000  0.85254000  0.48757000  1.0
  O  O342  1  0.97029000  0.09431000  0.04171000  1.0
  O  O343  1  0.80993000  0.14745000  0.98757000  1.0
  O  O344  1  0.47028000  0.40569000  0.45829000  1.0
  O  O345  1  0.30993000  0.35255000  0.51243000  1.0
  O  O346  1  0.02973000  0.59432000  0.95829000  1.0
  O  O347  1  0.19008000  0.64746000  0.01243000  1.0
  O  O348  1  0.35238000  0.25000000  0.70161000  1.0
  O  O349  1  0.38747000  0.24999000  0.60465000  1.0
  O  O350  1  0.07734000  0.25000000  0.47225000  1.0
  O  O351  1  0.82557000  0.25000000  0.47649000  1.0
  O  O352  1  0.14762000  0.75000000  0.20161000  1.0
  O  O353  1  0.11253000  0.75000000  0.10464000  1.0
  O  O354  1  0.42262000  0.75000000  0.97225000  1.0
  O  O355  1  0.67439000  0.75000000  0.97649000  1.0
  O  O356  1  0.64762000  0.75000000  0.29839000  1.0
  O  O357  1  0.61253000  0.75000000  0.39536000  1.0
  O  O358  1  0.92266000  0.75000000  0.52775000  1.0
  O  O359  1  0.17443000  0.75000000  0.52351000  1.0
  O  O360  1  0.85237000  0.25000000  0.79838000  1.0
  O  O361  1  0.88747000  0.25000000  0.89535000  1.0
  O  O362  1  0.57735000  0.25000000  0.02775000  1.0
  O  O363  1  0.32558000  0.25000000  0.02351000  1.0
