# generated using pymatgen
data_CoH16C24(NO2)2
_symmetry_space_group_name_H-M   'P 1'
_cell_length_a   14.36870000
_cell_length_b   18.07390000
_cell_length_c   19.06070000
_cell_angle_alpha   90.00010000
_cell_angle_beta   90.00000000
_cell_angle_gamma   90.00000000
_symmetry_Int_Tables_number   1
_chemical_formula_structural   CoH16C24(NO2)2
_chemical_formula_sum   'Co8 H128 C192 N16 O32'
_cell_volume   4950.03418739
_cell_formula_units_Z   8
loop_
 _symmetry_equiv_pos_site_id
 _symmetry_equiv_pos_as_xyz
  1  'x, y, z'
loop_
 _atom_site_type_symbol
 _atom_site_label
 _atom_site_symmetry_multiplicity
 _atom_site_fract_x
 _atom_site_fract_y
 _atom_site_fract_z
 _atom_site_occupancy
  Co  Co0  1  0.97610000  0.90635000  0.94177000  1.0
  Co  Co1  1  0.02391000  0.59365000  0.44177000  1.0
  Co  Co2  1  0.52391000  0.40635000  0.05823000  1.0
  Co  Co3  1  0.47609000  0.09365000  0.55823000  1.0
  Co  Co4  1  0.02391000  0.09366000  0.05824000  1.0
  Co  Co5  1  0.97609000  0.40634000  0.55824000  1.0
  Co  Co6  1  0.47609000  0.59365000  0.94177000  1.0
  Co  Co7  1  0.52391000  0.90635000  0.44177000  1.0
  H  H8  1  0.28030000  0.62992000  0.02723000  1.0
  H  H9  1  0.71970000  0.87008000  0.52723000  1.0
  H  H10  1  0.21970000  0.12992000  0.97277000  1.0
  H  H11  1  0.78030000  0.37008000  0.47277000  1.0
  H  H12  1  0.71971000  0.37009000  0.97277000  1.0
  H  H13  1  0.28030000  0.12991000  0.47277000  1.0
  H  H14  1  0.78030000  0.87008000  0.02723000  1.0
  H  H15  1  0.21970000  0.62992000  0.52723000  1.0
  H  H16  1  0.93250000  0.70177000  0.78580000  1.0
  H  H17  1  0.06750000  0.79822000  0.28580000  1.0
  H  H18  1  0.56750000  0.20177000  0.21420000  1.0
  H  H19  1  0.43250000  0.29822000  0.71420000  1.0
  H  H20  1  0.06750000  0.29822000  0.21420000  1.0
  H  H21  1  0.93250000  0.20177000  0.71420000  1.0
  H  H22  1  0.43250000  0.79823000  0.78580000  1.0
  H  H23  1  0.56750000  0.70177000  0.28580000  1.0
  H  H24  1  0.19864000  0.56529000  0.27264000  1.0
  H  H25  1  0.80136000  0.93471000  0.77264000  1.0
  H  H26  1  0.30136000  0.06529000  0.72736000  1.0
  H  H27  1  0.69864000  0.43471000  0.22736000  1.0
  H  H28  1  0.80136000  0.43471000  0.72736000  1.0
  H  H29  1  0.19864000  0.06529000  0.22736000  1.0
  H  H30  1  0.69864000  0.93471000  0.27264000  1.0
  H  H31  1  0.30136000  0.56529000  0.77264000  1.0
  H  H32  1  0.01899000  0.47944000  0.69671000  1.0
  H  H33  1  0.98100000  0.02056000  0.19671000  1.0
  H  H34  1  0.48101000  0.97944000  0.30330000  1.0
  H  H35  1  0.51899000  0.52056000  0.80330000  1.0
  H  H36  1  0.98101000  0.52056000  0.30330000  1.0
  H  H37  1  0.01899000  0.97944000  0.80330000  1.0
  H  H38  1  0.51899000  0.02056000  0.69670000  1.0
  H  H39  1  0.48101000  0.47944000  0.19670000  1.0
  H  H40  1  0.95780000  0.58028000  0.77225000  1.0
  H  H41  1  0.04219000  0.91972000  0.27225000  1.0
  H  H42  1  0.54220000  0.08028000  0.22775000  1.0
  H  H43  1  0.45780000  0.41972000  0.72775000  1.0
  H  H44  1  0.04220000  0.41972000  0.22775000  1.0
  H  H45  1  0.95780000  0.08028000  0.72775000  1.0
  H  H46  1  0.45780000  0.91972000  0.77225000  1.0
  H  H47  1  0.54220000  0.58028000  0.27225000  1.0
  H  H48  1  0.73092000  0.60346000  0.62507000  1.0
  H  H49  1  0.26907000  0.89654000  0.12507000  1.0
  H  H50  1  0.76907000  0.10346000  0.37493000  1.0
  H  H51  1  0.23093000  0.39654000  0.87493000  1.0
  H  H52  1  0.26908000  0.39655000  0.37493000  1.0
  H  H53  1  0.73092000  0.10346000  0.87493000  1.0
  H  H54  1  0.23093000  0.89654000  0.62507000  1.0
  H  H55  1  0.76908000  0.60346000  0.12507000  1.0
  H  H56  1  0.58885000  0.72879000  0.80364000  1.0
  H  H57  1  0.41115000  0.77122000  0.30364000  1.0
  H  H58  1  0.91115000  0.22878000  0.19636000  1.0
  H  H59  1  0.08885000  0.27122000  0.69636000  1.0
  H  H60  1  0.41115000  0.27122000  0.19636000  1.0
  H  H61  1  0.58885000  0.22878000  0.69636000  1.0
  H  H62  1  0.08885000  0.77122000  0.80364000  1.0
  H  H63  1  0.91115000  0.72878000  0.30364000  1.0
  H  H64  1  0.93616000  0.81093000  0.07007000  1.0
  H  H65  1  0.06384000  0.68907000  0.57007000  1.0
  H  H66  1  0.56385000  0.31093000  0.92992000  1.0
  H  H67  1  0.43615000  0.18906000  0.42993000  1.0
  H  H68  1  0.06385000  0.18906000  0.92993000  1.0
  H  H69  1  0.93615000  0.31093000  0.42993000  1.0
  H  H70  1  0.43616000  0.68907000  0.07007000  1.0
  H  H71  1  0.56384000  0.81093000  0.57007000  1.0
  H  H72  1  0.31532000  0.48958000  0.20690000  1.0
  H  H73  1  0.68468000  0.01042000  0.70690000  1.0
  H  H74  1  0.18468000  0.98958000  0.79310000  1.0
  H  H75  1  0.81532000  0.51042000  0.29310000  1.0
  H  H76  1  0.68468000  0.51042000  0.79310000  1.0
  H  H77  1  0.31532000  0.98958000  0.29310000  1.0
  H  H78  1  0.81532000  0.01042000  0.20690000  1.0
  H  H79  1  0.18468000  0.48958000  0.70690000  1.0
  H  H80  1  0.16735000  0.83961000  0.94384000  1.0
  H  H81  1  0.83265000  0.66039000  0.44384000  1.0
  H  H82  1  0.33265000  0.33961000  0.05616000  1.0
  H  H83  1  0.66735000  0.16039000  0.55616000  1.0
  H  H84  1  0.83265000  0.16039000  0.05616000  1.0
  H  H85  1  0.16735000  0.33961000  0.55616000  1.0
  H  H86  1  0.66735000  0.66039000  0.94384000  1.0
  H  H87  1  0.33265000  0.83961000  0.44384000  1.0
  H  H88  1  0.25549000  0.74211000  0.00677000  1.0
  H  H89  1  0.74451000  0.75789000  0.50677000  1.0
  H  H90  1  0.24452000  0.24211000  0.99323000  1.0
  H  H91  1  0.75548000  0.25789000  0.49323000  1.0
  H  H92  1  0.74452000  0.25789000  0.99323000  1.0
  H  H93  1  0.25548000  0.24211000  0.49323000  1.0
  H  H94  1  0.75549000  0.75788000  0.00677000  1.0
  H  H95  1  0.24452000  0.74211000  0.50677000  1.0
  H  H96  1  0.65535000  0.63464000  0.72462000  1.0
  H  H97  1  0.34465000  0.86536000  0.22462000  1.0
  H  H98  1  0.84465000  0.13464000  0.27538000  1.0
  H  H99  1  0.15535000  0.36536000  0.77538000  1.0
  H  H100  1  0.34465000  0.36536000  0.27538000  1.0
  H  H101  1  0.65535000  0.13463000  0.77538000  1.0
  H  H102  1  0.15535000  0.86536000  0.72462000  1.0
  H  H103  1  0.84465000  0.63463000  0.22462000  1.0
  H  H104  1  0.11687000  0.66771000  0.21442000  1.0
  H  H105  1  0.88313000  0.83229000  0.71442000  1.0
  H  H106  1  0.38314000  0.16771000  0.78558000  1.0
  H  H107  1  0.61686000  0.33229000  0.28558000  1.0
  H  H108  1  0.88314000  0.33229000  0.78558000  1.0
  H  H109  1  0.11686000  0.16771000  0.28558000  1.0
  H  H110  1  0.61687000  0.83229000  0.21442000  1.0
  H  H111  1  0.38313000  0.66771000  0.71442000  1.0
  H  H112  1  0.80055000  0.50018000  0.55694000  1.0
  H  H113  1  0.19945000  0.99982000  0.05694000  1.0
  H  H114  1  0.69945000  0.00018000  0.44306000  1.0
  H  H115  1  0.30055000  0.49982000  0.94306000  1.0
  H  H116  1  0.19946000  0.49982000  0.44306000  1.0
  H  H117  1  0.80055000  0.00018000  0.94306000  1.0
  H  H118  1  0.30055000  0.99982000  0.55694000  1.0
  H  H119  1  0.69946000  0.50018000  0.05693000  1.0
  H  H120  1  0.69465000  0.81078000  0.87371000  1.0
  H  H121  1  0.30535000  0.68923000  0.37371000  1.0
  H  H122  1  0.80535000  0.31077000  0.12629000  1.0
  H  H123  1  0.19465000  0.18923000  0.62629000  1.0
  H  H124  1  0.30535000  0.18923000  0.12629000  1.0
  H  H125  1  0.69465000  0.31077000  0.62630000  1.0
  H  H126  1  0.19465000  0.68923000  0.87370000  1.0
  H  H127  1  0.80535000  0.81077000  0.37371000  1.0
  H  H128  1  0.01342000  0.71172000  0.13881000  1.0
  H  H129  1  0.98658000  0.78828000  0.63882000  1.0
  H  H130  1  0.48658000  0.21172000  0.86118000  1.0
  H  H131  1  0.51341000  0.28828000  0.36119000  1.0
  H  H132  1  0.98659000  0.28828000  0.86119000  1.0
  H  H133  1  0.01341000  0.21172000  0.36119000  1.0
  H  H134  1  0.51342000  0.78828000  0.13881000  1.0
  H  H135  1  0.48658000  0.71172000  0.63882000  1.0
  C  C136  1  0.83860000  0.60188000  0.70520000  1.0
  C  C137  1  0.16139000  0.89812000  0.20520000  1.0
  C  C138  1  0.66140000  0.10188000  0.29480000  1.0
  C  C139  1  0.33860000  0.39812000  0.79480000  1.0
  C  C140  1  0.16140000  0.39812000  0.29480000  1.0
  C  C141  1  0.83860000  0.10188000  0.79480000  1.0
  C  C142  1  0.33860000  0.89812000  0.70520000  1.0
  C  C143  1  0.66140000  0.60188000  0.20520000  1.0
  C  C144  1  0.38024000  0.51593000  0.07489000  1.0
  C  C145  1  0.61975000  0.98408000  0.57489000  1.0
  C  C146  1  0.11976000  0.01593000  0.92511000  1.0
  C  C147  1  0.88024000  0.48407000  0.42511000  1.0
  C  C148  1  0.61976000  0.48407000  0.92511000  1.0
  C  C149  1  0.38024000  0.01593000  0.42510000  1.0
  C  C150  1  0.88025000  0.98408000  0.07489000  1.0
  C  C151  1  0.11975000  0.51593000  0.57489000  1.0
  C  C152  1  0.26075000  0.61605000  0.08090000  1.0
  C  C153  1  0.73925000  0.88395000  0.58090000  1.0
  C  C154  1  0.23925000  0.11606000  0.91910000  1.0
  C  C155  1  0.76075000  0.38394000  0.41910000  1.0
  C  C156  1  0.73926000  0.38395000  0.91910000  1.0
  C  C157  1  0.26075000  0.11605000  0.41910000  1.0
  C  C158  1  0.76075000  0.88395000  0.08090000  1.0
  C  C159  1  0.23925000  0.61606000  0.58090000  1.0
  C  C160  1  0.79885000  0.66069000  0.74946000  1.0
  C  C161  1  0.20114000  0.83931000  0.24946000  1.0
  C  C162  1  0.70115000  0.16069000  0.25054000  1.0
  C  C163  1  0.29885000  0.33931000  0.75054000  1.0
  C  C164  1  0.20115000  0.33931000  0.25054000  1.0
  C  C165  1  0.79885000  0.16069000  0.75054000  1.0
  C  C166  1  0.29885000  0.83931000  0.74946000  1.0
  C  C167  1  0.70115000  0.66069000  0.24946000  1.0
  C  C168  1  0.88138000  0.81066000  0.87472000  1.0
  C  C169  1  0.11862000  0.68934000  0.37472000  1.0
  C  C170  1  0.61862000  0.31066000  0.12528000  1.0
  C  C171  1  0.38138000  0.18934000  0.62528000  1.0
  C  C172  1  0.11862000  0.18934000  0.12528000  1.0
  C  C173  1  0.88138000  0.31066000  0.62528000  1.0
  C  C174  1  0.38139000  0.68934000  0.87472000  1.0
  C  C175  1  0.61862000  0.81066000  0.37472000  1.0
  C  C176  1  0.85699000  0.70653000  0.78955000  1.0
  C  C177  1  0.14301000  0.79346000  0.28955000  1.0
  C  C178  1  0.64301000  0.20653000  0.21045000  1.0
  C  C179  1  0.35699000  0.29347000  0.71045000  1.0
  C  C180  1  0.14301000  0.29347000  0.21045000  1.0
  C  C181  1  0.85699000  0.20653000  0.71045000  1.0
  C  C182  1  0.35699000  0.79347000  0.78955000  1.0
  C  C183  1  0.64301000  0.70653000  0.28955000  1.0
  C  C184  1  0.19084000  0.65609000  0.11567000  1.0
  C  C185  1  0.80916000  0.84391000  0.61567000  1.0
  C  C186  1  0.30916000  0.15609000  0.88432000  1.0
  C  C187  1  0.69083000  0.34391000  0.38432000  1.0
  C  C188  1  0.80917000  0.34391000  0.88433000  1.0
  C  C189  1  0.19084000  0.15609000  0.38432000  1.0
  C  C190  1  0.69084000  0.84391000  0.11567000  1.0
  C  C191  1  0.30916000  0.65609000  0.61568000  1.0
  C  C192  1  0.14241000  0.71701000  0.07904000  1.0
  C  C193  1  0.85760000  0.78299000  0.57904000  1.0
  C  C194  1  0.35760000  0.21701000  0.92096000  1.0
  C  C195  1  0.64240000  0.28299000  0.42096000  1.0
  C  C196  1  0.85760000  0.28299000  0.92096000  1.0
  C  C197  1  0.14240000  0.21701000  0.42096000  1.0
  C  C198  1  0.64241000  0.78299000  0.07904000  1.0
  C  C199  1  0.35760000  0.71701000  0.57904000  1.0
  C  C200  1  0.30514000  0.55629000  0.11341000  1.0
  C  C201  1  0.69486000  0.94371000  0.61341000  1.0
  C  C202  1  0.19486000  0.05629000  0.88659000  1.0
  C  C203  1  0.80514000  0.44371000  0.38659000  1.0
  C  C204  1  0.69486000  0.44371000  0.88659000  1.0
  C  C205  1  0.30514000  0.05629000  0.38659000  1.0
  C  C206  1  0.80514000  0.94371000  0.11341000  1.0
  C  C207  1  0.19486000  0.55629000  0.61341000  1.0
  C  C208  1  0.81948000  0.76037000  0.83386000  1.0
  C  C209  1  0.18052000  0.73963000  0.33386000  1.0
  C  C210  1  0.68052000  0.26036000  0.16614000  1.0
  C  C211  1  0.31948000  0.23963000  0.66614000  1.0
  C  C212  1  0.18052000  0.23964000  0.16614000  1.0
  C  C213  1  0.81948000  0.26036000  0.66614000  1.0
  C  C214  1  0.31948000  0.73964000  0.83386000  1.0
  C  C215  1  0.68052000  0.76036000  0.33386000  1.0
  C  C216  1  0.21474000  0.57819000  0.21820000  1.0
  C  C217  1  0.78526000  0.92181000  0.71820000  1.0
  C  C218  1  0.28527000  0.07819000  0.78179000  1.0
  C  C219  1  0.71473000  0.42181000  0.28180000  1.0
  C  C220  1  0.78527000  0.42181000  0.78179000  1.0
  C  C221  1  0.21473000  0.07819000  0.28179000  1.0
  C  C222  1  0.71474000  0.92181000  0.21820000  1.0
  C  C223  1  0.28526000  0.57819000  0.71820000  1.0
  C  C224  1  0.95569000  0.50901000  0.68253000  1.0
  C  C225  1  0.04431000  0.99099000  0.18253000  1.0
  C  C226  1  0.54431000  0.00900000  0.31747000  1.0
  C  C227  1  0.45569000  0.49099000  0.81747000  1.0
  C  C228  1  0.04431000  0.49099000  0.31747000  1.0
  C  C229  1  0.95569000  0.00901000  0.81747000  1.0
  C  C230  1  0.45569000  0.99099000  0.68253000  1.0
  C  C231  1  0.54431000  0.50900000  0.18253000  1.0
  C  C232  1  0.92144000  0.56577000  0.72404000  1.0
  C  C233  1  0.07855000  0.93423000  0.22404000  1.0
  C  C234  1  0.57856000  0.06577000  0.27596000  1.0
  C  C235  1  0.42144000  0.43423000  0.77596000  1.0
  C  C236  1  0.07856000  0.43423000  0.27596000  1.0
  C  C237  1  0.92144000  0.06577000  0.77596000  1.0
  C  C238  1  0.42144000  0.93423000  0.72404000  1.0
  C  C239  1  0.57856000  0.56577000  0.22404000  1.0
  C  C240  1  0.79462000  0.57725000  0.64363000  1.0
  C  C241  1  0.20538000  0.92275000  0.14363000  1.0
  C  C242  1  0.70538000  0.07725000  0.35637000  1.0
  C  C243  1  0.29462000  0.42275000  0.85637000  1.0
  C  C244  1  0.20539000  0.42275000  0.35637000  1.0
  C  C245  1  0.79462000  0.07725000  0.85637000  1.0
  C  C246  1  0.29462000  0.92275000  0.64363000  1.0
  C  C247  1  0.70538000  0.57725000  0.14363000  1.0
  C  C248  1  0.66414000  0.72435000  0.79827000  1.0
  C  C249  1  0.33586000  0.77565000  0.29827000  1.0
  C  C250  1  0.83586000  0.22435000  0.20173000  1.0
  C  C251  1  0.16414000  0.27565000  0.70173000  1.0
  C  C252  1  0.33586000  0.27565000  0.20173000  1.0
  C  C253  1  0.66414000  0.22435000  0.70173000  1.0
  C  C254  1  0.16414000  0.77565000  0.79827000  1.0
  C  C255  1  0.83586000  0.72435000  0.29827000  1.0
  C  C256  1  0.00710000  0.79378000  0.05782000  1.0
  C  C257  1  0.99290000  0.70622000  0.55782000  1.0
  C  C258  1  0.49290000  0.29378000  0.94218000  1.0
  C  C259  1  0.50710000  0.20622000  0.44218000  1.0
  C  C260  1  0.99291000  0.20622000  0.94218000  1.0
  C  C261  1  0.00710000  0.29378000  0.44218000  1.0
  C  C262  1  0.50710000  0.70622000  0.05782000  1.0
  C  C263  1  0.49290000  0.79378000  0.55782000  1.0
  C  C264  1  0.28122000  0.53676000  0.18222000  1.0
  C  C265  1  0.71878000  0.96324000  0.68222000  1.0
  C  C266  1  0.21878000  0.03676000  0.81778000  1.0
  C  C267  1  0.78122000  0.46324000  0.31778000  1.0
  C  C268  1  0.71879000  0.46324000  0.81778000  1.0
  C  C269  1  0.28122000  0.03676000  0.31778000  1.0
  C  C270  1  0.78122000  0.96324000  0.18222000  1.0
  C  C271  1  0.21878000  0.53676000  0.68222000  1.0
  C  C272  1  0.13599000  0.80959000  0.98739000  1.0
  C  C273  1  0.86401000  0.69041000  0.48739000  1.0
  C  C274  1  0.36401000  0.30959000  0.01261000  1.0
  C  C275  1  0.63599000  0.19041000  0.51261000  1.0
  C  C276  1  0.86401000  0.19041000  0.01261000  1.0
  C  C277  1  0.13599000  0.30959000  0.51261000  1.0
  C  C278  1  0.63599000  0.69041000  0.98739000  1.0
  C  C279  1  0.36401000  0.80959000  0.48739000  1.0
  C  C280  1  0.18482000  0.75527000  0.02334000  1.0
  C  C281  1  0.81518000  0.74474000  0.52334000  1.0
  C  C282  1  0.31518000  0.25527000  0.97666000  1.0
  C  C283  1  0.68482000  0.24473000  0.47666000  1.0
  C  C284  1  0.81518000  0.24474000  0.97666000  1.0
  C  C285  1  0.18482000  0.25526000  0.47666000  1.0
  C  C286  1  0.68482000  0.74473000  0.02334000  1.0
  C  C287  1  0.31518000  0.75527000  0.52334000  1.0
  C  C288  1  0.70196000  0.67078000  0.75410000  1.0
  C  C289  1  0.29803000  0.82922000  0.25410000  1.0
  C  C290  1  0.79804000  0.17078000  0.24590000  1.0
  C  C291  1  0.20196000  0.32922000  0.74590000  1.0
  C  C292  1  0.29804000  0.32922000  0.24590000  1.0
  C  C293  1  0.70196000  0.17078000  0.74590000  1.0
  C  C294  1  0.20196000  0.82922000  0.75410000  1.0
  C  C295  1  0.79804000  0.67078000  0.25410000  1.0
  C  C296  1  0.16872000  0.63646000  0.18510000  1.0
  C  C297  1  0.83128000  0.86354000  0.68510000  1.0
  C  C298  1  0.33128000  0.13646000  0.81490000  1.0
  C  C299  1  0.66872000  0.36354000  0.31490000  1.0
  C  C300  1  0.83128000  0.36354000  0.81491000  1.0
  C  C301  1  0.16872000  0.13646000  0.31490000  1.0
  C  C302  1  0.66872000  0.86354000  0.18509000  1.0
  C  C303  1  0.33128000  0.63646000  0.68510000  1.0
  C  C304  1  0.83360000  0.52010000  0.60480000  1.0
  C  C305  1  0.16640000  0.97990000  0.10480000  1.0
  C  C306  1  0.66640000  0.02010000  0.39520000  1.0
  C  C307  1  0.33360000  0.47990000  0.89520000  1.0
  C  C308  1  0.16640000  0.47990000  0.39520000  1.0
  C  C309  1  0.83360000  0.02010000  0.89521000  1.0
  C  C310  1  0.33360000  0.97990000  0.60480000  1.0
  C  C311  1  0.66640000  0.52010000  0.10480000  1.0
  C  C312  1  0.72272000  0.76894000  0.83838000  1.0
  C  C313  1  0.27728000  0.73106000  0.33837000  1.0
  C  C314  1  0.77728000  0.26894000  0.16163000  1.0
  C  C315  1  0.22272000  0.23106000  0.66163000  1.0
  C  C316  1  0.27728000  0.23106000  0.16163000  1.0
  C  C317  1  0.72272000  0.26894000  0.66163000  1.0
  C  C318  1  0.22272000  0.73106000  0.83837000  1.0
  C  C319  1  0.77728000  0.76894000  0.33837000  1.0
  C  C320  1  0.05126000  0.73872000  0.09636000  1.0
  C  C321  1  0.94874000  0.76128000  0.59636000  1.0
  C  C322  1  0.44875000  0.23872000  0.90364000  1.0
  C  C323  1  0.55125000  0.26128000  0.40364000  1.0
  C  C324  1  0.94875000  0.26128000  0.90364000  1.0
  C  C325  1  0.05125000  0.23872000  0.40364000  1.0
  C  C326  1  0.55126000  0.76128000  0.09636000  1.0
  C  C327  1  0.44874000  0.73872000  0.59636000  1.0
  N  N328  1  0.04780000  0.82869000  0.00333000  1.0
  N  N329  1  0.95220000  0.67131000  0.50333000  1.0
  N  N330  1  0.45220000  0.32869000  0.99667000  1.0
  N  N331  1  0.54780000  0.17131000  0.49667000  1.0
  N  N332  1  0.95220000  0.17131000  0.99667000  1.0
  N  N333  1  0.04780000  0.32869000  0.49667000  1.0
  N  N334  1  0.54780000  0.67131000  0.00333000  1.0
  N  N335  1  0.45220000  0.82869000  0.50333000  1.0
  N  N336  1  0.91349000  0.48627000  0.62315000  1.0
  N  N337  1  0.08651000  0.01373000  0.12315000  1.0
  N  N338  1  0.58651000  0.98627000  0.37685000  1.0
  N  N339  1  0.41349000  0.51373000  0.87685000  1.0
  N  N340  1  0.08651000  0.51373000  0.37685000  1.0
  N  N341  1  0.91349000  0.98627000  0.87685000  1.0
  N  N342  1  0.41349000  0.01373000  0.62315000  1.0
  N  N343  1  0.58651000  0.48627000  0.12315000  1.0
  O  O344  1  0.39795000  0.44881000  0.09170000  1.0
  O  O345  1  0.60205000  0.05119000  0.59170000  1.0
  O  O346  1  0.10205000  0.94882000  0.90830000  1.0
  O  O347  1  0.89795000  0.55118000  0.40830000  1.0
  O  O348  1  0.60205000  0.55118000  0.90830000  1.0
  O  O349  1  0.39795000  0.94882000  0.40830000  1.0
  O  O350  1  0.89795000  0.05119000  0.09170000  1.0
  O  O351  1  0.10205000  0.44881000  0.59170000  1.0
  O  O352  1  0.84810000  0.84420000  0.92820000  1.0
  O  O353  1  0.15190000  0.65580000  0.42820000  1.0
  O  O354  1  0.65190000  0.34420000  0.07180000  1.0
  O  O355  1  0.34810000  0.15580000  0.57180000  1.0
  O  O356  1  0.15190000  0.15580000  0.07180000  1.0
  O  O357  1  0.84810000  0.34420000  0.57180000  1.0
  O  O358  1  0.34810000  0.65580000  0.92820000  1.0
  O  O359  1  0.65190000  0.84420000  0.42820000  1.0
  O  O360  1  0.96537000  0.82171000  0.85572000  1.0
  O  O361  1  0.03462000  0.67829000  0.35572000  1.0
  O  O362  1  0.53463000  0.32171000  0.14428000  1.0
  O  O363  1  0.46537000  0.17829000  0.64428000  1.0
  O  O364  1  0.03462000  0.17829000  0.14428000  1.0
  O  O365  1  0.96538000  0.32171000  0.64428000  1.0
  O  O366  1  0.46538000  0.67829000  0.85572000  1.0
  O  O367  1  0.53463000  0.82171000  0.35572000  1.0
  O  O368  1  0.42481000  0.55144000  0.02841000  1.0
  O  O369  1  0.57519000  0.94856000  0.52841000  1.0
  O  O370  1  0.07520000  0.05144000  0.97159000  1.0
  O  O371  1  0.92480000  0.44856000  0.47159000  1.0
  O  O372  1  0.57520000  0.44856000  0.97159000  1.0
  O  O373  1  0.42480000  0.05144000  0.47159000  1.0
  O  O374  1  0.92481000  0.94856000  0.02842000  1.0
  O  O375  1  0.07519000  0.55144000  0.52841000  1.0
