# generated using pymatgen
data_Gd2H8C5S2N2O15
_symmetry_space_group_name_H-M   'P 1'
_cell_length_a   6.44287000
_cell_length_b   13.31410000
_cell_length_c   18.23150000
_cell_angle_alpha   90.00000000
_cell_angle_beta   93.80240000
_cell_angle_gamma   90.00000000
_symmetry_Int_Tables_number   1
_chemical_formula_structural   Gd2H8C5S2N2O15
_chemical_formula_sum   'Gd8 H32 C20 S8 N8 O60'
_cell_volume   1560.47392037
_cell_formula_units_Z   4
loop_
 _symmetry_equiv_pos_site_id
 _symmetry_equiv_pos_as_xyz
  1  'x, y, z'
loop_
 _atom_site_type_symbol
 _atom_site_label
 _atom_site_symmetry_multiplicity
 _atom_site_fract_x
 _atom_site_fract_y
 _atom_site_fract_z
 _atom_site_occupancy
  Gd  Gd0  1  0.26106000  0.30652000  0.71285000  1.0
  Gd  Gd1  1  0.23894000  0.80652000  0.78715000  1.0
  Gd  Gd2  1  0.73894000  0.69348000  0.28715000  1.0
  Gd  Gd3  1  0.76106000  0.19348000  0.21285000  1.0
  Gd  Gd4  1  0.09547000  0.16955000  0.90165000  1.0
  Gd  Gd5  1  0.40453000  0.66955000  0.59835000  1.0
  Gd  Gd6  1  0.90453000  0.83045000  0.09835000  1.0
  Gd  Gd7  1  0.59547000  0.33045000  0.40165000  1.0
  H  H8  1  0.30621000  0.01174000  0.49539000  1.0
  H  H9  1  0.19379000  0.51174000  0.00461000  1.0
  H  H10  1  0.69379000  0.98826000  0.50461000  1.0
  H  H11  1  0.80621000  0.48826000  0.99539000  1.0
  H  H12  1  0.22932000  0.19751000  0.51452000  1.0
  H  H13  1  0.27068000  0.69752000  0.98548000  1.0
  H  H14  1  0.77068000  0.80248000  0.48548000  1.0
  H  H15  1  0.72932000  0.30248000  0.01452000  1.0
  H  H16  1  0.57003000  0.19657000  0.87792000  1.0
  H  H17  1  0.92997000  0.69657000  0.62208000  1.0
  H  H18  1  0.42997000  0.80343000  0.12208000  1.0
  H  H19  1  0.07003000  0.30343000  0.37792000  1.0
  H  H20  1  0.53235000  0.08627000  0.89963000  1.0
  H  H21  1  0.96766000  0.58627000  0.60037000  1.0
  H  H22  1  0.46765000  0.91374000  0.10037000  1.0
  H  H23  1  0.03235000  0.41374000  0.39963000  1.0
  H  H24  1  0.17533000  0.19485000  0.06316000  1.0
  H  H25  1  0.32467000  0.69485000  0.43684000  1.0
  H  H26  1  0.82467000  0.80515000  0.93684000  1.0
  H  H27  1  0.67533000  0.30515000  0.56316000  1.0
  H  H28  1  0.39875000  0.17435000  0.03851000  1.0
  H  H29  1  0.10125000  0.67436000  0.46149000  1.0
  H  H30  1  0.60125000  0.82564000  0.96149000  1.0
  H  H31  1  0.89875000  0.32564000  0.53851000  1.0
  H  H32  1  0.87844000  0.97416000  0.85276000  1.0
  H  H33  1  0.62155000  0.47416000  0.64724000  1.0
  H  H34  1  0.12155000  0.02584000  0.14724000  1.0
  H  H35  1  0.37845000  0.52584000  0.35276000  1.0
  H  H36  1  0.77887000  0.05569000  0.79858000  1.0
  H  H37  1  0.72113000  0.55569000  0.70142000  1.0
  H  H38  1  0.22113000  0.94431000  0.20142000  1.0
  H  H39  1  0.27887000  0.44431000  0.29858000  1.0
  C  C40  1  0.23700000  0.14067000  0.55718000  1.0
  C  C41  1  0.26301000  0.64067000  0.94282000  1.0
  C  C42  1  0.76300000  0.85932000  0.44282000  1.0
  C  C43  1  0.73700000  0.35932000  0.05718000  1.0
  C  C44  1  0.28032000  0.99098000  0.61014000  1.0
  C  C45  1  0.21968000  0.49098000  0.88986000  1.0
  C  C46  1  0.71968000  0.00902000  0.38986000  1.0
  C  C47  1  0.78032000  0.50902000  0.11014000  1.0
  C  C48  1  0.24080000  0.06356000  0.66237000  1.0
  C  C49  1  0.25920000  0.56356000  0.83763000  1.0
  C  C50  1  0.75920000  0.93644000  0.33763000  1.0
  C  C51  1  0.74080000  0.43644000  0.16237000  1.0
  C  C52  1  0.33425000  0.88358000  0.60933000  1.0
  C  C53  1  0.16575000  0.38358000  0.89067000  1.0
  C  C54  1  0.66575000  0.11642000  0.39067000  1.0
  C  C55  1  0.83425000  0.61642000  0.10933000  1.0
  C  C56  1  0.23060000  0.05926000  0.74297000  1.0
  C  C57  1  0.26940000  0.55926000  0.75703000  1.0
  C  C58  1  0.76940000  0.94074000  0.25703000  1.0
  C  C59  1  0.73060000  0.44074000  0.24297000  1.0
  S  S60  1  0.72199000  0.28612000  0.76353000  1.0
  S  S61  1  0.77801000  0.78612000  0.73647000  1.0
  S  S62  1  0.27801000  0.71388000  0.23647000  1.0
  S  S63  1  0.22199000  0.21388000  0.26353000  1.0
  S  S64  1  0.31020000  0.40091000  0.55891000  1.0
  S  S65  1  0.18980000  0.90091000  0.94109000  1.0
  S  S66  1  0.68980000  0.59909000  0.44109000  1.0
  S  S67  1  0.81020000  0.09909000  0.05891000  1.0
  N  N68  1  0.21609000  0.15568000  0.62830000  1.0
  N  N69  1  0.28391000  0.65568000  0.87170000  1.0
  N  N70  1  0.78391000  0.84432000  0.37170000  1.0
  N  N71  1  0.71610000  0.34432000  0.12830000  1.0
  N  N72  1  0.27670000  0.04282000  0.54455000  1.0
  N  N73  1  0.22331000  0.54282000  0.95544000  1.0
  N  N74  1  0.72331000  0.95718000  0.45544000  1.0
  N  N75  1  0.77670000  0.45718000  0.04456000  1.0
  O  O76  1  0.17474000  0.14179000  0.77288000  1.0
  O  O77  1  0.32526000  0.64179000  0.72712000  1.0
  O  O78  1  0.82526000  0.85821000  0.22712000  1.0
  O  O79  1  0.67474000  0.35821000  0.27288000  1.0
  O  O80  1  0.59431000  0.37827000  0.76936000  1.0
  O  O81  1  0.90569000  0.87827000  0.73064000  1.0
  O  O82  1  0.40569000  0.62173000  0.23064000  1.0
  O  O83  1  0.09431000  0.12173000  0.26936000  1.0
  O  O84  1  0.79571000  0.25051000  0.83893000  1.0
  O  O85  1  0.70429000  0.75051000  0.66107000  1.0
  O  O86  1  0.20429000  0.74949000  0.16107000  1.0
  O  O87  1  0.29571000  0.24949000  0.33893000  1.0
  O  O88  1  0.90160000  0.30498000  0.71903000  1.0
  O  O89  1  0.59840000  0.80498000  0.78097000  1.0
  O  O90  1  0.09840000  0.69502000  0.28097000  1.0
  O  O91  1  0.40160000  0.19502000  0.21903000  1.0
  O  O92  1  0.58120000  0.20800000  0.72819000  1.0
  O  O93  1  0.91880000  0.70800000  0.77181000  1.0
  O  O94  1  0.41880000  0.79200000  0.27181000  1.0
  O  O95  1  0.08120000  0.29200000  0.22819000  1.0
  O  O96  1  0.34102000  0.35003000  0.48853000  1.0
  O  O97  1  0.15898000  0.85003000  0.01147000  1.0
  O  O98  1  0.65898000  0.64997000  0.51147000  1.0
  O  O99  1  0.84102000  0.14997000  0.98853000  1.0
  O  O100  1  0.11376000  0.36633000  0.58953000  1.0
  O  O101  1  0.38624000  0.86633000  0.91047000  1.0
  O  O102  1  0.88624000  0.63367000  0.41047000  1.0
  O  O103  1  0.61376000  0.13367000  0.08953000  1.0
  O  O104  1  0.47956000  0.36836000  0.61556000  1.0
  O  O105  1  0.02043000  0.86836000  0.88444000  1.0
  O  O106  1  0.52044000  0.63164000  0.38444000  1.0
  O  O107  1  0.97956000  0.13164000  0.11556000  1.0
  O  O108  1  0.31063000  0.51051000  0.54938000  1.0
  O  O109  1  0.18937000  0.01051000  0.95062000  1.0
  O  O110  1  0.68936000  0.48949000  0.45062000  1.0
  O  O111  1  0.81063000  0.98949000  0.04938000  1.0
  O  O112  1  0.46435000  0.15184000  0.89756000  1.0
  O  O113  1  0.03565000  0.65184000  0.60244000  1.0
  O  O114  1  0.53565000  0.84816000  0.10244000  1.0
  O  O115  1  0.96435000  0.34817000  0.39756000  1.0
  O  O116  1  0.26357000  0.20466000  0.02166000  1.0
  O  O117  1  0.23643000  0.70466000  0.47834000  1.0
  O  O118  1  0.73643000  0.79534000  0.97834000  1.0
  O  O119  1  0.76357000  0.29534000  0.52166000  1.0
  O  O120  1  0.83282000  0.04525000  0.84921000  1.0
  O  O121  1  0.66718000  0.54525000  0.65079000  1.0
  O  O122  1  0.16718000  0.95475000  0.15079000  1.0
  O  O123  1  0.33282000  0.45475000  0.34921000  1.0
  O  O124  1  0.43348000  0.85224000  0.55656000  1.0
  O  O125  1  0.06652000  0.35225000  0.94344000  1.0
  O  O126  1  0.56652000  0.14775000  0.44344000  1.0
  O  O127  1  0.93348000  0.64775000  0.05656000  1.0
  O  O128  1  0.27715000  0.82274000  0.65923000  1.0
  O  O129  1  0.22285000  0.32274000  0.84077000  1.0
  O  O130  1  0.72286000  0.17726000  0.34077000  1.0
  O  O131  1  0.77714000  0.67726000  0.15923000  1.0
  O  O132  1  0.27602000  0.98030000  0.77828000  1.0
  O  O133  1  0.22398000  0.48030000  0.72172000  1.0
  O  O134  1  0.72398000  0.01970000  0.22172000  1.0
  O  O135  1  0.77602000  0.51970000  0.27828000  1.0
