# generated using pymatgen
data_ZnH10C21N2(O3F2)2
_symmetry_space_group_name_H-M   'P 1'
_cell_length_a   16.43400000
_cell_length_b   17.38160000
_cell_length_c   17.68120000
_cell_angle_alpha   89.74280000
_cell_angle_beta   84.58830000
_cell_angle_gamma   89.15730000
_symmetry_Int_Tables_number   1
_chemical_formula_structural   ZnH10C21N2(O3F2)2
_chemical_formula_sum   'Zn2 H20 C42 N4 O12 F8'
_cell_volume   5027.54064653
_cell_formula_units_Z   2
loop_
 _symmetry_equiv_pos_site_id
 _symmetry_equiv_pos_as_xyz
  1  'x, y, z'
loop_
 _atom_site_type_symbol
 _atom_site_label
 _atom_site_symmetry_multiplicity
 _atom_site_fract_x
 _atom_site_fract_y
 _atom_site_fract_z
 _atom_site_occupancy
  Zn  Zn0  1  0.41389000  0.49963000  0.50252000  1.0
  Zn  Zn1  1  0.58556000  0.50653000  0.49768000  1.0
  H  H2  1  0.71758000  0.42577000  0.57439000  1.0
  H  H3  1  0.86910000  0.42514000  0.57229000  1.0
  H  H4  1  0.12863000  0.39675000  0.60087000  1.0
  H  H5  1  0.12747000  0.57499000  0.42634000  1.0
  H  H6  1  0.99928000  0.56249000  0.43821000  1.0
  H  H7  1  0.99926000  0.43618000  0.56146000  1.0
  H  H8  1  0.61554000  0.50450000  0.73674000  1.0
  H  H9  1  0.61000000  0.50430000  0.87713000  1.0
  H  H10  1  0.65354000  0.50597000  0.11261000  1.0
  H  H11  1  0.38884000  0.49598000  0.12299000  1.0
  H  H12  1  0.40619000  0.49638000  0.00331000  1.0
  H  H13  1  0.59394000  0.50381000  0.99678000  1.0
  H  H14  1  0.61594000  0.75095000  0.49676000  1.0
  H  H15  1  0.61168000  0.89624000  0.49600000  1.0
  H  H16  1  0.65131000  0.11156000  0.49492000  1.0
  H  H17  1  0.38753000  0.10596000  0.50354000  1.0
  H  H18  1  0.35336000  0.68533000  0.50468000  1.0
  H  H19  1  0.34770000  0.95221000  0.50539000  1.0
  H  H20  1  0.64500000  0.31672000  0.49458000  1.0
  H  H21  1  0.37747000  0.30985000  0.50403000  1.0
  C  C22  1  0.49422000  0.49972000  0.64710000  1.0
  C  C23  1  0.50999000  0.34683000  0.49996000  1.0
  C  C24  1  0.50728000  0.50013000  0.35368000  1.0
  C  C25  1  0.49008000  0.65517000  0.50226000  1.0
  C  C26  1  0.75489000  0.46361000  0.53652000  1.0
  C  C27  1  0.83908000  0.46403000  0.53492000  1.0
  C  C28  1  0.88536000  0.51433000  0.48534000  1.0
  C  C29  1  0.84060000  0.56156000  0.43953000  1.0
  C  C30  1  0.75542000  0.55765000  0.44451000  1.0
  C  C31  1  0.97389000  0.52022000  0.47934000  1.0
  C  C32  1  0.02440000  0.47853000  0.52014000  1.0
  C  C33  1  0.15778000  0.43796000  0.56093000  1.0
  C  C34  1  0.11307000  0.48494000  0.51434000  1.0
  C  C35  1  0.15656000  0.53623000  0.46436000  1.0
  C  C36  1  0.24062000  0.53730000  0.46412000  1.0
  C  C37  1  0.24200000  0.44498000  0.55513000  1.0
  C  C38  1  0.48626000  0.49928000  0.73218000  1.0
  C  C39  1  0.55708000  0.50205000  0.77116000  1.0
  C  C40  1  0.55348000  0.50200000  0.84963000  1.0
  C  C41  1  0.47799000  0.49912000  0.89487000  1.0
  C  C42  1  0.40776000  0.49635000  0.85567000  1.0
  C  C43  1  0.41098000  0.49639000  0.77649000  1.0
  C  C44  1  0.46902000  0.49884000  0.97737000  1.0
  C  C45  1  0.53092000  0.50136000  0.02256000  1.0
  C  C46  1  0.59314000  0.50356000  0.14370000  1.0
  C  C47  1  0.52227000  0.50097000  0.10520000  1.0
  C  C48  1  0.44630000  0.49805000  0.14886000  1.0
  C  C49  1  0.44298000  0.49768000  0.22729000  1.0
  C  C50  1  0.51265000  0.50015000  0.26863000  1.0
  C  C51  1  0.58741000  0.50311000  0.22243000  1.0
  C  C52  1  0.48537000  0.74024000  0.50157000  1.0
  C  C53  1  0.55836000  0.78307000  0.49876000  1.0
  C  C54  1  0.55643000  0.86221000  0.49833000  1.0
  C  C55  1  0.48003000  0.90110000  0.50090000  1.0
  C  C56  1  0.40646000  0.85985000  0.50359000  1.0
  C  C57  1  0.40861000  0.77831000  0.50372000  1.0
  C  C58  1  0.59299000  0.14231000  0.49694000  1.0
  C  C59  1  0.52026000  0.10090000  0.49929000  1.0
  C  C60  1  0.44381000  0.13828000  0.50168000  1.0
  C  C61  1  0.44027000  0.21831000  0.50178000  1.0
  C  C62  1  0.51350000  0.26249000  0.49955000  1.0
  C  C63  1  0.59010000  0.22255000  0.49706000  1.0
  N  N64  1  0.71329000  0.51025000  0.49151000  1.0
  N  N65  1  0.28449000  0.49318000  0.50809000  1.0
  N  N66  1  0.46789000  0.98068000  0.50113000  1.0
  N  N67  1  0.53240000  0.02038000  0.49896000  1.0
  O  O68  1  0.42854000  0.50073000  0.61449000  1.0
  O  O69  1  0.56663000  0.49919000  0.61392000  1.0
  O  O70  1  0.57721000  0.38449000  0.49878000  1.0
  O  O71  1  0.43966000  0.38071000  0.50157000  1.0
  O  O72  1  0.57395000  0.50203000  0.38471000  1.0
  O  O73  1  0.43611000  0.49839000  0.38880000  1.0
  O  O74  1  0.42180000  0.61871000  0.50285000  1.0
  O  O75  1  0.55948000  0.62209000  0.50221000  1.0
  O  O76  1  0.33693000  0.74151000  0.50592000  1.0
  O  O77  1  0.33345000  0.89706000  0.50601000  1.0
  O  O78  1  0.66141000  0.26069000  0.49468000  1.0
  O  O79  1  0.36605000  0.25317000  0.50427000  1.0
  F  F80  1  0.71461000  0.60372000  0.40056000  1.0
  F  F81  1  0.87834000  0.61181000  0.39003000  1.0
  F  F82  1  0.28330000  0.58577000  0.41746000  1.0
  F  F83  1  0.28581000  0.40083000  0.59873000  1.0
  F  F84  1  0.33874000  0.49336000  0.74624000  1.0
  F  F85  1  0.33278000  0.49342000  0.89521000  1.0
  F  F86  1  0.36710000  0.49468000  0.26448000  1.0
  F  F87  1  0.65921000  0.50581000  0.25419000  1.0
