# generated using pymatgen
data_TlPH12C16(N3O)2
_symmetry_space_group_name_H-M   'P 1'
_cell_length_a   8.26612000
_cell_length_b   8.56048000
_cell_length_c   13.75600000
_cell_angle_alpha   100.96500000
_cell_angle_beta   100.30100000
_cell_angle_gamma   95.58270000
_symmetry_Int_Tables_number   1
_chemical_formula_structural   TlPH12C16(N3O)2
_chemical_formula_sum   'Tl2 P2 H24 C32 N12 O4'
_cell_volume   931.50115857
_cell_formula_units_Z   2
loop_
 _symmetry_equiv_pos_site_id
 _symmetry_equiv_pos_as_xyz
  1  'x, y, z'
loop_
 _atom_site_type_symbol
 _atom_site_label
 _atom_site_symmetry_multiplicity
 _atom_site_fract_x
 _atom_site_fract_y
 _atom_site_fract_z
 _atom_site_occupancy
  Tl  Tl0  1  0.28319000  0.91698000  0.22484000  1.0
  Tl  Tl1  1  0.71681000  0.08302000  0.77516000  1.0
  P  P2  1  0.74372000  0.86708000  0.16040000  1.0
  P  P3  1  0.25629000  0.13292000  0.83960000  1.0
  H  H4  1  0.92317000  0.15693000  0.51672000  1.0
  H  H5  1  0.07683000  0.84308000  0.48328000  1.0
  H  H6  1  0.00750000  0.97174000  0.35102000  1.0
  H  H7  1  0.99250000  0.02826000  0.64897000  1.0
  H  H8  1  0.16348000  0.23654000  0.42633000  1.0
  H  H9  1  0.83652000  0.76345000  0.57367000  1.0
  H  H10  1  0.24852000  0.41548000  0.59868000  1.0
  H  H11  1  0.75148000  0.58452000  0.40132000  1.0
  H  H12  1  0.54868000  0.45372000  0.68554000  1.0
  H  H13  1  0.45132000  0.54629000  0.31446000  1.0
  H  H14  1  0.74883000  0.31492000  0.59566000  1.0
  H  H15  1  0.25117000  0.68508000  0.40434000  1.0
  H  H16  1  0.63321000  0.08648000  0.01599000  1.0
  H  H17  1  0.36678000  0.91352000  0.98401000  1.0
  H  H18  1  0.87649000  0.30662000  0.98960000  1.0
  H  H19  1  0.12351000  0.69338000  0.01040000  1.0
  H  H20  1  0.58445000  0.22901000  0.21199000  1.0
  H  H21  1  0.41555000  0.77098000  0.78802000  1.0
  H  H22  1  0.65268000  0.48578000  0.15378000  1.0
  H  H23  1  0.34732000  0.51422000  0.84623000  1.0
  H  H24  1  0.41983000  0.60636000  0.06794000  1.0
  H  H25  1  0.58018000  0.39365000  0.93206000  1.0
  H  H26  1  0.12802000  0.46407000  0.04001000  1.0
  H  H27  1  0.87199000  0.53593000  0.95998000  1.0
  C  C28  1  0.67335000  0.11418000  0.41046000  1.0
  C  C29  1  0.32666000  0.88582000  0.58954000  1.0
  C  C30  1  0.84437000  0.10455000  0.44367000  1.0
  C  C31  1  0.15563000  0.89545000  0.55633000  1.0
  C  C32  1  0.89038000  0.01140000  0.36215000  1.0
  C  C33  1  0.10962000  0.98860000  0.63785000  1.0
  C  C34  1  0.29229000  0.25478000  0.46699000  1.0
  C  C35  1  0.70772000  0.74522000  0.53302000  1.0
  C  C36  1  0.33969000  0.35558000  0.56269000  1.0
  C  C37  1  0.66031000  0.64442000  0.43731000  1.0
  C  C38  1  0.50618000  0.37658000  0.61069000  1.0
  C  C39  1  0.49382000  0.62342000  0.38931000  1.0
  C  C40  1  0.61731000  0.29774000  0.56101000  1.0
  C  C41  1  0.38270000  0.70227000  0.43899000  1.0
  C  C42  1  0.55897000  0.19735000  0.46516000  1.0
  C  C43  1  0.44103000  0.80265000  0.53484000  1.0
  C  C44  1  0.76466000  0.10996000  0.04939000  1.0
  C  C45  1  0.23533000  0.89004000  0.95061000  1.0
  C  C46  1  0.88892000  0.22041000  0.03775000  1.0
  C  C47  1  0.11108000  0.77959000  0.96225000  1.0
  C  C48  1  0.03648000  0.19257000  0.09908000  1.0
  C  C49  1  0.96352000  0.80743000  0.90091000  1.0
  C  C50  1  0.48743000  0.28629000  0.17342000  1.0
  C  C51  1  0.51257000  0.71370000  0.82658000  1.0
  C  C52  1  0.52484000  0.42816000  0.14144000  1.0
  C  C53  1  0.47516000  0.57183000  0.85856000  1.0
  C  C54  1  0.39392000  0.49472000  0.09288000  1.0
  C  C55  1  0.60609000  0.50528000  0.90712000  1.0
  C  C56  1  0.23321000  0.41702000  0.07845000  1.0
  C  C57  1  0.76681000  0.58298000  0.92155000  1.0
  C  C58  1  0.20555000  0.27505000  0.11329000  1.0
  C  C59  1  0.79445000  0.72495000  0.88671000  1.0
  N  N60  1  0.75329000  0.97038000  0.28590000  1.0
  N  N61  1  0.24670000  0.02963000  0.71409000  1.0
  N  N62  1  0.62083000  0.03342000  0.31429000  1.0
  N  N63  1  0.37916000  0.96659000  0.68571000  1.0
  N  N64  1  0.39712000  0.17554000  0.41920000  1.0
  N  N65  1  0.60288000  0.82446000  0.58080000  1.0
  N  N66  1  0.83794000  0.02235000  0.11452000  1.0
  N  N67  1  0.16206000  0.97765000  0.88547000  1.0
  N  N68  1  0.00347000  0.07277000  0.14593000  1.0
  N  N69  1  0.99653000  0.92723000  0.85406000  1.0
  N  N70  1  0.33263000  0.21091000  0.16022000  1.0
  N  N71  1  0.66736000  0.78908000  0.83978000  1.0
  O  O72  1  0.56613000  0.84216000  0.10884000  1.0
  O  O73  1  0.43386000  0.15784000  0.89116000  1.0
  O  O74  1  0.85871000  0.74555000  0.16887000  1.0
  O  O75  1  0.14127000  0.25445000  0.83112000  1.0
