# generated using pymatgen
data_Hg3H8C6(S2Cl3)2
_symmetry_space_group_name_H-M   'P 1'
_cell_length_a   6.61043000
_cell_length_b   7.24694000
_cell_length_c   9.91961000
_cell_angle_alpha   101.24500000
_cell_angle_beta   91.88770000
_cell_angle_gamma   91.37810000
_symmetry_Int_Tables_number   1
_chemical_formula_structural   Hg3H8C6(S2Cl3)2
_chemical_formula_sum   'Hg3 H8 C6 S4 Cl6'
_cell_volume   465.60190296
_cell_formula_units_Z   1
loop_
 _symmetry_equiv_pos_site_id
 _symmetry_equiv_pos_as_xyz
  1  'x, y, z'
loop_
 _atom_site_type_symbol
 _atom_site_label
 _atom_site_symmetry_multiplicity
 _atom_site_fract_x
 _atom_site_fract_y
 _atom_site_fract_z
 _atom_site_occupancy
  Hg  Hg0  1  0.00000000  0.00001000  0.00001000  1.0
  Hg  Hg1  1  0.50689000  0.32099000  0.14244000  1.0
  Hg  Hg2  1  0.49311000  0.67903000  0.85757000  1.0
  H  H3  1  0.98849000  0.82979000  0.52233000  1.0
  H  H4  1  0.01152000  0.17021000  0.47766000  1.0
  H  H5  1  0.23239000  0.94543000  0.56468000  1.0
  H  H6  1  0.76762000  0.05458000  0.43531000  1.0
  H  H7  1  0.10602000  0.65288000  0.30086000  1.0
  H  H8  1  0.89398000  0.34707000  0.69914000  1.0
  H  H9  1  0.19952000  0.89007000  0.31008000  1.0
  H  H10  1  0.80047000  0.10989000  0.68991000  1.0
  C  C11  1  0.43470000  0.56633000  0.48864000  1.0
  C  C12  1  0.56530000  0.43367000  0.51136000  1.0
  C  C13  1  0.15209000  0.81654000  0.50996000  1.0
  C  C14  1  0.84790000  0.18346000  0.49004000  1.0
  C  C15  1  0.20423000  0.76703000  0.35931000  1.0
  C  C16  1  0.79577000  0.23294000  0.64068000  1.0
  S  S17  1  0.46441000  0.69094000  0.35596000  1.0
  S  S18  1  0.53559000  0.30907000  0.64404000  1.0
  S  S19  1  0.22467000  0.62096000  0.58949000  1.0
  S  S20  1  0.77533000  0.37904000  0.41051000  1.0
  Cl  Cl21  1  0.73211000  0.92075000  0.13309000  1.0
  Cl  Cl22  1  0.26789000  0.07927000  0.86693000  1.0
  Cl  Cl23  1  0.77099000  0.38301000  0.99943000  1.0
  Cl  Cl24  1  0.22900000  0.61701000  0.00057000  1.0
  Cl  Cl25  1  0.21836000  0.21715000  0.25034000  1.0
  Cl  Cl26  1  0.78165000  0.78284000  0.74967000  1.0
