# generated using pymatgen
data_Zn6H27C70I9(O4F)6
_symmetry_space_group_name_H-M   'P 1'
_cell_length_a   18.33710000
_cell_length_b   18.56940000
_cell_length_c   18.58600000
_cell_angle_alpha   109.20800000
_cell_angle_beta   108.50600000
_cell_angle_gamma   108.73000000
_symmetry_Int_Tables_number   1
_chemical_formula_structural   Zn6H27C70I9(O4F)6
_chemical_formula_sum   'Zn6 H27 C70 I9 O24 F6'
_cell_volume   4986.59699904
_cell_formula_units_Z   1
loop_
 _symmetry_equiv_pos_site_id
 _symmetry_equiv_pos_as_xyz
  1  'x, y, z'
loop_
 _atom_site_type_symbol
 _atom_site_label
 _atom_site_symmetry_multiplicity
 _atom_site_fract_x
 _atom_site_fract_y
 _atom_site_fract_z
 _atom_site_occupancy
  Zn  Zn0  1  0.93538000  0.43471000  0.01453000  1.0
  Zn  Zn1  1  0.04865000  0.56293000  0.00513000  1.0
  Zn  Zn2  1  0.51532000  0.44353000  0.43114000  1.0
  Zn  Zn3  1  0.51630000  0.56822000  0.55866000  1.0
  Zn  Zn4  1  0.93925000  0.01299000  0.44517000  1.0
  Zn  Zn5  1  0.07339000  0.00611000  0.55201000  1.0
  H  H6  1  0.79525000  0.60086000  0.68765000  1.0
  H  H7  1  0.83652000  0.62086000  0.91396000  1.0
  H  H8  1  0.75377000  0.64472000  0.80719000  1.0
  H  H9  1  0.96397000  0.23931000  0.93685000  1.0
  H  H10  1  0.93859000  0.98912000  0.79317000  1.0
  H  H11  1  0.95979000  0.02866000  0.68494000  1.0
  H  H12  1  0.12998000  0.63417000  0.26050000  1.0
  H  H13  1  0.34965000  0.46273000  0.24608000  1.0
  H  H14  1  0.07103000  0.71627000  0.25255000  1.0
  H  H15  1  0.64489000  0.68978000  0.09127000  1.0
  H  H16  1  0.78184000  0.80348000  0.22416000  1.0
  H  H17  1  0.63996000  0.37839000  0.61875000  1.0
  H  H18  1  0.07341000  0.84271000  0.35477000  1.0
  H  H19  1  0.28858000  0.43459000  0.46043000  1.0
  H  H20  1  0.17205000  0.46395000  0.47996000  1.0
  H  H21  1  0.07709000  0.24039000  0.51348000  1.0
  H  H22  1  0.27029000  0.11797000  0.48532000  1.0
  H  H23  1  0.64091000  0.71494000  0.43407000  1.0
  H  H24  1  0.76406000  0.54726000  0.51571000  1.0
  H  H25  1  0.91392000  0.57518000  0.60582000  1.0
  H  H26  1  0.03513000  0.72677000  0.69142000  1.0
  H  H27  1  0.76805000  0.83924000  0.45613000  1.0
  H  H28  1  0.74493000  0.52563000  0.88493000  1.0
  H  H29  1  0.66209000  0.56954000  0.80296000  1.0
  H  H30  1  0.89839000  0.61349000  0.81038000  1.0
  H  H31  1  0.88602000  0.51504000  0.73870000  1.0
  H  H32  1  0.75984000  0.48930000  0.62593000  1.0
  C  C33  1  0.98650000  0.36625000  0.90114000  1.0
  C  C34  1  0.69445000  0.51572000  0.70224000  1.0
  C  C35  1  0.72059000  0.57787000  0.79510000  1.0
  C  C36  1  0.77645000  0.53912000  0.68913000  1.0
  C  C37  1  0.96276000  0.19394000  0.88136000  1.0
  C  C38  1  0.95061000  0.11338000  0.87150000  1.0
  C  C39  1  0.94811000  0.05242000  0.79989000  1.0
  C  C40  1  0.95981000  0.07483000  0.73925000  1.0
  C  C41  1  0.97397000  0.15750000  0.74730000  1.0
  C  C42  1  0.97386000  0.21841000  0.81905000  1.0
  C  C43  1  0.98915000  0.30292000  0.82824000  1.0
  C  C44  1  0.89196000  0.50959000  0.88340000  1.0
  C  C45  1  0.00752000  0.32568000  0.76883000  1.0
  C  C46  1  0.00430000  0.26317000  0.69767000  1.0
  C  C47  1  0.98813000  0.18134000  0.68566000  1.0
  C  C48  1  0.19053000  0.64919000  0.31229000  1.0
  C  C49  1  0.21918000  0.70900000  0.39535000  1.0
  C  C50  1  0.29988000  0.73467000  0.46380000  1.0
  C  C51  1  0.34742000  0.69269000  0.44619000  1.0
  C  C52  1  0.31526000  0.62067000  0.36444000  1.0
  C  C53  1  0.23878000  0.60574000  0.29470000  1.0
  C  C54  1  0.21192000  0.54774000  0.20739000  1.0
  C  C55  1  0.94505000  0.58347000  0.10975000  1.0
  C  C56  1  0.25509000  0.50066000  0.19049000  1.0
  C  C57  1  0.32164000  0.50598000  0.25901000  1.0
  C  C58  1  0.35179000  0.56334000  0.34481000  1.0
  C  C59  1  0.77483000  0.59785000  0.07233000  1.0
  C  C60  1  0.70045000  0.60715000  0.05130000  1.0
  C  C61  1  0.70349000  0.68214000  0.10761000  1.0
  C  C62  1  0.77988000  0.74549000  0.18185000  1.0
  C  C63  1  0.85784000  0.73823000  0.20416000  1.0
  C  C64  1  0.85554000  0.66107000  0.14767000  1.0
  C  C65  1  0.93375000  0.65365000  0.16660000  1.0
  C  C66  1  0.13610000  0.53813000  0.13492000  1.0
  C  C67  1  0.01064000  0.72008000  0.23965000  1.0
  C  C68  1  0.01266000  0.79269000  0.29662000  1.0
  C  C69  1  0.93872000  0.80366000  0.28010000  1.0
  C  C70  1  0.39143000  0.36641000  0.46347000  1.0
  C  C71  1  0.62614000  0.51990000  0.63319000  1.0
  C  C72  1  0.64345000  0.59234000  0.47564000  1.0
  C  C73  1  0.41223000  0.54986000  0.40929000  1.0
  C  C74  1  0.13429000  0.12381000  0.50304000  1.0
  C  C75  1  0.98992000  0.12098000  0.60990000  1.0
  C  C76  1  0.93042000  0.88875000  0.53066000  1.0
  C  C77  1  0.73492000  0.41188000  0.74750000  1.0
  C  C78  1  0.95239000  0.88541000  0.34739000  1.0
  C  C79  1  0.24286000  0.39123000  0.47157000  1.0
  C  C80  1  0.17852000  0.40853000  0.48290000  1.0
  C  C81  1  0.12078000  0.35329000  0.49909000  1.0
  C  C82  1  0.12430000  0.28157000  0.50201000  1.0
  C  C83  1  0.18924000  0.26173000  0.48906000  1.0
  C  C84  1  0.25142000  0.31894000  0.47551000  1.0
  C  C85  1  0.31915000  0.30138000  0.46488000  1.0
  C  C86  1  0.32146000  0.22797000  0.46595000  1.0
  C  C87  1  0.26328000  0.17292000  0.48173000  1.0
  C  C88  1  0.66129000  0.42152000  0.68620000  1.0
  C  C89  1  0.19756000  0.18851000  0.49235000  1.0
  C  C90  1  0.82045000  0.61062000  0.54559000  1.0
  C  C91  1  0.90302000  0.62648000  0.59631000  1.0
  C  C92  1  0.97268000  0.71175000  0.64228000  1.0
  C  C93  1  0.96155000  0.77778000  0.62961000  1.0
  C  C94  1  0.88104000  0.76028000  0.56418000  1.0
  C  C95  1  0.80730000  0.67672000  0.53065000  1.0
  C  C96  1  0.72092000  0.66375000  0.48658000  1.0
  C  C97  1  0.70701000  0.72431000  0.46514000  1.0
  C  C98  1  0.77838000  0.79621000  0.48141000  1.0
  C  C99  1  0.78034000  0.56003000  0.85881000  1.0
  C  C100  1  0.86424000  0.81579000  0.52991000  1.0
  C  C101  1  0.85054000  0.54566000  0.76291000  1.0
  C  C102  1  0.81531000  0.50393000  0.81255000  1.0
  I  I103  1  0.68609000  0.33463000  0.80569000  1.0
  I  I104  1  0.04090000  0.44649000  0.77176000  1.0
  I  I105  1  0.93657000  0.08022000  0.96598000  1.0
  I  I106  1  0.21904000  0.41462000  0.06331000  1.0
  I  I107  1  0.77318000  0.33188000  0.66403000  1.0
  I  I108  1  0.34794000  0.83593000  0.58614000  1.0
  I  I109  1  0.58716000  0.51317000  0.93500000  1.0
  I  I110  1  0.53281000  0.37847000  0.68335000  1.0
  I  I111  1  0.05943000  0.90370000  0.73075000  1.0
  O  O112  1  0.93135000  0.33735000  0.92683000  1.0
  O  O113  1  0.42361000  0.44459000  0.51966000  1.0
  O  O114  1  0.60056000  0.46882000  0.55487000  1.0
  O  O115  1  0.60201000  0.57719000  0.65873000  1.0
  O  O116  1  0.61504000  0.51278000  0.42224000  1.0
  O  O117  1  0.61103000  0.61911000  0.52292000  1.0
  O  O118  1  0.43996000  0.49803000  0.38063000  1.0
  O  O119  1  0.42912000  0.58750000  0.48877000  1.0
  O  O120  1  0.05397000  0.10277000  0.46393000  1.0
  O  O121  1  0.16577000  0.09227000  0.54970000  1.0
  O  O122  1  0.93236000  0.09865000  0.53457000  1.0
  O  O123  1  0.03888000  0.44580000  0.93335000  1.0
  O  O124  1  0.04814000  0.09740000  0.62685000  1.0
  O  O125  1  0.90252000  0.93018000  0.49656000  1.0
  O  O126  1  0.01118000  0.90569000  0.56183000  1.0
  O  O127  1  0.89699000  0.91467000  0.33285000  1.0
  O  O128  1  0.02160000  0.92433000  0.41912000  1.0
  O  O129  1  0.87626000  0.46156000  0.91713000  1.0
  O  O130  1  0.96950000  0.56776000  0.90865000  1.0
  O  O131  1  0.90671000  0.50500000  0.09463000  1.0
  O  O132  1  0.99973000  0.61171000  0.08466000  1.0
  O  O133  1  0.06101000  0.48009000  0.11131000  1.0
  O  O134  1  0.15427000  0.59015000  0.10430000  1.0
  O  O135  1  0.41763000  0.34106000  0.40795000  1.0
  F  F136  1  0.02078000  0.28541000  0.63967000  1.0
  F  F137  1  0.17079000  0.74778000  0.41215000  1.0
  F  F138  1  0.42961000  0.72671000  0.50895000  1.0
  F  F139  1  0.77180000  0.52597000  0.01781000  1.0
  F  F140  1  0.38391000  0.20853000  0.45543000  1.0
  F  F141  1  0.05838000  0.37214000  0.51170000  1.0
