# generated using pymatgen
data_CoHC6O7
_symmetry_space_group_name_H-M   'P 1'
_cell_length_a   6.84281000
_cell_length_b   15.18650000
_cell_length_c   15.18556803
_cell_angle_alpha   117.76875822
_cell_angle_beta   98.65593233
_cell_angle_gamma   98.62800000
_symmetry_Int_Tables_number   1
_chemical_formula_structural   CoHC6O7
_chemical_formula_sum   'Co6 H6 C36 O42'
_cell_volume   1335.99166632
_cell_formula_units_Z   6
loop_
 _symmetry_equiv_pos_site_id
 _symmetry_equiv_pos_as_xyz
  1  'x, y, z'
loop_
 _atom_site_type_symbol
 _atom_site_label
 _atom_site_symmetry_multiplicity
 _atom_site_fract_x
 _atom_site_fract_y
 _atom_site_fract_z
 _atom_site_occupancy
  Co  Co0  1  0.11849000  0.32681000  0.59767000  1.0
  Co  Co1  1  0.52087000  0.40229000  0.72919000  1.0
  Co  Co2  1  0.79176000  0.27074000  0.67322000  1.0
  Co  Co3  1  0.88153000  0.67320000  0.40234000  1.0
  Co  Co4  1  0.47913000  0.59772000  0.27081000  1.0
  Co  Co5  1  0.20824000  0.72927000  0.32678000  1.0
  H  H6  1  0.65135000  0.02466000  0.47395000  1.0
  H  H7  1  0.17733000  0.52602000  0.55059000  1.0
  H  H8  1  0.62670000  0.44929000  0.97527000  1.0
  H  H9  1  0.34866000  0.97535000  0.52606000  1.0
  H  H10  1  0.82268000  0.47398000  0.44941000  1.0
  H  H11  1  0.37331000  0.55073000  0.02473000  1.0
  C  C12  1  0.35583000  0.17208000  0.60700000  1.0
  C  C13  1  0.74882000  0.39305000  0.56520000  1.0
  C  C14  1  0.18377000  0.43480000  0.82795000  1.0
  C  C15  1  0.64417000  0.82793000  0.39301000  1.0
  C  C16  1  0.25118000  0.60696000  0.43480000  1.0
  C  C17  1  0.81624000  0.56522000  0.17206000  1.0
  C  C18  1  0.17071000  0.08599000  0.55036000  1.0
  C  C19  1  0.62033000  0.44971000  0.53573000  1.0
  C  C20  1  0.08476000  0.46431000  0.91405000  1.0
  C  C21  1  0.82931000  0.91402000  0.44965000  1.0
  C  C22  1  0.37968000  0.55031000  0.46427000  1.0
  C  C23  1  0.91524000  0.53572000  0.08596000  1.0
  C  C24  1  0.96963000  0.10099000  0.53448000  1.0
  C  C25  1  0.43512000  0.46556000  0.56656000  1.0
  C  C26  1  0.86871000  0.43344000  0.89901000  1.0
  C  C27  1  0.03038000  0.89901000  0.46552000  1.0
  C  C28  1  0.56489000  0.53446000  0.43344000  1.0
  C  C29  1  0.13128000  0.56658000  0.10099000  1.0
  C  C30  1  0.80484000  0.01371000  0.48499000  1.0
  C  C31  1  0.31978000  0.51499000  0.52865000  1.0
  C  C32  1  0.79112000  0.47133000  0.98627000  1.0
  C  C33  1  0.19516000  0.98629000  0.51501000  1.0
  C  C34  1  0.68023000  0.48502000  0.47135000  1.0
  C  C35  1  0.20888000  0.52870000  0.01374000  1.0
  C  C36  1  0.15366000  0.24762000  0.34988000  1.0
  C  C37  1  0.80434000  0.65007000  0.89765000  1.0
  C  C38  1  0.90662000  0.10206000  0.75237000  1.0
  C  C39  1  0.84632000  0.75234000  0.65015000  1.0
  C  C40  1  0.19562000  0.34989000  0.10230000  1.0
  C  C41  1  0.09343000  0.89795000  0.24762000  1.0
  C  C42  1  0.37204000  0.87447000  0.66692000  1.0
  C  C43  1  0.70449000  0.33259000  0.20726000  1.0
  C  C44  1  0.49698000  0.79264000  0.12520000  1.0
  C  C45  1  0.62796000  0.12555000  0.33312000  1.0
  C  C46  1  0.29548000  0.66737000  0.79275000  1.0
  C  C47  1  0.50306000  0.20735000  0.87476000  1.0
  O  O48  1  0.33015000  0.26366000  0.64277000  1.0
  O  O49  1  0.68740000  0.35719000  0.62095000  1.0
  O  O50  1  0.06645000  0.37906000  0.73636000  1.0
  O  O51  1  0.66985000  0.73634000  0.35724000  1.0
  O  O52  1  0.31260000  0.64283000  0.37905000  1.0
  O  O53  1  0.93356000  0.62096000  0.26365000  1.0
  O  O54  1  0.53181000  0.15609000  0.62233000  1.0
  O  O55  1  0.90949000  0.37778000  0.53392000  1.0
  O  O56  1  0.37572000  0.46602000  0.84394000  1.0
  O  O57  1  0.46819000  0.84391000  0.37768000  1.0
  O  O58  1  0.09052000  0.62224000  0.46609000  1.0
  O  O59  1  0.62430000  0.53403000  0.15608000  1.0
  O  O60  1  0.92776000  0.19272000  0.56293000  1.0
  O  O61  1  0.36491000  0.43720000  0.62993000  1.0
  O  O62  1  0.73522000  0.37013000  0.80727000  1.0
  O  O63  1  0.07224000  0.80729000  0.43707000  1.0
  O  O64  1  0.63509000  0.56282000  0.37007000  1.0
  O  O65  1  0.26478000  0.62989000  0.19274000  1.0
  O  O66  1  0.15447000  0.25889000  0.27858000  1.0
  O  O67  1  0.87681000  0.72127000  0.98021000  1.0
  O  O68  1  0.89585000  0.01945000  0.74102000  1.0
  O  O69  1  0.84548000  0.74105000  0.72144000  1.0
  O  O70  1  0.12316000  0.27868000  0.01976000  1.0
  O  O71  1  0.10418000  0.98054000  0.25895000  1.0
  O  O72  1  0.15237000  0.23524000  0.42081000  1.0
  O  O73  1  0.73175000  0.57924000  0.81434000  1.0
  O  O74  1  0.91802000  0.18540000  0.76481000  1.0
  O  O75  1  0.84764000  0.76474000  0.57923000  1.0
  O  O76  1  0.26821000  0.42074000  0.18560000  1.0
  O  O77  1  0.08203000  0.81461000  0.23519000  1.0
  O  O78  1  0.47571000  0.84270000  0.61007000  1.0
  O  O79  1  0.86489000  0.38939000  0.23192000  1.0
  O  O80  1  0.63285000  0.76774000  0.15695000  1.0
  O  O81  1  0.52427000  0.15734000  0.38996000  1.0
  O  O82  1  0.13505000  0.61059000  0.76809000  1.0
  O  O83  1  0.36719000  0.23229000  0.84306000  1.0
  O  O84  1  0.27007000  0.90672000  0.72478000  1.0
  O  O85  1  0.54472000  0.27482000  0.18205000  1.0
  O  O86  1  0.36229000  0.81807000  0.09300000  1.0
  O  O87  1  0.72996000  0.09329000  0.27528000  1.0
  O  O88  1  0.45527000  0.72513000  0.81796000  1.0
  O  O89  1  0.63772000  0.18187000  0.90691000  1.0
