# generated using pymatgen
data_ZnH11C15SN3O5
_symmetry_space_group_name_H-M   'P 1'
_cell_length_a   8.55467000
_cell_length_b   13.42640000
_cell_length_c   13.66380000
_cell_angle_alpha   89.99970000
_cell_angle_beta   89.99980000
_cell_angle_gamma   77.82300000
_symmetry_Int_Tables_number   1
_chemical_formula_structural   ZnH11C15SN3O5
_chemical_formula_sum   'Zn4 H44 C60 S4 N12 O20'
_cell_volume   1534.09195559
_cell_formula_units_Z   4
loop_
 _symmetry_equiv_pos_site_id
 _symmetry_equiv_pos_as_xyz
  1  'x, y, z'
loop_
 _atom_site_type_symbol
 _atom_site_label
 _atom_site_symmetry_multiplicity
 _atom_site_fract_x
 _atom_site_fract_y
 _atom_site_fract_z
 _atom_site_occupancy
  Zn  Zn0  1  0.41714000  0.01430000  0.10995000  1.0
  Zn  Zn1  1  0.08286000  0.98570000  0.60995000  1.0
  Zn  Zn2  1  0.58286000  0.98570000  0.89005000  1.0
  Zn  Zn3  1  0.91714000  0.01430000  0.39005000  1.0
  H  H4  1  0.14017000  0.04995000  0.00749000  1.0
  H  H5  1  0.35983000  0.95005000  0.50749000  1.0
  H  H6  1  0.85982000  0.95005000  0.99251000  1.0
  H  H7  1  0.64017000  0.04996000  0.49251000  1.0
  H  H8  1  0.11001000  0.99354000  0.10375000  1.0
  H  H9  1  0.38999000  0.00646000  0.60374000  1.0
  H  H10  1  0.88999000  0.00646000  0.89625000  1.0
  H  H11  1  0.61001000  0.99354000  0.39625000  1.0
  H  H12  1  0.45745000  0.76815000  0.47229000  1.0
  H  H13  1  0.04256000  0.23184000  0.97229000  1.0
  H  H14  1  0.54256000  0.23185000  0.52771000  1.0
  H  H15  1  0.95744000  0.76815000  0.02771000  1.0
  H  H16  1  0.40974000  0.59469000  0.51270000  1.0
  H  H17  1  0.09027000  0.40531000  0.01270000  1.0
  H  H18  1  0.59027000  0.40531000  0.48730000  1.0
  H  H19  1  0.90974000  0.59469000  0.98730000  1.0
  H  H20  1  0.11214000  0.60571000  0.25726000  1.0
  H  H21  1  0.38786000  0.39429000  0.75726000  1.0
  H  H22  1  0.88786000  0.39429000  0.74274000  1.0
  H  H23  1  0.61214000  0.60571000  0.24274000  1.0
  H  H24  1  0.16153000  0.77739000  0.21586000  1.0
  H  H25  1  0.33847000  0.22261000  0.71586000  1.0
  H  H26  1  0.83847000  0.22261000  0.78414000  1.0
  H  H27  1  0.66153000  0.77739000  0.28414000  1.0
  H  H28  1  0.18576000  0.38386000  0.55398000  1.0
  H  H29  1  0.31424000  0.61614000  0.05398000  1.0
  H  H30  1  0.81425000  0.61614000  0.44602000  1.0
  H  H31  1  0.68576000  0.38386000  0.94602000  1.0
  H  H32  1  0.12315000  0.22165000  0.61535000  1.0
  H  H33  1  0.37685000  0.77835000  0.11536000  1.0
  H  H34  1  0.87685000  0.77835000  0.38465000  1.0
  H  H35  1  0.62315000  0.22165000  0.88464000  1.0
  H  H36  1  0.02564000  0.40020000  0.21432000  1.0
  H  H37  1  0.47437000  0.59979000  0.71433000  1.0
  H  H38  1  0.97436000  0.59979000  0.78568000  1.0
  H  H39  1  0.52564000  0.40020000  0.28567000  1.0
  H  H40  1  0.91219000  0.28006000  0.10831000  1.0
  H  H41  1  0.58782000  0.71994000  0.60831000  1.0
  H  H42  1  0.08781000  0.71994000  0.89169000  1.0
  H  H43  1  0.41218000  0.28006000  0.39169000  1.0
  H  H44  1  0.85276000  0.12177000  0.18202000  1.0
  H  H45  1  0.64724000  0.87823000  0.68203000  1.0
  H  H46  1  0.14724000  0.87823000  0.81798000  1.0
  H  H47  1  0.35275000  0.12177000  0.31797000  1.0
  C  C48  1  0.31106000  0.78272000  0.34267000  1.0
  C  C49  1  0.18894000  0.21728000  0.84267000  1.0
  C  C50  1  0.68894000  0.21728000  0.65733000  1.0
  C  C51  1  0.81106000  0.78272000  0.15733000  1.0
  C  C52  1  0.38271000  0.73188000  0.42570000  1.0
  C  C53  1  0.11730000  0.26812000  0.92570000  1.0
  C  C54  1  0.61730000  0.26812000  0.57430000  1.0
  C  C55  1  0.88271000  0.73187000  0.07430000  1.0
  C  C56  1  0.35612000  0.63580000  0.44803000  1.0
  C  C57  1  0.14388000  0.36420000  0.94803000  1.0
  C  C58  1  0.64388000  0.36420000  0.55197000  1.0
  C  C59  1  0.85613000  0.63580000  0.05198000  1.0
  C  C60  1  0.25688000  0.59043000  0.38837000  1.0
  C  C61  1  0.24312000  0.40957000  0.88837000  1.0
  C  C62  1  0.74312000  0.40957000  0.61163000  1.0
  C  C63  1  0.75688000  0.59043000  0.11164000  1.0
  C  C64  1  0.18877000  0.64138000  0.30324000  1.0
  C  C65  1  0.31123000  0.35862000  0.80324000  1.0
  C  C66  1  0.81123000  0.35862000  0.69676000  1.0
  C  C67  1  0.68877000  0.64138000  0.19676000  1.0
  C  C68  1  0.21594000  0.73699000  0.28055000  1.0
  C  C69  1  0.28405000  0.26301000  0.78055000  1.0
  C  C70  1  0.78405000  0.26301000  0.71945000  1.0
  C  C71  1  0.71594000  0.73699000  0.21945000  1.0
  C  C72  1  0.09986000  0.36876000  0.40871000  1.0
  C  C73  1  0.40013000  0.63124000  0.90871000  1.0
  C  C74  1  0.90014000  0.63125000  0.59129000  1.0
  C  C75  1  0.59986000  0.36875000  0.09128000  1.0
  C  C76  1  0.13356000  0.33541000  0.50524000  1.0
  C  C77  1  0.36643000  0.66459000  0.00524000  1.0
  C  C78  1  0.86644000  0.66459000  0.49476000  1.0
  C  C79  1  0.63357000  0.33541000  0.99476000  1.0
  C  C80  1  0.09953000  0.24497000  0.53972000  1.0
  C  C81  1  0.40047000  0.75503000  0.03972000  1.0
  C  C82  1  0.90048000  0.75503000  0.46028000  1.0
  C  C83  1  0.59952000  0.24497000  0.96028000  1.0
  C  C84  1  0.02899000  0.18238000  0.47883000  1.0
  C  C85  1  0.47100000  0.81762000  0.97883000  1.0
  C  C86  1  0.97101000  0.81762000  0.52117000  1.0
  C  C87  1  0.52899000  0.18238000  0.02117000  1.0
  C  C88  1  0.99328000  0.21472000  0.37896000  1.0
  C  C89  1  0.50672000  0.78528000  0.87896000  1.0
  C  C90  1  0.00672000  0.78528000  0.62104000  1.0
  C  C91  1  0.49328000  0.21472000  0.12104000  1.0
  C  C92  1  0.02784000  0.30746000  0.34374000  1.0
  C  C93  1  0.47216000  0.69254000  0.84375000  1.0
  C  C94  1  0.97217000  0.69254000  0.65626000  1.0
  C  C95  1  0.52784000  0.30746000  0.15625000  1.0
  C  C96  1  0.99805000  0.33044000  0.24361000  1.0
  C  C97  1  0.50195000  0.66956000  0.74361000  1.0
  C  C98  1  0.00194000  0.66956000  0.75639000  1.0
  C  C99  1  0.49806000  0.33044000  0.25639000  1.0
  C  C100  1  0.93668000  0.26405000  0.18541000  1.0
  C  C101  1  0.56333000  0.73595000  0.68542000  1.0
  C  C102  1  0.06332000  0.73595000  0.81459000  1.0
  C  C103  1  0.43667000  0.26405000  0.31459000  1.0
  C  C104  1  0.90283000  0.17481000  0.22645000  1.0
  C  C105  1  0.59717000  0.82519000  0.72645000  1.0
  C  C106  1  0.09717000  0.82519000  0.77355000  1.0
  C  C107  1  0.40283000  0.17481000  0.27355000  1.0
  S  S108  1  0.33647000  0.90818000  0.31892000  1.0
  S  S109  1  0.16353000  0.09182000  0.81892000  1.0
  S  S110  1  0.66354000  0.09182000  0.68108000  1.0
  S  S111  1  0.83646000  0.90818000  0.18108000  1.0
  N  N112  1  0.23123000  0.49638000  0.42224000  1.0
  N  N113  1  0.26877000  0.50362000  0.92224000  1.0
  N  N114  1  0.76877000  0.50362000  0.57776000  1.0
  N  N115  1  0.73123000  0.49638000  0.07776000  1.0
  N  N116  1  0.13359000  0.45783000  0.37106000  1.0
  N  N117  1  0.36642000  0.54217000  0.87106000  1.0
  N  N118  1  0.86641000  0.54217000  0.62894000  1.0
  N  N119  1  0.63359000  0.45782000  0.12894000  1.0
  N  N120  1  0.93032000  0.15102000  0.32012000  1.0
  N  N121  1  0.56968000  0.84898000  0.82012000  1.0
  N  N122  1  0.06968000  0.84898000  0.67988000  1.0
  N  N123  1  0.43032000  0.15102000  0.17988000  1.0
  O  O124  1  0.18452000  0.98040000  0.33190000  1.0
  O  O125  1  0.31548000  0.01960000  0.83190000  1.0
  O  O126  1  0.81548000  0.01960000  0.66810000  1.0
  O  O127  1  0.68452000  0.98040000  0.16810000  1.0
  O  O128  1  0.45830000  0.92509000  0.39057000  1.0
  O  O129  1  0.04170000  0.07491000  0.89057000  1.0
  O  O130  1  0.54170000  0.07491000  0.60943000  1.0
  O  O131  1  0.95830000  0.92509000  0.10944000  1.0
  O  O132  1  0.39433000  0.90663000  0.21677000  1.0
  O  O133  1  0.10566000  0.09338000  0.71677000  1.0
  O  O134  1  0.60566000  0.09337000  0.78323000  1.0
  O  O135  1  0.89434000  0.90662000  0.28323000  1.0
  O  O136  1  0.17588000  0.03915000  0.07631000  1.0
  O  O137  1  0.32412000  0.96085000  0.57631000  1.0
  O  O138  1  0.82412000  0.96085000  0.92369000  1.0
  O  O139  1  0.67588000  0.03915000  0.42369000  1.0
  O  O140  1  0.99303000  0.09684000  0.50727000  1.0
  O  O141  1  0.50697000  0.90316000  0.00728000  1.0
  O  O142  1  0.00697000  0.90316000  0.49272000  1.0
  O  O143  1  0.49303000  0.09684000  0.99272000  1.0
