# generated using pymatgen
data_CaH22C20S(NO4)2
_symmetry_space_group_name_H-M   'P 1'
_cell_length_a   8.45265000
_cell_length_b   11.22470000
_cell_length_c   27.35460000
_cell_angle_alpha   89.99940000
_cell_angle_beta   89.99980000
_cell_angle_gamma   109.18400000
_symmetry_Int_Tables_number   1
_chemical_formula_structural   CaH22C20S(NO4)2
_chemical_formula_sum   'Ca4 H88 C80 S4 N8 O32'
_cell_volume   2451.23711502
_cell_formula_units_Z   4
loop_
 _symmetry_equiv_pos_site_id
 _symmetry_equiv_pos_as_xyz
  1  'x, y, z'
loop_
 _atom_site_type_symbol
 _atom_site_label
 _atom_site_symmetry_multiplicity
 _atom_site_fract_x
 _atom_site_fract_y
 _atom_site_fract_z
 _atom_site_occupancy
  Ca  Ca0  1  0.51986000  0.75502000  0.50049000  1.0
  Ca  Ca1  1  0.48014000  0.74499000  0.00050000  1.0
  Ca  Ca2  1  0.48014000  0.24499000  0.49950000  1.0
  Ca  Ca3  1  0.51986000  0.25502000  0.99951000  1.0
  H  H4  1  0.92495000  0.84435000  0.60670000  1.0
  H  H5  1  0.07504000  0.65565000  0.10670000  1.0
  H  H6  1  0.07505000  0.15565000  0.39330000  1.0
  H  H7  1  0.92496000  0.34436000  0.89330000  1.0
  H  H8  1  0.57041000  0.80763000  0.11868000  1.0
  H  H9  1  0.42961000  0.69237000  0.61868000  1.0
  H  H10  1  0.42962000  0.19237000  0.88132000  1.0
  H  H11  1  0.57041000  0.30764000  0.38132000  1.0
  H  H12  1  0.17493000  0.00193000  0.31317000  1.0
  H  H13  1  0.82506000  0.49805000  0.81317000  1.0
  H  H14  1  0.82507000  0.99807000  0.68683000  1.0
  H  H15  1  0.17493000  0.50193000  0.18683000  1.0
  H  H16  1  0.61851000  0.83503000  0.37317000  1.0
  H  H17  1  0.38149000  0.66497000  0.87317000  1.0
  H  H18  1  0.38147000  0.16496000  0.62683000  1.0
  H  H19  1  0.61851000  0.33503000  0.12682000  1.0
  H  H20  1  0.41536000  0.72236000  0.19567000  1.0
  H  H21  1  0.58465000  0.77763000  0.69566000  1.0
  H  H22  1  0.58465000  0.27763000  0.80434000  1.0
  H  H23  1  0.41537000  0.22237000  0.30434000  1.0
  H  H24  1  0.45879000  0.74791000  0.29716000  1.0
  H  H25  1  0.54120000  0.75208000  0.79716000  1.0
  H  H26  1  0.54120000  0.25209000  0.70284000  1.0
  H  H27  1  0.45880000  0.24791000  0.20284000  1.0
  H  H28  1  0.20255000  0.02283000  0.19567000  1.0
  H  H29  1  0.79745000  0.47717000  0.69567000  1.0
  H  H30  1  0.79744000  0.97716000  0.80433000  1.0
  H  H31  1  0.20256000  0.52283000  0.30432000  1.0
  H  H32  1  0.34135000  0.09198000  0.38912000  1.0
  H  H33  1  0.65865000  0.40802000  0.88913000  1.0
  H  H34  1  0.65865000  0.90803000  0.61088000  1.0
  H  H35  1  0.34135000  0.59198000  0.11088000  1.0
  H  H36  1  0.22079000  0.88568000  0.48197000  1.0
  H  H37  1  0.77921000  0.61432000  0.98196000  1.0
  H  H38  1  0.77921000  0.11431000  0.51803000  1.0
  H  H39  1  0.22079000  0.38568000  0.01803000  1.0
  H  H40  1  0.02643000  0.95577000  0.45852000  1.0
  H  H41  1  0.97357000  0.54423000  0.95852000  1.0
  H  H42  1  0.97357000  0.04422000  0.54148000  1.0
  H  H43  1  0.02643000  0.45577000  0.04148000  1.0
  H  H44  1  0.83607000  0.83726000  0.44009000  1.0
  H  H45  1  0.16393000  0.66275000  0.94009000  1.0
  H  H46  1  0.16393000  0.16274000  0.55991000  1.0
  H  H47  1  0.83606000  0.33725000  0.05991000  1.0
  H  H48  1  0.97303000  0.93155000  0.39513000  1.0
  H  H49  1  0.02697000  0.56846000  0.89513000  1.0
  H  H50  1  0.02696000  0.06845000  0.60487000  1.0
  H  H51  1  0.97303000  0.43154000  0.10487000  1.0
  H  H52  1  0.08679000  0.64179000  0.39022000  1.0
  H  H53  1  0.91321000  0.85821000  0.89021000  1.0
  H  H54  1  0.91320000  0.35821000  0.60978000  1.0
  H  H55  1  0.08680000  0.14180000  0.10978000  1.0
  H  H56  1  0.98849000  0.73423000  0.35593000  1.0
  H  H57  1  0.01150000  0.76577000  0.85592000  1.0
  H  H58  1  0.01150000  0.26577000  0.64407000  1.0
  H  H59  1  0.98850000  0.23423000  0.14407000  1.0
  H  H60  1  0.87328000  0.62976000  0.40240000  1.0
  H  H61  1  0.12672000  0.87024000  0.90240000  1.0
  H  H62  1  0.12671000  0.37023000  0.59760000  1.0
  H  H63  1  0.87329000  0.12976000  0.09760000  1.0
  H  H64  1  0.36655000  0.11138000  0.11939000  1.0
  H  H65  1  0.63345000  0.38861000  0.61939000  1.0
  H  H66  1  0.63345000  0.88861000  0.88061000  1.0
  H  H67  1  0.36655000  0.61139000  0.38061000  1.0
  H  H68  1  0.79889000  0.61565000  0.50830000  1.0
  H  H69  1  0.20112000  0.88434000  0.00829000  1.0
  H  H70  1  0.20111000  0.38435000  0.49170000  1.0
  H  H71  1  0.79889000  0.11567000  0.99171000  1.0
  H  H72  1  0.83786000  0.50170000  0.54747000  1.0
  H  H73  1  0.16215000  0.99830000  0.04746000  1.0
  H  H74  1  0.16213000  0.49830000  0.45253000  1.0
  H  H75  1  0.83786000  0.00171000  0.95254000  1.0
  H  H76  1  0.00278000  0.59961000  0.51022000  1.0
  H  H77  1  0.99723000  0.90040000  0.01022000  1.0
  H  H78  1  0.99721000  0.40040000  0.48978000  1.0
  H  H79  1  0.00277000  0.09961000  0.98978000  1.0
  H  H80  1  0.09762000  0.75523000  0.63161000  1.0
  H  H81  1  0.90238000  0.74478000  0.13161000  1.0
  H  H82  1  0.90239000  0.24477000  0.36838000  1.0
  H  H83  1  0.09763000  0.25523000  0.86839000  1.0
  H  H84  1  0.18063000  0.67987000  0.58533000  1.0
  H  H85  1  0.81937000  0.82015000  0.08533000  1.0
  H  H86  1  0.81937000  0.32014000  0.41467000  1.0
  H  H87  1  0.18063000  0.17986000  0.91467000  1.0
  H  H88  1  0.01725000  0.58799000  0.62514000  1.0
  H  H89  1  0.98275000  0.91202000  0.12514000  1.0
  H  H90  1  0.98275000  0.41202000  0.37486000  1.0
  H  H91  1  0.01725000  0.08798000  0.87486000  1.0
  C  C92  1  0.87519000  0.78184000  0.57506000  1.0
  C  C93  1  0.12480000  0.71816000  0.07506000  1.0
  C  C94  1  0.12480000  0.21816000  0.42494000  1.0
  C  C95  1  0.87520000  0.28184000  0.92494000  1.0
  C  C96  1  0.49359000  0.85628000  0.13638000  1.0
  C  C97  1  0.50641000  0.64372000  0.63638000  1.0
  C  C98  1  0.50643000  0.14373000  0.86362000  1.0
  C  C99  1  0.49359000  0.35628000  0.36362000  1.0
  C  C100  1  0.27341000  0.96744000  0.32655000  1.0
  C  C101  1  0.72658000  0.53255000  0.82655000  1.0
  C  C102  1  0.72658000  0.03256000  0.67345000  1.0
  C  C103  1  0.27341000  0.46744000  0.17345000  1.0
  C  C104  1  0.52431000  0.87341000  0.35933000  1.0
  C  C105  1  0.47569000  0.62660000  0.85933000  1.0
  C  C106  1  0.47568000  0.12659000  0.64067000  1.0
  C  C107  1  0.52431000  0.37341000  0.14067000  1.0
  C  C108  1  0.40608000  0.80777000  0.17893000  1.0
  C  C109  1  0.59392000  0.69223000  0.67892000  1.0
  C  C110  1  0.59393000  0.19224000  0.82108000  1.0
  C  C111  1  0.40609000  0.30777000  0.32108000  1.0
  C  C112  1  0.43428000  0.82390000  0.31717000  1.0
  C  C113  1  0.56572000  0.67610000  0.81716000  1.0
  C  C114  1  0.56572000  0.17610000  0.68284000  1.0
  C  C115  1  0.43428000  0.32390000  0.18283000  1.0
  C  C116  1  0.28463000  0.97742000  0.17870000  1.0
  C  C117  1  0.71537000  0.52258000  0.67870000  1.0
  C  C118  1  0.71538000  0.02258000  0.82130000  1.0
  C  C119  1  0.28462000  0.47741000  0.32130000  1.0
  C  C120  1  0.36637000  0.01751000  0.36821000  1.0
  C  C121  1  0.63362000  0.48250000  0.86822000  1.0
  C  C122  1  0.63362000  0.98249000  0.63179000  1.0
  C  C123  1  0.36637000  0.51751000  0.13179000  1.0
  C  C124  1  0.18782000  0.80421000  0.45668000  1.0
  C  C125  1  0.81217000  0.69579000  0.95668000  1.0
  C  C126  1  0.81217000  0.19578000  0.54332000  1.0
  C  C127  1  0.18783000  0.30421000  0.04332000  1.0
  C  C128  1  0.47842000  0.96536000  0.11491000  1.0
  C  C129  1  0.52159000  0.53464000  0.61492000  1.0
  C  C130  1  0.52160000  0.03466000  0.88509000  1.0
  C  C131  1  0.47842000  0.46535000  0.38508000  1.0
  C  C132  1  0.96776000  0.88465000  0.43075000  1.0
  C  C133  1  0.03224000  0.61535000  0.93075000  1.0
  C  C134  1  0.03224000  0.11534000  0.56925000  1.0
  C  C135  1  0.96775000  0.38465000  0.06925000  1.0
  C  C136  1  0.99766000  0.69360000  0.39195000  1.0
  C  C137  1  0.00234000  0.80640000  0.89195000  1.0
  C  C138  1  0.00234000  0.30639000  0.60805000  1.0
  C  C139  1  0.99766000  0.19361000  0.10805000  1.0
  C  C140  1  0.49022000  0.97000000  0.38523000  1.0
  C  C141  1  0.50977000  0.53000000  0.88524000  1.0
  C  C142  1  0.50977000  0.03000000  0.61477000  1.0
  C  C143  1  0.49022000  0.47000000  0.11477000  1.0
  C  C144  1  0.57798000  0.01976000  0.43289000  1.0
  C  C145  1  0.42202000  0.48025000  0.93289000  1.0
  C  C146  1  0.42201000  0.98024000  0.56712000  1.0
  C  C147  1  0.57797000  0.51976000  0.06711000  1.0
  C  C148  1  0.37604000  0.02647000  0.13666000  1.0
  C  C149  1  0.62397000  0.47352000  0.63666000  1.0
  C  C150  1  0.62397000  0.97353000  0.86334000  1.0
  C  C151  1  0.37604000  0.52648000  0.36333000  1.0
  C  C152  1  0.89217000  0.59665000  0.53187000  1.0
  C  C153  1  0.10784000  0.90336000  0.03187000  1.0
  C  C154  1  0.10782000  0.40336000  0.46813000  1.0
  C  C155  1  0.89217000  0.09665000  0.96813000  1.0
  C  C156  1  0.06674000  0.67758000  0.60515000  1.0
  C  C157  1  0.93326000  0.82243000  0.10515000  1.0
  C  C158  1  0.93326000  0.32242000  0.39485000  1.0
  C  C159  1  0.06675000  0.17758000  0.89485000  1.0
  C  C160  1  0.29986000  0.86745000  0.19906000  1.0
  C  C161  1  0.70014000  0.63255000  0.69906000  1.0
  C  C162  1  0.70014000  0.13255000  0.80094000  1.0
  C  C163  1  0.29987000  0.36745000  0.30094000  1.0
  C  C164  1  0.30725000  0.86975000  0.30176000  1.0
  C  C165  1  0.69274000  0.63024000  0.80176000  1.0
  C  C166  1  0.69275000  0.13025000  0.69824000  1.0
  C  C167  1  0.30725000  0.36975000  0.19824000  1.0
  C  C168  1  0.56678000  0.01326000  0.06730000  1.0
  C  C169  1  0.43323000  0.48674000  0.56730000  1.0
  C  C170  1  0.43323000  0.98675000  0.93270000  1.0
  C  C171  1  0.56677000  0.51326000  0.43270000  1.0
  S  S172  1  0.17872000  0.79809000  0.25110000  1.0
  S  S173  1  0.82128000  0.70189000  0.75111000  1.0
  S  S174  1  0.82128000  0.20190000  0.74889000  1.0
  S  S175  1  0.17873000  0.29809000  0.24890000  1.0
  N  N176  1  0.05665000  0.79410000  0.42781000  1.0
  N  N177  1  0.94335000  0.70590000  0.92781000  1.0
  N  N178  1  0.94335000  0.20589000  0.57219000  1.0
  N  N179  1  0.05665000  0.29411000  0.07219000  1.0
  N  N180  1  0.94211000  0.69012000  0.57068000  1.0
  N  N181  1  0.05789000  0.80989000  0.07068000  1.0
  N  N182  1  0.05789000  0.30989000  0.42932000  1.0
  N  N183  1  0.94212000  0.19012000  0.92932000  1.0
  O  O184  1  0.26925000  0.72851000  0.45628000  1.0
  O  O185  1  0.73075000  0.77149000  0.95628000  1.0
  O  O186  1  0.73075000  0.27148000  0.54372000  1.0
  O  O187  1  0.26925000  0.22852000  0.04372000  1.0
  O  O188  1  0.63534000  0.94723000  0.45771000  1.0
  O  O189  1  0.36464000  0.55277000  0.95771000  1.0
  O  O190  1  0.36465000  0.05277000  0.54229000  1.0
  O  O191  1  0.63536000  0.44724000  0.04229000  1.0
  O  O192  1  0.76740000  0.80010000  0.54734000  1.0
  O  O193  1  0.23259000  0.69989000  0.04735000  1.0
  O  O194  1  0.23259000  0.19990000  0.45266000  1.0
  O  O195  1  0.76741000  0.30012000  0.95265000  1.0
  O  O196  1  0.59400000  0.12860000  0.05659000  1.0
  O  O197  1  0.40600000  0.37140000  0.55659000  1.0
  O  O198  1  0.40600000  0.87140000  0.94341000  1.0
  O  O199  1  0.59400000  0.62860000  0.44341000  1.0
  O  O200  1  0.58602000  0.13060000  0.44528000  1.0
  O  O201  1  0.41397000  0.36941000  0.94528000  1.0
  O  O202  1  0.41398000  0.86941000  0.55472000  1.0
  O  O203  1  0.58603000  0.63059000  0.05472000  1.0
  O  O204  1  0.60870000  0.93473000  0.04135000  1.0
  O  O205  1  0.39130000  0.56526000  0.54134000  1.0
  O  O206  1  0.39131000  0.06526000  0.95865000  1.0
  O  O207  1  0.60869000  0.43474000  0.45865000  1.0
  O  O208  1  0.02986000  0.83517000  0.25224000  1.0
  O  O209  1  0.97013000  0.66480000  0.75225000  1.0
  O  O210  1  0.97014000  0.16482000  0.74775000  1.0
  O  O211  1  0.02987000  0.33517000  0.24776000  1.0
  O  O212  1  0.16316000  0.66506000  0.25105000  1.0
  O  O213  1  0.83685000  0.83492000  0.75104000  1.0
  O  O214  1  0.83684000  0.33493000  0.74896000  1.0
  O  O215  1  0.16316000  0.16506000  0.24896000  1.0
