# generated using pymatgen
data_Al4H28C37O22
_symmetry_space_group_name_H-M   'P 1'
_cell_length_a   6.66683000
_cell_length_b   16.57290000
_cell_length_c   18.53510000
_cell_angle_alpha   73.16400000
_cell_angle_beta   89.44200000
_cell_angle_gamma   89.57880000
_symmetry_Int_Tables_number   1
_chemical_formula_structural   Al4H28C37O22
_chemical_formula_sum   'Al4 H28 C37 O22'
_cell_volume   1960.02579594
_cell_formula_units_Z   1
loop_
 _symmetry_equiv_pos_site_id
 _symmetry_equiv_pos_as_xyz
  1  'x, y, z'
loop_
 _atom_site_type_symbol
 _atom_site_label
 _atom_site_symmetry_multiplicity
 _atom_site_fract_x
 _atom_site_fract_y
 _atom_site_fract_z
 _atom_site_occupancy
  Al  Al0  1  0.86746000  0.49939000  0.50167000  1.0
  Al  Al1  1  0.36752000  0.50160000  0.49868000  1.0
  Al  Al2  1  0.36238000  0.99954000  0.00029000  1.0
  Al  Al3  1  0.86249000  0.00157000  0.99798000  1.0
  H  H4  1  0.37347000  0.86389000  0.22645000  1.0
  H  H5  1  0.23838000  0.77068000  0.37063000  1.0
  H  H6  1  0.41338000  0.73183000  0.31664000  1.0
  H  H7  1  0.36720000  0.74600000  0.16612000  1.0
  H  H8  1  0.80927000  0.76592000  0.17858000  1.0
  H  H9  1  0.80963000  0.84976000  0.21908000  1.0
  H  H10  1  0.86347000  0.75873000  0.34083000  1.0
  H  H11  1  0.78593000  0.67879000  0.30153000  1.0
  H  H12  1  0.14606000  0.72576000  0.12178000  1.0
  H  H13  1  0.03028000  0.62385000  0.23018000  1.0
  H  H14  1  0.30786000  0.34321000  0.71796000  1.0
  H  H15  1  0.31850000  0.26796000  0.66803000  1.0
  H  H16  1  0.31558000  0.23683000  0.83263000  1.0
  H  H17  1  0.63345000  0.39394000  0.76209000  1.0
  H  H18  1  0.65365000  0.28222000  0.87209000  1.0
  H  H19  1  0.87926000  0.25616000  0.65999000  1.0
  H  H20  1  0.65679000  0.22050000  0.62823000  1.0
  H  H21  1  0.63317000  0.10896000  0.73824000  1.0
  H  H22  1  0.86553000  0.13925000  0.76722000  1.0
  H  H23  1  0.86652000  0.36227000  0.73275000  1.0
  H  H24  1  0.30666000  0.16166000  0.78266000  1.0
  H  H25  1  0.14762000  0.88569000  0.26847000  1.0
  H  H26  1  0.87653000  0.24516000  0.83986000  1.0
  H  H27  1  0.38681000  0.47771000  0.28539000  1.0
  H  H28  1  0.62092000  0.60643000  0.45182000  1.0
  H  H29  1  0.12188000  0.38915000  0.52423000  1.0
  H  H30  1  0.61686000  0.89238000  0.04135000  1.0
  H  H31  1  0.11411000  0.11162000  0.97065000  1.0
  C  C32  1  0.61584000  0.38617000  0.61562000  1.0
  C  C33  1  0.62204000  0.41349000  0.41435000  1.0
  C  C34  1  0.11285000  0.61542000  0.38405000  1.0
  C  C35  1  0.11620000  0.58664000  0.58558000  1.0
  C  C36  1  0.11471000  0.63598000  0.63809000  1.0
  C  C37  1  0.11430000  0.67999000  0.68111000  1.0
  C  C38  1  0.11462000  0.72843000  0.72785000  1.0
  C  C39  1  0.11548000  0.77317000  0.77069000  1.0
  C  C40  1  0.11662000  0.82160000  0.81744000  1.0
  C  C41  1  0.11753000  0.86562000  0.86043000  1.0
  C  C42  1  0.22882000  0.83698000  0.25004000  1.0
  C  C43  1  0.26031000  0.75659000  0.31666000  1.0
  C  C44  1  0.20462000  0.73613000  0.17361000  1.0
  C  C45  1  0.89094000  0.79234000  0.21774000  1.0
  C  C46  1  0.10580000  0.81473000  0.18826000  1.0
  C  C47  1  0.10890000  0.68833000  0.31164000  1.0
  C  C48  1  0.16252000  0.65765000  0.24101000  1.0
  C  C49  1  0.89810000  0.72810000  0.29679000  1.0
  C  C50  1  0.39234000  0.28798000  0.71274000  1.0
  C  C51  1  0.39099000  0.21638000  0.78783000  1.0
  C  C52  1  0.71465000  0.34029000  0.75179000  1.0
  C  C53  1  0.72341000  0.23757000  0.67586000  1.0
  C  C54  1  0.60896000  0.31414000  0.68823000  1.0
  C  C55  1  0.60676000  0.18897000  0.81214000  1.0
  C  C56  1  0.72126000  0.26476000  0.82431000  1.0
  C  C57  1  0.71427000  0.16211000  0.74842000  1.0
  C  C58  1  0.62521000  0.36703000  0.35940000  1.0
  C  C59  1  0.62122000  0.32465000  0.31501000  1.0
  C  C60  1  0.61746000  0.27706000  0.26759000  1.0
  C  C61  1  0.61356000  0.23200000  0.22505000  1.0
  C  C62  1  0.61080000  0.18289000  0.17895000  1.0
  C  C63  1  0.60915000  0.13798000  0.13676000  1.0
  C  C64  1  0.60967000  0.08752000  0.08503000  1.0
  C  C65  1  0.61089000  0.11647000  0.88444000  1.0
  C  C66  1  0.11522000  0.91505000  0.91291000  1.0
  C  C67  1  0.11046000  0.88593000  0.11515000  1.0
  C  C68  1  0.33735000  0.59617000  0.25413000  1.0
  O  O69  1  0.44839000  0.43539000  0.43127000  1.0
  O  O70  1  0.78795000  0.41467000  0.59065000  1.0
  O  O71  1  0.94570000  0.56920000  0.56389000  1.0
  O  O72  1  0.79037000  0.42686000  0.44009000  1.0
  O  O73  1  0.94578000  0.58524000  0.41247000  1.0
  O  O74  1  0.45041000  0.41250000  0.58351000  1.0
  O  O75  1  0.61748000  0.55149000  0.48902000  1.0
  O  O76  1  0.28413000  0.59060000  0.41237000  1.0
  O  O77  1  0.28814000  0.56677000  0.56551000  1.0
  O  O78  1  0.11908000  0.45015000  0.50827000  1.0
  O  O79  1  0.78216000  0.09015000  0.91171000  1.0
  O  O80  1  0.43858000  0.06832000  0.06531000  1.0
  O  O81  1  0.28231000  0.91247000  0.08803000  1.0
  O  O82  1  0.44366000  0.08730000  0.91383000  1.0
  O  O83  1  0.28513000  0.93184000  0.93556000  1.0
  O  O84  1  0.78170000  0.06892000  0.06402000  1.0
  O  O85  1  0.61377000  0.94989000  0.00880000  1.0
  O  O86  1  0.94272000  0.93568000  0.93179000  1.0
  O  O87  1  0.94366000  0.91291000  0.08443000  1.0
  O  O88  1  0.11248000  0.05087000  0.99125000  1.0
  O  O89  1  0.51526000  0.61472000  0.24952000  1.0
  O  O90  1  0.27061000  0.51570000  0.27171000  1.0
