# generated using pymatgen
data_H3W2C2(NO2)3
_symmetry_space_group_name_H-M   'P 1'
_cell_length_a   3.83320000
_cell_length_b   13.62460000
_cell_length_c   14.15060000
_cell_angle_alpha   90.00010000
_cell_angle_beta   89.99990000
_cell_angle_gamma   90.00000000
_symmetry_Int_Tables_number   1
_chemical_formula_structural   H3W2C2(NO2)3
_chemical_formula_sum   'H12 W8 C8 N12 O24'
_cell_volume   739.02664208
_cell_formula_units_Z   4
loop_
 _symmetry_equiv_pos_site_id
 _symmetry_equiv_pos_as_xyz
  1  'x, y, z'
loop_
 _atom_site_type_symbol
 _atom_site_label
 _atom_site_symmetry_multiplicity
 _atom_site_fract_x
 _atom_site_fract_y
 _atom_site_fract_z
 _atom_site_occupancy
  H  H0  1  0.34013000  0.59541000  0.68131000  1.0
  H  H1  1  0.84012000  0.40459000  0.81869000  1.0
  H  H2  1  0.65988000  0.90459000  0.18131000  1.0
  H  H3  1  0.15987000  0.09541000  0.31869000  1.0
  H  H4  1  0.47307000  0.75125000  0.78015000  1.0
  H  H5  1  0.97306000  0.24875000  0.71985000  1.0
  H  H6  1  0.52694000  0.74875000  0.28015000  1.0
  H  H7  1  0.02694000  0.25125000  0.21985000  1.0
  H  H8  1  0.36025000  0.90684000  0.67944000  1.0
  H  H9  1  0.86025000  0.09316000  0.82056000  1.0
  H  H10  1  0.63975000  0.59316000  0.17944000  1.0
  H  H11  1  0.13975000  0.40684000  0.32056000  1.0
  W  W12  1  0.20393000  0.61395000  0.42369000  1.0
  W  W13  1  0.70393000  0.38605000  0.07631000  1.0
  W  W14  1  0.79607000  0.88605000  0.92369000  1.0
  W  W15  1  0.29607000  0.11395000  0.57631000  1.0
  W  W16  1  0.20643000  0.88567000  0.42190000  1.0
  W  W17  1  0.70643000  0.11433000  0.07810000  1.0
  W  W18  1  0.79357000  0.61433000  0.92190000  1.0
  W  W19  1  0.29357000  0.38567000  0.57810000  1.0
  C  C20  1  0.32441000  0.67088000  0.65654000  1.0
  C  C21  1  0.82440000  0.32912000  0.84345000  1.0
  C  C22  1  0.67560000  0.82913000  0.15654000  1.0
  C  C23  1  0.17559000  0.17087000  0.34346000  1.0
  C  C24  1  0.33479000  0.83126000  0.65547000  1.0
  C  C25  1  0.83480000  0.16875000  0.84452000  1.0
  C  C26  1  0.66521000  0.66874000  0.15548000  1.0
  C  C27  1  0.16520000  0.33126000  0.34452000  1.0
  N  N28  1  0.24643000  0.70036000  0.57008000  1.0
  N  N29  1  0.74643000  0.29964000  0.92992000  1.0
  N  N30  1  0.75358000  0.79964000  0.07008000  1.0
  N  N31  1  0.25357000  0.20036000  0.42992000  1.0
  N  N32  1  0.38113000  0.75117000  0.71124000  1.0
  N  N33  1  0.88113000  0.24883000  0.78876000  1.0
  N  N34  1  0.61887000  0.74883000  0.21124000  1.0
  N  N35  1  0.11886000  0.25117000  0.28876000  1.0
  N  N36  1  0.25255000  0.80139000  0.56943000  1.0
  N  N37  1  0.75255000  0.19861000  0.93057000  1.0
  N  N38  1  0.74745000  0.69861000  0.06943000  1.0
  N  N39  1  0.24745000  0.30139000  0.43057000  1.0
  O  O40  1  0.25261000  0.74932000  0.38312000  1.0
  O  O41  1  0.75261000  0.25068000  0.11688000  1.0
  O  O42  1  0.74739000  0.75068000  0.88312000  1.0
  O  O43  1  0.24738000  0.24932000  0.61688000  1.0
  O  O44  1  0.24906000  0.50018000  0.50161000  1.0
  O  O45  1  0.74907000  0.49981000  0.99838000  1.0
  O  O46  1  0.75093000  0.99982000  0.00162000  1.0
  O  O47  1  0.25093000  0.00019000  0.49839000  1.0
  O  O48  1  0.22735000  0.56264000  0.31145000  1.0
  O  O49  1  0.72735000  0.43736000  0.18855000  1.0
  O  O50  1  0.77265000  0.93736000  0.81145000  1.0
  O  O51  1  0.27265000  0.06264000  0.68855000  1.0
  O  O52  1  0.23048000  0.93554000  0.30911000  1.0
  O  O53  1  0.73048000  0.06446000  0.19089000  1.0
  O  O54  1  0.76953000  0.56447000  0.80911000  1.0
  O  O55  1  0.26952000  0.43554000  0.69089000  1.0
  O  O56  1  0.73440000  0.87625000  0.43818000  1.0
  O  O57  1  0.23441000  0.12375000  0.06182000  1.0
  O  O58  1  0.26560000  0.62374000  0.93818000  1.0
  O  O59  1  0.76559000  0.37626000  0.56182000  1.0
  O  O60  1  0.73214000  0.62264000  0.44040000  1.0
  O  O61  1  0.23215000  0.37736000  0.05960000  1.0
  O  O62  1  0.26786000  0.87736000  0.94040000  1.0
  O  O63  1  0.76785000  0.12264000  0.55960000  1.0
