# generated using pymatgen
data_CuH8C10S2IN2
_symmetry_space_group_name_H-M   'P 1'
_cell_length_a   8.13599000
_cell_length_b   10.07080000
_cell_length_c   11.03771237
_cell_angle_alpha   62.89358162
_cell_angle_beta   79.72410058
_cell_angle_gamma   85.03310000
_symmetry_Int_Tables_number   1
_chemical_formula_structural   CuH8C10S2IN2
_chemical_formula_sum   'Cu2 H16 C20 S4 I2 N4'
_cell_volume   792.12178252
_cell_formula_units_Z   2
loop_
 _symmetry_equiv_pos_site_id
 _symmetry_equiv_pos_as_xyz
  1  'x, y, z'
loop_
 _atom_site_type_symbol
 _atom_site_label
 _atom_site_symmetry_multiplicity
 _atom_site_fract_x
 _atom_site_fract_y
 _atom_site_fract_z
 _atom_site_occupancy
  Cu  Cu0  1  0.38151000  0.05756000  0.55578000  1.0
  Cu  Cu1  1  0.61848000  0.94244000  0.44422000  1.0
  H  H2  1  0.41968000  0.33328000  0.57863000  1.0
  H  H3  1  0.58032000  0.66672000  0.42138000  1.0
  H  H4  1  0.28969000  0.58746000  0.49666000  1.0
  H  H5  1  0.71032000  0.41254000  0.50334000  1.0
  H  H6  1  0.04530000  0.48102000  0.23431000  1.0
  H  H7  1  0.95472000  0.51899000  0.76568000  1.0
  H  H8  1  0.18147000  0.23013000  0.33108000  1.0
  H  H9  1  0.81854000  0.76987000  0.66892000  1.0
  H  H10  1  0.03828000  0.94661000  0.66653000  1.0
  H  H11  1  0.96171000  0.05339000  0.33347000  1.0
  H  H12  1  0.85288000  0.84646000  0.89158000  1.0
  H  H13  1  0.14711000  0.15353000  0.10842000  1.0
  H  H14  1  0.28678000  0.81460000  0.08192000  1.0
  H  H15  1  0.71321000  0.18540000  0.91808000  1.0
  H  H16  1  0.45316000  0.92513000  0.84486000  1.0
  H  H17  1  0.54682000  0.07487000  0.15514000  1.0
  C  C18  1  0.33503000  0.37052000  0.50264000  1.0
  C  C19  1  0.66498000  0.62948000  0.49736000  1.0
  C  C20  1  0.26356000  0.51195000  0.45637000  1.0
  C  C21  1  0.73645000  0.48805000  0.54363000  1.0
  C  C22  1  0.15597000  0.55498000  0.35801000  1.0
  C  C23  1  0.84404000  0.44502000  0.64199000  1.0
  C  C24  1  0.12737000  0.45304000  0.31068000  1.0
  C  C25  1  0.87264000  0.54697000  0.68931000  1.0
  C  C26  1  0.20288000  0.31330000  0.36428000  1.0
  C  C27  1  0.79713000  0.68670000  0.63572000  1.0
  C  C28  1  0.08926000  0.91650000  0.76087000  1.0
  C  C29  1  0.91073000  0.08349000  0.23913000  1.0
  C  C30  1  0.98594000  0.85864000  0.88777000  1.0
  C  C31  1  0.01405000  0.14136000  0.11223000  1.0
  C  C32  1  0.05546000  0.82083000  0.00705000  1.0
  C  C33  1  0.94453000  0.17917000  0.99295000  1.0
  C  C34  1  0.22690000  0.84242000  0.99240000  1.0
  C  C35  1  0.77309000  0.15758000  0.00760000  1.0
  C  C36  1  0.31971000  0.90362000  0.86098000  1.0
  C  C37  1  0.68028000  0.09639000  0.13901000  1.0
  S  S38  1  0.06353000  0.73465000  0.30481000  1.0
  S  S39  1  0.93648000  0.26535000  0.69519000  1.0
  S  S40  1  0.91845000  0.75076000  0.16609000  1.0
  S  S41  1  0.08155000  0.24924000  0.83391000  1.0
  I  I42  1  0.30683000  0.92129000  0.41578000  1.0
  I  I43  1  0.69317000  0.07870000  0.58423000  1.0
  N  N44  1  0.30507000  0.27021000  0.45957000  1.0
  N  N45  1  0.69494000  0.72980000  0.54043000  1.0
  N  N46  1  0.25391000  0.94163000  0.74554000  1.0
  N  N47  1  0.74608000  0.05837000  0.25446000  1.0
