# generated using pymatgen
data_NaSmH14C14(NO6)2
_symmetry_space_group_name_H-M   'P 1'
_cell_length_a   10.71710000
_cell_length_b   11.19970000
_cell_length_c   17.66580000
_cell_angle_alpha   89.99990000
_cell_angle_beta   89.99990000
_cell_angle_gamma   82.62370000
_symmetry_Int_Tables_number   1
_chemical_formula_structural   NaSmH14C14(NO6)2
_chemical_formula_sum   'Na4 Sm4 H56 C56 N8 O48'
_cell_volume   2102.84837902
_cell_formula_units_Z   4
loop_
 _symmetry_equiv_pos_site_id
 _symmetry_equiv_pos_as_xyz
  1  'x, y, z'
loop_
 _atom_site_type_symbol
 _atom_site_label
 _atom_site_symmetry_multiplicity
 _atom_site_fract_x
 _atom_site_fract_y
 _atom_site_fract_z
 _atom_site_occupancy
  Na  Na0  1  0.06726000  0.89001000  0.13396000  1.0
  Na  Na1  1  0.93274000  0.60998000  0.63396000  1.0
  Na  Na2  1  0.93273000  0.10999000  0.86604000  1.0
  Na  Na3  1  0.06726000  0.39002000  0.36604000  1.0
  Sm  Sm4  1  0.09665000  0.21784000  0.18344000  1.0
  Sm  Sm5  1  0.90335000  0.28216000  0.68344000  1.0
  Sm  Sm6  1  0.90336000  0.78216000  0.81656000  1.0
  Sm  Sm7  1  0.09664000  0.71784000  0.31656000  1.0
  H  H8  1  0.55487000  0.39344000  0.15726000  1.0
  H  H9  1  0.44514000  0.10656000  0.65725000  1.0
  H  H10  1  0.44514000  0.60656000  0.84275000  1.0
  H  H11  1  0.55487000  0.89343000  0.34274000  1.0
  H  H12  1  0.69368000  0.19268000  0.16004000  1.0
  H  H13  1  0.30632000  0.30731000  0.66004000  1.0
  H  H14  1  0.30632000  0.80731000  0.83996000  1.0
  H  H15  1  0.69368000  0.69268000  0.33996000  1.0
  H  H16  1  0.59117000  0.00341000  0.16170000  1.0
  H  H17  1  0.40883000  0.49659000  0.66170000  1.0
  H  H18  1  0.40883000  0.99658000  0.83830000  1.0
  H  H19  1  0.59117000  0.50341000  0.33830000  1.0
  H  H20  1  0.68557000  0.56486000  0.13744000  1.0
  H  H21  1  0.31444000  0.93515000  0.63744000  1.0
  H  H22  1  0.31443000  0.43514000  0.86257000  1.0
  H  H23  1  0.68556000  0.06485000  0.36257000  1.0
  H  H24  1  0.67882000  0.55357000  0.99436000  1.0
  H  H25  1  0.32118000  0.94644000  0.49437000  1.0
  H  H26  1  0.32118000  0.44644000  0.00564000  1.0
  H  H27  1  0.67882000  0.05355000  0.50564000  1.0
  H  H28  1  0.84371000  0.41315000  0.92765000  1.0
  H  H29  1  0.15628000  0.08685000  0.42765000  1.0
  H  H30  1  0.15628000  0.58686000  0.07235000  1.0
  H  H31  1  0.84373000  0.91314000  0.57235000  1.0
  H  H32  1  0.87387000  0.05598000  0.17158000  1.0
  H  H33  1  0.12613000  0.44402000  0.67158000  1.0
  H  H34  1  0.12613000  0.94402000  0.82842000  1.0
  H  H35  1  0.87387000  0.55598000  0.32842000  1.0
  H  H36  1  0.90300000  0.08114000  0.08433000  1.0
  H  H37  1  0.09700000  0.41886000  0.58433000  1.0
  H  H38  1  0.09699000  0.91886000  0.91567000  1.0
  H  H39  1  0.90300000  0.58114000  0.41567000  1.0
  H  H40  1  0.25845000  0.16006000  0.32221000  1.0
  H  H41  1  0.74155000  0.33994000  0.82221000  1.0
  H  H42  1  0.74155000  0.83993000  0.67779000  1.0
  H  H43  1  0.25846000  0.66006000  0.17779000  1.0
  H  H44  1  0.28984000  0.29474000  0.31431000  1.0
  H  H45  1  0.71016000  0.20526000  0.81431000  1.0
  H  H46  1  0.71016000  0.70526000  0.68570000  1.0
  H  H47  1  0.28984000  0.79474000  0.18569000  1.0
  H  H48  1  0.99673000  0.15483000  0.33831000  1.0
  H  H49  1  0.00326000  0.34517000  0.83831000  1.0
  H  H50  1  0.00327000  0.84517000  0.66169000  1.0
  H  H51  1  0.99673000  0.65483000  0.16169000  1.0
  H  H52  1  0.08177000  0.03534000  0.30970000  1.0
  H  H53  1  0.91824000  0.46466000  0.80970000  1.0
  H  H54  1  0.91824000  0.96466000  0.69030000  1.0
  H  H55  1  0.08176000  0.53534000  0.19030000  1.0
  H  H56  1  0.14603000  0.04504000  0.01529000  1.0
  H  H57  1  0.85396000  0.45496000  0.51529000  1.0
  H  H58  1  0.85397000  0.95496000  0.98471000  1.0
  H  H59  1  0.14603000  0.54503000  0.48470000  1.0
  H  H60  1  0.24447000  0.92874000  0.01066000  1.0
  H  H61  1  0.75553000  0.57126000  0.51066000  1.0
  H  H62  1  0.75553000  0.07127000  0.98933000  1.0
  H  H63  1  0.24447000  0.42873000  0.48933000  1.0
  C  C64  1  0.29530000  0.42475000  0.15986000  1.0
  C  C65  1  0.70470000  0.07525000  0.65986000  1.0
  C  C66  1  0.70470000  0.57524000  0.84014000  1.0
  C  C67  1  0.29530000  0.92475000  0.34014000  1.0
  C  C68  1  0.38549000  0.30978000  0.15621000  1.0
  C  C69  1  0.61451000  0.19022000  0.65620000  1.0
  C  C70  1  0.61452000  0.69022000  0.84380000  1.0
  C  C71  1  0.38549000  0.80978000  0.34380000  1.0
  C  C72  1  0.51594000  0.30837000  0.15623000  1.0
  C  C73  1  0.48406000  0.19162000  0.65623000  1.0
  C  C74  1  0.48407000  0.69162000  0.84378000  1.0
  C  C75  1  0.51594000  0.80837000  0.34377000  1.0
  C  C76  1  0.59159000  0.19738000  0.15752000  1.0
  C  C77  1  0.40841000  0.30262000  0.65752000  1.0
  C  C78  1  0.40841000  0.80262000  0.84248000  1.0
  C  C79  1  0.59159000  0.69738000  0.34248000  1.0
  C  C80  1  0.53540000  0.09156000  0.15842000  1.0
  C  C81  1  0.46460000  0.40844000  0.65842000  1.0
  C  C82  1  0.46461000  0.90844000  0.84158000  1.0
  C  C83  1  0.53540000  0.59156000  0.34158000  1.0
  C  C84  1  0.40423000  0.10116000  0.15850000  1.0
  C  C85  1  0.59577000  0.39885000  0.65850000  1.0
  C  C86  1  0.59577000  0.89884000  0.84150000  1.0
  C  C87  1  0.40423000  0.60116000  0.34150000  1.0
  C  C88  1  0.33242000  0.99410000  0.16446000  1.0
  C  C89  1  0.66757000  0.50591000  0.66446000  1.0
  C  C90  1  0.66758000  0.00591000  0.83554000  1.0
  C  C91  1  0.33242000  0.49409000  0.33555000  1.0
  C  C92  1  0.86015000  0.42953000  0.22892000  1.0
  C  C93  1  0.13985000  0.07048000  0.72892000  1.0
  C  C94  1  0.13985000  0.57047000  0.77108000  1.0
  C  C95  1  0.86015000  0.92953000  0.27109000  1.0
  C  C96  1  0.84653000  0.42891000  0.14386000  1.0
  C  C97  1  0.15347000  0.07110000  0.64386000  1.0
  C  C98  1  0.15347000  0.57110000  0.85615000  1.0
  C  C99  1  0.84653000  0.92890000  0.35615000  1.0
  C  C100  1  0.75334000  0.50397000  0.10529000  1.0
  C  C101  1  0.24667000  0.99604000  0.60529000  1.0
  C  C102  1  0.24666000  0.49604000  0.89472000  1.0
  C  C103  1  0.75333000  0.00396000  0.39472000  1.0
  C  C104  1  0.75135000  0.49812000  0.02648000  1.0
  C  C105  1  0.24865000  0.00189000  0.52648000  1.0
  C  C106  1  0.24864000  0.50189000  0.97353000  1.0
  C  C107  1  0.75136000  0.99810000  0.47353000  1.0
  C  C108  1  0.84312000  0.42018000  0.98892000  1.0
  C  C109  1  0.15689000  0.07982000  0.48892000  1.0
  C  C110  1  0.15688000  0.57982000  0.01109000  1.0
  C  C111  1  0.84312000  0.92017000  0.51109000  1.0
  C  C112  1  0.93432000  0.34974000  0.03155000  1.0
  C  C113  1  0.06568000  0.15026000  0.53155000  1.0
  C  C114  1  0.06567000  0.65026000  0.96845000  1.0
  C  C115  1  0.93433000  0.84974000  0.46845000  1.0
  C  C116  1  0.03573000  0.26020000  0.99611000  1.0
  C  C117  1  0.96427000  0.23979000  0.49611000  1.0
  C  C118  1  0.96426000  0.73980000  0.00389000  1.0
  C  C119  1  0.03574000  0.76020000  0.50389000  1.0
  N  N120  1  0.33183000  0.20818000  0.15720000  1.0
  N  N121  1  0.66817000  0.29182000  0.65720000  1.0
  N  N122  1  0.66817000  0.79182000  0.84280000  1.0
  N  N123  1  0.33183000  0.70818000  0.34280000  1.0
  N  N124  1  0.93404000  0.35389000  0.10741000  1.0
  N  N125  1  0.06596000  0.14612000  0.60741000  1.0
  N  N126  1  0.06596000  0.64611000  0.89259000  1.0
  N  N127  1  0.93405000  0.85389000  0.39259000  1.0
  O  O128  1  0.33827000  0.52365000  0.15725000  1.0
  O  O129  1  0.66172000  0.97635000  0.65724000  1.0
  O  O130  1  0.66172000  0.47635000  0.84276000  1.0
  O  O131  1  0.33828000  0.02365000  0.34276000  1.0
  O  O132  1  0.17791000  0.41106000  0.16583000  1.0
  O  O133  1  0.82209000  0.08894000  0.66584000  1.0
  O  O134  1  0.82209000  0.58894000  0.83416000  1.0
  O  O135  1  0.17791000  0.91106000  0.33416000  1.0
  O  O136  1  0.39082000  0.88953000  0.16217000  1.0
  O  O137  1  0.60917000  0.61047000  0.66217000  1.0
  O  O138  1  0.60917000  0.11047000  0.83783000  1.0
  O  O139  1  0.39083000  0.38953000  0.33784000  1.0
  O  O140  1  0.21234000  0.01941000  0.17208000  1.0
  O  O141  1  0.78766000  0.48059000  0.67207000  1.0
  O  O142  1  0.78766000  0.98059000  0.82792000  1.0
  O  O143  1  0.21233000  0.51941000  0.32792000  1.0
  O  O144  1  0.95147000  0.35652000  0.25591000  1.0
  O  O145  1  0.04854000  0.14349000  0.75591000  1.0
  O  O146  1  0.04854000  0.64348000  0.74409000  1.0
  O  O147  1  0.95146000  0.85651000  0.24409000  1.0
  O  O148  1  0.78571000  0.50217000  0.26666000  1.0
  O  O149  1  0.21430000  0.99784000  0.76667000  1.0
  O  O150  1  0.21430000  0.49784000  0.73334000  1.0
  O  O151  1  0.78571000  0.00217000  0.23334000  1.0
  O  O152  1  0.10804000  0.19556000  0.04275000  1.0
  O  O153  1  0.89195000  0.30444000  0.54275000  1.0
  O  O154  1  0.89195000  0.80444000  0.95725000  1.0
  O  O155  1  0.10806000  0.69556000  0.45725000  1.0
  O  O156  1  0.04073000  0.25099000  0.92526000  1.0
  O  O157  1  0.95926000  0.24901000  0.42526000  1.0
  O  O158  1  0.95926000  0.74902000  0.07474000  1.0
  O  O159  1  0.04075000  0.75098000  0.57474000  1.0
  O  O160  1  0.93656000  0.08758000  0.13633000  1.0
  O  O161  1  0.06344000  0.41242000  0.63633000  1.0
  O  O162  1  0.06344000  0.91242000  0.86367000  1.0
  O  O163  1  0.93656000  0.58759000  0.36367000  1.0
  O  O164  1  0.22077000  0.24273000  0.30610000  1.0
  O  O165  1  0.77923000  0.25727000  0.80611000  1.0
  O  O166  1  0.77923000  0.75727000  0.69389000  1.0
  O  O167  1  0.22077000  0.74273000  0.19389000  1.0
  O  O168  1  0.02341000  0.10756000  0.29261000  1.0
  O  O169  1  0.97659000  0.39244000  0.79261000  1.0
  O  O170  1  0.97659000  0.89244000  0.70739000  1.0
  O  O171  1  0.02341000  0.60756000  0.20739000  1.0
  O  O172  1  0.15469000  0.95571000  0.00675000  1.0
  O  O173  1  0.84530000  0.54428000  0.50675000  1.0
  O  O174  1  0.84531000  0.04429000  0.99325000  1.0
  O  O175  1  0.15469000  0.45571000  0.49324000  1.0
