# generated using pymatgen
data_Sr2H4C10O9
_symmetry_space_group_name_H-M   'P 1'
_cell_length_a   7.74102000
_cell_length_b   8.23232000
_cell_length_c   9.54047761
_cell_angle_alpha   64.43853715
_cell_angle_beta   86.79782213
_cell_angle_gamma   82.55450000
_symmetry_Int_Tables_number   1
_chemical_formula_structural   Sr2H4C10O9
_chemical_formula_sum   'Sr4 H8 C20 O18'
_cell_volume   543.84987082
_cell_formula_units_Z   2
loop_
 _symmetry_equiv_pos_site_id
 _symmetry_equiv_pos_as_xyz
  1  'x, y, z'
loop_
 _atom_site_type_symbol
 _atom_site_label
 _atom_site_symmetry_multiplicity
 _atom_site_fract_x
 _atom_site_fract_y
 _atom_site_fract_z
 _atom_site_occupancy
  Sr  Sr0  1  0.24995000  0.22113000  0.55786000  1.0
  Sr  Sr1  1  0.75005000  0.77887000  0.44214000  1.0
  Sr  Sr2  1  0.74999000  0.16704000  0.66575000  1.0
  Sr  Sr3  1  0.25002000  0.83296000  0.33425000  1.0
  H  H4  1  0.66434000  0.03400000  0.05066000  1.0
  H  H5  1  0.83567000  0.91516000  0.05073000  1.0
  H  H6  1  0.33566000  0.96600000  0.94934000  1.0
  H  H7  1  0.16433000  0.08484000  0.94927000  1.0
  H  H8  1  0.91392000  0.20193000  0.04990000  1.0
  H  H9  1  0.58586000  0.74830000  0.04979000  1.0
  H  H10  1  0.08608000  0.79807000  0.95010000  1.0
  H  H11  1  0.41414000  0.25170000  0.95021000  1.0
  C  C12  1  0.94527000  0.39439000  0.75493000  1.0
  C  C13  1  0.55473000  0.85062000  0.75480000  1.0
  C  C14  1  0.05473000  0.60561000  0.24506000  1.0
  C  C15  1  0.44527000  0.14939000  0.24520000  1.0
  C  C16  1  0.97817000  0.45862000  0.87449000  1.0
  C  C17  1  0.52180000  0.66686000  0.87445000  1.0
  C  C18  1  0.02183000  0.54138000  0.12551000  1.0
  C  C19  1  0.47820000  0.33314000  0.12555000  1.0
  C  C20  1  0.95456000  0.33278000  0.02738000  1.0
  C  C21  1  0.54529000  0.63996000  0.02731000  1.0
  C  C22  1  0.04544000  0.66722000  0.97262000  1.0
  C  C23  1  0.45471000  0.36004000  0.97270000  1.0
  C  C24  1  0.02449000  0.62987000  0.84566000  1.0
  C  C25  1  0.47562000  0.52437000  0.84569000  1.0
  C  C26  1  0.97551000  0.37013000  0.15434000  1.0
  C  C27  1  0.52438000  0.47563000  0.15431000  1.0
  C  C28  1  0.05955000  0.77325000  0.68582000  1.0
  C  C29  1  0.44055000  0.54073000  0.68587000  1.0
  C  C30  1  0.94045000  0.22675000  0.31418000  1.0
  C  C31  1  0.55945000  0.45928000  0.31413000  1.0
  O  O32  1  0.03682000  0.24861000  0.76405000  1.0
  O  O33  1  0.46315000  0.98734000  0.76376000  1.0
  O  O34  1  0.96318000  0.75138000  0.23595000  1.0
  O  O35  1  0.53685000  0.01266000  0.23624000  1.0
  O  O36  1  0.74995000  0.01034000  0.97896000  1.0
  O  O37  1  0.25005000  0.98966000  0.02104000  1.0
  O  O38  1  0.81682000  0.46746000  0.66221000  1.0
  O  O39  1  0.68326000  0.87015000  0.66217000  1.0
  O  O40  1  0.18318000  0.53254000  0.33779000  1.0
  O  O41  1  0.31673000  0.12985000  0.33783000  1.0
  O  O42  1  0.05853000  0.72894000  0.57271000  1.0
  O  O43  1  0.44162000  0.69812000  0.57268000  1.0
  O  O44  1  0.94147000  0.27105000  0.42729000  1.0
  O  O45  1  0.55838000  0.30188000  0.42732000  1.0
  O  O46  1  0.08860000  0.92647000  0.67423000  1.0
  O  O47  1  0.41142000  0.39909000  0.67437000  1.0
  O  O48  1  0.91140000  0.07353000  0.32576000  1.0
  O  O49  1  0.58857000  0.60090000  0.32564000  1.0
