# generated using pymatgen
data_ZnH46C38(NO3)3
_symmetry_space_group_name_H-M   'P 1'
_cell_length_a   16.36620000
_cell_length_b   16.56230000
_cell_length_c   19.06910000
_cell_angle_alpha   89.03140000
_cell_angle_beta   86.32760000
_cell_angle_gamma   88.42250000
_symmetry_Int_Tables_number   1
_chemical_formula_structural   ZnH46C38(NO3)3
_chemical_formula_sum   'Zn2 H92 C76 N6 O18'
_cell_volume   5155.74389990
_cell_formula_units_Z   2
loop_
 _symmetry_equiv_pos_site_id
 _symmetry_equiv_pos_as_xyz
  1  'x, y, z'
loop_
 _atom_site_type_symbol
 _atom_site_label
 _atom_site_symmetry_multiplicity
 _atom_site_fract_x
 _atom_site_fract_y
 _atom_site_fract_z
 _atom_site_occupancy
  Zn  Zn0  1  0.58880000  0.50438000  0.49758000  1.0
  Zn  Zn1  1  0.40893000  0.48784000  0.51724000  1.0
  H  H2  1  0.61458000  0.57765000  0.71560000  1.0
  H  H3  1  0.66987000  0.24545000  0.47179000  1.0
  H  H4  1  0.41822000  0.01606000  0.41078000  1.0
  H  H5  1  0.60332000  0.99452000  0.37482000  1.0
  H  H6  1  0.67328000  0.10701000  0.42069000  1.0
  H  H7  1  0.35640000  0.90466000  0.46554000  1.0
  H  H8  1  0.58705000  0.86506000  0.34705000  1.0
  H  H9  1  0.42251000  0.14239000  0.36794000  1.0
  H  H10  1  0.65094000  0.54065000  0.29789000  1.0
  H  H11  1  0.68968000  0.46150000  0.35063000  1.0
  H  H12  1  0.79649000  0.57419000  0.25581000  1.0
  H  H13  1  0.37152000  0.53840000  0.28076000  1.0
  H  H14  1  0.83301000  0.49059000  0.30420000  1.0
  H  H15  1  0.74871000  0.39704000  0.23364000  1.0
  H  H16  1  0.82093000  0.45124000  0.17912000  1.0
  H  H17  1  0.71575000  0.48102000  0.18393000  1.0
  H  H18  1  0.36145000  0.26888000  0.56068000  1.0
  H  H19  1  0.31978000  0.32109000  0.48918000  1.0
  H  H20  1  0.22303000  0.21022000  0.59347000  1.0
  H  H21  1  0.18252000  0.25984000  0.52031000  1.0
  H  H22  1  0.28342000  0.18356000  0.43812000  1.0
  H  H23  1  0.22386000  0.11540000  0.49136000  1.0
  H  H24  1  0.27960000  0.60317000  0.49504000  1.0
  H  H25  1  0.32632000  0.13445000  0.51089000  1.0
  H  H26  1  0.02663000  0.57659000  0.32352000  1.0
  H  H27  1  0.97637000  0.49079000  0.35979000  1.0
  H  H28  1  0.15988000  0.52318000  0.36727000  1.0
  H  H29  1  0.11031000  0.43717000  0.40282000  1.0
  H  H30  1  0.07183000  0.39861000  0.28179000  1.0
  H  H31  1  0.17958000  0.40781000  0.28409000  1.0
  H  H32  1  0.12009000  0.48577000  0.24539000  1.0
  H  H33  1  0.98729000  0.29660000  0.55683000  1.0
  H  H34  1  0.03935000  0.34293000  0.48295000  1.0
  H  H35  1  0.71526000  0.48610000  0.59546000  1.0
  H  H36  1  0.85226000  0.34496000  0.51237000  1.0
  H  H37  1  0.90409000  0.38708000  0.43712000  1.0
  H  H38  1  0.96104000  0.24818000  0.40294000  1.0
  H  H39  1  0.85234000  0.25004000  0.41131000  1.0
  H  H40  1  0.90924000  0.20596000  0.47899000  1.0
  H  H41  1  0.05122000  0.34085000  0.69985000  1.0
  H  H42  1  0.03468000  0.44080000  0.66685000  1.0
  H  H43  1  0.18658000  0.37766000  0.73978000  1.0
  H  H44  1  0.18004000  0.47271000  0.69703000  1.0
  H  H45  1  0.05657000  0.51269000  0.77576000  1.0
  H  H46  1  0.40106000  0.43353000  0.73841000  1.0
  H  H47  1  0.14227000  0.48860000  0.82527000  1.0
  H  H48  1  0.06283000  0.41845000  0.82127000  1.0
  H  H49  1  0.92403000  0.71695000  0.34388000  1.0
  H  H50  1  0.92874000  0.69901000  0.43595000  1.0
  H  H51  1  0.77329000  0.74589000  0.36019000  1.0
  H  H52  1  0.77528000  0.72509000  0.45100000  1.0
  H  H53  1  0.87038000  0.84088000  0.46446000  1.0
  H  H54  1  0.77762000  0.87446000  0.42894000  1.0
  H  H55  1  0.86826000  0.86344000  0.37320000  1.0
  H  H56  1  0.90232000  0.41989000  0.68346000  1.0
  H  H57  1  0.57987000  0.37758000  0.29898000  1.0
  H  H58  1  0.81543000  0.40088000  0.63562000  1.0
  H  H59  1  0.82295000  0.52482000  0.75305000  1.0
  H  H60  1  0.73528000  0.50789000  0.70631000  1.0
  H  H61  1  0.73426000  0.36251000  0.74874000  1.0
  H  H62  1  0.72585000  0.42979000  0.81995000  1.0
  H  H63  1  0.82101000  0.37958000  0.79754000  1.0
  H  H64  1  0.10088000  0.69141000  0.41288000  1.0
  H  H65  1  0.20423000  0.65943000  0.42319000  1.0
  H  H66  1  0.11061000  0.79097000  0.50954000  1.0
  H  H67  1  0.21487000  0.76309000  0.51613000  1.0
  H  H68  1  0.42005000  0.27892000  0.42081000  1.0
  H  H69  1  0.24624000  0.80805000  0.38984000  1.0
  H  H70  1  0.19983000  0.88827000  0.43954000  1.0
  H  H71  1  0.14098000  0.83406000  0.38218000  1.0
  H  H72  1  0.68211000  0.54813000  0.89096000  1.0
  H  H73  1  0.69400000  0.60409000  0.81048000  1.0
  H  H74  1  0.62543000  0.63876000  0.88056000  1.0
  H  H75  1  0.40555000  0.60706000  0.11894000  1.0
  H  H76  1  0.35850000  0.51893000  0.09212000  1.0
  H  H77  1  0.31977000  0.56869000  0.16976000  1.0
  H  H78  1  0.34360000  0.34661000  0.81366000  1.0
  H  H79  1  0.59014000  0.72207000  0.38980000  1.0
  H  H80  1  0.29606000  0.43952000  0.84294000  1.0
  H  H81  1  0.32563000  0.28455000  0.92983000  1.0
  H  H82  1  0.29959000  0.37819000  0.96906000  1.0
  H  H83  1  0.16705000  0.38638000  0.91248000  1.0
  H  H84  1  0.17504000  0.29175000  0.95674000  1.0
  H  H85  1  0.19200000  0.29763000  0.86397000  1.0
  H  H86  1  0.64312000  0.25803000  0.10946000  1.0
  H  H87  1  0.53670000  0.26786000  0.13302000  1.0
  H  H88  1  0.67061000  0.23569000  0.23717000  1.0
  H  H89  1  0.56414000  0.23869000  0.25969000  1.0
  H  H90  1  0.35833000  0.75960000  0.50416000  1.0
  H  H91  1  0.54625000  0.11854000  0.18198000  1.0
  H  H92  1  0.61472000  0.09542000  0.24816000  1.0
  H  H93  1  0.65340000  0.11476000  0.16041000  1.0
  C  C94  1  0.53658000  0.34640000  0.49159000  1.0
  C  C95  1  0.47282000  0.89596000  0.40577000  1.0
  C  C96  1  0.61765000  0.14497000  0.42044000  1.0
  C  C97  1  0.40693000  0.86409000  0.44772000  1.0
  C  C98  1  0.61591000  0.22150000  0.44960000  1.0
  C  C99  1  0.40792000  0.78361000  0.46973000  1.0
  C  C100  1  0.54414000  0.02629000  0.38355000  1.0
  C  C101  1  0.47555000  0.98314000  0.39627000  1.0
  C  C102  1  0.24135000  0.55290000  0.51243000  1.0
  C  C103  1  0.75332000  0.50662000  0.55006000  1.0
  C  C104  1  0.15621000  0.55970000  0.51644000  1.0
  C  C105  1  0.48255000  0.64880000  0.47918000  1.0
  C  C106  1  0.83690000  0.51813000  0.55363000  1.0
  C  C107  1  0.10856000  0.49061000  0.53696000  1.0
  C  C108  1  0.88491000  0.54179000  0.49144000  1.0
  C  C109  1  0.50247000  0.50507000  0.64228000  1.0
  C  C110  1  0.47262000  0.47377000  0.37483000  1.0
  C  C111  1  0.15411000  0.42702000  0.56975000  1.0
  C  C112  1  0.83827000  0.57187000  0.43539000  1.0
  C  C113  1  0.24022000  0.42448000  0.56212000  1.0
  C  C114  1  0.75402000  0.55649000  0.43572000  1.0
  C  C115  1  0.02111000  0.48369000  0.52642000  1.0
  C  C116  1  0.54299000  0.26797000  0.45371000  1.0
  C  C117  1  0.97455000  0.53418000  0.48453000  1.0
  C  C118  1  0.57205000  0.54353000  0.75012000  1.0
  C  C119  1  0.42097000  0.50176000  0.25530000  1.0
  C  C120  1  0.58154000  0.53987000  0.82248000  1.0
  C  C121  1  0.43209000  0.50103000  0.18208000  1.0
  C  C122  1  0.52716000  0.49241000  0.86484000  1.0
  C  C123  1  0.49682000  0.45291000  0.15088000  1.0
  C  C124  1  0.46139000  0.45448000  0.83489000  1.0
  C  C125  1  0.54667000  0.40425000  0.19346000  1.0
  C  C126  1  0.45120000  0.46141000  0.76297000  1.0
  C  C127  1  0.47524000  0.73309000  0.45058000  1.0
  C  C128  1  0.53716000  0.40979000  0.26637000  1.0
  C  C129  1  0.50854000  0.50414000  0.72050000  1.0
  C  C130  1  0.47530000  0.45975000  0.29728000  1.0
  C  C131  1  0.51866000  0.46060000  0.07505000  1.0
  C  C132  1  0.53502000  0.48101000  0.94079000  1.0
  C  C133  1  0.70464000  0.52006000  0.32552000  1.0
  C  C134  1  0.78059000  0.51351000  0.27559000  1.0
  C  C135  1  0.76589000  0.45775000  0.21488000  1.0
  C  C136  1  0.30457000  0.29531000  0.54181000  1.0
  C  C137  1  0.23890000  0.23235000  0.53973000  1.0
  C  C138  1  0.47467000  0.23994000  0.42141000  1.0
  C  C139  1  0.26967000  0.16252000  0.49253000  1.0
  C  C140  1  0.02827000  0.53063000  0.36571000  1.0
  C  C141  1  0.10898000  0.48267000  0.36019000  1.0
  C  C142  1  0.12077000  0.44140000  0.28897000  1.0
  C  C143  1  0.98303000  0.34609000  0.51793000  1.0
  C  C144  1  0.90728000  0.33790000  0.47646000  1.0
  C  C145  1  0.90757000  0.25605000  0.44043000  1.0
  C  C146  1  0.08190000  0.39415000  0.67679000  1.0
  C  C147  1  0.14336000  0.42629000  0.72536000  1.0
  C  C148  1  0.09881000  0.46339000  0.79052000  1.0
  C  C149  1  0.53904000  0.76292000  0.40533000  1.0
  C  C150  1  0.88875000  0.69684000  0.39170000  1.0
  C  C151  1  0.81171000  0.74934000  0.40524000  1.0
  C  C152  1  0.83323000  0.83679000  0.41861000  1.0
  C  C153  1  0.84586000  0.44742000  0.66440000  1.0
  C  C154  1  0.79064000  0.47846000  0.72568000  1.0
  C  C155  1  0.76678000  0.40883000  0.77583000  1.0
  C  C156  1  0.14904000  0.68622000  0.45058000  1.0
  C  C157  1  0.16593000  0.76870000  0.47922000  1.0
  C  C158  1  0.18956000  0.82792000  0.41938000  1.0
  C  C159  1  0.64959000  0.58492000  0.85258000  1.0
  C  C160  1  0.47642000  0.16391000  0.39198000  1.0
  C  C161  1  0.37592000  0.55154000  0.13837000  1.0
  C  C162  1  0.33350000  0.38670000  0.85923000  1.0
  C  C163  1  0.29240000  0.34230000  0.92187000  1.0
  C  C164  1  0.20174000  0.32867000  0.91319000  1.0
  C  C165  1  0.59810000  0.27496000  0.15235000  1.0
  C  C166  1  0.61055000  0.22273000  0.21753000  1.0
  C  C167  1  0.60608000  0.13297000  0.20110000  1.0
  C  C168  1  0.53727000  0.84277000  0.38234000  1.0
  C  C169  1  0.54639000  0.11278000  0.39530000  1.0
  N  N170  1  0.54253000  0.40453000  0.96660000  1.0
  N  N171  1  0.53371000  0.53603000  0.05004000  1.0
  N  N172  1  0.53232000  0.39411000  0.03538000  1.0
  N  N173  1  0.54038000  0.54662000  0.98096000  1.0
  N  N174  1  0.28223000  0.48532000  0.53162000  1.0
  N  N175  1  0.71382000  0.52217000  0.49138000  1.0
  O  O176  1  0.60278000  0.38033000  0.50491000  1.0
  O  O177  1  0.28349000  0.36156000  0.58946000  1.0
  O  O178  1  0.01374000  0.57626000  0.43006000  1.0
  O  O179  1  0.98211000  0.41912000  0.55907000  1.0
  O  O180  1  0.11903000  0.36628000  0.60992000  1.0
  O  O181  1  0.87137000  0.61317000  0.37814000  1.0
  O  O182  1  0.87320000  0.51042000  0.61542000  1.0
  O  O183  1  0.11784000  0.63213000  0.50586000  1.0
  O  O184  1  0.41003000  0.41386000  0.88140000  1.0
  O  O185  1  0.61139000  0.35993000  0.16278000  1.0
  O  O186  1  0.41774000  0.61335000  0.50198000  1.0
  O  O187  1  0.46429000  0.37382000  0.50707000  1.0
  O  O188  1  0.55532000  0.61972000  0.47831000  1.0
  O  O189  1  0.56852000  0.51649000  0.60482000  1.0
  O  O190  1  0.40315000  0.48284000  0.40802000  1.0
  O  O191  1  0.43225000  0.49300000  0.62015000  1.0
  O  O192  1  0.54230000  0.47653000  0.40041000  1.0
  O  O193  1  0.71026000  0.57966000  0.38043000  1.0
