# generated using pymatgen
data_MnH9C7N7O3
_symmetry_space_group_name_H-M   'P 1'
_cell_length_a   7.30326000
_cell_length_b   7.77334000
_cell_length_c   10.19770000
_cell_angle_alpha   79.82720000
_cell_angle_beta   75.70940000
_cell_angle_gamma   74.32580000
_symmetry_Int_Tables_number   1
_chemical_formula_structural   MnH9C7N7O3
_chemical_formula_sum   'Mn2 H18 C14 N14 O6'
_cell_volume   536.39200526
_cell_formula_units_Z   2
loop_
 _symmetry_equiv_pos_site_id
 _symmetry_equiv_pos_as_xyz
  1  'x, y, z'
loop_
 _atom_site_type_symbol
 _atom_site_label
 _atom_site_symmetry_multiplicity
 _atom_site_fract_x
 _atom_site_fract_y
 _atom_site_fract_z
 _atom_site_occupancy
  Mn  Mn0  1  0.00001000  0.50000000  0.00000000  1.0
  Mn  Mn1  1  0.00000000  0.00000000  0.00000000  1.0
  H  H2  1  0.46505000  0.00505000  0.25287000  1.0
  H  H3  1  0.53495000  0.99494000  0.74713000  1.0
  H  H4  1  0.36112000  0.92459000  0.14370000  1.0
  H  H5  1  0.63888000  0.07541000  0.85629000  1.0
  H  H6  1  0.30316000  0.63013000  0.19913000  1.0
  H  H7  1  0.69683000  0.36988000  0.80087000  1.0
  H  H8  1  0.17194000  0.41565000  0.39003000  1.0
  H  H9  1  0.82805000  0.58435000  0.60997000  1.0
  H  H10  1  0.16933000  0.45281000  0.63084000  1.0
  H  H11  1  0.83068000  0.54719000  0.36916000  1.0
  H  H12  1  0.30966000  0.69505000  0.67007000  1.0
  H  H13  1  0.69034000  0.30495000  0.32993000  1.0
  H  H14  1  0.45150000  0.88881000  0.46657000  1.0
  H  H15  1  0.54850000  0.11119000  0.53343000  1.0
  H  H16  1  0.08003000  0.21509000  0.19231000  1.0
  H  H17  1  0.91997000  0.78490000  0.80769000  1.0
  H  H18  1  0.25478000  0.31565000  0.15667000  1.0
  H  H19  1  0.74522000  0.68434000  0.84333000  1.0
  C  C20  1  0.66404000  0.80376000  0.13384000  1.0
  C  C21  1  0.33596000  0.19624000  0.86616000  1.0
  C  C22  1  0.46057000  0.88342000  0.21476000  1.0
  C  C23  1  0.53943000  0.11658000  0.78523000  1.0
  C  C24  1  0.30391000  0.63512000  0.30487000  1.0
  C  C25  1  0.69608000  0.36488000  0.69514000  1.0
  C  C26  1  0.22847000  0.52083000  0.41204000  1.0
  C  C27  1  0.77153000  0.47917000  0.58796000  1.0
  C  C28  1  0.22734000  0.54187000  0.54533000  1.0
  C  C29  1  0.77265000  0.45813000  0.45467000  1.0
  C  C30  1  0.30497000  0.67641000  0.56796000  1.0
  C  C31  1  0.69504000  0.32360000  0.43203000  1.0
  C  C32  1  0.38323000  0.78498000  0.45772000  1.0
  C  C33  1  0.61677000  0.21502000  0.54229000  1.0
  N  N34  1  0.17481000  0.69913000  0.99785000  1.0
  N  N35  1  0.82519000  0.30087000  0.00215000  1.0
  N  N36  1  0.33590000  0.68919000  0.92869000  1.0
  N  N37  1  0.66410000  0.31081000  0.07131000  1.0
  N  N38  1  0.49066000  0.68431000  0.85966000  1.0
  N  N39  1  0.50934000  0.31569000  0.14034000  1.0
  N  N40  1  0.00578000  0.00690000  0.20981000  1.0
  N  N41  1  0.99423000  0.99311000  0.79019000  1.0
  N  N42  1  0.90465000  0.94004000  0.30588000  1.0
  N  N43  1  0.09533000  0.05996000  0.69412000  1.0
  N  N44  1  0.80690000  0.87344000  0.39916000  1.0
  N  N45  1  0.19311000  0.12657000  0.60083000  1.0
  N  N46  1  0.38032000  0.76396000  0.32931000  1.0
  N  N47  1  0.61968000  0.23605000  0.67069000  1.0
  O  O48  1  0.11144000  0.33576000  0.17320000  1.0
  O  O49  1  0.88856000  0.66423000  0.82680000  1.0
  O  O50  1  0.73844000  0.63673000  0.14683000  1.0
  O  O51  1  0.26156000  0.36327000  0.85317000  1.0
  O  O52  1  0.73735000  0.92368000  0.05301000  1.0
  O  O53  1  0.26265000  0.07631000  0.94699000  1.0
