# generated using pymatgen
data_ErH8(C3O5)2
_symmetry_space_group_name_H-M   'P 1'
_cell_length_a   10.37640000
_cell_length_b   10.71190000
_cell_length_c   10.71190000
_cell_angle_alpha   70.58070000
_cell_angle_beta   61.03090000
_cell_angle_gamma   61.03090000
_symmetry_Int_Tables_number   1
_chemical_formula_structural   ErH8(C3O5)2
_chemical_formula_sum   'Er4 H32 C24 O40'
_cell_volume   903.84978873
_cell_formula_units_Z   4
loop_
 _symmetry_equiv_pos_site_id
 _symmetry_equiv_pos_as_xyz
  1  'x, y, z'
loop_
 _atom_site_type_symbol
 _atom_site_label
 _atom_site_symmetry_multiplicity
 _atom_site_fract_x
 _atom_site_fract_y
 _atom_site_fract_z
 _atom_site_occupancy
  Er  Er0  1  0.25290000  0.61886000  0.87882000  1.0
  Er  Er1  1  0.75059000  0.38114000  0.12118000  1.0
  Er  Er2  1  0.25059000  0.12118000  0.38114000  1.0
  Er  Er3  1  0.75291000  0.87882000  0.61887000  1.0
  H  H4  1  0.55991000  0.55375000  0.88397000  1.0
  H  H5  1  0.99764000  0.44625000  0.11603000  1.0
  H  H6  1  0.49764000  0.11602000  0.44625000  1.0
  H  H7  1  0.05991000  0.88397000  0.55375000  1.0
  H  H8  1  0.60799000  0.44803000  0.78296000  1.0
  H  H9  1  0.83898000  0.55197000  0.21704000  1.0
  H  H10  1  0.33898000  0.21704000  0.55197000  1.0
  H  H11  1  0.10799000  0.78296000  0.44803000  1.0
  H  H12  1  0.19289000  0.76584000  0.11232000  1.0
  H  H13  1  0.07106000  0.23416000  0.88767000  1.0
  H  H14  1  0.57106000  0.88767000  0.23416000  1.0
  H  H15  1  0.69290000  0.11232000  0.76584000  1.0
  H  H16  1  0.48151000  0.31382000  0.17055000  1.0
  H  H17  1  0.96587000  0.68618000  0.82945000  1.0
  H  H18  1  0.46587000  0.82945000  0.68618000  1.0
  H  H19  1  0.98151000  0.17055000  0.31382000  1.0
  H  H20  1  0.89835000  0.82512000  0.00097000  1.0
  H  H21  1  0.72445000  0.17487000  0.99903000  1.0
  H  H22  1  0.22445000  0.99903000  0.17487000  1.0
  H  H23  1  0.39835000  0.00098000  0.82512000  1.0
  H  H24  1  0.11053000  0.63134000  0.30723000  1.0
  H  H25  1  0.04911000  0.36866000  0.69276000  1.0
  H  H26  1  0.54911000  0.69276000  0.36866000  1.0
  H  H27  1  0.61053000  0.30723000  0.63134000  1.0
  H  H28  1  0.32555000  0.43390000  0.37141000  1.0
  H  H29  1  0.13086000  0.56609000  0.62859000  1.0
  H  H30  1  0.63086000  0.62859000  0.56610000  1.0
  H  H31  1  0.82555000  0.37141000  0.43390000  1.0
  H  H32  1  0.95344000  0.03284000  0.84934000  1.0
  H  H33  1  0.83562000  0.96716000  0.15067000  1.0
  H  H34  1  0.33562000  0.15067000  0.96716000  1.0
  H  H35  1  0.45344000  0.84934000  0.03284000  1.0
  C  C36  1  0.17547000  0.45887000  0.20416000  1.0
  C  C37  1  0.83850000  0.54113000  0.79584000  1.0
  C  C38  1  0.33849000  0.79585000  0.54113000  1.0
  C  C39  1  0.67547000  0.20415000  0.45887000  1.0
  C  C40  1  0.21571000  0.57004000  0.22062000  1.0
  C  C41  1  0.00637000  0.42996000  0.77938000  1.0
  C  C42  1  0.50637000  0.77938000  0.42996000  1.0
  C  C43  1  0.71571000  0.22062000  0.57004000  1.0
  C  C44  1  0.35914000  0.49618000  0.26401000  1.0
  C  C45  1  0.11933000  0.50382000  0.73598000  1.0
  C  C46  1  0.61933000  0.73599000  0.50382000  1.0
  C  C47  1  0.85914000  0.26401000  0.49618000  1.0
  C  C48  1  0.40419000  0.60878000  0.27322000  1.0
  C  C49  1  0.28619000  0.39122000  0.72678000  1.0
  C  C50  1  0.78619000  0.72678000  0.39121000  1.0
  C  C51  1  0.90419000  0.27322000  0.60878000  1.0
  C  C52  1  0.17779000  0.95457000  0.86292000  1.0
  C  C53  1  0.99528000  0.04543000  0.13708000  1.0
  C  C54  1  0.49528000  0.13708000  0.04543000  1.0
  C  C55  1  0.67779000  0.86292000  0.95457000  1.0
  C  C56  1  0.00552000  0.96394000  0.92976000  1.0
  C  C57  1  0.89921000  0.03606000  0.07025000  1.0
  C  C58  1  0.39921000  0.07025000  0.03606000  1.0
  C  C59  1  0.50551000  0.92976000  0.96394000  1.0
  O  O60  1  0.51401000  0.52832000  0.83830000  1.0
  O  O61  1  0.88063000  0.47167000  0.16170000  1.0
  O  O62  1  0.38063000  0.16170000  0.47168000  1.0
  O  O63  1  0.01401000  0.83830000  0.52832000  1.0
  O  O64  1  0.17436000  0.46541000  0.08321000  1.0
  O  O65  1  0.72297000  0.53459000  0.91679000  1.0
  O  O66  1  0.22297000  0.91679000  0.53459000  1.0
  O  O67  1  0.67436000  0.08321000  0.46541000  1.0
  O  O68  1  0.14947000  0.36470000  0.31012000  1.0
  O  O69  1  0.82429000  0.63530000  0.68987000  1.0
  O  O70  1  0.32429000  0.68987000  0.63530000  1.0
  O  O71  1  0.64947000  0.31012000  0.36470000  1.0
  O  O72  1  0.24628000  0.66502000  0.08903000  1.0
  O  O73  1  0.00033000  0.33498000  0.91097000  1.0
  O  O74  1  0.50033000  0.91097000  0.33498000  1.0
  O  O75  1  0.74628000  0.08903000  0.66502000  1.0
  O  O76  1  0.49688000  0.40187000  0.16302000  1.0
  O  O77  1  0.06177000  0.59813000  0.83698000  1.0
  O  O78  1  0.56177000  0.83698000  0.59813000  1.0
  O  O79  1  0.99688000  0.16302000  0.40187000  1.0
  O  O80  1  0.55232000  0.58848000  0.21157000  1.0
  O  O81  1  0.35237000  0.41152000  0.78843000  1.0
  O  O82  1  0.85237000  0.78843000  0.41152000  1.0
  O  O83  1  0.05232000  0.21157000  0.58848000  1.0
  O  O84  1  0.29470000  0.71358000  0.33962000  1.0
  O  O85  1  0.34791000  0.28642000  0.66038000  1.0
  O  O86  1  0.84791000  0.66038000  0.28642000  1.0
  O  O87  1  0.79470000  0.33963000  0.71358000  1.0
  O  O88  1  0.28969000  0.83363000  0.82467000  1.0
  O  O89  1  0.94800000  0.16637000  0.17533000  1.0
  O  O90  1  0.44800000  0.17533000  0.16637000  1.0
  O  O91  1  0.78969000  0.82467000  0.83363000  1.0
  O  O92  1  0.20241000  0.06403000  0.84858000  1.0
  O  O93  1  0.11502000  0.93597000  0.15142000  1.0
  O  O94  1  0.61502000  0.15142000  0.93597000  1.0
  O  O95  1  0.70241000  0.84858000  0.06403000  1.0
  O  O96  1  0.01051000  0.82264000  0.95357000  1.0
  O  O97  1  0.78671000  0.17736000  0.04644000  1.0
  O  O98  1  0.28671000  0.04644000  0.17736000  1.0
  O  O99  1  0.51051000  0.95357000  0.82264000  1.0
