# generated using pymatgen
data_KInH11(C3Br)3
_symmetry_space_group_name_H-M   'P 1'
_cell_length_a   8.79502000
_cell_length_b   10.16540000
_cell_length_c   15.99670000
_cell_angle_alpha   89.99960000
_cell_angle_beta   80.82700000
_cell_angle_gamma   89.99940000
_symmetry_Int_Tables_number   1
_chemical_formula_structural   KInH11(C3Br)3
_chemical_formula_sum   'K4 In4 H44 C36 Br12'
_cell_volume   1411.89340219
_cell_formula_units_Z   4
loop_
 _symmetry_equiv_pos_site_id
 _symmetry_equiv_pos_as_xyz
  1  'x, y, z'
loop_
 _atom_site_type_symbol
 _atom_site_label
 _atom_site_symmetry_multiplicity
 _atom_site_fract_x
 _atom_site_fract_y
 _atom_site_fract_z
 _atom_site_occupancy
  K  K0  1  0.25474000  0.14503000  0.57599000  1.0
  K  K1  1  0.24525000  0.64504000  0.42402000  1.0
  K  K2  1  0.74527000  0.85498000  0.42401000  1.0
  K  K3  1  0.75473000  0.35496000  0.57599000  1.0
  In  In4  1  0.79262000  0.94260000  0.68720000  1.0
  In  In5  1  0.70738000  0.44261000  0.31280000  1.0
  In  In6  1  0.20737000  0.05740000  0.31279000  1.0
  In  In7  1  0.29262000  0.55739000  0.68720000  1.0
  H  H8  1  0.54449000  0.53722000  0.86446000  1.0
  H  H9  1  0.95551000  0.03722000  0.13554000  1.0
  H  H10  1  0.45550000  0.46278000  0.13554000  1.0
  H  H11  1  0.04449000  0.96278000  0.86446000  1.0
  H  H12  1  0.37593000  0.91429000  0.95923000  1.0
  H  H13  1  0.12407000  0.41429000  0.04077000  1.0
  H  H14  1  0.62407000  0.08571000  0.04077000  1.0
  H  H15  1  0.87593000  0.58570000  0.95923000  1.0
  H  H16  1  0.82706000  0.67124000  0.68600000  1.0
  H  H17  1  0.67294000  0.17124000  0.31400000  1.0
  H  H18  1  0.17294000  0.32876000  0.31400000  1.0
  H  H19  1  0.32706000  0.82876000  0.68600000  1.0
  H  H20  1  0.68021000  0.54988000  0.70455000  1.0
  H  H21  1  0.81979000  0.04988000  0.29545000  1.0
  H  H22  1  0.31979000  0.45012000  0.29545000  1.0
  H  H23  1  0.18021000  0.95012000  0.70455000  1.0
  H  H24  1  0.82606000  0.55684000  0.76920000  1.0
  H  H25  1  0.67394000  0.05684000  0.23079000  1.0
  H  H26  1  0.17394000  0.44316000  0.23080000  1.0
  H  H27  1  0.32606000  0.94316000  0.76920000  1.0
  H  H28  1  0.27089000  0.72264000  0.03129000  1.0
  H  H29  1  0.22911000  0.22264000  0.96871000  1.0
  H  H30  1  0.72911000  0.27736000  0.96872000  1.0
  H  H31  1  0.77089000  0.77736000  0.03129000  1.0
  H  H32  1  0.39999000  0.58748000  0.02871000  1.0
  H  H33  1  0.10001000  0.08748000  0.97129000  1.0
  H  H34  1  0.60001000  0.41252000  0.97129000  1.0
  H  H35  1  0.89999000  0.91252000  0.02871000  1.0
  H  H36  1  0.25823000  0.58905000  0.96151000  1.0
  H  H37  1  0.24177000  0.08904000  0.03849000  1.0
  H  H38  1  0.74177000  0.41095000  0.03850000  1.0
  H  H39  1  0.75824000  0.91096000  0.96151000  1.0
  H  H40  1  0.62718000  0.11010000  0.79471000  1.0
  H  H41  1  0.87282000  0.61010000  0.20529000  1.0
  H  H42  1  0.37282000  0.88990000  0.20529000  1.0
  H  H43  1  0.12718000  0.38990000  0.79471000  1.0
  H  H44  1  0.57248000  0.11081000  0.90598000  1.0
  H  H45  1  0.92751000  0.61082000  0.09401000  1.0
  H  H46  1  0.42751000  0.88919000  0.09402000  1.0
  H  H47  1  0.07249000  0.38918000  0.90598000  1.0
  H  H48  1  0.43049000  0.10090000  0.83987000  1.0
  H  H49  1  0.06951000  0.60090000  0.16013000  1.0
  H  H50  1  0.56951000  0.89911000  0.16013000  1.0
  H  H51  1  0.93049000  0.39911000  0.83987000  1.0
  C  C52  1  0.65162000  0.84290000  0.79065000  1.0
  C  C53  1  0.84839000  0.34290000  0.20935000  1.0
  C  C54  1  0.34839000  0.15710000  0.20935000  1.0
  C  C55  1  0.15161000  0.65710000  0.79065000  1.0
  C  C56  1  0.64977000  0.70459000  0.79626000  1.0
  C  C57  1  0.85023000  0.20459000  0.20374000  1.0
  C  C58  1  0.35023000  0.29541000  0.20374000  1.0
  C  C59  1  0.14977000  0.79541000  0.79626000  1.0
  C  C60  1  0.54775000  0.64465000  0.86142000  1.0
  C  C61  1  0.95224000  0.14466000  0.13858000  1.0
  C  C62  1  0.45224000  0.35535000  0.13858000  1.0
  C  C63  1  0.04776000  0.85535000  0.86142000  1.0
  C  C64  1  0.44916000  0.71817000  0.92116000  1.0
  C  C65  1  0.05084000  0.21818000  0.07883000  1.0
  C  C66  1  0.55084000  0.28183000  0.07884000  1.0
  C  C67  1  0.94916000  0.78183000  0.92116000  1.0
  C  C68  1  0.45407000  0.85499000  0.91432000  1.0
  C  C69  1  0.04593000  0.35499000  0.08568000  1.0
  C  C70  1  0.54593000  0.14501000  0.08568000  1.0
  C  C71  1  0.95407000  0.64501000  0.91432000  1.0
  C  C72  1  0.55364000  0.91926000  0.84987000  1.0
  C  C73  1  0.94636000  0.41926000  0.15013000  1.0
  C  C74  1  0.44635000  0.08074000  0.15013000  1.0
  C  C75  1  0.05365000  0.58074000  0.84987000  1.0
  C  C76  1  0.75177000  0.61706000  0.73554000  1.0
  C  C77  1  0.74822000  0.11706000  0.26445000  1.0
  C  C78  1  0.24822000  0.38294000  0.26446000  1.0
  C  C79  1  0.25178000  0.88294000  0.73554000  1.0
  C  C80  1  0.33908000  0.65131000  0.98950000  1.0
  C  C81  1  0.16092000  0.15131000  0.01050000  1.0
  C  C82  1  0.66092000  0.34870000  0.01050000  1.0
  C  C83  1  0.83908000  0.84869000  0.98950000  1.0
  C  C84  1  0.54658000  0.06716000  0.84696000  1.0
  C  C85  1  0.95342000  0.56716000  0.15304000  1.0
  C  C86  1  0.45341000  0.93285000  0.15304000  1.0
  C  C87  1  0.04659000  0.43284000  0.84696000  1.0
  Br  Br88  1  0.61826000  0.04839000  0.58506000  1.0
  Br  Br89  1  0.88173000  0.54839000  0.41494000  1.0
  Br  Br90  1  0.38174000  0.95161000  0.41494000  1.0
  Br  Br91  1  0.11826000  0.45160000  0.58506000  1.0
  Br  Br92  1  0.93828000  0.15527000  0.71966000  1.0
  Br  Br93  1  0.56172000  0.65528000  0.28035000  1.0
  Br  Br94  1  0.06173000  0.84473000  0.28035000  1.0
  Br  Br95  1  0.43827000  0.34472000  0.71966000  1.0
  Br  Br96  1  0.99882000  0.84038000  0.57155000  1.0
  Br  Br97  1  0.50118000  0.34039000  0.42844000  1.0
  Br  Br98  1  0.00118000  0.15961000  0.42845000  1.0
  Br  Br99  1  0.49882000  0.65960000  0.57155000  1.0
