# generated using pymatgen
data_Cu3H12C7IN11
_symmetry_space_group_name_H-M   'P 1'
_cell_length_a   7.57339000
_cell_length_b   10.33768738
_cell_length_c   11.00660000
_cell_angle_alpha   93.94160645
_cell_angle_beta   110.12630000
_cell_angle_gamma   111.48994603
_symmetry_Int_Tables_number   1
_chemical_formula_structural   Cu3H12C7IN11
_chemical_formula_sum   'Cu6 H24 C14 I2 N22'
_cell_volume   733.90298894
_cell_formula_units_Z   2
loop_
 _symmetry_equiv_pos_site_id
 _symmetry_equiv_pos_as_xyz
  1  'x, y, z'
loop_
 _atom_site_type_symbol
 _atom_site_label
 _atom_site_symmetry_multiplicity
 _atom_site_fract_x
 _atom_site_fract_y
 _atom_site_fract_z
 _atom_site_occupancy
  Cu  Cu0  1  0.95450000  0.61148000  0.39667000  1.0
  Cu  Cu1  1  0.94621000  0.38855000  0.60337000  1.0
  Cu  Cu2  1  0.20836000  0.89472000  0.10448000  1.0
  Cu  Cu3  1  0.20909000  0.10528000  0.89545000  1.0
  Cu  Cu4  1  0.59504000  0.75474000  0.76270000  1.0
  Cu  Cu5  1  0.07755000  0.24526000  0.23728000  1.0
  H  H6  1  0.66615000  0.96187000  0.63797000  1.0
  H  H7  1  0.06621000  0.03813000  0.36201000  1.0
  H  H8  1  0.43096000  0.83205000  0.55613000  1.0
  H  H9  1  0.04263000  0.16790000  0.44382000  1.0
  H  H10  1  0.74103000  0.33049000  0.75690000  1.0
  H  H11  1  0.65368000  0.66950000  0.24331000  1.0
  H  H12  1  0.62571000  0.33322000  0.87389000  1.0
  H  H13  1  0.41870000  0.66688000  0.12626000  1.0
  H  H14  1  0.50133000  0.34680000  0.70694000  1.0
  H  H15  1  0.44748000  0.65311000  0.29315000  1.0
  H  H16  1  0.57761000  0.07895000  0.76742000  1.0
  H  H17  1  0.73113000  0.92110000  0.23242000  1.0
  H  H18  1  0.91478000  0.56852000  0.91860000  1.0
  H  H19  1  0.42765000  0.43155000  0.08140000  1.0
  H  H20  1  0.22535000  0.07341000  0.63930000  1.0
  H  H21  1  0.51249000  0.92643000  0.36056000  1.0
  H  H22  1  0.37300000  0.08513000  0.54042000  1.0
  H  H23  1  0.74735000  0.91472000  0.45941000  1.0
  H  H24  1  0.16776000  0.91826000  0.52501000  1.0
  H  H25  1  0.72438000  0.08158000  0.47491000  1.0
  H  H26  1  0.71786000  0.65620000  0.96902000  1.0
  H  H27  1  0.09259000  0.34376000  0.03099000  1.0
  H  H28  1  0.50169000  0.52848000  0.85530000  1.0
  H  H29  1  0.11786000  0.47152000  0.14466000  1.0
  C  C30  1  0.04380000  0.71873000  0.28420000  1.0
  C  C31  1  0.04053000  0.28116000  0.71578000  1.0
  C  C32  1  0.35729000  0.89898000  0.78946000  1.0
  C  C33  1  0.66876000  0.10107000  0.21052000  1.0
  C  C34  1  0.81956000  0.60375000  0.72457000  1.0
  C  C35  1  0.49126000  0.39628000  0.27548000  1.0
  C  C36  1  0.65093000  0.37648000  0.78997000  1.0
  C  C37  1  0.48448000  0.62354000  0.21014000  1.0
  C  C38  1  0.44603000  0.98024000  0.70160000  1.0
  C  C39  1  0.76411000  0.01974000  0.29831000  1.0
  C  C40  1  0.76790000  0.53834000  0.83230000  1.0
  C  C41  1  0.39724000  0.46170000  0.16772000  1.0
  C  C42  1  0.29329000  0.01684000  0.59430000  1.0
  C  C43  1  0.68203000  0.98303000  0.40558000  1.0
  I  I44  1  0.92167000  0.00000000  0.00001000  1.0
  I  I45  1  0.23644000  0.50007000  0.50017000  1.0
  N  N46  1  0.91805000  0.66274000  0.56817000  1.0
  N  N47  1  0.68714000  0.33733000  0.43187000  1.0
  N  N48  1  0.23205000  0.83124000  0.93297000  1.0
  N  N49  1  0.46777000  0.16888000  0.06707000  1.0
  N  N50  1  0.39919000  0.78831000  0.82525000  1.0
  N  N51  1  0.78556000  0.21175000  0.17475000  1.0
  N  N52  1  0.83342000  0.74762000  0.59022000  1.0
  N  N53  1  0.49559000  0.25247000  0.40985000  1.0
  N  N54  1  0.32068000  0.74722000  0.91532000  1.0
  N  N55  1  0.65808000  0.25288000  0.08471000  1.0
  N  N56  1  0.77194000  0.71213000  0.68831000  1.0
  N  N57  1  0.37148000  0.28792000  0.31173000  1.0
  N  N58  1  0.11120000  0.78194000  0.21320000  1.0
  N  N59  1  0.11571000  0.21793000  0.78673000  1.0
  N  N60  1  0.53540000  0.89604000  0.64762000  1.0
  N  N61  1  0.99165000  0.10395000  0.35234000  1.0
  N  N62  1  0.64432000  0.60491000  0.87098000  1.0
  N  N63  1  0.16840000  0.39510000  0.12903000  1.0
  N  N64  1  0.25137000  0.92755000  0.85402000  1.0
  N  N65  1  0.46974000  0.07253000  0.14600000  1.0
  N  N66  1  0.91170000  0.57073000  0.65124000  1.0
  N  N67  1  0.68970000  0.42929000  0.34876000  1.0
