# generated using pymatgen
data_Zn3H26(CO)22
_symmetry_space_group_name_H-M   'P 1'
_cell_length_a   8.06414000
_cell_length_b   12.10690000
_cell_length_c   14.20700000
_cell_angle_alpha   89.99990000
_cell_angle_beta   89.99990000
_cell_angle_gamma   89.41170000
_symmetry_Int_Tables_number   1
_chemical_formula_structural   Zn3H26(CO)22
_chemical_formula_sum   'Zn6 H52 C44 O44'
_cell_volume   1386.98096546
_cell_formula_units_Z   2
loop_
 _symmetry_equiv_pos_site_id
 _symmetry_equiv_pos_as_xyz
  1  'x, y, z'
loop_
 _atom_site_type_symbol
 _atom_site_label
 _atom_site_symmetry_multiplicity
 _atom_site_fract_x
 _atom_site_fract_y
 _atom_site_fract_z
 _atom_site_occupancy
  Zn  Zn0  1  0.14977000  0.32515000  0.77738000  1.0
  Zn  Zn1  1  0.35023000  0.17485000  0.27738000  1.0
  Zn  Zn2  1  0.85023000  0.67485000  0.22262000  1.0
  Zn  Zn3  1  0.64977000  0.82515000  0.72262000  1.0
  Zn  Zn4  1  0.50000000  0.50000000  0.50000000  1.0
  Zn  Zn5  1  0.00000000  0.00000000  0.00000000  1.0
  H  H6  1  0.04511000  0.44803000  0.66250000  1.0
  H  H7  1  0.45489000  0.05197000  0.16250000  1.0
  H  H8  1  0.95489000  0.55197000  0.33750000  1.0
  H  H9  1  0.54511000  0.94803000  0.83750000  1.0
  H  H10  1  0.01158000  0.53632000  0.74713000  1.0
  H  H11  1  0.48842000  0.96368000  0.24713000  1.0
  H  H12  1  0.98842000  0.46368000  0.25287000  1.0
  H  H13  1  0.51158000  0.03632000  0.75287000  1.0
  H  H14  1  0.54124000  0.54324000  0.31027000  1.0
  H  H15  1  0.95876000  0.95676000  0.81027000  1.0
  H  H16  1  0.45876000  0.45676000  0.68973000  1.0
  H  H17  1  0.04124000  0.04324000  0.18973000  1.0
  H  H18  1  0.48021000  0.41903000  0.33250000  1.0
  H  H19  1  0.01979000  0.08097000  0.83250000  1.0
  H  H20  1  0.51979000  0.58097000  0.66750000  1.0
  H  H21  1  0.98020000  0.91903000  0.16750000  1.0
  H  H22  1  0.83143000  0.44782000  0.54053000  1.0
  H  H23  1  0.66857000  0.05217000  0.04053000  1.0
  H  H24  1  0.16857000  0.55217000  0.45947000  1.0
  H  H25  1  0.33143000  0.94782000  0.95947000  1.0
  H  H26  1  0.82788000  0.56313000  0.49082000  1.0
  H  H27  1  0.67212000  0.93687000  0.99082000  1.0
  H  H28  1  0.17212000  0.43687000  0.50918000  1.0
  H  H29  1  0.32788000  0.06313000  0.00918000  1.0
  H  H30  1  0.91831000  0.29324000  0.41746000  1.0
  H  H31  1  0.58169000  0.20676000  0.91746000  1.0
  H  H32  1  0.08169000  0.70676000  0.58254000  1.0
  H  H33  1  0.41831000  0.79323000  0.08254000  1.0
  H  H34  1  0.68839000  0.97915000  0.36704000  1.0
  H  H35  1  0.81160000  0.52085000  0.86704000  1.0
  H  H36  1  0.31161000  0.02085000  0.63296000  1.0
  H  H37  1  0.18839000  0.47915000  0.13296000  1.0
  H  H38  1  0.86652000  0.06200000  0.64580000  1.0
  H  H39  1  0.63348000  0.43800000  0.14580000  1.0
  H  H40  1  0.13348000  0.93800000  0.35420000  1.0
  H  H41  1  0.36652000  0.56200000  0.85420000  1.0
  H  H42  1  0.78396000  0.32623000  0.28287000  1.0
  H  H43  1  0.71605000  0.17377000  0.78287000  1.0
  H  H44  1  0.21605000  0.67377000  0.71713000  1.0
  H  H45  1  0.28396000  0.82623000  0.21713000  1.0
  H  H46  1  0.80146000  0.25285000  0.17457000  1.0
  H  H47  1  0.69854000  0.24715000  0.67457000  1.0
  H  H48  1  0.19854000  0.74715000  0.82543000  1.0
  H  H49  1  0.30146000  0.75285000  0.32543000  1.0
  H  H50  1  0.70956000  0.81931000  0.42974000  1.0
  H  H51  1  0.79044000  0.68069000  0.92974000  1.0
  H  H52  1  0.29044000  0.18069000  0.57026000  1.0
  H  H53  1  0.20956000  0.31931000  0.07026000  1.0
  H  H54  1  0.51544000  0.88397000  0.45248000  1.0
  H  H55  1  0.98456000  0.61603000  0.95248000  1.0
  H  H56  1  0.48456000  0.11603000  0.54752000  1.0
  H  H57  1  0.01544000  0.38397000  0.04752000  1.0
  C  C58  1  0.90111000  0.18436000  0.53622000  1.0
  C  C59  1  0.59889000  0.31563000  0.03622000  1.0
  C  C60  1  0.09890000  0.81563000  0.46378000  1.0
  C  C61  1  0.40110000  0.68436000  0.96378000  1.0
  C  C62  1  0.87611000  0.21313000  0.44162000  1.0
  C  C63  1  0.62389000  0.28687000  0.94162000  1.0
  C  C64  1  0.12389000  0.78687000  0.55838000  1.0
  C  C65  1  0.37611000  0.71313000  0.05838000  1.0
  C  C66  1  0.80062000  0.13723000  0.38199000  1.0
  C  C67  1  0.69938000  0.36277000  0.88199000  1.0
  C  C68  1  0.19939000  0.86277000  0.61801000  1.0
  C  C69  1  0.30061000  0.63723000  0.11801000  1.0
  C  C70  1  0.74352000  0.03626000  0.41676000  1.0
  C  C71  1  0.75648000  0.46374000  0.91676000  1.0
  C  C72  1  0.25648000  0.96374000  0.58324000  1.0
  C  C73  1  0.24352000  0.53626000  0.08324000  1.0
  C  C74  1  0.76279000  0.01157000  0.51215000  1.0
  C  C75  1  0.73721000  0.48843000  0.01215000  1.0
  C  C76  1  0.23721000  0.98843000  0.48785000  1.0
  C  C77  1  0.26279000  0.51157000  0.98785000  1.0
  C  C78  1  0.84596000  0.08378000  0.57243000  1.0
  C  C79  1  0.65404000  0.41622000  0.07243000  1.0
  C  C80  1  0.15404000  0.91622000  0.42757000  1.0
  C  C81  1  0.34596000  0.58378000  0.92758000  1.0
  C  C82  1  0.98884000  0.26434000  0.59858000  1.0
  C  C83  1  0.51116000  0.23566000  0.09858000  1.0
  C  C84  1  0.01116000  0.73566000  0.40142000  1.0
  C  C85  1  0.48884000  0.76434000  0.90142000  1.0
  C  C86  1  0.83883000  0.25282000  0.24881000  1.0
  C  C87  1  0.66117000  0.24719000  0.74881000  1.0
  C  C88  1  0.16117000  0.74719000  0.75119000  1.0
  C  C89  1  0.33883000  0.75281000  0.25119000  1.0
  C  C90  1  0.02726000  0.25948000  0.25007000  1.0
  C  C91  1  0.47274000  0.24052000  0.75007000  1.0
  C  C92  1  0.97274000  0.74052000  0.74993000  1.0
  C  C93  1  0.52726000  0.75948000  0.24993000  1.0
  C  C94  1  0.62308000  0.84352000  0.48612000  1.0
  C  C95  1  0.87692000  0.65648000  0.98612000  1.0
  C  C96  1  0.37692000  0.15648000  0.51388000  1.0
  C  C97  1  0.12308000  0.34352000  0.01388000  1.0
  C  C98  1  0.56263000  0.74002000  0.53346000  1.0
  C  C99  1  0.93737000  0.75998000  0.03346000  1.0
  C  C100  1  0.43737000  0.25998000  0.46654000  1.0
  C  C101  1  0.06263000  0.24002000  0.96654000  1.0
  O  O102  1  0.00366000  0.36464000  0.57052000  1.0
  O  O103  1  0.49634000  0.13536000  0.07052000  1.0
  O  O104  1  0.99634000  0.63536000  0.42948000  1.0
  O  O105  1  0.50366000  0.86464000  0.92948000  1.0
  O  O106  1  0.04470000  0.22845000  0.67684000  1.0
  O  O107  1  0.45530000  0.27155000  0.17684000  1.0
  O  O108  1  0.95530000  0.77155000  0.32316000  1.0
  O  O109  1  0.54470000  0.72845000  0.82316000  1.0
  O  O110  1  0.77541000  0.15330000  0.28762000  1.0
  O  O111  1  0.72459000  0.34670000  0.78762000  1.0
  O  O112  1  0.22459000  0.84670000  0.71238000  1.0
  O  O113  1  0.27541000  0.65330000  0.21238000  1.0
  O  O114  1  0.09413000  0.35207000  0.24078000  1.0
  O  O115  1  0.40587000  0.14793000  0.74078000  1.0
  O  O116  1  0.90588000  0.64793000  0.75922000  1.0
  O  O117  1  0.59413000  0.85207000  0.25922000  1.0
  O  O118  1  0.10728000  0.16735000  0.25841000  1.0
  O  O119  1  0.39272000  0.33265000  0.75842000  1.0
  O  O120  1  0.89272000  0.83265000  0.74159000  1.0
  O  O121  1  0.60728000  0.66735000  0.24158000  1.0
  O  O122  1  0.70108000  0.91615000  0.55134000  1.0
  O  O123  1  0.79891000  0.58385000  0.05134000  1.0
  O  O124  1  0.29892000  0.08385000  0.44866000  1.0
  O  O125  1  0.20108000  0.41615000  0.94866000  1.0
  O  O126  1  0.57416000  0.72704000  0.62251000  1.0
  O  O127  1  0.92584000  0.77296000  0.12251000  1.0
  O  O128  1  0.42584000  0.27296000  0.37749000  1.0
  O  O129  1  0.07416000  0.22704000  0.87749000  1.0
  O  O130  1  0.50288000  0.66997000  0.47758000  1.0
  O  O131  1  0.99712000  0.83003000  0.97757000  1.0
  O  O132  1  0.49712000  0.33003000  0.52242000  1.0
  O  O133  1  0.00288000  0.16997000  0.02243000  1.0
  O  O134  1  0.08342000  0.47163000  0.72632000  1.0
  O  O135  1  0.41658000  0.02837000  0.22632000  1.0
  O  O136  1  0.91658000  0.52837000  0.27368000  1.0
  O  O137  1  0.58342000  0.97163000  0.77368000  1.0
  O  O138  1  0.54969000  0.48015000  0.35399000  1.0
  O  O139  1  0.95031000  0.01985000  0.85399000  1.0
  O  O140  1  0.45031000  0.51985000  0.64601000  1.0
  O  O141  1  0.04969000  0.98015000  0.14601000  1.0
  O  O142  1  0.76012000  0.51368000  0.52976000  1.0
  O  O143  1  0.73988000  0.98632000  0.02976000  1.0
  O  O144  1  0.23988000  0.48632000  0.47024000  1.0
  O  O145  1  0.26012000  0.01368000  0.97024000  1.0
