# generated using pymatgen
data_Cd3H28C38(N2O3)4
_symmetry_space_group_name_H-M   'P 1'
_cell_length_a   9.92441000
_cell_length_b   10.41940000
_cell_length_c   11.80530000
_cell_angle_alpha   100.33600000
_cell_angle_beta   112.95400000
_cell_angle_gamma   109.20600000
_symmetry_Int_Tables_number   1
_chemical_formula_structural   Cd3H28C38(N2O3)4
_chemical_formula_sum   'Cd3 H28 C38 N8 O12'
_cell_volume   992.83244198
_cell_formula_units_Z   1
loop_
 _symmetry_equiv_pos_site_id
 _symmetry_equiv_pos_as_xyz
  1  'x, y, z'
loop_
 _atom_site_type_symbol
 _atom_site_label
 _atom_site_symmetry_multiplicity
 _atom_site_fract_x
 _atom_site_fract_y
 _atom_site_fract_z
 _atom_site_occupancy
  Cd  Cd0  1  0.06397000  0.87906000  0.71611000  1.0
  Cd  Cd1  1  0.93603000  0.12094000  0.28389000  1.0
  Cd  Cd2  1  0.00000000  0.00000000  0.00000000  1.0
  H  H3  1  0.07381000  0.51710000  0.35234000  1.0
  H  H4  1  0.92619000  0.48290000  0.64766000  1.0
  H  H5  1  0.54976000  0.03249000  0.72923000  1.0
  H  H6  1  0.45024000  0.96751000  0.27077000  1.0
  H  H7  1  0.68031000  0.93278000  0.42928000  1.0
  H  H8  1  0.31969000  0.06722000  0.57072000  1.0
  H  H9  1  0.49655000  0.29833000  0.84780000  1.0
  H  H10  1  0.50345000  0.70167000  0.15220000  1.0
  H  H11  1  0.29644000  0.44437000  0.07857000  1.0
  H  H12  1  0.70356000  0.55563000  0.92143000  1.0
  H  H13  1  0.16772000  0.76863000  0.10150000  1.0
  H  H14  1  0.83228000  0.23137000  0.89850000  1.0
  H  H15  1  0.80074000  0.38719000  0.76146000  1.0
  H  H16  1  0.19926000  0.61281000  0.23854000  1.0
  H  H17  1  0.78699000  0.74185000  0.35571000  1.0
  H  H18  1  0.21301000  0.25815000  0.64429000  1.0
  H  H19  1  0.81936000  0.53025000  0.20101000  1.0
  H  H20  1  0.18064000  0.46975000  0.79899000  1.0
  H  H21  1  0.45483000  0.86739000  0.94135000  1.0
  H  H22  1  0.54517000  0.13261000  0.05865000  1.0
  H  H23  1  0.59224000  0.73919000  0.82026000  1.0
  H  H24  1  0.40776000  0.26081000  0.17974000  1.0
  H  H25  1  0.32046000  0.49569000  0.50838000  1.0
  H  H26  1  0.67954000  0.50431000  0.49162000  1.0
  H  H27  1  0.52805000  0.63210000  0.59581000  1.0
  H  H28  1  0.47195000  0.36790000  0.40419000  1.0
  H  H29  1  0.37862000  0.65591000  0.46831000  1.0
  H  H30  1  0.62138000  0.34409000  0.53169000  1.0
  C  C31  1  0.76660000  0.95635000  0.68170000  1.0
  C  C32  1  0.23340000  0.04366000  0.31830000  1.0
  C  C33  1  0.62921000  0.98073000  0.58884000  1.0
  C  C34  1  0.37079000  0.01928000  0.41116000  1.0
  C  C35  1  0.52796000  0.01951000  0.62897000  1.0
  C  C36  1  0.47204000  0.98049000  0.37103000  1.0
  C  C37  1  0.60006000  0.96162000  0.45913000  1.0
  C  C38  1  0.39994000  0.03838000  0.54087000  1.0
  C  C39  1  0.26144000  0.20313000  0.91635000  1.0
  C  C40  1  0.73856000  0.79687000  0.08365000  1.0
  C  C41  1  0.38468000  0.35683000  0.95911000  1.0
  C  C42  1  0.61533000  0.64317000  0.04089000  1.0
  C  C43  1  0.49885000  0.38760000  0.91403000  1.0
  C  C44  1  0.50115000  0.61240000  0.08597000  1.0
  C  C45  1  0.38670000  0.46999000  0.04527000  1.0
  C  C46  1  0.61330000  0.53001000  0.95473000  1.0
  C  C47  1  0.97432000  0.68015000  0.84043000  1.0
  C  C48  1  0.02567000  0.31985000  0.15957000  1.0
  C  C49  1  0.98388000  0.58735000  0.92324000  1.0
  C  C50  1  0.01612000  0.41265000  0.07676000  1.0
  C  C51  1  0.09560000  0.65106000  0.05810000  1.0
  C  C52  1  0.90440000  0.34894000  0.94190000  1.0
  C  C53  1  0.88844000  0.43618000  0.86600000  1.0
  C  C54  1  0.11156000  0.56382000  0.13400000  1.0
  C  C55  1  0.87920000  0.70242000  0.38200000  1.0
  C  C56  1  0.12080000  0.29758000  0.61800000  1.0
  C  C57  1  0.89450000  0.59852000  0.30398000  1.0
  C  C58  1  0.10550000  0.40148000  0.69602000  1.0
  C  C59  1  0.10098000  0.68930000  0.50609000  1.0
  C  C60  1  0.89902000  0.31070000  0.49391000  1.0
  C  C61  1  0.24251000  0.71973000  0.62669000  1.0
  C  C62  1  0.75749000  0.28026000  0.37331000  1.0
  C  C63  1  0.40901000  0.81131000  0.83787000  1.0
  C  C64  1  0.59099000  0.18869000  0.16213000  1.0
  C  C65  1  0.47757000  0.74621000  0.77960000  1.0
  C  C66  1  0.52243000  0.25379000  0.22040000  1.0
  C  C67  1  0.40026000  0.61271000  0.54848000  1.0
  C  C68  1  0.59974000  0.38729000  0.45152000  1.0
  N  N69  1  0.00801000  0.75815000  0.50703000  1.0
  N  N70  1  0.99199000  0.24185000  0.49297000  1.0
  N  N71  1  0.26339000  0.79412000  0.74229000  1.0
  N  N72  1  0.73661000  0.20588000  0.25771000  1.0
  N  N73  1  0.03493000  0.59178000  0.38372000  1.0
  N  N74  1  0.96507000  0.40822000  0.61628000  1.0
  N  N75  1  0.37176000  0.68881000  0.64639000  1.0
  N  N76  1  0.62824000  0.31119000  0.35361000  1.0
  O  O77  1  0.83777000  0.90663000  0.62882000  1.0
  O  O78  1  0.16223000  0.09337000  0.37118000  1.0
  O  O79  1  0.79730000  0.98405000  0.80077000  1.0
  O  O80  1  0.20270000  0.01595000  0.19923000  1.0
  O  O81  1  0.24881000  0.11049000  0.82153000  1.0
  O  O82  1  0.75120000  0.88951000  0.17847000  1.0
  O  O83  1  0.18353000  0.17978000  0.97995000  1.0
  O  O84  1  0.81647000  0.82022000  0.02005000  1.0
  O  O85  1  0.89899000  0.62045000  0.71593000  1.0
  O  O86  1  0.10101000  0.37955000  0.28407000  1.0
  O  O87  1  0.05202000  0.81912000  0.89766000  1.0
  O  O88  1  0.94797000  0.18088000  0.10234000  1.0
