# generated using pymatgen
data_ZnH15C21S2N3O10
_symmetry_space_group_name_H-M   'P 1'
_cell_length_a   15.89040000
_cell_length_b   17.04820000
_cell_length_c   17.24670000
_cell_angle_alpha   89.79780000
_cell_angle_beta   87.33020000
_cell_angle_gamma   85.86600000
_symmetry_Int_Tables_number   1
_chemical_formula_structural   ZnH15C21S2N3O10
_chemical_formula_sum   'Zn2 H30 C42 S4 N6 O20'
_cell_volume   4654.96351070
_cell_formula_units_Z   2
loop_
 _symmetry_equiv_pos_site_id
 _symmetry_equiv_pos_as_xyz
  1  'x, y, z'
loop_
 _atom_site_type_symbol
 _atom_site_label
 _atom_site_symmetry_multiplicity
 _atom_site_fract_x
 _atom_site_fract_y
 _atom_site_fract_z
 _atom_site_occupancy
  Zn  Zn0  1  0.40946000  0.50769000  0.49471000  1.0
  Zn  Zn1  1  0.58998000  0.51257000  0.51011000  1.0
  H  H2  1  0.59265000  0.42026000  0.72999000  1.0
  H  H3  1  0.40501000  0.42713000  0.01053000  1.0
  H  H4  1  0.33627000  0.47877000  0.89928000  1.0
  H  H5  1  0.66063000  0.47820000  0.10035000  1.0
  H  H6  1  0.41589000  0.38537000  0.13322000  1.0
  H  H7  1  0.59365000  0.38077000  0.86832000  1.0
  H  H8  1  0.40569000  0.27508000  0.44023000  1.0
  H  H9  1  0.59000000  0.75623000  0.54317000  1.0
  H  H10  1  0.41037000  0.12851000  0.42142000  1.0
  H  H11  1  0.59112000  0.90308000  0.52888000  1.0
  H  H12  1  0.37651000  0.90234000  0.38726000  1.0
  H  H13  1  0.41364000  0.42389000  0.27128000  1.0
  H  H14  1  0.64873000  0.10541000  0.52905000  1.0
  H  H15  1  0.81576000  0.64976000  0.67169000  1.0
  H  H16  1  0.90191000  0.57862000  0.68215000  1.0
  H  H17  1  0.91267000  0.65636000  0.61576000  1.0
  H  H18  1  0.18348000  0.32893000  0.38686000  1.0
  H  H19  1  0.08500000  0.33961000  0.44182000  1.0
  H  H20  1  0.09872000  0.39325000  0.35534000  1.0
  H  H21  1  0.63496000  0.57399000  0.33789000  1.0
  H  H22  1  0.35325000  0.57985000  0.66414000  1.0
  H  H23  1  0.24545000  0.82631000  0.35441000  1.0
  H  H24  1  0.25976000  0.60562000  0.55780000  1.0
  H  H25  1  0.77847000  0.17670000  0.57509000  1.0
  H  H26  1  0.73885000  0.44182000  0.42211000  1.0
  H  H27  1  0.10265000  0.59589000  0.56611000  1.0
  H  H28  1  0.89582000  0.44988000  0.42103000  1.0
  H  H29  1  0.70250000  0.59045000  0.61257000  1.0
  H  H30  1  0.29607000  0.40478000  0.42228000  1.0
  H  H31  1  0.59862000  0.42635000  0.99030000  1.0
  C  C32  1  0.48672000  0.65983000  0.49058000  1.0
  C  C33  1  0.53065000  0.10917000  0.47401000  1.0
  C  C34  1  0.42212000  0.86945000  0.42208000  1.0
  C  C35  1  0.59727000  0.14393000  0.50798000  1.0
  C  C36  1  0.42099000  0.78809000  0.43083000  1.0
  C  C37  1  0.59499000  0.22512000  0.51727000  1.0
  C  C38  1  0.76804000  0.47603000  0.46521000  1.0
  C  C39  1  0.23061000  0.55837000  0.52929000  1.0
  C  C40  1  0.85475000  0.48019000  0.46526000  1.0
  C  C41  1  0.14405000  0.55345000  0.53292000  1.0
  C  C42  1  0.88849000  0.52596000  0.52177000  1.0
  C  C43  1  0.51623000  0.36074000  0.50077000  1.0
  C  C44  1  0.11009000  0.49212000  0.49374000  1.0
  C  C45  1  0.83462000  0.56732000  0.57753000  1.0
  C  C46  1  0.16383000  0.43649000  0.45142000  1.0
  C  C47  1  0.47911000  0.49922000  0.65339000  1.0
  C  C48  1  0.52026000  0.49429000  0.34937000  1.0
  C  C49  1  0.74832000  0.55977000  0.57207000  1.0
  C  C50  1  0.25028000  0.44605000  0.45255000  1.0
  C  C51  1  0.46647000  0.47345000  0.73605000  1.0
  C  C52  1  0.53422000  0.47209000  0.26542000  1.0
  C  C53  1  0.53730000  0.43364000  0.76852000  1.0
  C  C54  1  0.48211000  0.74684000  0.47554000  1.0
  C  C55  1  0.46771000  0.43507000  0.23286000  1.0
  C  C56  1  0.53756000  0.41199000  0.84596000  1.0
  C  C57  1  0.46878000  0.41446000  0.15531000  1.0
  C  C58  1  0.46638000  0.43114000  0.89569000  1.0
  C  C59  1  0.53707000  0.43206000  0.10502000  1.0
  C  C60  1  0.39318000  0.46529000  0.86265000  1.0
  C  C61  1  0.60594000  0.46515000  0.13741000  1.0
  C  C62  1  0.39221000  0.48615000  0.78450000  1.0
  C  C63  1  0.60545000  0.48499000  0.21575000  1.0
  C  C64  1  0.46692000  0.42356000  0.97974000  1.0
  C  C65  1  0.52500000  0.27286000  0.49307000  1.0
  C  C66  1  0.53723000  0.42364000  0.02113000  1.0
  C  C67  1  0.86766000  0.61585000  0.64009000  1.0
  C  C68  1  0.13127000  0.37075000  0.40665000  1.0
  C  C69  1  0.54335000  0.78951000  0.50943000  1.0
  C  C70  1  0.45934000  0.23700000  0.45821000  1.0
  C  C71  1  0.54444000  0.87016000  0.50144000  1.0
  C  C72  1  0.46156000  0.15632000  0.44779000  1.0
  C  C73  1  0.48326000  0.91067000  0.45736000  1.0
  S  S74  1  0.70357000  0.52133000  0.24356000  1.0
  S  S75  1  0.29011000  0.52554000  0.75481000  1.0
  S  S76  1  0.34131000  0.73875000  0.38228000  1.0
  S  S77  1  0.67993000  0.26671000  0.56456000  1.0
  N  N78  1  0.47624000  0.99343000  0.44861000  1.0
  N  N79  1  0.53832000  0.02635000  0.47420000  1.0
  N  N80  1  0.71599000  0.51592000  0.51752000  1.0
  N  N81  1  0.28275000  0.50479000  0.49031000  1.0
  N  N82  1  0.97556000  0.53713000  0.52268000  1.0
  N  N83  1  0.02277000  0.48010000  0.49539000  1.0
  O  O84  1  0.42231000  0.62357000  0.47639000  1.0
  O  O85  1  0.74761000  0.54822000  0.17491000  1.0
  O  O86  1  0.67536000  0.59548000  0.29433000  1.0
  O  O87  1  0.25867000  0.46896000  0.70333000  1.0
  O  O88  1  0.24036000  0.55090000  0.82313000  1.0
  O  O89  1  0.31146000  0.60201000  0.70825000  1.0
  O  O90  1  0.38163000  0.68355000  0.32760000  1.0
  O  O91  1  0.27424000  0.71950000  0.43688000  1.0
  O  O92  1  0.30085000  0.81055000  0.32990000  1.0
  O  O93  1  0.74138000  0.29382000  0.50845000  1.0
  O  O94  1  0.64470000  0.31471000  0.62771000  1.0
  O  O95  1  0.58228000  0.39660000  0.48558000  1.0
  O  O96  1  0.72478000  0.18864000  0.60426000  1.0
  O  O97  1  0.55522000  0.62952000  0.51698000  1.0
  O  O98  1  0.44284000  0.39144000  0.51906000  1.0
  O  O99  1  0.41636000  0.53007000  0.61599000  1.0
  O  O100  1  0.57674000  0.52882000  0.38522000  1.0
  O  O101  1  0.55314000  0.48936000  0.62315000  1.0
  O  O102  1  0.45119000  0.47711000  0.38249000  1.0
  O  O103  1  0.74431000  0.46030000  0.29021000  1.0
