# generated using pymatgen
data_Sm2CuH18C14S2(NO11)2
_symmetry_space_group_name_H-M   'P 1'
_cell_length_a   6.41811000
_cell_length_b   9.85105000
_cell_length_c   9.87556000
_cell_angle_alpha   96.04710000
_cell_angle_beta   92.09780000
_cell_angle_gamma   96.81570000
_symmetry_Int_Tables_number   1
_chemical_formula_structural   Sm2CuH18C14S2(NO11)2
_chemical_formula_sum   'Sm2 Cu1 H18 C14 S2 N2 O22'
_cell_volume   615.75830791
_cell_formula_units_Z   1
loop_
 _symmetry_equiv_pos_site_id
 _symmetry_equiv_pos_as_xyz
  1  'x, y, z'
loop_
 _atom_site_type_symbol
 _atom_site_label
 _atom_site_symmetry_multiplicity
 _atom_site_fract_x
 _atom_site_fract_y
 _atom_site_fract_z
 _atom_site_occupancy
  Sm  Sm0  1  0.43470000  0.03504000  0.25499000  1.0
  Sm  Sm1  1  0.56529000  0.96496000  0.74502000  1.0
  Cu  Cu2  1  0.99999000  0.50000000  0.00000000  1.0
  H  H3  1  0.89539000  0.03377000  0.35650000  1.0
  H  H4  1  0.10460000  0.96621000  0.64348000  1.0
  H  H5  1  0.78968000  0.87700000  0.35654000  1.0
  H  H6  1  0.21030000  0.12299000  0.64345000  1.0
  H  H7  1  0.09157000  0.91642000  0.04024000  1.0
  H  H8  1  0.90849000  0.08352000  0.95977000  1.0
  H  H9  1  0.95899000  0.94914000  0.17481000  1.0
  H  H10  1  0.04102000  0.05086000  0.82516000  1.0
  H  H11  1  0.22561000  0.29254000  0.00823000  1.0
  H  H12  1  0.77441000  0.70749000  0.99178000  1.0
  H  H13  1  0.23908000  0.35255000  0.86605000  1.0
  H  H14  1  0.76103000  0.64755000  0.13400000  1.0
  H  H15  1  0.68939000  0.48307000  0.43102000  1.0
  H  H16  1  0.31059000  0.51692000  0.56898000  1.0
  H  H17  1  0.97832000  0.71363000  0.79879000  1.0
  H  H18  1  0.02166000  0.28638000  0.20122000  1.0
  H  H19  1  0.82020000  0.29063000  0.79088000  1.0
  H  H20  1  0.17982000  0.70937000  0.20912000  1.0
  C  C21  1  0.74288000  0.36964000  0.60213000  1.0
  C  C22  1  0.25712000  0.63034000  0.39788000  1.0
  C  C23  1  0.74650000  0.48863000  0.53692000  1.0
  C  C24  1  0.25347000  0.51136000  0.46309000  1.0
  C  C25  1  0.82569000  0.61512000  0.60860000  1.0
  C  C26  1  0.17433000  0.38487000  0.39139000  1.0
  C  C27  1  0.90594000  0.61769000  0.74238000  1.0
  C  C28  1  0.09403000  0.38231000  0.25763000  1.0
  C  C29  1  0.82065000  0.38115000  0.73700000  1.0
  C  C30  1  0.17933000  0.61885000  0.26301000  1.0
  C  C31  1  0.66215000  0.23087000  0.53013000  1.0
  C  C32  1  0.33784000  0.76913000  0.46987000  1.0
  C  C33  1  0.82167000  0.74584000  0.54301000  1.0
  C  C34  1  0.17828000  0.25416000  0.45699000  1.0
  S  S35  1  0.41930000  0.77293000  0.96400000  1.0
  S  S36  1  0.58070000  0.22706000  0.03600000  1.0
  N  N37  1  0.90191000  0.50231000  0.80492000  1.0
  N  N38  1  0.09809000  0.49769000  0.19510000  1.0
  O  O39  1  0.60908000  0.22481000  0.40425000  1.0
  O  O40  1  0.39092000  0.77519000  0.59575000  1.0
  O  O41  1  0.65367000  0.12737000  0.59713000  1.0
  O  O42  1  0.34632000  0.87263000  0.40287000  1.0
  O  O43  1  0.79765000  0.73554000  0.41491000  1.0
  O  O44  1  0.20235000  0.26444000  0.58507000  1.0
  O  O45  1  0.84137000  0.85966000  0.62203000  1.0
  O  O46  1  0.15863000  0.14034000  0.37796000  1.0
  O  O47  1  0.78495000  0.96451000  0.30967000  1.0
  O  O48  1  0.21503000  0.03548000  0.69032000  1.0
  O  O49  1  0.09728000  0.96298000  0.13309000  1.0
  O  O50  1  0.90271000  0.03707000  0.86688000  1.0
  O  O51  1  0.46787000  0.82413000  0.11043000  1.0
  O  O52  1  0.53207000  0.17585000  0.88958000  1.0
  O  O53  1  0.62430000  0.78183000  0.89177000  1.0
  O  O54  1  0.37572000  0.21820000  0.10825000  1.0
  O  O55  1  0.31559000  0.63174000  0.94819000  1.0
  O  O56  1  0.68446000  0.36824000  0.05179000  1.0
  O  O57  1  0.29456000  0.87032000  0.89800000  1.0
  O  O58  1  0.70541000  0.12965000  0.10200000  1.0
  O  O59  1  0.14177000  0.33230000  0.93708000  1.0
  O  O60  1  0.85828000  0.66774000  0.06292000  1.0
