# generated using pymatgen
data_CuH3C4IN2Cl
_symmetry_space_group_name_H-M   'P 1'
_cell_length_a   3.99105000
_cell_length_b   10.42070000
_cell_length_c   17.64910000
_cell_angle_alpha   90.00000000
_cell_angle_beta   89.99950000
_cell_angle_gamma   89.99980000
_symmetry_Int_Tables_number   1
_chemical_formula_structural   CuH3C4IN2Cl
_chemical_formula_sum   'Cu4 H12 C16 I4 N8 Cl4'
_cell_volume   734.01785746
_cell_formula_units_Z   4
loop_
 _symmetry_equiv_pos_site_id
 _symmetry_equiv_pos_as_xyz
  1  'x, y, z'
loop_
 _atom_site_type_symbol
 _atom_site_label
 _atom_site_symmetry_multiplicity
 _atom_site_fract_x
 _atom_site_fract_y
 _atom_site_fract_z
 _atom_site_occupancy
  Cu  Cu0  1  0.59300000  0.28250000  0.54627000  1.0
  Cu  Cu1  1  0.90700000  0.71749000  0.04628000  1.0
  Cu  Cu2  1  0.40700000  0.78250000  0.95373000  1.0
  Cu  Cu3  1  0.09299000  0.21749000  0.45373000  1.0
  H  H4  1  0.40110000  0.33890000  0.70607000  1.0
  H  H5  1  0.09892000  0.66108000  0.20607000  1.0
  H  H6  1  0.59892000  0.83890000  0.79393000  1.0
  H  H7  1  0.90110000  0.16110000  0.29393000  1.0
  H  H8  1  0.76361000  0.56258000  0.52776000  1.0
  H  H9  1  0.73640000  0.43741000  0.02777000  1.0
  H  H10  1  0.23639000  0.06258000  0.97223000  1.0
  H  H11  1  0.26359000  0.93742000  0.47223000  1.0
  H  H12  1  0.36704000  0.53671000  0.78835000  1.0
  H  H13  1  0.13294000  0.46329000  0.28834000  1.0
  H  H14  1  0.63297000  0.03671000  0.71166000  1.0
  H  H15  1  0.86705000  0.96330000  0.21166000  1.0
  C  C16  1  0.47222000  0.43336000  0.68467000  1.0
  C  C17  1  0.02780000  0.56664000  0.18467000  1.0
  C  C18  1  0.52780000  0.93336000  0.81533000  1.0
  C  C19  1  0.97221000  0.06664000  0.31533000  1.0
  C  C20  1  0.67729000  0.55639000  0.58630000  1.0
  C  C21  1  0.82271000  0.44360000  0.08630000  1.0
  C  C22  1  0.32270000  0.05639000  0.91371000  1.0
  C  C23  1  0.17728000  0.94360000  0.41370000  1.0
  C  C24  1  0.66173000  0.66361000  0.63389000  1.0
  C  C25  1  0.83826000  0.33639000  0.13389000  1.0
  C  C26  1  0.33827000  0.16361000  0.86611000  1.0
  C  C27  1  0.16174000  0.83639000  0.36611000  1.0
  C  C28  1  0.45690000  0.54243000  0.72999000  1.0
  C  C29  1  0.04309000  0.45757000  0.22999000  1.0
  C  C30  1  0.54312000  0.04243000  0.77001000  1.0
  C  C31  1  0.95691000  0.95757000  0.27001000  1.0
  I  I32  1  0.59059000  0.36398000  0.40666000  1.0
  I  I33  1  0.90941000  0.63602000  0.90666000  1.0
  I  I34  1  0.40940000  0.86398000  0.09335000  1.0
  I  I35  1  0.09059000  0.13602000  0.59335000  1.0
  N  N36  1  0.58047000  0.44088000  0.61222000  1.0
  N  N37  1  0.91953000  0.55911000  0.11222000  1.0
  N  N38  1  0.41953000  0.94088000  0.88778000  1.0
  N  N39  1  0.08047000  0.05912000  0.38778000  1.0
  N  N40  1  0.55166000  0.65861000  0.70478000  1.0
  N  N41  1  0.94831000  0.34139000  0.20478000  1.0
  N  N42  1  0.44835000  0.15861000  0.79522000  1.0
  N  N43  1  0.05168000  0.84140000  0.29522000  1.0
  Cl  Cl44  1  0.79406000  0.81139000  0.60020000  1.0
  Cl  Cl45  1  0.70590000  0.18861000  0.10020000  1.0
  Cl  Cl46  1  0.20594000  0.31139000  0.89980000  1.0
  Cl  Cl47  1  0.29406000  0.68861000  0.39979000  1.0
