# generated using pymatgen
data_CuH14C18(NO)4
_symmetry_space_group_name_H-M   'P 1'
_cell_length_a   10.93310000
_cell_length_b   14.80679414
_cell_length_c   15.97550000
_cell_angle_alpha   63.71785377
_cell_angle_beta   90.00130000
_cell_angle_gamma   90.00052312
_symmetry_Int_Tables_number   1
_chemical_formula_structural   CuH14C18(NO)4
_chemical_formula_sum   'Cu4 H56 C72 N16 O16'
_cell_volume   2318.83259346
_cell_formula_units_Z   4
loop_
 _symmetry_equiv_pos_site_id
 _symmetry_equiv_pos_as_xyz
  1  'x, y, z'
loop_
 _atom_site_type_symbol
 _atom_site_label
 _atom_site_symmetry_multiplicity
 _atom_site_fract_x
 _atom_site_fract_y
 _atom_site_fract_z
 _atom_site_occupancy
  Cu  Cu0  1  0.99686000  0.98197000  0.76415000  1.0
  Cu  Cu1  1  0.49687000  0.51804000  0.73584000  1.0
  Cu  Cu2  1  0.00313000  0.01802000  0.23585000  1.0
  Cu  Cu3  1  0.50313000  0.48198000  0.26416000  1.0
  H  H4  1  0.21228000  0.98156000  0.04308000  1.0
  H  H5  1  0.71231000  0.51843000  0.45693000  1.0
  H  H6  1  0.78770000  0.01845000  0.95691000  1.0
  H  H7  1  0.28770000  0.48155000  0.54309000  1.0
  H  H8  1  0.81683000  0.00369000  0.46268000  1.0
  H  H9  1  0.31685000  0.49631000  0.03731000  1.0
  H  H10  1  0.18317000  0.99631000  0.53731000  1.0
  H  H11  1  0.68316000  0.50368000  0.96270000  1.0
  H  H12  1  0.31954000  0.77390000  0.13294000  1.0
  H  H13  1  0.81954000  0.72611000  0.36707000  1.0
  H  H14  1  0.68045000  0.22614000  0.86705000  1.0
  H  H15  1  0.18044000  0.27386000  0.63294000  1.0
  H  H16  1  0.16789000  0.59638000  0.00481000  1.0
  H  H17  1  0.66787000  0.90363000  0.49517000  1.0
  H  H18  1  0.83212000  0.40362000  0.99520000  1.0
  H  H19  1  0.33212000  0.09637000  0.50481000  1.0
  H  H20  1  0.06544000  0.74682000  0.88113000  1.0
  H  H21  1  0.56544000  0.75318000  0.61887000  1.0
  H  H22  1  0.93457000  0.25319000  0.11887000  1.0
  H  H23  1  0.43457000  0.24681000  0.38113000  1.0
  H  H24  1  0.14450000  0.15712000  0.83241000  1.0
  H  H25  1  0.64454000  0.34288000  0.66760000  1.0
  H  H26  1  0.85548000  0.84288000  0.16757000  1.0
  H  H27  1  0.35549000  0.65711000  0.33243000  1.0
  H  H28  1  0.07784000  0.12867000  0.94316000  1.0
  H  H29  1  0.57786000  0.37133000  0.55683000  1.0
  H  H30  1  0.92214000  0.87134000  0.05681000  1.0
  H  H31  1  0.42216000  0.62865000  0.44320000  1.0
  H  H32  1  0.99024000  0.11705000  0.85376000  1.0
  H  H33  1  0.49027000  0.38294000  0.64625000  1.0
  H  H34  1  0.00974000  0.88294000  0.14623000  1.0
  H  H35  1  0.50975000  0.61704000  0.35378000  1.0
  H  H36  1  0.71352000  0.20338000  0.37933000  1.0
  H  H37  1  0.21353000  0.29663000  0.12066000  1.0
  H  H38  1  0.28650000  0.79663000  0.62066000  1.0
  H  H39  1  0.78649000  0.70337000  0.87934000  1.0
  H  H40  1  0.81332000  0.36484000  0.53738000  1.0
  H  H41  1  0.31331000  0.13516000  0.96262000  1.0
  H  H42  1  0.18668000  0.63516000  0.46263000  1.0
  H  H43  1  0.68668000  0.86484000  0.03737000  1.0
  H  H44  1  0.90563000  0.21017000  0.66382000  1.0
  H  H45  1  0.40562000  0.28982000  0.83618000  1.0
  H  H46  1  0.09435000  0.78981000  0.33619000  1.0
  H  H47  1  0.59436000  0.71018000  0.16381000  1.0
  H  H48  1  0.01909000  0.85154000  0.66316000  1.0
  H  H49  1  0.51911000  0.64847000  0.83682000  1.0
  H  H50  1  0.98089000  0.14845000  0.33682000  1.0
  H  H51  1  0.48091000  0.35154000  0.16319000  1.0
  H  H52  1  0.92933000  0.84246000  0.57354000  1.0
  H  H53  1  0.42935000  0.65754000  0.92644000  1.0
  H  H54  1  0.07064000  0.15754000  0.42644000  1.0
  H  H55  1  0.57066000  0.34245000  0.07357000  1.0
  H  H56  1  0.86417000  0.81250000  0.68508000  1.0
  H  H57  1  0.36419000  0.68751000  0.81490000  1.0
  H  H58  1  0.13581000  0.18750000  0.31491000  1.0
  H  H59  1  0.63583000  0.31249000  0.18511000  1.0
  C  C60  1  0.11898000  0.00029000  0.92046000  1.0
  C  C61  1  0.61899000  0.49971000  0.57954000  1.0
  C  C62  1  0.88101000  0.99971000  0.07953000  1.0
  C  C63  1  0.38101000  0.50028000  0.42048000  1.0
  C  C64  1  0.20228000  0.85185000  0.01128000  1.0
  C  C65  1  0.70228000  0.64815000  0.48872000  1.0
  C  C66  1  0.79772000  0.14816000  0.98872000  1.0
  C  C67  1  0.29771000  0.35184000  0.51128000  1.0
  C  C68  1  0.26360000  0.76911000  0.07863000  1.0
  C  C69  1  0.76359000  0.73090000  0.42137000  1.0
  C  C70  1  0.73641000  0.23091000  0.92137000  1.0
  C  C71  1  0.23640000  0.26909000  0.57863000  1.0
  C  C72  1  0.25153000  0.67720000  0.07395000  1.0
  C  C73  1  0.75152000  0.82280000  0.42606000  1.0
  C  C74  1  0.74848000  0.32281000  0.92606000  1.0
  C  C75  1  0.24848000  0.17719000  0.57394000  1.0
  C  C76  1  0.17893000  0.66988000  0.00384000  1.0
  C  C77  1  0.67892000  0.83013000  0.49615000  1.0
  C  C78  1  0.82108000  0.33013000  0.99616000  1.0
  C  C79  1  0.32108000  0.16987000  0.50384000  1.0
  C  C80  1  0.12133000  0.75298000  0.93477000  1.0
  C  C81  1  0.62133000  0.74703000  0.56523000  1.0
  C  C82  1  0.87867000  0.24702000  0.06524000  1.0
  C  C83  1  0.37867000  0.25297000  0.43477000  1.0
  C  C84  1  0.13409000  0.84513000  0.93856000  1.0
  C  C85  1  0.63409000  0.65487000  0.56145000  1.0
  C  C86  1  0.86590000  0.15487000  0.06145000  1.0
  C  C87  1  0.36590000  0.34512000  0.43856000  1.0
  C  C88  1  0.08088000  0.10690000  0.88596000  1.0
  C  C89  1  0.58091000  0.39310000  0.61404000  1.0
  C  C90  1  0.91910000  0.89311000  0.11402000  1.0
  C  C91  1  0.41911000  0.60689000  0.38598000  1.0
  C  C92  1  0.31928000  0.58599000  0.14151000  1.0
  C  C93  1  0.81926000  0.91401000  0.35850000  1.0
  C  C94  1  0.68073000  0.41402000  0.85850000  1.0
  C  C95  1  0.18073000  0.08598000  0.64150000  1.0
  C  C96  1  0.89039000  0.96953000  0.59920000  1.0
  C  C97  1  0.39040000  0.53047000  0.90079000  1.0
  C  C98  1  0.10961000  0.03047000  0.40079000  1.0
  C  C99  1  0.60962000  0.46953000  0.09922000  1.0
  C  C100  1  0.81262000  0.12021000  0.50923000  1.0
  C  C101  1  0.31262000  0.37980000  0.99076000  1.0
  C  C102  1  0.18739000  0.87980000  0.49076000  1.0
  C  C103  1  0.68739000  0.62020000  0.00924000  1.0
  C  C104  1  0.75658000  0.20459000  0.44028000  1.0
  C  C105  1  0.25657000  0.29542000  0.05971000  1.0
  C  C106  1  0.24343000  0.79542000  0.55972000  1.0
  C  C107  1  0.74342000  0.70458000  0.94028000  1.0
  C  C108  1  0.75682000  0.29261000  0.45243000  1.0
  C  C109  1  0.25680000  0.20739000  0.04756000  1.0
  C  C110  1  0.24319000  0.70739000  0.54757000  1.0
  C  C111  1  0.74319000  0.79260000  0.95244000  1.0
  C  C112  1  0.81256000  0.29421000  0.53173000  1.0
  C  C113  1  0.31254000  0.20579000  0.96826000  1.0
  C  C114  1  0.18744000  0.70579000  0.46827000  1.0
  C  C115  1  0.68744000  0.79421000  0.03174000  1.0
  C  C116  1  0.86448000  0.20870000  0.60234000  1.0
  C  C117  1  0.36447000  0.29129000  0.89766000  1.0
  C  C118  1  0.13552000  0.79129000  0.39767000  1.0
  C  C119  1  0.63552000  0.70871000  0.10234000  1.0
  C  C120  1  0.86400000  0.12042000  0.59060000  1.0
  C  C121  1  0.36400000  0.37958000  0.90939000  1.0
  C  C122  1  0.13600000  0.87958000  0.40939000  1.0
  C  C123  1  0.63600000  0.62042000  0.09062000  1.0
  C  C124  1  0.92780000  0.86299000  0.63157000  1.0
  C  C125  1  0.42782000  0.63702000  0.86841000  1.0
  C  C126  1  0.07218000  0.13701000  0.36841000  1.0
  C  C127  1  0.57219000  0.36298000  0.13160000  1.0
  C  C128  1  0.69111000  0.38387000  0.38304000  1.0
  C  C129  1  0.19110000  0.11614000  0.11695000  1.0
  C  C130  1  0.30890000  0.61615000  0.61695000  1.0
  C  C131  1  0.80889000  0.88386000  0.88304000  1.0
  N  N132  1  0.08554000  0.93934000  0.88269000  1.0
  N  N133  1  0.58556000  0.56065000  0.61732000  1.0
  N  N134  1  0.91444000  0.06065000  0.11731000  1.0
  N  N135  1  0.41444000  0.43934000  0.38269000  1.0
  N  N136  1  0.19051000  0.95095000  0.99690000  1.0
  N  N137  1  0.69051000  0.54906000  0.50310000  1.0
  N  N138  1  0.80949000  0.04907000  0.00308000  1.0
  N  N139  1  0.30949000  0.45093000  0.49691000  1.0
  N  N140  1  0.91025000  0.02504000  0.64529000  1.0
  N  N141  1  0.41025000  0.47496000  0.85470000  1.0
  N  N142  1  0.08976000  0.97496000  0.35470000  1.0
  N  N143  1  0.58976000  0.52504000  0.14531000  1.0
  N  N144  1  0.83148000  0.02429000  0.51733000  1.0
  N  N145  1  0.33149000  0.47572000  0.98265000  1.0
  N  N146  1  0.16852000  0.97572000  0.48265000  1.0
  N  N147  1  0.66852000  0.52428000  0.01735000  1.0
  O  O148  1  0.38655000  0.59759000  0.20233000  1.0
  O  O149  1  0.88653000  0.90242000  0.29767000  1.0
  O  O150  1  0.61345000  0.40243000  0.79768000  1.0
  O  O151  1  0.11344000  0.09758000  0.70231000  1.0
  O  O152  1  0.31176000  0.50362000  0.13568000  1.0
  O  O153  1  0.81173000  0.99638000  0.36433000  1.0
  O  O154  1  0.68826000  0.49639000  0.86434000  1.0
  O  O155  1  0.18828000  0.00361000  0.63567000  1.0
  O  O156  1  0.62013000  0.36840000  0.32599000  1.0
  O  O157  1  0.12013000  0.13160000  0.17401000  1.0
  O  O158  1  0.37989000  0.63162000  0.67400000  1.0
  O  O159  1  0.87987000  0.86839000  0.82600000  1.0
  O  O160  1  0.70216000  0.46872000  0.38323000  1.0
  O  O161  1  0.20213000  0.03129000  0.11676000  1.0
  O  O162  1  0.29787000  0.53130000  0.61676000  1.0
  O  O163  1  0.79785000  0.96870000  0.88324000  1.0
