# generated using pymatgen
data_CuH38C31(NO3)2
_symmetry_space_group_name_H-M   'P 1'
_cell_length_a   11.39350000
_cell_length_b   11.96960000
_cell_length_c   14.34570000
_cell_angle_alpha   68.33930000
_cell_angle_beta   69.79070000
_cell_angle_gamma   89.15420000
_symmetry_Int_Tables_number   1
_chemical_formula_structural   CuH38C31(NO3)2
_chemical_formula_sum   'Cu2 H76 C62 N4 O12'
_cell_volume   1691.99963427
_cell_formula_units_Z   2
loop_
 _symmetry_equiv_pos_site_id
 _symmetry_equiv_pos_as_xyz
  1  'x, y, z'
loop_
 _atom_site_type_symbol
 _atom_site_label
 _atom_site_symmetry_multiplicity
 _atom_site_fract_x
 _atom_site_fract_y
 _atom_site_fract_z
 _atom_site_occupancy
  Cu  Cu0  1  0.07015000  0.07092000  0.40498000  1.0
  Cu  Cu1  1  0.92985000  0.92907000  0.59501000  1.0
  H  H2  1  0.42766000  0.95406000  0.38217000  1.0
  H  H3  1  0.57233000  0.04595000  0.61784000  1.0
  H  H4  1  0.20580000  0.73112000  0.70871000  1.0
  H  H5  1  0.79420000  0.26887000  0.29129000  1.0
  H  H6  1  0.73459000  0.88897000  0.40339000  1.0
  H  H7  1  0.26541000  0.11105000  0.59661000  1.0
  H  H8  1  0.67640000  0.68792000  0.39857000  1.0
  H  H9  1  0.32360000  0.31209000  0.60144000  1.0
  H  H10  1  0.60533000  0.76541000  0.30427000  1.0
  H  H11  1  0.39467000  0.23460000  0.69573000  1.0
  H  H12  1  0.77103000  0.79468000  0.26944000  1.0
  H  H13  1  0.22897000  0.20533000  0.73056000  1.0
  H  H14  1  0.63842000  0.07157000  0.31213000  1.0
  H  H15  1  0.36158000  0.92845000  0.68786000  1.0
  H  H16  1  0.75960000  0.02320000  0.22358000  1.0
  H  H17  1  0.24041000  0.97681000  0.77641000  1.0
  H  H18  1  0.59979000  0.98835000  0.24406000  1.0
  H  H19  1  0.40021000  0.01166000  0.75594000  1.0
  H  H20  1  0.47764000  0.64641000  0.78549000  1.0
  H  H21  1  0.52236000  0.35359000  0.21452000  1.0
  H  H22  1  0.41411000  0.42821000  0.84237000  1.0
  H  H23  1  0.58589000  0.57179000  0.15763000  1.0
  H  H24  1  0.32897000  0.46052000  0.75417000  1.0
  H  H25  1  0.67103000  0.53950000  0.24583000  1.0
  H  H26  1  0.49628000  0.49460000  0.70067000  1.0
  H  H27  1  0.50372000  0.50540000  0.29933000  1.0
  H  H28  1  0.28019000  0.55582000  0.94007000  1.0
  H  H29  1  0.71981000  0.44418000  0.05994000  1.0
  H  H30  1  0.26136000  0.70570000  0.86400000  1.0
  H  H31  1  0.73865000  0.29431000  0.13600000  1.0
  H  H32  1  0.19171000  0.57918000  0.85597000  1.0
  H  H33  1  0.80829000  0.42082000  0.14403000  1.0
  H  H34  1  0.84525000  0.62175000  0.54584000  1.0
  H  H35  1  0.15474000  0.37824000  0.45417000  1.0
  H  H36  1  0.06452000  0.85025000  0.21996000  1.0
  H  H37  1  0.93547000  0.14974000  0.78005000  1.0
  H  H38  1  0.82366000  0.34597000  0.49530000  1.0
  H  H39  1  0.17633000  0.65402000  0.50470000  1.0
  H  H40  1  0.71444000  0.30813000  0.68262000  1.0
  H  H41  1  0.28557000  0.69187000  0.31738000  1.0
  H  H42  1  0.85741000  0.40275000  0.63885000  1.0
  H  H43  1  0.14259000  0.59725000  0.36115000  1.0
  H  H44  1  0.71189000  0.46461000  0.65702000  1.0
  H  H45  1  0.28812000  0.53539000  0.34298000  1.0
  H  H46  1  0.59168000  0.34169000  0.55546000  1.0
  H  H47  1  0.40832000  0.65831000  0.44454000  1.0
  H  H48  1  0.60611000  0.49984000  0.52687000  1.0
  H  H49  1  0.39390000  0.50016000  0.47313000  1.0
  H  H50  1  0.65781000  0.44758000  0.42037000  1.0
  H  H51  1  0.34219000  0.55242000  0.57963000  1.0
  H  H52  1  0.08077000  0.59754000  0.12403000  1.0
  H  H53  1  0.91923000  0.40245000  0.87596000  1.0
  H  H54  1  0.87955000  0.66889000  0.10743000  1.0
  H  H55  1  0.12044000  0.33111000  0.89257000  1.0
  H  H56  1  0.94439000  0.82125000  0.06647000  1.0
  H  H57  1  0.05561000  0.17875000  0.93353000  1.0
  H  H58  1  0.00910000  0.73900000  0.98328000  1.0
  H  H59  1  0.99090000  0.26099000  0.01673000  1.0
  H  H60  1  0.25038000  0.74318000  0.11066000  1.0
  H  H61  1  0.74961000  0.25682000  0.88934000  1.0
  H  H62  1  0.23098000  0.77484000  0.98582000  1.0
  H  H63  1  0.76901000  0.22517000  0.01418000  1.0
  H  H64  1  0.17010000  0.86615000  0.05973000  1.0
  H  H65  1  0.82989000  0.13385000  0.94027000  1.0
  H  H66  1  0.10425000  0.34208000  0.27612000  1.0
  H  H67  1  0.89575000  0.65790000  0.72387000  1.0
  H  H68  1  0.28112000  0.50166000  0.12907000  1.0
  H  H69  1  0.71887000  0.49834000  0.87092000  1.0
  H  H70  1  0.48047000  0.21294000  0.06502000  1.0
  H  H71  1  0.51955000  0.78706000  0.93498000  1.0
  H  H72  1  0.29640000  0.06399000  0.21908000  1.0
  H  H73  1  0.70362000  0.93600000  0.78092000  1.0
  H  H74  1  0.70459000  0.76788000  0.54782000  1.0
  H  H75  1  0.29542000  0.23213000  0.45219000  1.0
  H  H76  1  0.86393000  0.39716000  0.34503000  1.0
  H  H77  1  0.13604000  0.60285000  0.65496000  1.0
  C  C78  1  0.19271000  0.89967000  0.52701000  1.0
  C  C79  1  0.80729000  0.10033000  0.47298000  1.0
  C  C80  1  0.30595000  0.84656000  0.54338000  1.0
  C  C81  1  0.69405000  0.15344000  0.45662000  1.0
  C  C82  1  0.42356000  0.88682000  0.45935000  1.0
  C  C83  1  0.57645000  0.11318000  0.54065000  1.0
  C  C84  1  0.53314000  0.84347000  0.47270000  1.0
  C  C85  1  0.46686000  0.15654000  0.52730000  1.0
  C  C86  1  0.52283000  0.75960000  0.57615000  1.0
  C  C87  1  0.47718000  0.24041000  0.42385000  1.0
  C  C88  1  0.40438000  0.71403000  0.66166000  1.0
  C  C89  1  0.59563000  0.28598000  0.33834000  1.0
  C  C90  1  0.29756000  0.75914000  0.64330000  1.0
  C  C91  1  0.70245000  0.24085000  0.35671000  1.0
  C  C92  1  0.65684000  0.87798000  0.37685000  1.0
  C  C93  1  0.34316000  0.12204000  0.62315000  1.0
  C  C94  1  0.67896000  0.77509000  0.33514000  1.0
  C  C95  1  0.32104000  0.22493000  0.66486000  1.0
  C  C96  1  0.66344000  0.99751000  0.28438000  1.0
  C  C97  1  0.33656000  0.00250000  0.71561000  1.0
  C  C98  1  0.39630000  0.62002000  0.76998000  1.0
  C  C99  1  0.60371000  0.37999000  0.23002000  1.0
  C  C100  1  0.41008000  0.49347000  0.76623000  1.0
  C  C101  1  0.58993000  0.50654000  0.23378000  1.0
  C  C102  1  0.27554000  0.61535000  0.86241000  1.0
  C  C103  1  0.72447000  0.38465000  0.13759000  1.0
  C  C104  1  0.96678000  0.84485000  0.42230000  1.0
  C  C105  1  0.03322000  0.15514000  0.57770000  1.0
  C  C106  1  0.95454000  0.74614000  0.38582000  1.0
  C  C107  1  0.04546000  0.25386000  0.61418000  1.0
  C  C108  1  0.88612000  0.63403000  0.46160000  1.0
  C  C109  1  0.11387000  0.36596000  0.53841000  1.0
  C  C110  1  0.86838000  0.53956000  0.43149000  1.0
  C  C111  1  0.13162000  0.46044000  0.56851000  1.0
  C  C112  1  0.92621000  0.55893000  0.32139000  1.0
  C  C113  1  0.07379000  0.44106000  0.67861000  1.0
  C  C114  1  0.99925000  0.66985000  0.24331000  1.0
  C  C115  1  0.00074000  0.33014000  0.75668000  1.0
  C  C116  1  0.01035000  0.76281000  0.27738000  1.0
  C  C117  1  0.98964000  0.23717000  0.72263000  1.0
  C  C118  1  0.78230000  0.42361000  0.51287000  1.0
  C  C119  1  0.21770000  0.57638000  0.48713000  1.0
  C  C120  1  0.76644000  0.39880000  0.62940000  1.0
  C  C121  1  0.23357000  0.60120000  0.37060000  1.0
  C  C122  1  0.65208000  0.42829000  0.50277000  1.0
  C  C123  1  0.34792000  0.57171000  0.49723000  1.0
  C  C124  1  0.06042000  0.68714000  0.12582000  1.0
  C  C125  1  0.93957000  0.31286000  0.87418000  1.0
  C  C126  1  0.96779000  0.73141000  0.06724000  1.0
  C  C127  1  0.03220000  0.26859000  0.93277000  1.0
  C  C128  1  0.18501000  0.77258000  0.06763000  1.0
  C  C129  1  0.81499000  0.22742000  0.93237000  1.0
  C  C130  1  0.18968000  0.31770000  0.22768000  1.0
  C  C131  1  0.81032000  0.68229000  0.77231000  1.0
  C  C132  1  0.28650000  0.40555000  0.14668000  1.0
  C  C133  1  0.71350000  0.59444000  0.85331000  1.0
  C  C134  1  0.39329000  0.36719000  0.08741000  1.0
  C  C135  1  0.60672000  0.63281000  0.91259000  1.0
  C  C136  1  0.39801000  0.24317000  0.11104000  1.0
  C  C137  1  0.60200000  0.75683000  0.88896000  1.0
  C  C138  1  0.29696000  0.16181000  0.19497000  1.0
  C  C139  1  0.70305000  0.83819000  0.80503000  1.0
  N  N140  1  0.19473000  0.19815000  0.25182000  1.0
  N  N141  1  0.80528000  0.80184000  0.74818000  1.0
  N  N142  1  0.49909000  0.44593000  0.00291000  1.0
  N  N143  1  0.50092000  0.55407000  0.99709000  1.0
  O  O144  1  0.21100000  0.98633000  0.43634000  1.0
  O  O145  1  0.78900000  0.01373000  0.56370000  1.0
  O  O146  1  0.03837000  0.94270000  0.35444000  1.0
  O  O147  1  0.96170000  0.05725000  0.64558000  1.0
  O  O148  1  0.08596000  0.85610000  0.60434000  1.0
  O  O149  1  0.91402000  0.14381000  0.39562000  1.0
  O  O150  1  0.90189000  0.82335000  0.52176000  1.0
  O  O151  1  0.09803000  0.17668000  0.47821000  1.0
  O  O152  1  0.62531000  0.71623000  0.59946000  1.0
  O  O153  1  0.37471000  0.28379000  0.40053000  1.0
  O  O154  1  0.91487000  0.47019000  0.28494000  1.0
  O  O155  1  0.08512000  0.52980000  0.71506000  1.0
