# generated using pymatgen
data_CuH30C24(NO2)4
_symmetry_space_group_name_H-M   'P 1'
_cell_length_a   6.75447000
_cell_length_b   10.89210000
_cell_length_c   11.19500000
_cell_angle_alpha   114.76500000
_cell_angle_beta   98.97410000
_cell_angle_gamma   103.10300000
_symmetry_Int_Tables_number   1
_chemical_formula_structural   CuH30C24(NO2)4
_chemical_formula_sum   'Cu1 H30 C24 N4 O8'
_cell_volume   698.46292115
_cell_formula_units_Z   1
loop_
 _symmetry_equiv_pos_site_id
 _symmetry_equiv_pos_as_xyz
  1  'x, y, z'
loop_
 _atom_site_type_symbol
 _atom_site_label
 _atom_site_symmetry_multiplicity
 _atom_site_fract_x
 _atom_site_fract_y
 _atom_site_fract_z
 _atom_site_occupancy
  Cu  Cu0  1  0.50002000  0.00000000  0.00002000  1.0
  H  H1  1  0.19960000  0.54987000  0.72633000  1.0
  H  H2  1  0.80040000  0.45015000  0.27368000  1.0
  H  H3  1  0.92143000  0.46130000  0.65058000  1.0
  H  H4  1  0.07857000  0.53872000  0.34943000  1.0
  H  H5  1  0.33606000  0.42003000  0.32622000  1.0
  H  H6  1  0.66391000  0.57995000  0.67375000  1.0
  H  H7  1  0.24633000  0.36586000  0.01921000  1.0
  H  H8  1  0.75368000  0.63413000  0.98078000  1.0
  H  H9  1  0.17632000  0.48592000  0.15545000  1.0
  H  H10  1  0.82369000  0.51406000  0.84455000  1.0
  H  H11  1  0.89429000  0.29348000  0.85963000  1.0
  H  H12  1  0.10572000  0.70653000  0.14038000  1.0
  H  H13  1  0.36203000  0.10647000  0.46378000  1.0
  H  H14  1  0.63796000  0.89354000  0.53624000  1.0
  H  H15  1  0.79863000  0.30499000  0.39371000  1.0
  H  H16  1  0.20136000  0.69502000  0.60629000  1.0
  H  H17  1  0.98894000  0.28340000  0.30151000  1.0
  H  H18  1  0.01104000  0.71662000  0.69848000  1.0
  H  H19  1  0.43731000  0.27317000  0.12292000  1.0
  H  H20  1  0.56269000  0.72680000  0.87706000  1.0
  H  H21  1  0.46830000  0.97190000  0.25145000  1.0
  H  H22  1  0.53170000  0.02810000  0.74858000  1.0
  H  H23  1  0.78117000  0.49678000  0.10588000  1.0
  H  H24  1  0.21884000  0.50321000  0.89413000  1.0
  H  H25  1  0.60916000  0.38269000  0.93918000  1.0
  H  H26  1  0.39085000  0.61731000  0.06082000  1.0
  H  H27  1  0.10272000  0.93410000  0.89264000  1.0
  H  H28  1  0.89731000  0.06591000  0.10732000  1.0
  H  H29  1  0.12412000  0.08673000  0.91804000  1.0
  H  H30  1  0.87589000  0.91328000  0.08194000  1.0
  C  C31  1  0.06871000  0.51346000  0.63537000  1.0
  C  C32  1  0.93128000  0.48657000  0.36464000  1.0
  C  C33  1  0.35856000  0.32017000  0.31417000  1.0
  C  C34  1  0.64143000  0.67982000  0.68582000  1.0
  C  C35  1  0.14974000  0.43672000  0.04341000  1.0
  C  C36  1  0.85026000  0.56327000  0.95659000  1.0
  C  C37  1  0.33006000  0.27076000  0.40891000  1.0
  C  C38  1  0.66993000  0.72924000  0.59109000  1.0
  C  C39  1  0.91427000  0.34950000  0.97166000  1.0
  C  C40  1  0.08575000  0.65050000  0.02835000  1.0
  C  C41  1  0.37490000  0.14534000  0.38921000  1.0
  C  C42  1  0.62508000  0.85467000  0.61080000  1.0
  C  C43  1  0.26950000  0.35504000  0.53454000  1.0
  C  C44  1  0.73047000  0.64495000  0.46546000  1.0
  C  C45  1  0.95171000  0.36068000  0.38763000  1.0
  C  C46  1  0.04828000  0.63934000  0.61238000  1.0
  C  C47  1  0.41649000  0.23954000  0.20018000  1.0
  C  C48  1  0.58348000  0.76044000  0.79982000  1.0
  C  C49  1  0.43314000  0.07056000  0.27288000  1.0
  C  C50  1  0.56685000  0.92943000  0.72714000  1.0
  C  C51  1  0.84265000  0.22893000  0.00797000  1.0
  C  C52  1  0.15735000  0.77106000  0.99201000  1.0
  C  C53  1  0.77562000  0.44641000  0.99649000  1.0
  C  C54  1  0.22440000  0.55358000  0.00351000  1.0
  N  N55  1  0.11132000  0.41017000  0.51673000  1.0
  N  N56  1  0.88869000  0.58984000  0.48327000  1.0
  N  N57  1  0.44896000  0.11576000  0.17834000  1.0
  N  N58  1  0.55105000  0.88423000  0.82167000  1.0
  O  O59  1  0.97905000  0.17936000  0.04424000  1.0
  O  O60  1  0.02099000  0.82062000  0.95573000  1.0
  O  O61  1  0.37115000  0.37861000  0.64893000  1.0
  O  O62  1  0.62882000  0.62139000  0.35109000  1.0
  O  O63  1  0.64413000  0.18328000  0.99643000  1.0
  O  O64  1  0.35588000  0.81672000  0.00359000  1.0
  O  O65  1  0.16699000  0.00502000  0.86338000  1.0
  O  O66  1  0.83304000  0.99500000  0.13661000  1.0
