# generated using pymatgen
data_Sn2H22(C5O2)3
_symmetry_space_group_name_H-M   'P 1'
_cell_length_a   9.27051000
_cell_length_b   12.89870000
_cell_length_c   18.09320000
_cell_angle_alpha   89.99850000
_cell_angle_beta   88.50300000
_cell_angle_gamma   89.99930000
_symmetry_Int_Tables_number   1
_chemical_formula_structural   Sn2H22(C5O2)3
_chemical_formula_sum   'Sn8 H88 C60 O24'
_cell_volume   2162.80168800
_cell_formula_units_Z   4
loop_
 _symmetry_equiv_pos_site_id
 _symmetry_equiv_pos_as_xyz
  1  'x, y, z'
loop_
 _atom_site_type_symbol
 _atom_site_label
 _atom_site_symmetry_multiplicity
 _atom_site_fract_x
 _atom_site_fract_y
 _atom_site_fract_z
 _atom_site_occupancy
  Sn  Sn0  1  0.08224000  0.72270000  0.23026000  1.0
  Sn  Sn1  1  0.41769000  0.22264000  0.26973000  1.0
  Sn  Sn2  1  0.91768000  0.27735000  0.76974000  1.0
  Sn  Sn3  1  0.58229000  0.77731000  0.73025000  1.0
  Sn  Sn4  1  0.58127000  0.77128000  0.30814000  1.0
  Sn  Sn5  1  0.91871000  0.27129000  0.19184000  1.0
  Sn  Sn6  1  0.41871000  0.22871000  0.69185000  1.0
  Sn  Sn7  1  0.08133000  0.72871000  0.80816000  1.0
  H  H8  1  0.46984000  0.50928000  0.56257000  1.0
  H  H9  1  0.03018000  0.00929000  0.93747000  1.0
  H  H10  1  0.53017000  0.49071000  0.43745000  1.0
  H  H11  1  0.96989000  0.99072000  0.06256000  1.0
  H  H12  1  0.77128000  0.71321000  0.51952000  1.0
  H  H13  1  0.72875000  0.21322000  0.98046000  1.0
  H  H14  1  0.22876000  0.28679000  0.48046000  1.0
  H  H15  1  0.27129000  0.78679000  0.01952000  1.0
  H  H16  1  0.14318000  0.60102000  0.63139000  1.0
  H  H17  1  0.35684000  0.10101000  0.86863000  1.0
  H  H18  1  0.85683000  0.39896000  0.36861000  1.0
  H  H19  1  0.64320000  0.89897000  0.13140000  1.0
  H  H20  1  0.13437000  0.59508000  0.39312000  1.0
  H  H21  1  0.36573000  0.09509000  0.10690000  1.0
  H  H22  1  0.86568000  0.40491000  0.60688000  1.0
  H  H23  1  0.63437000  0.90493000  0.89313000  1.0
  H  H24  1  0.27409000  0.58809000  0.29265000  1.0
  H  H25  1  0.22587000  0.08804000  0.20732000  1.0
  H  H26  1  0.72587000  0.41198000  0.70733000  1.0
  H  H27  1  0.77410000  0.91196000  0.79263000  1.0
  H  H28  1  0.26261000  0.56628000  0.19547000  1.0
  H  H29  1  0.23735000  0.06621000  0.30451000  1.0
  H  H30  1  0.73735000  0.43379000  0.80452000  1.0
  H  H31  1  0.76262000  0.93377000  0.69544000  1.0
  H  H32  1  0.12376000  0.51930000  0.25751000  1.0
  H  H33  1  0.37623000  0.01925000  0.24247000  1.0
  H  H34  1  0.87623000  0.48074000  0.74248000  1.0
  H  H35  1  0.62372000  0.98069000  0.75747000  1.0
  H  H36  1  0.88443000  0.63171000  0.14366000  1.0
  H  H37  1  0.61549000  0.13169000  0.35635000  1.0
  H  H38  1  0.11550000  0.36831000  0.85635000  1.0
  H  H39  1  0.38449000  0.86828000  0.64365000  1.0
  H  H40  1  0.98257000  0.72844000  0.09171000  1.0
  H  H41  1  0.51737000  0.22843000  0.40829000  1.0
  H  H42  1  0.01738000  0.27157000  0.90829000  1.0
  H  H43  1  0.48257000  0.77154000  0.59171000  1.0
  H  H44  1  0.83832000  0.76562000  0.15348000  1.0
  H  H45  1  0.66159000  0.26560000  0.34650000  1.0
  H  H46  1  0.16160000  0.23441000  0.84650000  1.0
  H  H47  1  0.33838000  0.73439000  0.65350000  1.0
  H  H48  1  0.10734000  0.82921000  0.35835000  1.0
  H  H49  1  0.39268000  0.32916000  0.14165000  1.0
  H  H50  1  0.89265000  0.17084000  0.64165000  1.0
  H  H51  1  0.60735000  0.67083000  0.85834000  1.0
  H  H52  1  0.98914000  0.89804000  0.29911000  1.0
  H  H53  1  0.51079000  0.39801000  0.20091000  1.0
  H  H54  1  0.01083000  0.10201000  0.70091000  1.0
  H  H55  1  0.48916000  0.60201000  0.79912000  1.0
  H  H56  1  0.18048000  0.90376000  0.28287000  1.0
  H  H57  1  0.31943000  0.40370000  0.21710000  1.0
  H  H58  1  0.81947000  0.09629000  0.71713000  1.0
  H  H59  1  0.68047000  0.59625000  0.78289000  1.0
  H  H60  1  0.64132000  0.64940000  0.18935000  1.0
  H  H61  1  0.85864000  0.14941000  0.31063000  1.0
  H  H62  1  0.35867000  0.35060000  0.81064000  1.0
  H  H63  1  0.14136000  0.85061000  0.68937000  1.0
  H  H64  1  0.48202000  0.60296000  0.23628000  1.0
  H  H65  1  0.01797000  0.10301000  0.26373000  1.0
  H  H66  1  0.51798000  0.39701000  0.76372000  1.0
  H  H67  1  0.98201000  0.89699000  0.73629000  1.0
  H  H68  1  0.65636000  0.57584000  0.27238000  1.0
  H  H69  1  0.84368000  0.07583000  0.22763000  1.0
  H  H70  1  0.34367000  0.42417000  0.72763000  1.0
  H  H71  1  0.15631000  0.92418000  0.77239000  1.0
  H  H72  1  0.75478000  0.93554000  0.33472000  1.0
  H  H73  1  0.74516000  0.43555000  0.16528000  1.0
  H  H74  1  0.24518000  0.06445000  0.66529000  1.0
  H  H75  1  0.25484000  0.56443000  0.83472000  1.0
  H  H76  1  0.62406000  0.97059000  0.26776000  1.0
  H  H77  1  0.87591000  0.47054000  0.23223000  1.0
  H  H78  1  0.37591000  0.02943000  0.73224000  1.0
  H  H79  1  0.12409000  0.52944000  0.76776000  1.0
  H  H80  1  0.78013000  0.89850000  0.24022000  1.0
  H  H81  1  0.71985000  0.39849000  0.25978000  1.0
  H  H82  1  0.21986000  0.10151000  0.75979000  1.0
  H  H83  1  0.28017000  0.60149000  0.74021000  1.0
  H  H84  1  0.38039000  0.86898000  0.39567000  1.0
  H  H85  1  0.11957000  0.36896000  0.10434000  1.0
  H  H86  1  0.61959000  0.13103000  0.60434000  1.0
  H  H87  1  0.88045000  0.63102000  0.89566000  1.0
  H  H88  1  0.46361000  0.76604000  0.44582000  1.0
  H  H89  1  0.03641000  0.26603000  0.05416000  1.0
  H  H90  1  0.53641000  0.23396000  0.55417000  1.0
  H  H91  1  0.96363000  0.73393000  0.94583000  1.0
  H  H92  1  0.32510000  0.73780000  0.38211000  1.0
  H  H93  1  0.17485000  0.23778000  0.11790000  1.0
  H  H94  1  0.67487000  0.26220000  0.61789000  1.0
  H  H95  1  0.82517000  0.76220000  0.88211000  1.0
  C  C96  1  0.94404000  0.65765000  0.44866000  1.0
  C  C97  1  0.55598000  0.15763000  0.05134000  1.0
  C  C98  1  0.05597000  0.34236000  0.55133000  1.0
  C  C99  1  0.44409000  0.84237000  0.94866000  1.0
  C  C100  1  0.87930000  0.68049000  0.51719000  1.0
  C  C101  1  0.62075000  0.18048000  0.98281000  1.0
  C  C102  1  0.12074000  0.31952000  0.48280000  1.0
  C  C103  1  0.37930000  0.81952000  0.01720000  1.0
  C  C104  1  0.94918000  0.66024000  0.58303000  1.0
  C  C105  1  0.55083000  0.16025000  0.91696000  1.0
  C  C106  1  0.05083000  0.33975000  0.41696000  1.0
  C  C107  1  0.44919000  0.83975000  0.08305000  1.0
  C  C108  1  0.08853000  0.61830000  0.58032000  1.0
  C  C109  1  0.41151000  0.11830000  0.91968000  1.0
  C  C110  1  0.91151000  0.38170000  0.41967000  1.0
  C  C111  1  0.58852000  0.88169000  0.08033000  1.0
  C  C112  1  0.15640000  0.59661000  0.51161000  1.0
  C  C113  1  0.34364000  0.09661000  0.98841000  1.0
  C  C114  1  0.84363000  0.40340000  0.48840000  1.0
  C  C115  1  0.65642000  0.90339000  0.01160000  1.0
  C  C116  1  0.08298000  0.61515000  0.44599000  1.0
  C  C117  1  0.41707000  0.11515000  0.05403000  1.0
  C  C118  1  0.91706000  0.38485000  0.55401000  1.0
  C  C119  1  0.58300000  0.88485000  0.94599000  1.0
  C  C120  1  0.85933000  0.67866000  0.38050000  1.0
  C  C121  1  0.64071000  0.17864000  0.11950000  1.0
  C  C122  1  0.14068000  0.32136000  0.61951000  1.0
  C  C123  1  0.35935000  0.82135000  0.88049000  1.0
  C  C124  1  0.86828000  0.68356000  0.65432000  1.0
  C  C125  1  0.63170000  0.18359000  0.84568000  1.0
  C  C126  1  0.13170000  0.31639000  0.34566000  1.0
  C  C127  1  0.36827000  0.81642000  0.15432000  1.0
  C  C128  1  0.30556000  0.55311000  0.50632000  1.0
  C  C129  1  0.19445000  0.05312000  0.99373000  1.0
  C  C130  1  0.69446000  0.44688000  0.49370000  1.0
  C  C131  1  0.80560000  0.94687000  0.00629000  1.0
  C  C132  1  0.20037000  0.58240000  0.24648000  1.0
  C  C133  1  0.29960000  0.08236000  0.25350000  1.0
  C  C134  1  0.79959000  0.41764000  0.75351000  1.0
  C  C135  1  0.70039000  0.91762000  0.74645000  1.0
  C  C136  1  0.92732000  0.71089000  0.14454000  1.0
  C  C137  1  0.57261000  0.21086000  0.35546000  1.0
  C  C138  1  0.07261000  0.28914000  0.85546000  1.0
  C  C139  1  0.42735000  0.78911000  0.64453000  1.0
  C  C140  1  0.09046000  0.85492000  0.30154000  1.0
  C  C141  1  0.40948000  0.35488000  0.19845000  1.0
  C  C142  1  0.90949000  0.14513000  0.69846000  1.0
  C  C143  1  0.59049000  0.64509000  0.80156000  1.0
  C  C144  1  0.59111000  0.63269000  0.24347000  1.0
  C  C145  1  0.90888000  0.13268000  0.25654000  1.0
  C  C146  1  0.40889000  0.36731000  0.75654000  1.0
  C  C147  1  0.09112000  0.86732000  0.74347000  1.0
  C  C148  1  0.69982000  0.91056000  0.28487000  1.0
  C  C149  1  0.80013000  0.41056000  0.21512000  1.0
  C  C150  1  0.30015000  0.08944000  0.71513000  1.0
  C  C151  1  0.19987000  0.58943000  0.78487000  1.0
  C  C152  1  0.41693000  0.78824000  0.39310000  1.0
  C  C153  1  0.08304000  0.28823000  0.10689000  1.0
  C  C154  1  0.58305000  0.21176000  0.60689000  1.0
  C  C155  1  0.91698000  0.71175000  0.89311000  1.0
  O  O156  1  0.91020000  0.65523000  0.31722000  1.0
  O  O157  1  0.58985000  0.15519000  0.18277000  1.0
  O  O158  1  0.08981000  0.34480000  0.68276000  1.0
  O  O159  1  0.41024000  0.84479000  0.81722000  1.0
  O  O160  1  0.73463000  0.71957000  0.39279000  1.0
  O  O161  1  0.76540000  0.21956000  0.10722000  1.0
  O  O162  1  0.26538000  0.28045000  0.60722000  1.0
  O  O163  1  0.23466000  0.78042000  0.89278000  1.0
  O  O164  1  0.74074000  0.71988000  0.64609000  1.0
  O  O165  1  0.75919000  0.21997000  0.85389000  1.0
  O  O166  1  0.25917000  0.27999000  0.35389000  1.0
  O  O167  1  0.24077000  0.78009000  0.14609000  1.0
  O  O168  1  0.92472000  0.66555000  0.71567000  1.0
  O  O169  1  0.57526000  0.16553000  0.78433000  1.0
  O  O170  1  0.07528000  0.33448000  0.28433000  1.0
  O  O171  1  0.42469000  0.83444000  0.21568000  1.0
  O  O172  1  0.36726000  0.53741000  0.57077000  1.0
  O  O173  1  0.13278000  0.03743000  0.92926000  1.0
  O  O174  1  0.63277000  0.46259000  0.42924000  1.0
  O  O175  1  0.86728000  0.96259000  0.07077000  1.0
  O  O176  1  0.36662000  0.53398000  0.44562000  1.0
  O  O177  1  0.13344000  0.03401000  0.05442000  1.0
  O  O178  1  0.63341000  0.46600000  0.55439000  1.0
  O  O179  1  0.86664000  0.96597000  0.94562000  1.0
