# generated using pymatgen
data_Zn2H24C35N3O8
_symmetry_space_group_name_H-M   'P 1'
_cell_length_a   13.94550000
_cell_length_b   14.12440000
_cell_length_c   16.12490000
_cell_angle_alpha   109.56400000
_cell_angle_beta   90.00000000
_cell_angle_gamma   89.99980000
_symmetry_Int_Tables_number   1
_chemical_formula_structural   Zn2H24C35N3O8
_chemical_formula_sum   'Zn8 H96 C140 N12 O32'
_cell_volume   2992.78547789
_cell_formula_units_Z   4
loop_
 _symmetry_equiv_pos_site_id
 _symmetry_equiv_pos_as_xyz
  1  'x, y, z'
loop_
 _atom_site_type_symbol
 _atom_site_label
 _atom_site_symmetry_multiplicity
 _atom_site_fract_x
 _atom_site_fract_y
 _atom_site_fract_z
 _atom_site_occupancy
  Zn  Zn0  1  0.74852000  0.75000000  0.25000000  1.0
  Zn  Zn1  1  0.25148000  0.25000000  0.75000000  1.0
  Zn  Zn2  1  0.95111000  0.75000000  0.25000000  1.0
  Zn  Zn3  1  0.04889000  0.25000000  0.75000000  1.0
  Zn  Zn4  1  0.50995000  0.89764000  0.00281000  1.0
  Zn  Zn5  1  0.50996000  0.60236000  0.49719000  1.0
  Zn  Zn6  1  0.49005000  0.10236000  0.99719000  1.0
  Zn  Zn7  1  0.49005000  0.39765000  0.50281000  1.0
  H  H8  1  0.93062000  0.78368000  0.98500000  1.0
  H  H9  1  0.93062000  0.71632000  0.51499000  1.0
  H  H10  1  0.06938000  0.21632000  0.01499000  1.0
  H  H11  1  0.06938000  0.28368000  0.48500000  1.0
  H  H12  1  0.75568000  0.92089000  0.05150000  1.0
  H  H13  1  0.75568000  0.57910000  0.44850000  1.0
  H  H14  1  0.24432000  0.07910000  0.94851000  1.0
  H  H15  1  0.24432000  0.42089000  0.55150000  1.0
  H  H16  1  0.99232000  0.89264000  0.94026000  1.0
  H  H17  1  0.99232000  0.60736000  0.55974000  1.0
  H  H18  1  0.00768000  0.10736000  0.05974000  1.0
  H  H19  1  0.00769000  0.39264000  0.44026000  1.0
  H  H20  1  0.04192000  0.97582000  0.83432000  1.0
  H  H21  1  0.04193000  0.52418000  0.66568000  1.0
  H  H22  1  0.95807000  0.02418000  0.16568000  1.0
  H  H23  1  0.95808000  0.47582000  0.33432000  1.0
  H  H24  1  0.92482000  0.07442000  0.78258000  1.0
  H  H25  1  0.92482000  0.42558000  0.71742000  1.0
  H  H26  1  0.07518000  0.92558000  0.21742000  1.0
  H  H27  1  0.07519000  0.57442000  0.28258000  1.0
  H  H28  1  0.75355000  0.08408000  0.83259000  1.0
  H  H29  1  0.75355000  0.41591000  0.66741000  1.0
  H  H30  1  0.24645000  0.91591000  0.16741000  1.0
  H  H31  1  0.24646000  0.58409000  0.33259000  1.0
  H  H32  1  0.94841000  0.44068000  0.03434000  1.0
  H  H33  1  0.94841000  0.05932000  0.46566000  1.0
  H  H34  1  0.05159000  0.55932000  0.96566000  1.0
  H  H35  1  0.05159000  0.94068000  0.53434000  1.0
  H  H36  1  0.94054000  0.25619000  0.95980000  1.0
  H  H37  1  0.94055000  0.24380000  0.54020000  1.0
  H  H38  1  0.05945000  0.74380000  0.04021000  1.0
  H  H39  1  0.05945000  0.75620000  0.45980000  1.0
  H  H40  1  0.83946000  0.15184000  0.02450000  1.0
  H  H41  1  0.83946000  0.34816000  0.47550000  1.0
  H  H42  1  0.16054000  0.84816000  0.97550000  1.0
  H  H43  1  0.16054000  0.65185000  0.52450000  1.0
  H  H44  1  0.74302000  0.23305000  0.15743000  1.0
  H  H45  1  0.74302000  0.26695000  0.34257000  1.0
  H  H46  1  0.25698000  0.76695000  0.84258000  1.0
  H  H47  1  0.25698000  0.73306000  0.65742000  1.0
  H  H48  1  0.73571000  0.51018000  0.28342000  1.0
  H  H49  1  0.73570000  0.98982000  0.21659000  1.0
  H  H50  1  0.26430000  0.48982000  0.71659000  1.0
  H  H51  1  0.26430000  0.01018000  0.78341000  1.0
  H  H52  1  0.62167000  0.31142000  0.22358000  1.0
  H  H53  1  0.62167000  0.18859000  0.27643000  1.0
  H  H54  1  0.37834000  0.68859000  0.77642000  1.0
  H  H55  1  0.37833000  0.81142000  0.72357000  1.0
  H  H56  1  0.10346000  0.61667000  0.14470000  1.0
  H  H57  1  0.10345000  0.88333000  0.35531000  1.0
  H  H58  1  0.89654000  0.38333000  0.85530000  1.0
  H  H59  1  0.89655000  0.11667000  0.64470000  1.0
  H  H60  1  0.28195000  0.60710000  0.14293000  1.0
  H  H61  1  0.28195000  0.89290000  0.35708000  1.0
  H  H62  1  0.71804000  0.39290000  0.85707000  1.0
  H  H63  1  0.71805000  0.10709000  0.64292000  1.0
  H  H64  1  0.41808000  0.88642000  0.21671000  1.0
  H  H65  1  0.41808000  0.61358000  0.28329000  1.0
  H  H66  1  0.58192000  0.11357000  0.78329000  1.0
  H  H67  1  0.58192000  0.38642000  0.71671000  1.0
  H  H68  1  0.59599000  0.88172000  0.21881000  1.0
  H  H69  1  0.59599000  0.61828000  0.28119000  1.0
  H  H70  1  0.40401000  0.11828000  0.78119000  1.0
  H  H71  1  0.40401000  0.38172000  0.71881000  1.0
  H  H72  1  0.37099000  0.73314000  0.95435000  1.0
  H  H73  1  0.37100000  0.76686000  0.54565000  1.0
  H  H74  1  0.62901000  0.26686000  0.04565000  1.0
  H  H75  1  0.62901000  0.23314000  0.45435000  1.0
  H  H76  1  0.35785000  0.55684000  0.94841000  1.0
  H  H77  1  0.35785000  0.94317000  0.55159000  1.0
  H  H78  1  0.64215000  0.44317000  0.05159000  1.0
  H  H79  1  0.64215000  0.05684000  0.44841000  1.0
  H  H80  1  0.64727000  0.58543000  0.05442000  1.0
  H  H81  1  0.64727000  0.91457000  0.44558000  1.0
  H  H82  1  0.35273000  0.41458000  0.94559000  1.0
  H  H83  1  0.35273000  0.08543000  0.55441000  1.0
  H  H84  1  0.64887000  0.75772000  0.05151000  1.0
  H  H85  1  0.64887000  0.74228000  0.44849000  1.0
  H  H86  1  0.35113000  0.24227000  0.94849000  1.0
  H  H87  1  0.35113000  0.25773000  0.55152000  1.0
  H  H88  1  0.57331000  0.54851000  0.82477000  1.0
  H  H89  1  0.57331000  0.95149000  0.67522000  1.0
  H  H90  1  0.42668000  0.45149000  0.17523000  1.0
  H  H91  1  0.42668000  0.04852000  0.32477000  1.0
  H  H92  1  0.57067000  0.67193000  0.74572000  1.0
  H  H93  1  0.57067000  0.82807000  0.75427000  1.0
  H  H94  1  0.42932000  0.32806000  0.25428000  1.0
  H  H95  1  0.42932000  0.17194000  0.24572000  1.0
  H  H96  1  0.87024000  0.72846000  0.81131000  1.0
  H  H97  1  0.87024000  0.77153000  0.68868000  1.0
  H  H98  1  0.12975000  0.27154000  0.18868000  1.0
  H  H99  1  0.12975000  0.22846000  0.31132000  1.0
  H  H100  1  0.86166000  0.59970000  0.88437000  1.0
  H  H101  1  0.86166000  0.90030000  0.61562000  1.0
  H  H102  1  0.13833000  0.40031000  0.11562000  1.0
  H  H103  1  0.13833000  0.09970000  0.38437000  1.0
  C  C104  1  0.85477000  0.78531000  0.10274000  1.0
  C  C105  1  0.85477000  0.71469000  0.39725000  1.0
  C  C106  1  0.14523000  0.21469000  0.89726000  1.0
  C  C107  1  0.14523000  0.28531000  0.60275000  1.0
  C  C108  1  0.86899000  0.81751000  0.02565000  1.0
  C  C109  1  0.86899000  0.68249000  0.47435000  1.0
  C  C110  1  0.13101000  0.18249000  0.97435000  1.0
  C  C111  1  0.13102000  0.31751000  0.52565000  1.0
  C  C112  1  0.81777000  0.89052000  0.00998000  1.0
  C  C113  1  0.81777000  0.60948000  0.49002000  1.0
  C  C114  1  0.18223000  0.10948000  0.99002000  1.0
  C  C115  1  0.18224000  0.39052000  0.50998000  1.0
  C  C116  1  0.84314000  0.93481000  0.94281000  1.0
  C  C117  1  0.84314000  0.56519000  0.55719000  1.0
  C  C118  1  0.15686000  0.06519000  0.05719000  1.0
  C  C119  1  0.15687000  0.43481000  0.44281000  1.0
  C  C120  1  0.93892000  0.93112000  0.91385000  1.0
  C  C121  1  0.93892000  0.56888000  0.58615000  1.0
  C  C122  1  0.06108000  0.06888000  0.08615000  1.0
  C  C123  1  0.06109000  0.43111000  0.41385000  1.0
  C  C124  1  0.96745000  0.97947000  0.85570000  1.0
  C  C125  1  0.96746000  0.52053000  0.64430000  1.0
  C  C126  1  0.03254000  0.02053000  0.14430000  1.0
  C  C127  1  0.03255000  0.47947000  0.35570000  1.0
  C  C128  1  0.90110000  0.03568000  0.82684000  1.0
  C  C129  1  0.90110000  0.46433000  0.67316000  1.0
  C  C130  1  0.09890000  0.96432000  0.17316000  1.0
  C  C131  1  0.09891000  0.53567000  0.32684000  1.0
  C  C132  1  0.80618000  0.04083000  0.85474000  1.0
  C  C133  1  0.80619000  0.45917000  0.64526000  1.0
  C  C134  1  0.19382000  0.95918000  0.14526000  1.0
  C  C135  1  0.19382000  0.54083000  0.35474000  1.0
  C  C136  1  0.77577000  0.98909000  0.91045000  1.0
  C  C137  1  0.77578000  0.51090000  0.58955000  1.0
  C  C138  1  0.22422000  0.01091000  0.08955000  1.0
  C  C139  1  0.22423000  0.48910000  0.41045000  1.0
  C  C140  1  0.67167000  0.99127000  0.93423000  1.0
  C  C141  1  0.67168000  0.50873000  0.56577000  1.0
  C  C142  1  0.32833000  0.00872000  0.06577000  1.0
  C  C143  1  0.32833000  0.49127000  0.43423000  1.0
  C  C144  1  0.84679000  0.55478000  0.17282000  1.0
  C  C145  1  0.84680000  0.94522000  0.32718000  1.0
  C  C146  1  0.15321000  0.44522000  0.82718000  1.0
  C  C147  1  0.15321000  0.05479000  0.67282000  1.0
  C  C148  1  0.84383000  0.44235000  0.13311000  1.0
  C  C149  1  0.84383000  0.05765000  0.36689000  1.0
  C  C150  1  0.15617000  0.55766000  0.86689000  1.0
  C  C151  1  0.15617000  0.94235000  0.63311000  1.0
  C  C152  1  0.90142000  0.39506000  0.05988000  1.0
  C  C153  1  0.90142000  0.10494000  0.44012000  1.0
  C  C154  1  0.09859000  0.60494000  0.94013000  1.0
  C  C155  1  0.09858000  0.89507000  0.55988000  1.0
  C  C156  1  0.89782000  0.29115000  0.01873000  1.0
  C  C157  1  0.89783000  0.20885000  0.48127000  1.0
  C  C158  1  0.10218000  0.70885000  0.98127000  1.0
  C  C159  1  0.10217000  0.79115000  0.51873000  1.0
  C  C160  1  0.84085000  0.23328000  0.05475000  1.0
  C  C161  1  0.84085000  0.26672000  0.44525000  1.0
  C  C162  1  0.15915000  0.76672000  0.94525000  1.0
  C  C163  1  0.15915000  0.73329000  0.55475000  1.0
  C  C164  1  0.78526000  0.27940000  0.12885000  1.0
  C  C165  1  0.78526000  0.22060000  0.37115000  1.0
  C  C166  1  0.21474000  0.72060000  0.87116000  1.0
  C  C167  1  0.21474000  0.77940000  0.62884000  1.0
  C  C168  1  0.78243000  0.38487000  0.16762000  1.0
  C  C169  1  0.78242000  0.11513000  0.33238000  1.0
  C  C170  1  0.21758000  0.61514000  0.83238000  1.0
  C  C171  1  0.21758000  0.88487000  0.66762000  1.0
  C  C172  1  0.71912000  0.43302000  0.24225000  1.0
  C  C173  1  0.71912000  0.06698000  0.25776000  1.0
  C  C174  1  0.28088000  0.56698000  0.75776000  1.0
  C  C175  1  0.28088000  0.93302000  0.74224000  1.0
  C  C176  1  0.64239000  0.38769000  0.26348000  1.0
  C  C177  1  0.64239000  0.11231000  0.23652000  1.0
  C  C178  1  0.35761000  0.61231000  0.73652000  1.0
  C  C179  1  0.35761000  0.88769000  0.76348000  1.0
  C  C180  1  0.58704000  0.43201000  0.34601000  1.0
  C  C181  1  0.58704000  0.06800000  0.15399000  1.0
  C  C182  1  0.41296000  0.56799000  0.65399000  1.0
  C  C183  1  0.41296000  0.93201000  0.84601000  1.0
  C  C184  1  0.14649000  0.67518000  0.19107000  1.0
  C  C185  1  0.14648000  0.82481000  0.30894000  1.0
  C  C186  1  0.85351000  0.32481000  0.80893000  1.0
  C  C187  1  0.85352000  0.17518000  0.69107000  1.0
  C  C188  1  0.24598000  0.67145000  0.18973000  1.0
  C  C189  1  0.24598000  0.82855000  0.31028000  1.0
  C  C190  1  0.75402000  0.32854000  0.81027000  1.0
  C  C191  1  0.75402000  0.17145000  0.68972000  1.0
  C  C192  1  0.29719000  0.75000000  0.25000000  1.0
  C  C193  1  0.70281000  0.24999000  0.74999000  1.0
  C  C194  1  0.40320000  0.75000000  0.25000000  1.0
  C  C195  1  0.59680000  0.24999000  0.75000000  1.0
  C  C196  1  0.45459000  0.82677000  0.23307000  1.0
  C  C197  1  0.45459000  0.67323000  0.26693000  1.0
  C  C198  1  0.54541000  0.17322000  0.76693000  1.0
  C  C199  1  0.54541000  0.32677000  0.73307000  1.0
  C  C200  1  0.55415000  0.82417000  0.23365000  1.0
  C  C201  1  0.55416000  0.67583000  0.26635000  1.0
  C  C202  1  0.44584000  0.17582000  0.76635000  1.0
  C  C203  1  0.44585000  0.32417000  0.73365000  1.0
  C  C204  1  0.43073000  0.69636000  0.97468000  1.0
  C  C205  1  0.43074000  0.80364000  0.52532000  1.0
  C  C206  1  0.56926000  0.30364000  0.02532000  1.0
  C  C207  1  0.56926000  0.19637000  0.47468000  1.0
  C  C208  1  0.42404000  0.59761000  0.97267000  1.0
  C  C209  1  0.42404000  0.90240000  0.52734000  1.0
  C  C210  1  0.57596000  0.40239000  0.02734000  1.0
  C  C211  1  0.57596000  0.09761000  0.47266000  1.0
  C  C212  1  0.50196000  0.55282000  0.00095000  1.0
  C  C213  1  0.50197000  0.94718000  0.49905000  1.0
  C  C214  1  0.49803000  0.44718000  0.99906000  1.0
  C  C215  1  0.49803000  0.05282000  0.50094000  1.0
  C  C216  1  0.58373000  0.61277000  0.03039000  1.0
  C  C217  1  0.58373000  0.88723000  0.46961000  1.0
  C  C218  1  0.41627000  0.38723000  0.96961000  1.0
  C  C219  1  0.41627000  0.11277000  0.53039000  1.0
  C  C220  1  0.58551000  0.71077000  0.02930000  1.0
  C  C221  1  0.58551000  0.78923000  0.47070000  1.0
  C  C222  1  0.41449000  0.28923000  0.97071000  1.0
  C  C223  1  0.41449000  0.21077000  0.52930000  1.0
  C  C224  1  0.63859000  0.58933000  0.82016000  1.0
  C  C225  1  0.63859000  0.91066000  0.67984000  1.0
  C  C226  1  0.36141000  0.41066000  0.17984000  1.0
  C  C227  1  0.36141000  0.08934000  0.32016000  1.0
  C  C228  1  0.63638000  0.65957000  0.77707000  1.0
  C  C229  1  0.63638000  0.84042000  0.72292000  1.0
  C  C230  1  0.36361000  0.34042000  0.22292000  1.0
  C  C231  1  0.36362000  0.15958000  0.27707000  1.0
  C  C232  1  0.72049000  0.71222000  0.77237000  1.0
  C  C233  1  0.72049000  0.78777000  0.72763000  1.0
  C  C234  1  0.27950000  0.28777000  0.22763000  1.0
  C  C235  1  0.27950000  0.21222000  0.27237000  1.0
  C  C236  1  0.80284000  0.68965000  0.81175000  1.0
  C  C237  1  0.80284000  0.81035000  0.68824000  1.0
  C  C238  1  0.19716000  0.31035000  0.18824000  1.0
  C  C239  1  0.19715000  0.18965000  0.31175000  1.0
  C  C240  1  0.79768000  0.61783000  0.85345000  1.0
  C  C241  1  0.79768000  0.88217000  0.64655000  1.0
  C  C242  1  0.20231000  0.38217000  0.14654000  1.0
  C  C243  1  0.20231000  0.11783000  0.35345000  1.0
  N  N244  1  0.09752000  0.75000000  0.25000000  1.0
  N  N245  1  0.90247000  0.25000000  0.75000000  1.0
  N  N246  1  0.60291000  0.75000000  0.25000000  1.0
  N  N247  1  0.39709000  0.25000000  0.75000000  1.0
  N  N248  1  0.51037000  0.75229000  0.00192000  1.0
  N  N249  1  0.51037000  0.74772000  0.49808000  1.0
  N  N250  1  0.48963000  0.24771000  0.99808000  1.0
  N  N251  1  0.48963000  0.25229000  0.50192000  1.0
  N  N252  1  0.71739000  0.56775000  0.85855000  1.0
  N  N253  1  0.71739000  0.93225000  0.64145000  1.0
  N  N254  1  0.28260000  0.43225000  0.14145000  1.0
  N  N255  1  0.28261000  0.06775000  0.35855000  1.0
  O  O256  1  0.77517000  0.80126000  0.14432000  1.0
  O  O257  1  0.77516000  0.69874000  0.35568000  1.0
  O  O258  1  0.22484000  0.19874000  0.85568000  1.0
  O  O259  1  0.22484000  0.30126000  0.64432000  1.0
  O  O260  1  0.92831000  0.74425000  0.12438000  1.0
  O  O261  1  0.92831000  0.75574000  0.37562000  1.0
  O  O262  1  0.07169000  0.25575000  0.87562000  1.0
  O  O263  1  0.07169000  0.24426000  0.62438000  1.0
  O  O264  1  0.63842000  0.91329000  0.94691000  1.0
  O  O265  1  0.63843000  0.58671000  0.55310000  1.0
  O  O266  1  0.36158000  0.08671000  0.05309000  1.0
  O  O267  1  0.36159000  0.41329000  0.44691000  1.0
  O  O268  1  0.62444000  0.07048000  0.93976000  1.0
  O  O269  1  0.62445000  0.42952000  0.56024000  1.0
  O  O270  1  0.37556000  0.92952000  0.06024000  1.0
  O  O271  1  0.37557000  0.57048000  0.43976000  1.0
  O  O272  1  0.76927000  0.60176000  0.17062000  1.0
  O  O273  1  0.76927000  0.89824000  0.32938000  1.0
  O  O274  1  0.23073000  0.39824000  0.82938000  1.0
  O  O275  1  0.23073000  0.10176000  0.67062000  1.0
  O  O276  1  0.92630000  0.59386000  0.20533000  1.0
  O  O277  1  0.92630000  0.90613000  0.29467000  1.0
  O  O278  1  0.07370000  0.40614000  0.79467000  1.0
  O  O279  1  0.07370000  0.09387000  0.70533000  1.0
  O  O280  1  0.57669000  0.52709000  0.37750000  1.0
  O  O281  1  0.57668000  0.97291000  0.12250000  1.0
  O  O282  1  0.42332000  0.47291000  0.62250000  1.0
  O  O283  1  0.42332000  0.02709000  0.87750000  1.0
  O  O284  1  0.55518000  0.36828000  0.37991000  1.0
  O  O285  1  0.55518000  0.13173000  0.12009000  1.0
  O  O286  1  0.44482000  0.63172000  0.62008000  1.0
  O  O287  1  0.44482000  0.86828000  0.87991000  1.0
