# generated using pymatgen
data_Al6H80C105O37
_symmetry_space_group_name_H-M   'P 1'
_cell_length_a   13.17490000
_cell_length_b   13.35188757
_cell_length_c   27.42130000
_cell_angle_alpha   89.89616095
_cell_angle_beta   89.52020000
_cell_angle_gamma   61.03948533
_symmetry_Int_Tables_number   1
_chemical_formula_structural   Al6H80C105O37
_chemical_formula_sum   'Al6 H80 C105 O37'
_cell_volume   4220.32994566
_cell_formula_units_Z   1
loop_
 _symmetry_equiv_pos_site_id
 _symmetry_equiv_pos_as_xyz
  1  'x, y, z'
loop_
 _atom_site_type_symbol
 _atom_site_label
 _atom_site_symmetry_multiplicity
 _atom_site_fract_x
 _atom_site_fract_y
 _atom_site_fract_z
 _atom_site_occupancy
  Al  Al0  1  0.57765000  0.57529000  0.50047000  1.0
  Al  Al1  1  0.81970000  0.57634000  0.50094000  1.0
  Al  Al2  1  0.60142000  0.80272000  0.49923000  1.0
  Al  Al3  1  0.08442000  0.07988000  0.01379000  1.0
  Al  Al4  1  0.84811000  0.06526000  0.01758000  1.0
  Al  Al5  1  0.07241000  0.84515000  0.01608000  1.0
  H  H6  1  0.66001000  0.87810000  0.81265000  1.0
  H  H7  1  0.02558000  0.75435000  0.78952000  1.0
  H  H8  1  0.21031000  0.02177000  0.79606000  1.0
  H  H9  1  0.81110000  0.15939000  0.78325000  1.0
  H  H10  1  0.75373000  0.03485000  0.14770000  1.0
  H  H11  1  0.19923000  0.73014000  0.15110000  1.0
  H  H12  1  0.03793000  0.22183000  0.14139000  1.0
  H  H13  1  0.70741000  0.95416000  0.38817000  1.0
  H  H14  1  0.36290000  0.67005000  0.38777000  1.0
  H  H15  1  0.98160000  0.36667000  0.38045000  1.0
  H  H16  1  0.67757000  0.11343000  0.22935000  1.0
  H  H17  1  0.42895000  0.65623000  0.80454000  1.0
  H  H18  1  0.21069000  0.64235000  0.23298000  1.0
  H  H19  1  0.12457000  0.24602000  0.21775000  1.0
  H  H20  1  0.67086000  0.08772000  0.31837000  1.0
  H  H21  1  0.26491000  0.62404000  0.32002000  1.0
  H  H22  1  0.10917000  0.28793000  0.30573000  1.0
  H  H23  1  0.99341000  0.67564000  0.12962000  1.0
  H  H24  1  0.25127000  0.02182000  0.13815000  1.0
  H  H25  1  0.70089000  0.24658000  0.14427000  1.0
  H  H26  1  0.64057000  0.87502000  0.72783000  1.0
  H  H27  1  0.46436000  0.65105000  0.72041000  1.0
  H  H28  1  0.80287000  0.47633000  0.82033000  1.0
  H  H29  1  0.82323000  0.50241000  0.73684000  1.0
  H  H30  1  0.94296000  0.59457000  0.37078000  1.0
  H  H31  1  0.40849000  0.96671000  0.37591000  1.0
  H  H32  1  0.65094000  0.37671000  0.38538000  1.0
  H  H33  1  0.89592000  0.92221000  0.70403000  1.0
  H  H34  1  0.16386000  0.89335000  0.70012000  1.0
  H  H35  1  0.97783000  0.18576000  0.71097000  1.0
  H  H36  1  0.74296000  0.99144000  0.70397000  1.0
  H  H37  1  0.24957000  0.74294000  0.70047000  1.0
  H  H38  1  0.00111000  0.30435000  0.71644000  1.0
  H  H39  1  0.72216000  0.72475000  0.73059000  1.0
  H  H40  1  0.73401000  0.01515000  0.78912000  1.0
  H  H41  1  0.21671000  0.73882000  0.78449000  1.0
  H  H42  1  0.99407000  0.29967000  0.80233000  1.0
  H  H43  1  0.88459000  0.96753000  0.78705000  1.0
  H  H44  1  0.12497000  0.88872000  0.78341000  1.0
  H  H45  1  0.00099000  0.16508000  0.79596000  1.0
  H  H46  1  0.01117000  0.70969000  0.70828000  1.0
  H  H47  1  0.25294000  0.01664000  0.71260000  1.0
  H  H48  1  0.78358000  0.21005000  0.70084000  1.0
  H  H49  1  0.97671000  0.65673000  0.80629000  1.0
  H  H50  1  0.52924000  0.73829000  0.72964000  1.0
  H  H51  1  0.35977000  0.96380000  0.80844000  1.0
  H  H52  1  0.67621000  0.28269000  0.79509000  1.0
  H  H53  1  0.21828000  0.44406000  0.22636000  1.0
  H  H54  1  0.20500000  0.53214000  0.17426000  1.0
  H  H55  1  0.20574000  0.39859000  0.16641000  1.0
  H  H56  1  0.48952000  0.05631000  0.19084000  1.0
  H  H57  1  0.38545000  0.15297000  0.14793000  1.0
  H  H58  1  0.42022000  0.00586000  0.14897000  1.0
  H  H59  1  0.44402000  0.47200000  0.21059000  1.0
  H  H60  1  0.43268000  0.37370000  0.16904000  1.0
  H  H61  1  0.68226000  0.52060000  0.72910000  1.0
  H  H62  1  0.54502000  0.41154000  0.16089000  1.0
  H  H63  1  0.12563000  0.54717000  0.35377000  1.0
  H  H64  1  0.22395000  0.48161000  0.30350000  1.0
  H  H65  1  0.18679000  0.39640000  0.34255000  1.0
  H  H66  1  0.52456000  0.02566000  0.29862000  1.0
  H  H67  1  0.44491000  0.15008000  0.26134000  1.0
  H  H68  1  0.45474000  0.16545000  0.32570000  1.0
  H  H69  1  0.47947000  0.48956000  0.33149000  1.0
  H  H70  1  0.41168000  0.43940000  0.28863000  1.0
  H  H71  1  0.40964000  0.41108000  0.35282000  1.0
  H  H72  1  0.75819000  0.72942000  0.81345000  1.0
  H  H73  1  0.09875000  0.49871000  0.75888000  1.0
  H  H74  1  0.10698000  0.51745000  0.69420000  1.0
  H  H75  1  0.04439000  0.43361000  0.71694000  1.0
  H  H76  1  0.37632000  0.10864000  0.76480000  1.0
  H  H77  1  0.33853000  0.12840000  0.70126000  1.0
  H  H78  1  0.48668000  0.07283000  0.71908000  1.0
  H  H79  1  0.56392000  0.25278000  0.73172000  1.0
  H  H80  1  0.61412000  0.24041000  0.66965000  1.0
  H  H81  1  0.48344000  0.36452000  0.68878000  1.0
  H  H82  1  0.48883000  0.74806000  0.81313000  1.0
  H  H83  1  0.67223000  0.47257000  0.81034000  1.0
  H  H84  1  0.46480000  0.49589000  0.52971000  1.0
  H  H85  1  0.13247000  0.22368000  0.03053000  1.0
  C  C86  1  0.45920000  0.77680000  0.56857000  1.0
  C  C87  1  0.85229000  0.85048000  0.85696000  1.0
  C  C88  1  0.15410000  0.48057000  0.32542000  1.0
  C  C89  1  0.44848000  0.11144000  0.29712000  1.0
  C  C90  1  0.46049000  0.41989000  0.32289000  1.0
  C  C91  1  0.05397000  0.50944000  0.72379000  1.0
  C  C92  1  0.40503000  0.07317000  0.72774000  1.0
  C  C93  1  0.57082000  0.30085000  0.70009000  1.0
  C  C94  1  0.27710000  0.84095000  0.85524000  1.0
  C  C95  1  0.83166000  0.28020000  0.85811000  1.0
  C  C96  1  0.81291000  0.79311000  0.65965000  1.0
  C  C97  1  0.37590000  0.82498000  0.65851000  1.0
  C  C98  1  0.81422000  0.37562000  0.66168000  1.0
  C  C99  1  0.80188000  0.78243000  0.61628000  1.0
  C  C100  1  0.40469000  0.81096000  0.61579000  1.0
  C  C101  1  0.80494000  0.40183000  0.61887000  1.0
  C  C102  1  0.88718000  0.19349000  0.08681000  1.0
  C  C103  1  0.77856000  0.45168000  0.57103000  1.0
  C  C104  1  0.89249000  0.88138000  0.08262000  1.0
  C  C105  1  0.19151000  0.89003000  0.08801000  1.0
  C  C106  1  0.87612000  0.19955000  0.94789000  1.0
  C  C107  1  0.89257000  0.88957000  0.94741000  1.0
  C  C108  1  0.20757000  0.87742000  0.94730000  1.0
  C  C109  1  0.76732000  0.88341000  0.36506000  1.0
  C  C110  1  0.35508000  0.74176000  0.36591000  1.0
  C  C111  1  0.91584000  0.35374000  0.36203000  1.0
  C  C112  1  0.78368000  0.90300000  0.31608000  1.0
  C  C113  1  0.31110000  0.75929000  0.31851000  1.0
  C  C114  1  0.77736000  0.75878000  0.56802000  1.0
  C  C115  1  0.93290000  0.31596000  0.31338000  1.0
  C  C116  1  0.79663000  0.93513000  0.21405000  1.0
  C  C117  1  0.24877000  0.78068000  0.21813000  1.0
  C  C118  1  0.95205000  0.26434000  0.21194000  1.0
  C  C119  1  0.45926000  0.77998000  0.43209000  1.0
  C  C120  1  0.78184000  0.44198000  0.43397000  1.0
  C  C121  1  0.79269000  0.74847000  0.43324000  1.0
  C  C122  1  0.72791000  0.02947000  0.24571000  1.0
  C  C123  1  0.24131000  0.69747000  0.24891000  1.0
  C  C124  1  0.04558000  0.26509000  0.23786000  1.0
  C  C125  1  0.95465000  0.73423000  0.78494000  1.0
  C  C126  1  0.72327000  0.01468000  0.29475000  1.0
  C  C127  1  0.27099000  0.68739000  0.29690000  1.0
  C  C128  1  0.03681000  0.28871000  0.28656000  1.0
  C  C129  1  0.80207000  0.94994000  0.16369000  1.0
  C  C130  1  0.22389000  0.78876000  0.16821000  1.0
  C  C131  1  0.95975000  0.23992000  0.16195000  1.0
  C  C132  1  0.87431000  0.85717000  0.13384000  1.0
  C  C133  1  0.22696000  0.87471000  0.14010000  1.0
  C  C134  1  0.86938000  0.23380000  0.13824000  1.0
  C  C135  1  0.90232000  0.68007000  0.35517000  1.0
  C  C136  1  0.29676000  0.95046000  0.78731000  1.0
  C  C137  1  0.38129000  0.90954000  0.35947000  1.0
  C  C138  1  0.72826000  0.35990000  0.36454000  1.0
  C  C139  1  0.92116000  0.69634000  0.30605000  1.0
  C  C140  1  0.33920000  0.92860000  0.31162000  1.0
  C  C141  1  0.74101000  0.32549000  0.31575000  1.0
  C  C142  1  0.85722000  0.80798000  0.28551000  1.0
  C  C143  1  0.30972000  0.84931000  0.28975000  1.0
  C  C144  1  0.84112000  0.30896000  0.28890000  1.0
  C  C145  1  0.99671000  0.60241000  0.27472000  1.0
  C  C146  1  0.33317000  0.02163000  0.28272000  1.0
  C  C147  1  0.76270000  0.25270000  0.77883000  1.0
  C  C148  1  0.65122000  0.31441000  0.29089000  1.0
  C  C149  1  0.99794000  0.61668000  0.22485000  1.0
  C  C150  1  0.31442000  0.02557000  0.23315000  1.0
  C  C151  1  0.65402000  0.30272000  0.24101000  1.0
  C  C152  1  0.93217000  0.72854000  0.20345000  1.0
  C  C153  1  0.28528000  0.94553000  0.21039000  1.0
  C  C154  1  0.75541000  0.28345000  0.21325000  1.0
  C  C155  1  0.72319000  0.80394000  0.74005000  1.0
  C  C156  1  0.45064000  0.73181000  0.73671000  1.0
  C  C157  1  0.76871000  0.46217000  0.74316000  1.0
  C  C158  1  0.94047000  0.71107000  0.73081000  1.0
  C  C159  1  0.86296000  0.82381000  0.23456000  1.0
  C  C160  1  0.28121000  0.85861000  0.23956000  1.0
  C  C161  1  0.84926000  0.28578000  0.23815000  1.0
  C  C162  1  0.93825000  0.74696000  0.15339000  1.0
  C  C163  1  0.25535000  0.95341000  0.16107000  1.0
  C  C164  1  0.76801000  0.25529000  0.16357000  1.0
  C  C165  1  0.82381000  0.77233000  0.38398000  1.0
  C  C166  1  0.39439000  0.81356000  0.38536000  1.0
  C  C167  1  0.81228000  0.38014000  0.38651000  1.0
  C  C168  1  0.82007000  0.92325000  0.72164000  1.0
  C  C169  1  0.32610000  0.94707000  0.73234000  1.0
  C  C170  1  0.23682000  0.82165000  0.71849000  1.0
  C  C171  1  0.94610000  0.26886000  0.72942000  1.0
  C  C172  1  0.81795000  0.94439000  0.77714000  1.0
  C  C173  1  0.21229000  0.82010000  0.77369000  1.0
  C  C174  1  0.95127000  0.25554000  0.78541000  1.0
  C  C175  1  0.86540000  0.86483000  0.89976000  1.0
  C  C176  1  0.25437000  0.84898000  0.89858000  1.0
  C  C177  1  0.84248000  0.25257000  0.90079000  1.0
  C  C178  1  0.82373000  0.80729000  0.71152000  1.0
  C  C179  1  0.34796000  0.83193000  0.71009000  1.0
  C  C180  1  0.74917000  0.28697000  0.72438000  1.0
  C  C181  1  0.81984000  0.34925000  0.71317000  1.0
  C  C182  1  0.73927000  0.81027000  0.79557000  1.0
  C  C183  1  0.42493000  0.73625000  0.79197000  1.0
  C  C184  1  0.76259000  0.43731000  0.79784000  1.0
  C  C185  1  0.84098000  0.83470000  0.80529000  1.0
  C  C186  1  0.30247000  0.83668000  0.80350000  1.0
  C  C187  1  0.82642000  0.30642000  0.80660000  1.0
  C  C188  1  0.17791000  0.47299000  0.19045000  1.0
  C  C189  1  0.40838000  0.07876000  0.17149000  1.0
  C  C190  1  0.49286000  0.39492000  0.18791000  1.0
  O  O191  1  0.68078000  0.47657000  0.55367000  1.0
  O  O192  1  0.68012000  0.47646000  0.45011000  1.0
  O  O193  1  0.85978000  0.65060000  0.45213000  1.0
  O  O194  1  0.49367000  0.84835000  0.44965000  1.0
  O  O195  1  0.48093000  0.68487000  0.45036000  1.0
  O  O196  1  0.85847000  0.46193000  0.45425000  1.0
  O  O197  1  0.69775000  0.82409000  0.45278000  1.0
  O  O198  1  0.66718000  0.65253000  0.50071000  1.0
  O  O199  1  0.17792000  0.97965000  0.06684000  1.0
  O  O200  1  0.81120000  0.16957000  0.06857000  1.0
  O  O201  1  0.98496000  0.80815000  0.06049000  1.0
  O  O202  1  0.84972000  0.66345000  0.54853000  1.0
  O  O203  1  0.97753000  0.18011000  0.06467000  1.0
  O  O204  1  0.81911000  0.97778000  0.06444000  1.0
  O  O205  1  0.17325000  0.81226000  0.06835000  1.0
  O  O206  1  0.00063000  0.99579000  0.01574000  1.0
  O  O207  1  0.97778000  0.17161000  0.96118000  1.0
  O  O208  1  0.81866000  0.98319000  0.96774000  1.0
  O  O209  1  0.19070000  0.80209000  0.97031000  1.0
  O  O210  1  0.05417000  0.52590000  0.19331000  1.0
  O  O211  1  0.31336000  0.11291000  0.20569000  1.0
  O  O212  1  0.56373000  0.29738000  0.21789000  1.0
  O  O213  1  0.48308000  0.84765000  0.54594000  1.0
  O  O214  1  0.06057000  0.49518000  0.29442000  1.0
  O  O215  1  0.34496000  0.10453000  0.30745000  1.0
  O  O216  1  0.56528000  0.31268000  0.31920000  1.0
  O  O217  1  0.94035000  0.60502000  0.72439000  1.0
  O  O218  1  0.42743000  0.95810000  0.72410000  1.0
  O  O219  1  0.63117000  0.36145000  0.71181000  1.0
  O  O220  1  0.18266000  0.97565000  0.96271000  1.0
  O  O221  1  0.80163000  0.18079000  0.97151000  1.0
  O  O222  1  0.99148000  0.81825000  0.96464000  1.0
  O  O223  1  0.48308000  0.67795000  0.55402000  1.0
  O  O224  1  0.85654000  0.47058000  0.55067000  1.0
  O  O225  1  0.68164000  0.83314000  0.54909000  1.0
  O  O226  1  0.49542000  0.50362000  0.49863000  1.0
  O  O227  1  0.16375000  0.15425000  0.01136000  1.0
