# generated using pymatgen
data_ZnH12C22N3O10
_symmetry_space_group_name_H-M   'P 1'
_cell_length_a   14.17800000
_cell_length_b   15.18890000
_cell_length_c   19.29520000
_cell_angle_alpha   87.64910000
_cell_angle_beta   89.11770000
_cell_angle_gamma   89.97020000
_symmetry_Int_Tables_number   1
_chemical_formula_structural   ZnH12C22N3O10
_chemical_formula_sum   'Zn2 H24 C44 N6 O20'
_cell_volume   4151.19757548
_cell_formula_units_Z   2
loop_
 _symmetry_equiv_pos_site_id
 _symmetry_equiv_pos_as_xyz
  1  'x, y, z'
loop_
 _atom_site_type_symbol
 _atom_site_label
 _atom_site_symmetry_multiplicity
 _atom_site_fract_x
 _atom_site_fract_y
 _atom_site_fract_z
 _atom_site_occupancy
  Zn  Zn0  1  0.60885000  0.50433000  0.50177000  1.0
  Zn  Zn1  1  0.39611000  0.50361000  0.50142000  1.0
  H  H2  1  0.63987000  0.54325000  0.85007000  1.0
  H  H3  1  0.41954000  0.59864000  0.14527000  1.0
  H  H4  1  0.59958000  0.36857000  0.16087000  1.0
  H  H5  1  0.35414000  0.44326000  0.85119000  1.0
  H  H6  1  0.62854000  0.21726000  0.56038000  1.0
  H  H7  1  0.36775000  0.77622000  0.54798000  1.0
  H  H8  1  0.63185000  0.78607000  0.43121000  1.0
  H  H9  1  0.37135000  0.23717000  0.44170000  1.0
  H  H10  1  0.06935000  0.36348000  0.53815000  1.0
  H  H11  1  0.93907000  0.56784000  0.40196000  1.0
  H  H12  1  0.06827000  0.63903000  0.46946000  1.0
  H  H13  1  0.93205000  0.43236000  0.60442000  1.0
  H  H14  1  0.64277000  0.61115000  0.66315000  1.0
  H  H15  1  0.41660000  0.63530000  0.33707000  1.0
  H  H16  1  0.60051000  0.35913000  0.35640000  1.0
  H  H17  1  0.34429000  0.40762000  0.66494000  1.0
  H  H18  1  0.62244000  0.98414000  0.55997000  1.0
  H  H19  1  0.36358000  0.00815000  0.55795000  1.0
  H  H20  1  0.62465000  0.01939000  0.41773000  1.0
  H  H21  1  0.36977000  0.00731000  0.41816000  1.0
  H  H22  1  0.31796000  0.35513000  0.53211000  1.0
  H  H23  1  0.69250000  0.55490000  0.38890000  1.0
  H  H24  1  0.31679000  0.64951000  0.46980000  1.0
  H  H25  1  0.68458000  0.44366000  0.61267000  1.0
  C  C26  1  0.50404000  0.33398000  0.50574000  1.0
  C  C27  1  0.50442000  0.67371000  0.49252000  1.0
  C  C28  1  0.50007000  0.23625000  0.50185000  1.0
  C  C29  1  0.50027000  0.77192000  0.48979000  1.0
  C  C30  1  0.49698000  0.05318000  0.49219000  1.0
  C  C31  1  0.49578000  0.95596000  0.48869000  1.0
  C  C32  1  0.10420000  0.42530000  0.52338000  1.0
  C  C33  1  0.90213000  0.53914000  0.44723000  1.0
  C  C34  1  0.10369000  0.57755000  0.48363000  1.0
  C  C35  1  0.89834000  0.46125000  0.55863000  1.0
  C  C36  1  0.20260000  0.42744000  0.52115000  1.0
  C  C37  1  0.80380000  0.53672000  0.44744000  1.0
  C  C38  1  0.20209000  0.57630000  0.48411000  1.0
  C  C39  1  0.80000000  0.46345000  0.55663000  1.0
  C  C40  1  0.05419000  0.50112000  0.50377000  1.0
  C  C41  1  0.94992000  0.50053000  0.50345000  1.0
  C  C42  1  0.49813000  0.50743000  0.63624000  1.0
  C  C43  1  0.50593000  0.49776000  0.36664000  1.0
  C  C44  1  0.57611000  0.53331000  0.75062000  1.0
  C  C45  1  0.46035000  0.55673000  0.24792000  1.0
  C  C46  1  0.55961000  0.42568000  0.25700000  1.0
  C  C47  1  0.41697000  0.47218000  0.75086000  1.0
  C  C48  1  0.57714000  0.52270000  0.82294000  1.0
  C  C49  1  0.45940000  0.54996000  0.17591000  1.0
  C  C50  1  0.56054000  0.42170000  0.18463000  1.0
  C  C51  1  0.41706000  0.46735000  0.82333000  1.0
  C  C52  1  0.49796000  0.48971000  0.85945000  1.0
  C  C53  1  0.50927000  0.48272000  0.14406000  1.0
  C  C54  1  0.49712000  0.50469000  0.71395000  1.0
  C  C55  1  0.50939000  0.49353000  0.28886000  1.0
  C  C56  1  0.50473000  0.47559000  0.06840000  1.0
  C  C57  1  0.49903000  0.47900000  0.93553000  1.0
  C  C58  1  0.56802000  0.09465000  0.53016000  1.0
  C  C59  1  0.42401000  0.90547000  0.52316000  1.0
  C  C60  1  0.56890000  0.91128000  0.45365000  1.0
  C  C61  1  0.42736000  0.10643000  0.45950000  1.0
  C  C62  1  0.57173000  0.18619000  0.53297000  1.0
  C  C63  1  0.42430000  0.81365000  0.52183000  1.0
  C  C64  1  0.57327000  0.81937000  0.45620000  1.0
  C  C65  1  0.42666000  0.19769000  0.46620000  1.0
  C  C66  1  0.65638000  0.58241000  0.71602000  1.0
  C  C67  1  0.41130000  0.63217000  0.27966000  1.0
  C  C68  1  0.60735000  0.35494000  0.29904000  1.0
  C  C69  1  0.33205000  0.43688000  0.71616000  1.0
  N  N70  1  0.41756000  0.49406000  0.97035000  1.0
  N  N71  1  0.58177000  0.44691000  0.03405000  1.0
  N  N72  1  0.42039000  0.49278000  0.03864000  1.0
  N  N73  1  0.57920000  0.44906000  0.96556000  1.0
  N  N74  1  0.25191000  0.50208000  0.50214000  1.0
  N  N75  1  0.75270000  0.50068000  0.50186000  1.0
  O  O76  1  0.58184000  0.37181000  0.49219000  1.0
  O  O77  1  0.42820000  0.63242000  0.47835000  1.0
  O  O78  1  0.58151000  0.63684000  0.50823000  1.0
  O  O79  1  0.42761000  0.37419000  0.52261000  1.0
  O  O80  1  0.57543000  0.48502000  0.60617000  1.0
  O  O81  1  0.42918000  0.47740000  0.39705000  1.0
  O  O82  1  0.58136000  0.52183000  0.39620000  1.0
  O  O83  1  0.42345000  0.52988000  0.60527000  1.0
  O  O84  1  0.73154000  0.59451000  0.74432000  1.0
  O  O85  1  0.36832000  0.68875000  0.24608000  1.0
  O  O86  1  0.65081000  0.29422000  0.27364000  1.0
  O  O87  1  0.25363000  0.43667000  0.74332000  1.0
  O  O88  1  0.63492000  0.04696000  0.56488000  1.0
  O  O89  1  0.35310000  0.94439000  0.55917000  1.0
  O  O90  1  0.63797000  0.95615000  0.41736000  1.0
  O  O91  1  0.35866000  0.07071000  0.42078000  1.0
  O  O92  1  0.24750000  0.35261000  0.53841000  1.0
  O  O93  1  0.76031000  0.57157000  0.39167000  1.0
  O  O94  1  0.24636000  0.65153000  0.46593000  1.0
  O  O95  1  0.75245000  0.42691000  0.61092000  1.0
