# generated using pymatgen
data_ZnH12C19NO4
_symmetry_space_group_name_H-M   'P 1'
_cell_length_a   13.95480000
_cell_length_b   15.32260000
_cell_length_c   15.35650000
_cell_angle_alpha   88.16290000
_cell_angle_beta   85.25330000
_cell_angle_gamma   85.62540000
_symmetry_Int_Tables_number   1
_chemical_formula_structural   ZnH12C19NO4
_chemical_formula_sum   'Zn4 H48 C76 N4 O16'
_cell_volume   3261.69489219
_cell_formula_units_Z   4
loop_
 _symmetry_equiv_pos_site_id
 _symmetry_equiv_pos_as_xyz
  1  'x, y, z'
loop_
 _atom_site_type_symbol
 _atom_site_label
 _atom_site_symmetry_multiplicity
 _atom_site_fract_x
 _atom_site_fract_y
 _atom_site_fract_z
 _atom_site_occupancy
  Zn  Zn0  1  0.10858000  0.40025000  0.16346000  1.0
  Zn  Zn1  1  0.31153000  0.38608000  0.14883000  1.0
  Zn  Zn2  1  0.89142000  0.59975000  0.83654000  1.0
  Zn  Zn3  1  0.68847000  0.61392000  0.85117000  1.0
  H  H4  1  0.07288000  0.12591000  0.23704000  1.0
  H  H5  1  0.07171000  0.96352000  0.24289000  1.0
  H  H6  1  0.35635000  0.94408000  0.10883000  1.0
  H  H7  1  0.36443000  0.81771000  0.18005000  1.0
  H  H8  1  0.35811000  0.10627000  0.10897000  1.0
  H  H9  1  0.35945000  0.65666000  0.16872000  1.0
  H  H10  1  0.05292000  0.68757000  0.15544000  1.0
  H  H11  1  0.05647000  0.84836000  0.16388000  1.0
  H  H12  1  0.06367000  0.38963000  0.89318000  1.0
  H  H13  1  0.37251000  0.38554000  0.86093000  1.0
  H  H14  1  0.36690000  0.38622000  0.69981000  1.0
  H  H15  1  0.05641000  0.38746000  0.73349000  1.0
  H  H16  1  0.06807000  0.46060000  0.60971000  1.0
  H  H17  1  0.06312000  0.46305000  0.44824000  1.0
  H  H18  1  0.97261000  0.39547000  0.02517000  1.0
  H  H19  1  0.94192000  0.39741000  0.29523000  1.0
  H  H20  1  0.76345000  0.39455000  0.29840000  1.0
  H  H21  1  0.79691000  0.38624000  0.01556000  1.0
  H  H22  1  0.63165000  0.33545000  0.28733000  1.0
  H  H23  1  0.65200000  0.43685000  0.02004000  1.0
  H  H24  1  0.45352000  0.33747000  0.27840000  1.0
  H  H25  1  0.47459000  0.42557000  0.02121000  1.0
  H  H26  1  0.34048000  0.32137000  0.42189000  1.0
  H  H27  1  0.34490000  0.31418000  0.58317000  1.0
  H  H28  1  0.92712000  0.87409000  0.76296000  1.0
  H  H29  1  0.92829000  0.03648000  0.75711000  1.0
  H  H30  1  0.64365000  0.05592000  0.89117000  1.0
  H  H31  1  0.63557000  0.18229000  0.81996000  1.0
  H  H32  1  0.64189000  0.89373000  0.89103000  1.0
  H  H33  1  0.64055000  0.34334000  0.83128000  1.0
  H  H34  1  0.94708000  0.31243000  0.84456000  1.0
  H  H35  1  0.94353000  0.15165000  0.83611000  1.0
  H  H36  1  0.93633000  0.61037000  0.10682000  1.0
  H  H37  1  0.62749000  0.61446000  0.13906000  1.0
  H  H38  1  0.63310000  0.61378000  0.30019000  1.0
  H  H39  1  0.94359000  0.61254000  0.26651000  1.0
  H  H40  1  0.93193000  0.53940000  0.39029000  1.0
  H  H41  1  0.93688000  0.53695000  0.55176000  1.0
  H  H42  1  0.02739000  0.60453000  0.97482000  1.0
  H  H43  1  0.05809000  0.60258000  0.70477000  1.0
  H  H44  1  0.23655000  0.60544000  0.70161000  1.0
  H  H45  1  0.20309000  0.61376000  0.98443000  1.0
  H  H46  1  0.36835000  0.66455000  0.71267000  1.0
  H  H47  1  0.34800000  0.56316000  0.97997000  1.0
  H  H48  1  0.54648000  0.66252000  0.72160000  1.0
  H  H49  1  0.52541000  0.57444000  0.97879000  1.0
  H  H50  1  0.65951000  0.67863000  0.57811000  1.0
  H  H51  1  0.65510000  0.68582000  0.41683000  1.0
  C  C52  1  0.21478000  0.22366000  0.16652000  1.0
  C  C53  1  0.21521000  0.12588000  0.17205000  1.0
  C  C54  1  0.13470000  0.08505000  0.20967000  1.0
  C  C55  1  0.13420000  0.99427000  0.21183000  1.0
  C  C56  1  0.29455000  0.98325000  0.13883000  1.0
  C  C57  1  0.20452000  0.56476000  0.15414000  1.0
  C  C58  1  0.20616000  0.66194000  0.16070000  1.0
  C  C59  1  0.29591000  0.78982000  0.17332000  1.0
  C  C60  1  0.29571000  0.07395000  0.13782000  1.0
  C  C61  1  0.29366000  0.69967000  0.16746000  1.0
  C  C62  1  0.12095000  0.71668000  0.16060000  1.0
  C  C63  1  0.12330000  0.80688000  0.16623000  1.0
  C  C64  1  0.21086000  0.84547000  0.17228000  1.0
  C  C65  1  0.21345000  0.94155000  0.17513000  1.0
  C  C66  1  0.22143000  0.39019000  0.98458000  1.0
  C  C67  1  0.21861000  0.38673000  0.88753000  1.0
  C  C68  1  0.13009000  0.38738000  0.85050000  1.0
  C  C69  1  0.30374000  0.38526000  0.83214000  1.0
  C  C70  1  0.30010000  0.38501000  0.74194000  1.0
  C  C71  1  0.12635000  0.38703000  0.76043000  1.0
  C  C72  1  0.21136000  0.38611000  0.70424000  1.0
  C  C73  1  0.20751000  0.38802000  0.60850000  1.0
  C  C74  1  0.12785000  0.42917000  0.56896000  1.0
  C  C75  1  0.12488000  0.43115000  0.47855000  1.0
  C  C76  1  0.20189000  0.39316000  0.42484000  1.0
  C  C77  1  0.92305000  0.39394000  0.08376000  1.0
  C  C78  1  0.90565000  0.39527000  0.23514000  1.0
  C  C79  1  0.80647000  0.39220000  0.23597000  1.0
  C  C80  1  0.76365000  0.38910000  0.15665000  1.0
  C  C81  1  0.82471000  0.38953000  0.07937000  1.0
  C  C82  1  0.65839000  0.38619000  0.15413000  1.0
  C  C83  1  0.60044000  0.35788000  0.22715000  1.0
  C  C84  1  0.61231000  0.41178000  0.07843000  1.0
  C  C85  1  0.50151000  0.35744000  0.22285000  1.0
  C  C86  1  0.51324000  0.40786000  0.07884000  1.0
  C  C87  1  0.20048000  0.39607000  0.32733000  1.0
  C  C88  1  0.28135000  0.35195000  0.46375000  1.0
  C  C89  1  0.28383000  0.34889000  0.55403000  1.0
  C  C90  1  0.78522000  0.77634000  0.83348000  1.0
  C  C91  1  0.78479000  0.87412000  0.82795000  1.0
  C  C92  1  0.86530000  0.91495000  0.79033000  1.0
  C  C93  1  0.86580000  0.00573000  0.78817000  1.0
  C  C94  1  0.70545000  0.01675000  0.86117000  1.0
  C  C95  1  0.79548000  0.43524000  0.84586000  1.0
  C  C96  1  0.79385000  0.33806000  0.83931000  1.0
  C  C97  1  0.70409000  0.21018000  0.82668000  1.0
  C  C98  1  0.70428000  0.92606000  0.86218000  1.0
  C  C99  1  0.70634000  0.30033000  0.83255000  1.0
  C  C100  1  0.87905000  0.28332000  0.83940000  1.0
  C  C101  1  0.87670000  0.19312000  0.83376000  1.0
  C  C102  1  0.78914000  0.15453000  0.82772000  1.0
  C  C103  1  0.78655000  0.05845000  0.82487000  1.0
  C  C104  1  0.77858000  0.60981000  0.01542000  1.0
  C  C105  1  0.78139000  0.61327000  0.11247000  1.0
  C  C106  1  0.86991000  0.61262000  0.14950000  1.0
  C  C107  1  0.69626000  0.61474000  0.16786000  1.0
  C  C108  1  0.69990000  0.61499000  0.25806000  1.0
  C  C109  1  0.87365000  0.61297000  0.23957000  1.0
  C  C110  1  0.78864000  0.61389000  0.29576000  1.0
  C  C111  1  0.79249000  0.61198000  0.39150000  1.0
  C  C112  1  0.87215000  0.57083000  0.43104000  1.0
  C  C113  1  0.87512000  0.56885000  0.52144000  1.0
  C  C114  1  0.79810000  0.60684000  0.57516000  1.0
  C  C115  1  0.07695000  0.60606000  0.91624000  1.0
  C  C116  1  0.09435000  0.60473000  0.76486000  1.0
  C  C117  1  0.19353000  0.60779000  0.76403000  1.0
  C  C118  1  0.23635000  0.61089000  0.84335000  1.0
  C  C119  1  0.17529000  0.61047000  0.92063000  1.0
  C  C120  1  0.34161000  0.61381000  0.84587000  1.0
  C  C121  1  0.39956000  0.64212000  0.77285000  1.0
  C  C122  1  0.38769000  0.58822000  0.92157000  1.0
  C  C123  1  0.49849000  0.64256000  0.77715000  1.0
  C  C124  1  0.48676000  0.59214000  0.92116000  1.0
  C  C125  1  0.79952000  0.60393000  0.67267000  1.0
  C  C126  1  0.71865000  0.64805000  0.53625000  1.0
  C  C127  1  0.71617000  0.65111000  0.44597000  1.0
  N  N128  1  0.96299000  0.39657000  0.16034000  1.0
  N  N129  1  0.45848000  0.38210000  0.14989000  1.0
  N  N130  1  0.03701000  0.60344000  0.83965000  1.0
  N  N131  1  0.54152000  0.61790000  0.85011000  1.0
  O  O132  1  0.30241000  0.40075000  0.01424000  1.0
  O  O133  1  0.14204000  0.38329000  0.03068000  1.0
  O  O134  1  0.13529000  0.26742000  0.18712000  1.0
  O  O135  1  0.29420000  0.25596000  0.14068000  1.0
  O  O136  1  0.28011000  0.37546000  0.28347000  1.0
  O  O137  1  0.12048000  0.41880000  0.29542000  1.0
  O  O138  1  0.28517000  0.52001000  0.15718000  1.0
  O  O139  1  0.12367000  0.53385000  0.14505000  1.0
  O  O140  1  0.69760000  0.59925000  0.98576000  1.0
  O  O141  1  0.85796000  0.61671000  0.96932000  1.0
  O  O142  1  0.86471000  0.73258000  0.81288000  1.0
  O  O143  1  0.70580000  0.74404000  0.85932000  1.0
  O  O144  1  0.71989000  0.62455000  0.71653000  1.0
  O  O145  1  0.87952000  0.58120000  0.70458000  1.0
  O  O146  1  0.71483000  0.47999000  0.84282000  1.0
  O  O147  1  0.87634000  0.46615000  0.85495000  1.0
