# generated using pymatgen
data_CuH12C8O5
_symmetry_space_group_name_H-M   'P 1'
_cell_length_a   6.82683000
_cell_length_b   8.52502000
_cell_length_c   8.54775000
_cell_angle_alpha   72.50960000
_cell_angle_beta   84.29520000
_cell_angle_gamma   85.43210000
_symmetry_Int_Tables_number   1
_chemical_formula_structural   CuH12C8O5
_chemical_formula_sum   'Cu2 H24 C16 O10'
_cell_volume   471.47051887
_cell_formula_units_Z   2
loop_
 _symmetry_equiv_pos_site_id
 _symmetry_equiv_pos_as_xyz
  1  'x, y, z'
loop_
 _atom_site_type_symbol
 _atom_site_label
 _atom_site_symmetry_multiplicity
 _atom_site_fract_x
 _atom_site_fract_y
 _atom_site_fract_z
 _atom_site_occupancy
  Cu  Cu0  1  0.16045000  0.96646000  0.07191000  1.0
  Cu  Cu1  1  0.83957000  0.03353000  0.92810000  1.0
  H  H2  1  0.49896000  0.00425000  0.18990000  1.0
  H  H3  1  0.50101000  0.99575000  0.81011000  1.0
  H  H4  1  0.52009000  0.83762000  0.15871000  1.0
  H  H5  1  0.47987000  0.16238000  0.84129000  1.0
  H  H6  1  0.68518000  0.07883000  0.46285000  1.0
  H  H7  1  0.31483000  0.92117000  0.53715000  1.0
  H  H8  1  0.02085000  0.16520000  0.47820000  1.0
  H  H9  1  0.97916000  0.83480000  0.52181000  1.0
  H  H10  1  0.83084000  0.28183000  0.55298000  1.0
  H  H11  1  0.16916000  0.71816000  0.44702000  1.0
  H  H12  1  0.05784000  0.38864000  0.21156000  1.0
  H  H13  1  0.94218000  0.61136000  0.78845000  1.0
  H  H14  1  0.08596000  0.46578000  0.37681000  1.0
  H  H15  1  0.91405000  0.53422000  0.62320000  1.0
  H  H16  1  0.73891000  0.57378000  0.37601000  1.0
  H  H17  1  0.26110000  0.42622000  0.62399000  1.0
  H  H18  1  0.71446000  0.45232000  0.07582000  1.0
  H  H19  1  0.28556000  0.54768000  0.92418000  1.0
  H  H20  1  0.52778000  0.56683000  0.15770000  1.0
  H  H21  1  0.47223000  0.43318000  0.84230000  1.0
  H  H22  1  0.50241000  0.34142000  0.42280000  1.0
  H  H23  1  0.49760000  0.65859000  0.57719000  1.0
  H  H24  1  0.46485000  0.26805000  0.25578000  1.0
  H  H25  1  0.53516000  0.73195000  0.74422000  1.0
  C  C26  1  0.74454000  0.18662000  0.36696000  1.0
  C  C27  1  0.25547000  0.81338000  0.63304000  1.0
  C  C28  1  0.90000000  0.25728000  0.44043000  1.0
  C  C29  1  0.10001000  0.74272000  0.55957000  1.0
  C  C30  1  0.97849000  0.41531000  0.32024000  1.0
  C  C31  1  0.02153000  0.58470000  0.67976000  1.0
  C  C32  1  0.80946000  0.54378000  0.26508000  1.0
  C  C33  1  0.19054000  0.45622000  0.73492000  1.0
  C  C34  1  0.65137000  0.47584000  0.19096000  1.0
  C  C35  1  0.34864000  0.52416000  0.80904000  1.0
  C  C36  1  0.57585000  0.31587000  0.31152000  1.0
  C  C37  1  0.42416000  0.68413000  0.68848000  1.0
  C  C38  1  0.83595000  0.11732000  0.22846000  1.0
  C  C39  1  0.16408000  0.88268000  0.77154000  1.0
  C  C40  1  0.88232000  0.70987000  0.15637000  1.0
  C  C41  1  0.11770000  0.29013000  0.84363000  1.0
  O  O42  1  0.42441000  0.90471000  0.20939000  1.0
  O  O43  1  0.57556000  0.09528000  0.79062000  1.0
  O  O44  1  0.01435000  0.06398000  0.23571000  1.0
  O  O45  1  0.98559000  0.93605000  0.76427000  1.0
  O  O46  1  0.72408000  0.11576000  0.11718000  1.0
  O  O47  1  0.27589000  0.88424000  0.88281000  1.0
  O  O48  1  0.05353000  0.74486000  0.17549000  1.0
  O  O49  1  0.94642000  0.25513000  0.82450000  1.0
  O  O50  1  0.76147000  0.80393000  0.05956000  1.0
  O  O51  1  0.23850000  0.19608000  0.94042000  1.0
