# generated using pymatgen
data_CdH14C17N6Cl2O
_symmetry_space_group_name_H-M   'P 1'
_cell_length_a   7.85246000
_cell_length_b   8.45123000
_cell_length_c   13.76710000
_cell_angle_alpha   87.11090000
_cell_angle_beta   89.98150000
_cell_angle_gamma   72.54500000
_symmetry_Int_Tables_number   1
_chemical_formula_structural   CdH14C17N6Cl2O
_chemical_formula_sum   'Cd2 H28 C34 N12 Cl4 O2'
_cell_volume   870.34269891
_cell_formula_units_Z   2
loop_
 _symmetry_equiv_pos_site_id
 _symmetry_equiv_pos_as_xyz
  1  'x, y, z'
loop_
 _atom_site_type_symbol
 _atom_site_label
 _atom_site_symmetry_multiplicity
 _atom_site_fract_x
 _atom_site_fract_y
 _atom_site_fract_z
 _atom_site_occupancy
  Cd  Cd0  1  0.20838000  0.80346000  0.52273000  1.0
  Cd  Cd1  1  0.79162000  0.19654000  0.47728000  1.0
  H  H2  1  0.59793000  0.66474000  0.45893000  1.0
  H  H3  1  0.40207000  0.33526000  0.54107000  1.0
  H  H4  1  0.60452000  0.81292000  0.52293000  1.0
  H  H5  1  0.39548000  0.18708000  0.47707000  1.0
  H  H6  1  0.42276000  0.67424000  0.71078000  1.0
  H  H7  1  0.57724000  0.32576000  0.28922000  1.0
  H  H8  1  0.16994000  0.16208000  0.62064000  1.0
  H  H9  1  0.83006000  0.83792000  0.37936000  1.0
  H  H10  1  0.27650000  0.26998000  0.76785000  1.0
  H  H11  1  0.72350000  0.73002000  0.23215000  1.0
  H  H12  1  0.46664000  0.06397000  0.89248000  1.0
  H  H13  1  0.53337000  0.93603000  0.10752000  1.0
  H  H14  1  0.77114000  0.42013000  0.16906000  1.0
  H  H15  1  0.22885000  0.57987000  0.83094000  1.0
  H  H16  1  0.00263000  0.16297000  0.23532000  1.0
  H  H17  1  0.99736000  0.83702000  0.76468000  1.0
  H  H18  1  0.21256000  0.98545000  0.11675000  1.0
  H  H19  1  0.78743000  0.01454000  0.88325000  1.0
  H  H20  1  0.17811000  0.07063000  0.94124000  1.0
  H  H21  1  0.82189000  0.92937000  0.05876000  1.0
  H  H22  1  0.59509000  0.30059000  0.84758000  1.0
  H  H23  1  0.40491000  0.69942000  0.15242000  1.0
  H  H24  1  0.66485000  0.15262000  0.69128000  1.0
  H  H25  1  0.33515000  0.84739000  0.30872000  1.0
  H  H26  1  0.89860000  0.49940000  0.57699000  1.0
  H  H27  1  0.10141000  0.50060000  0.42301000  1.0
  H  H28  1  0.84940000  0.65346000  0.72768000  1.0
  H  H29  1  0.15060000  0.34654000  0.27232000  1.0
  C  C30  1  0.39790000  0.80425000  0.72668000  1.0
  C  C31  1  0.60210000  0.19575000  0.27332000  1.0
  C  C32  1  0.25327000  0.07797000  0.67628000  1.0
  C  C33  1  0.74673000  0.92203000  0.32372000  1.0
  C  C34  1  0.31309000  0.13697000  0.75822000  1.0
  C  C35  1  0.68692000  0.86303000  0.24177000  1.0
  C  C36  1  0.41887000  0.02320000  0.82664000  1.0
  C  C37  1  0.58113000  0.97680000  0.17336000  1.0
  C  C38  1  0.46126000  0.85237000  0.81167000  1.0
  C  C39  1  0.53873000  0.14763000  0.18833000  1.0
  C  C40  1  0.55237000  0.73574000  0.89042000  1.0
  C  C41  1  0.44762000  0.26426000  0.10959000  1.0
  C  C42  1  0.71764000  0.52515000  0.98219000  1.0
  C  C43  1  0.28236000  0.47485000  0.01781000  1.0
  C  C44  1  0.85175000  0.37389000  0.01999000  1.0
  C  C45  1  0.14825000  0.62611000  0.98001000  1.0
  C  C46  1  0.86218000  0.33753000  0.12091000  1.0
  C  C47  1  0.13782000  0.66246000  0.87909000  1.0
  C  C48  1  0.99238000  0.19596000  0.15738000  1.0
  C  C49  1  0.00762000  0.80404000  0.84262000  1.0
  C  C50  1  0.10899000  0.09810000  0.09237000  1.0
  C  C51  1  0.89101000  0.90189000  0.90763000  1.0
  C  C52  1  0.08898000  0.14558000  0.99341000  1.0
  C  C53  1  0.91102000  0.85442000  0.00659000  1.0
  C  C54  1  0.72013000  0.48620000  0.79987000  1.0
  C  C55  1  0.27987000  0.51380000  0.20013000  1.0
  C  C56  1  0.66781000  0.34370000  0.78990000  1.0
  C  C57  1  0.33218000  0.65630000  0.21010000  1.0
  C  C58  1  0.70382000  0.26370000  0.70320000  1.0
  C  C59  1  0.29618000  0.73630000  0.29680000  1.0
  C  C60  1  0.83429000  0.45653000  0.63864000  1.0
  C  C61  1  0.16571000  0.54347000  0.36135000  1.0
  C  C62  1  0.80613000  0.54334000  0.72352000  1.0
  C  C63  1  0.19387000  0.45666000  0.27648000  1.0
  N  N64  1  0.29583000  0.91494000  0.66112000  1.0
  N  N65  1  0.70417000  0.08506000  0.33887000  1.0
  N  N66  1  0.52411000  0.77216000  0.98293000  1.0
  N  N67  1  0.47589000  0.22784000  0.01707000  1.0
  N  N68  1  0.62758000  0.64219000  0.03961000  1.0
  N  N69  1  0.37242000  0.35781000  0.96039000  1.0
  N  N70  1  0.67321000  0.57818000  0.88586000  1.0
  N  N71  1  0.32679000  0.42182000  0.11414000  1.0
  N  N72  1  0.96344000  0.28004000  0.95662000  1.0
  N  N73  1  0.03657000  0.71996000  0.04338000  1.0
  N  N74  1  0.78445000  0.31943000  0.62832000  1.0
  N  N75  1  0.21556000  0.68057000  0.37169000  1.0
  Cl  Cl76  1  0.85672000  0.89896000  0.57052000  1.0
  Cl  Cl77  1  0.14327000  0.10104000  0.42948000  1.0
  Cl  Cl78  1  0.24459000  0.52440000  0.61840000  1.0
  Cl  Cl79  1  0.75541000  0.47560000  0.38160000  1.0
  O  O80  1  0.52226000  0.76260000  0.49216000  1.0
  O  O81  1  0.47774000  0.23740000  0.50784000  1.0
