# generated using pymatgen
data_CdH15C16N4Cl
_symmetry_space_group_name_H-M   'P 1'
_cell_length_a   10.28210000
_cell_length_b   11.35710000
_cell_length_c   13.46730000
_cell_angle_alpha   90.00000000
_cell_angle_beta   90.00000000
_cell_angle_gamma   92.34690000
_symmetry_Int_Tables_number   1
_chemical_formula_structural   CdH15C16N4Cl
_chemical_formula_sum   'Cd4 H60 C64 N16 Cl4'
_cell_volume   1571.32265857
_cell_formula_units_Z   4
loop_
 _symmetry_equiv_pos_site_id
 _symmetry_equiv_pos_as_xyz
  1  'x, y, z'
loop_
 _atom_site_type_symbol
 _atom_site_label
 _atom_site_symmetry_multiplicity
 _atom_site_fract_x
 _atom_site_fract_y
 _atom_site_fract_z
 _atom_site_occupancy
  Cd  Cd0  1  0.76230000  0.36886000  0.60783000  1.0
  Cd  Cd1  1  0.73770000  0.63114000  0.10783000  1.0
  Cd  Cd2  1  0.23770000  0.63114000  0.39217000  1.0
  Cd  Cd3  1  0.26230000  0.36886000  0.89217000  1.0
  H  H4  1  0.05518000  0.16687000  0.00073000  1.0
  H  H5  1  0.44482000  0.83313000  0.50073000  1.0
  H  H6  1  0.94482000  0.83313000  0.99927000  1.0
  H  H7  1  0.55518000  0.16687000  0.49927000  1.0
  H  H8  1  0.86420000  0.02782000  0.02598000  1.0
  H  H9  1  0.63579000  0.97218000  0.52598000  1.0
  H  H10  1  0.13580000  0.97218000  0.97402000  1.0
  H  H11  1  0.36421000  0.02782000  0.47402000  1.0
  H  H12  1  0.68379000  0.01490000  0.90387000  1.0
  H  H13  1  0.81621000  0.98510000  0.40387000  1.0
  H  H14  1  0.31621000  0.98510000  0.09613000  1.0
  H  H15  1  0.18379000  0.01490000  0.59613000  1.0
  H  H16  1  0.68842000  0.13874000  0.75206000  1.0
  H  H17  1  0.81158000  0.86126000  0.25206000  1.0
  H  H18  1  0.31158000  0.86126000  0.24794000  1.0
  H  H19  1  0.18842000  0.13874000  0.74794000  1.0
  H  H20  1  0.14796000  0.39487000  0.61708000  1.0
  H  H21  1  0.35204000  0.60513000  0.11708000  1.0
  H  H22  1  0.85204000  0.60513000  0.38292000  1.0
  H  H23  1  0.64796000  0.39487000  0.88292000  1.0
  H  H24  1  0.16386000  0.49355000  0.71961000  1.0
  H  H25  1  0.33614000  0.50645000  0.21961000  1.0
  H  H26  1  0.83614000  0.50645000  0.28039000  1.0
  H  H27  1  0.66386000  0.49355000  0.78039000  1.0
  H  H28  1  0.02772000  0.49949000  0.63765000  1.0
  H  H29  1  0.47228000  0.50051000  0.13765000  1.0
  H  H30  1  0.97228000  0.50051000  0.36235000  1.0
  H  H31  1  0.52772000  0.49949000  0.86235000  1.0
  H  H32  1  0.98959000  0.17489000  0.53122000  1.0
  H  H33  1  0.51041000  0.82511000  0.03122000  1.0
  H  H34  1  0.01041000  0.82511000  0.46878000  1.0
  H  H35  1  0.48959000  0.17489000  0.96878000  1.0
  H  H36  1  0.12418000  0.05572000  0.41847000  1.0
  H  H37  1  0.37582000  0.94428000  0.91847000  1.0
  H  H38  1  0.87582000  0.94428000  0.58153000  1.0
  H  H39  1  0.62418000  0.05572000  0.08153000  1.0
  H  H40  1  0.89582000  0.15281000  0.16312000  1.0
  H  H41  1  0.60418000  0.84719000  0.66312000  1.0
  H  H42  1  0.10419000  0.84719000  0.83688000  1.0
  H  H43  1  0.39581000  0.15281000  0.33688000  1.0
  H  H44  1  0.51965000  0.38381000  0.44748000  1.0
  H  H45  1  0.98035000  0.61619000  0.94748000  1.0
  H  H46  1  0.48036000  0.61619000  0.55251000  1.0
  H  H47  1  0.01965000  0.38381000  0.05252000  1.0
  H  H48  1  0.53293000  0.42113000  0.32001000  1.0
  H  H49  1  0.96707000  0.57887000  0.82001000  1.0
  H  H50  1  0.46708000  0.57887000  0.67998000  1.0
  H  H51  1  0.03293000  0.42113000  0.17999000  1.0
  H  H52  1  0.62370000  0.50476000  0.41082000  1.0
  H  H53  1  0.87630000  0.49524000  0.91082000  1.0
  H  H54  1  0.37630000  0.49524000  0.58918000  1.0
  H  H55  1  0.12370000  0.50476000  0.08918000  1.0
  H  H56  1  0.07796000  0.04234000  0.23836000  1.0
  H  H57  1  0.42204000  0.95766000  0.73836000  1.0
  H  H58  1  0.92204000  0.95766000  0.76164000  1.0
  H  H59  1  0.57797000  0.04234000  0.26164000  1.0
  H  H60  1  0.70194000  0.31704000  0.22165000  1.0
  H  H61  1  0.79806000  0.68296000  0.72165000  1.0
  H  H62  1  0.29807000  0.68296000  0.77834000  1.0
  H  H63  1  0.20194000  0.31704000  0.27835000  1.0
  C  C64  1  0.97742000  0.23286000  0.86227000  1.0
  C  C65  1  0.52258000  0.76714000  0.36227000  1.0
  C  C66  1  0.02258000  0.76714000  0.13773000  1.0
  C  C67  1  0.47742000  0.23286000  0.63773000  1.0
  C  C68  1  0.97527000  0.16232000  0.94746000  1.0
  C  C69  1  0.52472000  0.83768000  0.44746000  1.0
  C  C70  1  0.02472000  0.83768000  0.05254000  1.0
  C  C71  1  0.47528000  0.16232000  0.55254000  1.0
  C  C72  1  0.86787000  0.08491000  0.96089000  1.0
  C  C73  1  0.63212000  0.91509000  0.46089000  1.0
  C  C74  1  0.13212000  0.91509000  0.03911000  1.0
  C  C75  1  0.36788000  0.08491000  0.53911000  1.0
  C  C76  1  0.76557000  0.07712000  0.89143000  1.0
  C  C77  1  0.73443000  0.92287000  0.39143000  1.0
  C  C78  1  0.23443000  0.92288000  0.10857000  1.0
  C  C79  1  0.26557000  0.07712000  0.60857000  1.0
  C  C80  1  0.76729000  0.14643000  0.80599000  1.0
  C  C81  1  0.73271000  0.85357000  0.30598000  1.0
  C  C82  1  0.23270000  0.85357000  0.19401000  1.0
  C  C83  1  0.26729000  0.14643000  0.69401000  1.0
  C  C84  1  0.87422000  0.22477000  0.79200000  1.0
  C  C85  1  0.62577000  0.77523000  0.29200000  1.0
  C  C86  1  0.12578000  0.77523000  0.20800000  1.0
  C  C87  1  0.37422000  0.22477000  0.70800000  1.0
  C  C88  1  0.02207000  0.35442000  0.73982000  1.0
  C  C89  1  0.47793000  0.64558000  0.23982000  1.0
  C  C90  1  0.97793000  0.64558000  0.26018000  1.0
  C  C91  1  0.52207000  0.35442000  0.76018000  1.0
  C  C92  1  0.09399000  0.44043000  0.67526000  1.0
  C  C93  1  0.40601000  0.55956000  0.17526000  1.0
  C  C94  1  0.90601000  0.55956000  0.32474000  1.0
  C  C95  1  0.59399000  0.44044000  0.82474000  1.0
  C  C96  1  0.86547000  0.22886000  0.40998000  1.0
  C  C97  1  0.63453000  0.77114000  0.90998000  1.0
  C  C98  1  0.13453000  0.77114000  0.59002000  1.0
  C  C99  1  0.36547000  0.22886000  0.09002000  1.0
  C  C100  1  0.96840000  0.16929000  0.45194000  1.0
  C  C101  1  0.53160000  0.83071000  0.95194000  1.0
  C  C102  1  0.03160000  0.83071000  0.54806000  1.0
  C  C103  1  0.46840000  0.16929000  0.04806000  1.0
  C  C104  1  0.04313000  0.10295000  0.38800000  1.0
  C  C105  1  0.45687000  0.89705000  0.88800000  1.0
  C  C106  1  0.95687000  0.89705000  0.61200000  1.0
  C  C107  1  0.54313000  0.10295000  0.11201000  1.0
  C  C108  1  0.91610000  0.15639000  0.24249000  1.0
  C  C109  1  0.58390000  0.84361000  0.74249000  1.0
  C  C110  1  0.08390000  0.84361000  0.75751000  1.0
  C  C111  1  0.41610000  0.15639000  0.25751000  1.0
  C  C112  1  0.84161000  0.22291000  0.30642000  1.0
  C  C113  1  0.65839000  0.77709000  0.80641000  1.0
  C  C114  1  0.15840000  0.77709000  0.69358000  1.0
  C  C115  1  0.34161000  0.22291000  0.19359000  1.0
  C  C116  1  0.69717000  0.33607000  0.37862000  1.0
  C  C117  1  0.80283000  0.66393000  0.87862000  1.0
  C  C118  1  0.30283000  0.66393000  0.62137000  1.0
  C  C119  1  0.19717000  0.33607000  0.12138000  1.0
  C  C120  1  0.58746000  0.41581000  0.38952000  1.0
  C  C121  1  0.91254000  0.58419000  0.88952000  1.0
  C  C122  1  0.41255000  0.58419000  0.61048000  1.0
  C  C123  1  0.08745000  0.41581000  0.11048000  1.0
  C  C124  1  0.01713000  0.09571000  0.28531000  1.0
  C  C125  1  0.48288000  0.90430000  0.78531000  1.0
  C  C126  1  0.98288000  0.90429000  0.71469000  1.0
  C  C127  1  0.51713000  0.09571000  0.21469000  1.0
  N  N128  1  0.77288000  0.29956000  0.45257000  1.0
  N  N129  1  0.72712000  0.70044000  0.95257000  1.0
  N  N130  1  0.22712000  0.70044000  0.54743000  1.0
  N  N131  1  0.27288000  0.29956000  0.04743000  1.0
  N  N132  1  0.06900000  0.31607000  0.82741000  1.0
  N  N133  1  0.43100000  0.68393000  0.32741000  1.0
  N  N134  1  0.93100000  0.68393000  0.17259000  1.0
  N  N135  1  0.56900000  0.31607000  0.67259000  1.0
  N  N136  1  0.73531000  0.29131000  0.29033000  1.0
  N  N137  1  0.76469000  0.70869000  0.79033000  1.0
  N  N138  1  0.26469000  0.70869000  0.70967000  1.0
  N  N139  1  0.23531000  0.29132000  0.20967000  1.0
  N  N140  1  0.90517000  0.30313000  0.71554000  1.0
  N  N141  1  0.59483000  0.69688000  0.21554000  1.0
  N  N142  1  0.09483000  0.69687000  0.28446000  1.0
  N  N143  1  0.40517000  0.30313000  0.78446000  1.0
  Cl  Cl144  1  0.79109000  0.58587000  0.58291000  1.0
  Cl  Cl145  1  0.70891000  0.41413000  0.08291000  1.0
  Cl  Cl146  1  0.20892000  0.41413000  0.41709000  1.0
  Cl  Cl147  1  0.29108000  0.58587000  0.91708000  1.0
