# generated using pymatgen
data_ZnH13C20(N3O2)2
_symmetry_space_group_name_H-M   'P 1'
_cell_length_a   9.93804000
_cell_length_b   10.14894259
_cell_length_c   11.10530000
_cell_angle_alpha   102.91169314
_cell_angle_beta   103.12150000
_cell_angle_gamma   118.58719107
_symmetry_Int_Tables_number   1
_chemical_formula_structural   ZnH13C20(N3O2)2
_chemical_formula_sum   'Zn2 H26 C40 N12 O8'
_cell_volume   882.69048047
_cell_formula_units_Z   2
loop_
 _symmetry_equiv_pos_site_id
 _symmetry_equiv_pos_as_xyz
  1  'x, y, z'
loop_
 _atom_site_type_symbol
 _atom_site_label
 _atom_site_symmetry_multiplicity
 _atom_site_fract_x
 _atom_site_fract_y
 _atom_site_fract_z
 _atom_site_occupancy
  Zn  Zn0  1  0.13458000  0.05854000  0.72386000  1.0
  Zn  Zn1  1  0.86542000  0.94145000  0.27614000  1.0
  H  H2  1  0.90883000  0.74107000  0.43666000  1.0
  H  H3  1  0.09117000  0.25892000  0.56334000  1.0
  H  H4  1  0.39786000  0.94281000  0.70342000  1.0
  H  H5  1  0.60215000  0.05719000  0.29659000  1.0
  H  H6  1  0.31154000  0.68139000  0.48541000  1.0
  H  H7  1  0.68847000  0.31862000  0.51460000  1.0
  H  H8  1  0.87854000  0.11303000  0.86224000  1.0
  H  H9  1  0.12146000  0.88696000  0.13775000  1.0
  H  H10  1  0.37650000  0.43214000  0.92416000  1.0
  H  H11  1  0.62350000  0.56786000  0.07582000  1.0
  H  H12  1  0.31741000  0.57061000  0.13491000  1.0
  H  H13  1  0.68259000  0.42940000  0.86507000  1.0
  H  H14  1  0.51655000  0.18163000  0.85582000  1.0
  H  H15  1  0.48345000  0.81837000  0.14418000  1.0
  H  H16  1  0.16574000  0.06838000  0.03372000  1.0
  H  H17  1  0.83426000  0.93162000  0.96628000  1.0
  H  H18  1  0.47757000  0.22326000  0.23447000  1.0
  H  H19  1  0.52243000  0.77675000  0.76554000  1.0
  H  H20  1  0.20878000  0.58498000  0.26626000  1.0
  H  H21  1  0.79123000  0.41502000  0.73374000  1.0
  H  H22  1  0.74016000  0.17506000  0.95365000  1.0
  H  H23  1  0.25984000  0.82495000  0.04634000  1.0
  H  H24  1  0.74658000  0.46442000  0.30639000  1.0
  H  H25  1  0.25342000  0.53558000  0.69361000  1.0
  H  H26  1  0.66483000  0.57434000  0.73421000  1.0
  H  H27  1  0.33516000  0.42568000  0.26581000  1.0
  C  C28  1  0.02779000  0.75772000  0.48422000  1.0
  C  C29  1  0.97221000  0.24227000  0.51579000  1.0
  C  C30  1  0.28197000  0.86012000  0.61687000  1.0
  C  C31  1  0.71803000  0.13988000  0.38313000  1.0
  C  C32  1  0.24168000  0.73122000  0.51005000  1.0
  C  C33  1  0.75833000  0.26877000  0.48996000  1.0
  C  C34  1  0.00501000  0.21906000  0.90611000  1.0
  C  C35  1  0.99500000  0.78094000  0.09388000  1.0
  C  C36  1  0.26439000  0.38716000  0.94437000  1.0
  C  C37  1  0.73560000  0.61284000  0.05561000  1.0
  C  C38  1  0.23624000  0.45686000  0.04774000  1.0
  C  C39  1  0.76376000  0.54314000  0.95226000  1.0
  C  C40  1  0.46243000  0.16184000  0.93014000  1.0
  C  C41  1  0.53758000  0.83817000  0.06986000  1.0
  C  C42  1  0.28488000  0.10912000  0.02597000  1.0
  C  C43  1  0.71512000  0.89088000  0.97402000  1.0
  C  C44  1  0.43862000  0.18684000  0.12680000  1.0
  C  C45  1  0.56137000  0.81316000  0.87319000  1.0
  C  C46  1  0.98688000  0.53265000  0.30052000  1.0
  C  C47  1  0.01313000  0.46735000  0.69948000  1.0
  C  C48  1  0.07351000  0.50429000  0.22654000  1.0
  C  C49  1  0.92650000  0.49571000  0.77346000  1.0
  C  C50  1  0.98427000  0.37522000  0.10138000  1.0
  C  C51  1  0.01573000  0.62478000  0.89862000  1.0
  C  C52  1  0.81092000  0.27586000  0.05088000  1.0
  C  C53  1  0.18908000  0.72415000  0.94912000  1.0
  C  C54  1  0.72748000  0.30931000  0.12531000  1.0
  C  C55  1  0.27252000  0.69068000  0.87469000  1.0
  C  C56  1  0.81316000  0.43638000  0.25108000  1.0
  C  C57  1  0.18683000  0.56361000  0.74892000  1.0
  C  C58  1  0.40093000  0.27595000  0.63872000  1.0
  C  C59  1  0.59906000  0.72404000  0.36128000  1.0
  C  C60  1  0.44188000  0.38446000  0.56006000  1.0
  C  C61  1  0.55812000  0.61555000  0.43995000  1.0
  C  C62  1  0.34811000  0.34429000  0.42558000  1.0
  C  C63  1  0.65188000  0.65571000  0.57442000  1.0
  C  C64  1  0.18059000  0.18707000  0.33680000  1.0
  C  C65  1  0.81942000  0.81293000  0.66321000  1.0
  C  C66  1  0.59038000  0.53893000  0.63002000  1.0
  C  C67  1  0.40961000  0.46108000  0.36999000  1.0
  N  N68  1  0.14877000  0.87571000  0.59987000  1.0
  N  N69  1  0.85123000  0.12428000  0.40014000  1.0
  N  N70  1  0.07902000  0.66580000  0.42620000  1.0
  N  N71  1  0.92099000  0.33419000  0.57381000  1.0
  N  N72  1  0.11989000  0.23928000  0.85728000  1.0
  N  N73  1  0.88010000  0.76071000  0.14271000  1.0
  N  N74  1  0.06974000  0.34933000  0.02270000  1.0
  N  N75  1  0.93025000  0.65067000  0.97729000  1.0
  N  N76  1  0.30190000  0.09432000  0.90445000  1.0
  N  N77  1  0.69810000  0.90568000  0.09555000  1.0
  N  N78  1  0.55122000  0.21901000  0.06469000  1.0
  N  N79  1  0.44878000  0.78100000  0.93531000  1.0
  O  O80  1  0.49972000  0.23476000  0.67425000  1.0
  O  O81  1  0.50029000  0.76525000  0.32576000  1.0
  O  O82  1  0.27810000  0.24813000  0.67334000  1.0
  O  O83  1  0.72190000  0.75186000  0.32667000  1.0
  O  O84  1  0.10689000  0.17115000  0.22077000  1.0
  O  O85  1  0.89312000  0.82885000  0.77923000  1.0
  O  O86  1  0.11905000  0.07998000  0.38735000  1.0
  O  O87  1  0.88095000  0.92002000  0.61264000  1.0
