# generated using pymatgen
data_SnH15C18F
_symmetry_space_group_name_H-M   'P 1'
_cell_length_a   8.68526000
_cell_length_b   10.08980000
_cell_length_c   10.09005251
_cell_angle_alpha   60.00048353
_cell_angle_beta   89.99880000
_cell_angle_gamma   90.00020000
_symmetry_Int_Tables_number   1
_chemical_formula_structural   SnH15C18F
_chemical_formula_sum   'Sn2 H30 C36 F2'
_cell_volume   765.75802282
_cell_formula_units_Z   2
loop_
 _symmetry_equiv_pos_site_id
 _symmetry_equiv_pos_as_xyz
  1  'x, y, z'
loop_
 _atom_site_type_symbol
 _atom_site_label
 _atom_site_symmetry_multiplicity
 _atom_site_fract_x
 _atom_site_fract_y
 _atom_site_fract_z
 _atom_site_occupancy
  Sn  Sn0  1  0.25000000  0.99999000  0.00002000  1.0
  Sn  Sn1  1  0.75000000  0.00002000  0.00001000  1.0
  H  H2  1  0.43562000  0.85389000  0.83462000  1.0
  H  H3  1  0.43560000  0.31147000  0.85388000  1.0
  H  H4  1  0.06438000  0.14613000  0.68851000  1.0
  H  H5  1  0.43559000  0.83463000  0.31147000  1.0
  H  H6  1  0.06436000  0.16537000  0.14610000  1.0
  H  H7  1  0.06439000  0.68852000  0.16536000  1.0
  H  H8  1  0.56439000  0.14613000  0.16536000  1.0
  H  H9  1  0.56438000  0.68854000  0.14611000  1.0
  H  H10  1  0.93560000  0.85387000  0.31148000  1.0
  H  H11  1  0.56440000  0.16535000  0.68853000  1.0
  H  H12  1  0.93562000  0.83463000  0.85390000  1.0
  H  H13  1  0.93560000  0.31146000  0.83465000  1.0
  H  H14  1  0.43270000  0.60862000  0.83363000  1.0
  H  H15  1  0.43267000  0.55771000  0.60862000  1.0
  H  H16  1  0.06733000  0.39141000  0.44227000  1.0
  H  H17  1  0.43266000  0.83368000  0.55771000  1.0
  H  H18  1  0.06732000  0.16632000  0.39140000  1.0
  H  H19  1  0.06737000  0.44230000  0.16629000  1.0
  H  H20  1  0.56730000  0.39139000  0.16637000  1.0
  H  H21  1  0.56731000  0.44228000  0.39139000  1.0
  H  H22  1  0.93267000  0.60859000  0.55773000  1.0
  H  H23  1  0.56734000  0.16631000  0.44228000  1.0
  H  H24  1  0.93268000  0.83364000  0.60861000  1.0
  H  H25  1  0.93265000  0.55771000  0.83369000  1.0
  H  H26  1  0.25003000  0.40260000  0.99996000  1.0
  H  H27  1  0.25000000  0.59743000  0.40257000  1.0
  H  H28  1  0.25001000  1.00000000  0.59741000  1.0
  H  H29  1  0.74999000  0.59741000  0.00003000  1.0
  H  H30  1  0.75000000  0.40257000  0.59742000  1.0
  H  H31  1  0.75000000  0.99999000  0.40257000  1.0
  C  C32  1  0.25005000  0.78834000  0.00001000  1.0
  C  C33  1  0.25001000  0.21167000  0.78833000  1.0
  C  C34  1  0.24999000  0.00001000  0.21168000  1.0
  C  C35  1  0.74998000  0.21163000  0.00001000  1.0
  C  C36  1  0.74999000  0.78832000  0.21168000  1.0
  C  C37  1  0.75002000  1.00000000  0.78837000  1.0
  C  C38  1  0.35331000  0.76492000  0.90673000  1.0
  C  C39  1  0.35330000  0.32837000  0.76487000  1.0
  C  C40  1  0.14671000  0.23513000  0.67163000  1.0
  C  C41  1  0.35329000  0.90675000  0.32837000  1.0
  C  C42  1  0.14667000  0.09325000  0.23512000  1.0
  C  C43  1  0.14670000  0.67165000  0.09320000  1.0
  C  C44  1  0.64669000  0.23511000  0.09324000  1.0
  C  C45  1  0.64669000  0.67164000  0.23512000  1.0
  C  C46  1  0.85329000  0.76486000  0.32838000  1.0
  C  C47  1  0.64673000  0.09323000  0.67166000  1.0
  C  C48  1  0.85331000  0.90675000  0.76491000  1.0
  C  C49  1  0.85328000  0.32834000  0.90677000  1.0
  C  C50  1  0.35245000  0.62667000  0.90622000  1.0
  C  C51  1  0.35240000  0.46712000  0.62662000  1.0
  C  C52  1  0.14758000  0.37338000  0.53287000  1.0
  C  C53  1  0.35241000  0.90625000  0.46711000  1.0
  C  C54  1  0.14758000  0.09377000  0.37336000  1.0
  C  C55  1  0.14760000  0.53289000  0.09373000  1.0
  C  C56  1  0.64757000  0.37335000  0.09378000  1.0
  C  C57  1  0.64758000  0.53287000  0.37338000  1.0
  C  C58  1  0.85241000  0.62662000  0.46714000  1.0
  C  C59  1  0.64759000  0.09374000  0.53289000  1.0
  C  C60  1  0.85243000  0.90623000  0.62666000  1.0
  C  C61  1  0.85241000  0.46710000  0.90626000  1.0
  C  C62  1  0.25002000  0.51059000  0.99999000  1.0
  C  C63  1  0.24999000  0.48943000  0.51058000  1.0
  C  C64  1  0.24999000  1.00000000  0.48940000  1.0
  C  C65  1  0.74999000  0.48942000  0.99999000  1.0
  C  C66  1  0.74999000  0.51058000  0.48943000  1.0
  C  C67  1  0.75002000  1.00000000  0.51058000  1.0
  F  F68  1  0.00000000  0.00000000  0.00000000  1.0
  F  F69  1  0.50000000  1.00000000  0.00000000  1.0
