# generated using pymatgen
data_CdH10C7SN2O5
_symmetry_space_group_name_H-M   'P 1'
_cell_length_a   8.34646000
_cell_length_b   8.73568000
_cell_length_c   14.92800000
_cell_angle_alpha   90.00000000
_cell_angle_beta   90.00000000
_cell_angle_gamma   90.00000000
_symmetry_Int_Tables_number   1
_chemical_formula_structural   CdH10C7SN2O5
_chemical_formula_sum   'Cd4 H40 C28 S4 N8 O20'
_cell_volume   1088.43039113
_cell_formula_units_Z   4
loop_
 _symmetry_equiv_pos_site_id
 _symmetry_equiv_pos_as_xyz
  1  'x, y, z'
loop_
 _atom_site_type_symbol
 _atom_site_label
 _atom_site_symmetry_multiplicity
 _atom_site_fract_x
 _atom_site_fract_y
 _atom_site_fract_z
 _atom_site_occupancy
  Cd  Cd0  1  0.60279000  0.23341000  0.56128000  1.0
  Cd  Cd1  1  0.39721000  0.73341000  0.43872000  1.0
  Cd  Cd2  1  0.60279000  0.73341000  0.93872000  1.0
  Cd  Cd3  1  0.39722000  0.23341000  0.06128000  1.0
  H  H4  1  0.22374000  0.23519000  0.85211000  1.0
  H  H5  1  0.77625000  0.73519000  0.14789000  1.0
  H  H6  1  0.22374000  0.73519000  0.64789000  1.0
  H  H7  1  0.77625000  0.23520000  0.35211000  1.0
  H  H8  1  0.81056000  0.98018000  0.60932000  1.0
  H  H9  1  0.18944000  0.48018000  0.39068000  1.0
  H  H10  1  0.81056000  0.48018000  0.89068000  1.0
  H  H11  1  0.18944000  0.98018000  0.10932000  1.0
  H  H12  1  0.63770000  0.91631000  0.60252000  1.0
  H  H13  1  0.36230000  0.41631000  0.39748000  1.0
  H  H14  1  0.63770000  0.41631000  0.89748000  1.0
  H  H15  1  0.36230000  0.91631000  0.10252000  1.0
  H  H16  1  0.67650000  0.59123000  0.71930000  1.0
  H  H17  1  0.32350000  0.09123000  0.28070000  1.0
  H  H18  1  0.67650000  0.09124000  0.78070000  1.0
  H  H19  1  0.32350000  0.59123000  0.21930000  1.0
  H  H20  1  0.82518000  0.67606000  0.65106000  1.0
  H  H21  1  0.17482000  0.17606000  0.34894000  1.0
  H  H22  1  0.82518000  0.17606000  0.84894000  1.0
  H  H23  1  0.17482000  0.67606000  0.15106000  1.0
  H  H24  1  0.02044000  0.53130000  0.55852000  1.0
  H  H25  1  0.97956000  0.03131000  0.44148000  1.0
  H  H26  1  0.02044000  0.03131000  0.94148000  1.0
  H  H27  1  0.97956000  0.53131000  0.05852000  1.0
  H  H28  1  0.08403000  0.34614000  0.58846000  1.0
  H  H29  1  0.91597000  0.84614000  0.41154000  1.0
  H  H30  1  0.08403000  0.84614000  0.91154000  1.0
  H  H31  1  0.91597000  0.34614000  0.08846000  1.0
  H  H32  1  0.47008000  0.35161000  0.77495000  1.0
  H  H33  1  0.52992000  0.85161000  0.22505000  1.0
  H  H34  1  0.47008000  0.85161000  0.72505000  1.0
  H  H35  1  0.52992000  0.35161000  0.27495000  1.0
  H  H36  1  0.06932000  0.05867000  0.74439000  1.0
  H  H37  1  0.93068000  0.55867000  0.25561000  1.0
  H  H38  1  0.06932000  0.55867000  0.75561000  1.0
  H  H39  1  0.93068000  0.05867000  0.24439000  1.0
  H  H40  1  0.24625000  0.06214000  0.58687000  1.0
  H  H41  1  0.75375000  0.56215000  0.41313000  1.0
  H  H42  1  0.24625000  0.56215000  0.91313000  1.0
  H  H43  1  0.75375000  0.06214000  0.08687000  1.0
  C  C44  1  0.61194000  0.60742000  0.58003000  1.0
  C  C45  1  0.38806000  0.10743000  0.41997000  1.0
  C  C46  1  0.61194000  0.10743000  0.91997000  1.0
  C  C47  1  0.38806000  0.60742000  0.08003000  1.0
  C  C48  1  0.73620000  0.58314000  0.65357000  1.0
  C  C49  1  0.26380000  0.08314000  0.34643000  1.0
  C  C50  1  0.73620000  0.08314000  0.84643000  1.0
  C  C51  1  0.26380000  0.58314000  0.15357000  1.0
  C  C52  1  0.97929000  0.41251000  0.56571000  1.0
  C  C53  1  0.02071000  0.91251000  0.43429000  1.0
  C  C54  1  0.97928000  0.91252000  0.93429000  1.0
  C  C55  1  0.02072000  0.41251000  0.06571000  1.0
  C  C56  1  0.93460000  0.34773000  0.47368000  1.0
  C  C57  1  0.06539000  0.84774000  0.52632000  1.0
  C  C58  1  0.93460000  0.84774000  0.02632000  1.0
  C  C59  1  0.06540000  0.34773000  0.97368000  1.0
  C  C60  1  0.38642000  0.27337000  0.74362000  1.0
  C  C61  1  0.61358000  0.77337000  0.25637000  1.0
  C  C62  1  0.38642000  0.77337000  0.75638000  1.0
  C  C63  1  0.61358000  0.27337000  0.24363000  1.0
  C  C64  1  0.17699000  0.12123000  0.72661000  1.0
  C  C65  1  0.82301000  0.62123000  0.27339000  1.0
  C  C66  1  0.17699000  0.62123000  0.77339000  1.0
  C  C67  1  0.82301000  0.12123000  0.22661000  1.0
  C  C68  1  0.26462000  0.12431000  0.64859000  1.0
  C  C69  1  0.73538000  0.62431000  0.35142000  1.0
  C  C70  1  0.26462000  0.62431000  0.85142000  1.0
  C  C71  1  0.73538000  0.12431000  0.14859000  1.0
  S  S72  1  0.83715000  0.39989000  0.65747000  1.0
  S  S73  1  0.16285000  0.89990000  0.34253000  1.0
  S  S74  1  0.83715000  0.89990000  0.84253000  1.0
  S  S75  1  0.16285000  0.39989000  0.15747000  1.0
  N  N76  1  0.39515000  0.21978000  0.65998000  1.0
  N  N77  1  0.60485000  0.71978000  0.34002000  1.0
  N  N78  1  0.39515000  0.71978000  0.84002000  1.0
  N  N79  1  0.60485000  0.21978000  0.15998000  1.0
  N  N80  1  0.25634000  0.21554000  0.78561000  1.0
  N  N81  1  0.74366000  0.71554000  0.21439000  1.0
  N  N82  1  0.25634000  0.71554000  0.71439000  1.0
  N  N83  1  0.74366000  0.21554000  0.28561000  1.0
  O  O84  1  0.55908000  0.49788000  0.53352000  1.0
  O  O85  1  0.44092000  0.99788000  0.46648000  1.0
  O  O86  1  0.55908000  0.99788000  0.96648000  1.0
  O  O87  1  0.44092000  0.49788000  0.03352000  1.0
  O  O88  1  0.56368000  0.74480000  0.56803000  1.0
  O  O89  1  0.43633000  0.24480000  0.43197000  1.0
  O  O90  1  0.56368000  0.24480000  0.93197000  1.0
  O  O91  1  0.43632000  0.74480000  0.06803000  1.0
  O  O92  1  0.81978000  0.25086000  0.46577000  1.0
  O  O93  1  0.18022000  0.75086000  0.53423000  1.0
  O  O94  1  0.81978000  0.75086000  0.03423000  1.0
  O  O95  1  0.18022000  0.25085000  0.96577000  1.0
  O  O96  1  0.01985000  0.38773000  0.40832000  1.0
  O  O97  1  0.98015000  0.88773000  0.59168000  1.0
  O  O98  1  0.01985000  0.88773000  0.09168000  1.0
  O  O99  1  0.98015000  0.38772000  0.90832000  1.0
  O  O100  1  0.69736000  0.00776000  0.62475000  1.0
  O  O101  1  0.30264000  0.50776000  0.37525000  1.0
  O  O102  1  0.69736000  0.50776000  0.87525000  1.0
  O  O103  1  0.30264000  0.00776000  0.12475000  1.0
