# generated using pymatgen
data_Cu3H10C12Br2(NO3)2
_symmetry_space_group_name_H-M   'P 1'
_cell_length_a   7.09530000
_cell_length_b   9.91232979
_cell_length_c   13.09390000
_cell_angle_alpha   89.86101091
_cell_angle_beta   89.97180000
_cell_angle_gamma   71.34137508
_symmetry_Int_Tables_number   1
_chemical_formula_structural   Cu3H10C12Br2(NO3)2
_chemical_formula_sum   'Cu6 H20 C24 Br4 N4 O12'
_cell_volume   872.50245493
_cell_formula_units_Z   2
loop_
 _symmetry_equiv_pos_site_id
 _symmetry_equiv_pos_as_xyz
  1  'x, y, z'
loop_
 _atom_site_type_symbol
 _atom_site_label
 _atom_site_symmetry_multiplicity
 _atom_site_fract_x
 _atom_site_fract_y
 _atom_site_fract_z
 _atom_site_occupancy
  Cu  Cu0  1  0.05135000  0.19313000  0.67930000  1.0
  Cu  Cu1  1  0.44793000  0.80815000  0.17856000  1.0
  Cu  Cu2  1  0.94927000  0.80697000  0.32084000  1.0
  Cu  Cu3  1  0.55219000  0.19232000  0.82162000  1.0
  Cu  Cu4  1  0.00151000  0.99960000  0.49871000  1.0
  Cu  Cu5  1  0.49965000  0.00018000  0.99980000  1.0
  H  H6  1  0.28485000  0.99079000  0.59967000  1.0
  H  H7  1  0.21300000  0.00946000  0.09752000  1.0
  H  H8  1  0.71524000  0.00848000  0.40030000  1.0
  H  H9  1  0.78645000  0.99129000  0.90204000  1.0
  H  H10  1  0.57452000  0.79449000  0.39696000  1.0
  H  H11  1  0.92462000  0.20622000  0.89757000  1.0
  H  H12  1  0.42588000  0.20536000  0.60319000  1.0
  H  H13  1  0.07520000  0.79393000  0.10244000  1.0
  H  H14  1  0.73591000  0.59985000  0.52149000  1.0
  H  H15  1  0.76356000  0.40044000  0.02183000  1.0
  H  H16  1  0.26415000  0.39994000  0.47858000  1.0
  H  H17  1  0.23643000  0.59970000  0.97821000  1.0
  H  H18  1  0.68455000  0.29707000  0.29576000  1.0
  H  H19  1  0.81363000  0.70405000  0.79525000  1.0
  H  H20  1  0.31507000  0.70304000  0.70419000  1.0
  H  H21  1  0.18651000  0.29610000  0.20480000  1.0
  H  H22  1  0.53635000  0.50381000  0.17744000  1.0
  H  H23  1  0.96125000  0.49771000  0.67716000  1.0
  H  H24  1  0.46348000  0.49639000  0.82259000  1.0
  H  H25  1  0.03850000  0.50242000  0.32284000  1.0
  C  C26  1  0.60380000  0.68297000  0.37723000  1.0
  C  C27  1  0.89517000  0.31778000  0.87758000  1.0
  C  C28  1  0.39633000  0.31693000  0.62289000  1.0
  C  C29  1  0.10470000  0.68239000  0.12246000  1.0
  C  C30  1  0.69139000  0.57426000  0.44642000  1.0
  C  C31  1  0.80783000  0.42629000  0.94664000  1.0
  C  C32  1  0.30862000  0.42557000  0.55366000  1.0
  C  C33  1  0.19217000  0.57388000  0.05342000  1.0
  C  C34  1  0.72304000  0.43300000  0.41777000  1.0
  C  C35  1  0.77600000  0.56763000  0.91770000  1.0
  C  C36  1  0.27688000  0.56687000  0.58223000  1.0
  C  C37  1  0.22407000  0.43255000  0.08239000  1.0
  C  C38  1  0.66279000  0.40592000  0.32038000  1.0
  C  C39  1  0.83560000  0.59511000  0.82011000  1.0
  C  C40  1  0.33693000  0.59415000  0.67962000  1.0
  C  C41  1  0.16441000  0.40505000  0.17996000  1.0
  C  C42  1  0.57958000  0.51972000  0.25496000  1.0
  C  C43  1  0.91844000  0.48151000  0.75482000  1.0
  C  C44  1  0.42026000  0.48041000  0.74507000  1.0
  C  C45  1  0.08135000  0.51864000  0.24519000  1.0
  C  C46  1  0.82487000  0.30992000  0.48733000  1.0
  C  C47  1  0.67477000  0.69035000  0.98721000  1.0
  C  C48  1  0.17587000  0.68962000  0.51230000  1.0
  C  C49  1  0.32506000  0.30984000  0.01288000  1.0
  Br  Br50  1  0.28617000  0.03447000  0.80002000  1.0
  Br  Br51  1  0.21235000  0.96703000  0.29899000  1.0
  Br  Br52  1  0.71211000  0.96550000  0.20054000  1.0
  Br  Br53  1  0.78757000  0.03249000  0.70203000  1.0
  N  N54  1  0.55191000  0.65581000  0.28223000  1.0
  N  N55  1  0.94651000  0.34529000  0.78243000  1.0
  N  N56  1  0.44815000  0.34427000  0.71785000  1.0
  N  N57  1  0.05327000  0.65486000  0.21758000  1.0
  O  O58  1  0.83207000  0.18838000  0.45322000  1.0
  O  O59  1  0.66870000  0.81190000  0.95323000  1.0
  O  O60  1  0.16970000  0.81124000  0.54579000  1.0
  O  O61  1  0.33161000  0.18828000  0.04704000  1.0
  O  O62  1  0.89407000  0.33815000  0.57094000  1.0
  O  O63  1  0.60468000  0.66196000  0.07063000  1.0
  O  O64  1  0.10655000  0.66113000  0.42883000  1.0
  O  O65  1  0.39416000  0.33819000  0.92916000  1.0
  O  O66  1  0.18814000  0.07436000  0.56852000  1.0
  O  O67  1  0.30971000  0.92556000  0.06694000  1.0
  O  O68  1  0.81134000  0.92499000  0.43191000  1.0
  O  O69  1  0.69022000  0.07489000  0.93325000  1.0
