# generated using pymatgen
data_CdH17C16(NO2)2
_symmetry_space_group_name_H-M   'P 1'
_cell_length_a   8.03096000
_cell_length_b   9.00839000
_cell_length_c   11.12510000
_cell_angle_alpha   82.04150000
_cell_angle_beta   73.86080000
_cell_angle_gamma   84.86730000
_symmetry_Int_Tables_number   1
_chemical_formula_structural   CdH17C16(NO2)2
_chemical_formula_sum   'Cd2 H34 C32 N4 O8'
_cell_volume   764.59027034
_cell_formula_units_Z   2
loop_
 _symmetry_equiv_pos_site_id
 _symmetry_equiv_pos_as_xyz
  1  'x, y, z'
loop_
 _atom_site_type_symbol
 _atom_site_label
 _atom_site_symmetry_multiplicity
 _atom_site_fract_x
 _atom_site_fract_y
 _atom_site_fract_z
 _atom_site_occupancy
  Cd  Cd0  1  0.03595000  0.98949000  0.82626000  1.0
  Cd  Cd1  1  0.96406000  0.01051000  0.17373000  1.0
  H  H2  1  0.44456000  0.12012000  0.02505000  1.0
  H  H3  1  0.55545000  0.87988000  0.97495000  1.0
  H  H4  1  0.55353000  0.13765000  0.14172000  1.0
  H  H5  1  0.44647000  0.86235000  0.85828000  1.0
  H  H6  1  0.40949000  0.33834000  0.86812000  1.0
  H  H7  1  0.59051000  0.66166000  0.13188000  1.0
  H  H8  1  0.62210000  0.38381000  0.17480000  1.0
  H  H9  1  0.37790000  0.61619000  0.82520000  1.0
  H  H10  1  0.57193000  0.17475000  0.68460000  1.0
  H  H11  1  0.42807000  0.82525000  0.31540000  1.0
  H  H12  1  0.57551000  0.11624000  0.53835000  1.0
  H  H13  1  0.42449000  0.88377000  0.46164000  1.0
  H  H14  1  0.29849000  0.43084000  0.70985000  1.0
  H  H15  1  0.70151000  0.56916000  0.29015000  1.0
  H  H16  1  0.68784000  0.30368000  0.38394000  1.0
  H  H17  1  0.31216000  0.69632000  0.61606000  1.0
  H  H18  1  0.98070000  0.39696000  0.84109000  1.0
  H  H19  1  0.01931000  0.60304000  0.15890000  1.0
  H  H20  1  0.07376000  0.63660000  0.93918000  1.0
  H  H21  1  0.92624000  0.36340000  0.06082000  1.0
  H  H22  1  0.71152000  0.55595000  0.61960000  1.0
  H  H23  1  0.28848000  0.44405000  0.38040000  1.0
  H  H24  1  0.74919000  0.39209000  0.71843000  1.0
  H  H25  1  0.25081000  0.60791000  0.28157000  1.0
  H  H26  1  0.90762000  0.35588000  0.50522000  1.0
  H  H27  1  0.09238000  0.64412000  0.49478000  1.0
  H  H28  1  0.06068000  0.37430000  0.58980000  1.0
  H  H29  1  0.93932000  0.62569000  0.41020000  1.0
  H  H30  1  0.77120000  0.94926000  0.67657000  1.0
  H  H31  1  0.22880000  0.05074000  0.32344000  1.0
  H  H32  1  0.66056000  0.80578000  0.64181000  1.0
  H  H33  1  0.33944000  0.19421000  0.35819000  1.0
  H  H34  1  0.87009000  0.84923000  0.54476000  1.0
  H  H35  1  0.12991000  0.15076000  0.45525000  1.0
  C  C36  1  0.72064000  0.12721000  0.95511000  1.0
  C  C37  1  0.27936000  0.87279000  0.04489000  1.0
  C  C38  1  0.54924000  0.17481000  0.04445000  1.0
  C  C39  1  0.45076000  0.82519000  0.95555000  1.0
  C  C40  1  0.44972000  0.40938000  0.92571000  1.0
  C  C41  1  0.55028000  0.59062000  0.07429000  1.0
  C  C42  1  0.51946000  0.34282000  0.02368000  1.0
  C  C43  1  0.48054000  0.65718000  0.97632000  1.0
  C  C44  1  0.56905000  0.43499000  0.09772000  1.0
  C  C45  1  0.43095000  0.56502000  0.90228000  1.0
  C  C46  1  0.33138000  0.11186000  0.67691000  1.0
  C  C47  1  0.66862000  0.88814000  0.32309000  1.0
  C  C48  1  0.50119000  0.18544000  0.61108000  1.0
  C  C49  1  0.49881000  0.81457000  0.38892000  1.0
  C  C50  1  0.49384000  0.34752000  0.55481000  1.0
  C  C51  1  0.50616000  0.65249000  0.44519000  1.0
  C  C52  1  0.38804000  0.46049000  0.61810000  1.0
  C  C53  1  0.61196000  0.53952000  0.38190000  1.0
  C  C54  1  0.60543000  0.39002000  0.43564000  1.0
  C  C55  1  0.39457000  0.60998000  0.56436000  1.0
  C  C56  1  0.86821000  0.73090000  0.72692000  1.0
  C  C57  1  0.13179000  0.26909000  0.27308000  1.0
  C  C58  1  0.95835000  0.51733000  0.82236000  1.0
  C  C59  1  0.04165000  0.48266000  0.17764000  1.0
  C  C60  1  0.00469000  0.63598000  0.86854000  1.0
  C  C61  1  0.99532000  0.36403000  0.13146000  1.0
  C  C62  1  0.81143000  0.48862000  0.65616000  1.0
  C  C63  1  0.18857000  0.51137000  0.34385000  1.0
  C  C64  1  0.96030000  0.43604000  0.54932000  1.0
  C  C65  1  0.03970000  0.56396000  0.45068000  1.0
  C  C66  1  0.78855000  0.83887000  0.64265000  1.0
  C  C67  1  0.21145000  0.16113000  0.35735000  1.0
  N  N68  1  0.94835000  0.76790000  0.80873000  1.0
  N  N69  1  0.05165000  0.23210000  0.19127000  1.0
  N  N70  1  0.87246000  0.57841000  0.73381000  1.0
  N  N71  1  0.12754000  0.42160000  0.26619000  1.0
  O  O72  1  0.73164000  0.11575000  0.84137000  1.0
  O  O73  1  0.26836000  0.88425000  0.15863000  1.0
  O  O74  1  0.85522000  0.10083000  0.99877000  1.0
  O  O75  1  0.14478000  0.89918000  0.00122000  1.0
  O  O76  1  0.20376000  0.18868000  0.74230000  1.0
  O  O77  1  0.79625000  0.81132000  0.25771000  1.0
  O  O78  1  0.32242000  0.97299000  0.67091000  1.0
  O  O79  1  0.67757000  0.02701000  0.32909000  1.0
