# generated using pymatgen
data_ZnH20C10S2(NO2)2
_symmetry_space_group_name_H-M   'P 1'
_cell_length_a   5.09791000
_cell_length_b   9.39143000
_cell_length_c   14.95846821
_cell_angle_alpha   106.08021521
_cell_angle_beta   89.99956540
_cell_angle_gamma   89.99890000
_symmetry_Int_Tables_number   1
_chemical_formula_structural   ZnH20C10S2(NO2)2
_chemical_formula_sum   'Zn2 H40 C20 S4 N4 O8'
_cell_volume   688.14164570
_cell_formula_units_Z   2
loop_
 _symmetry_equiv_pos_site_id
 _symmetry_equiv_pos_as_xyz
  1  'x, y, z'
loop_
 _atom_site_type_symbol
 _atom_site_label
 _atom_site_symmetry_multiplicity
 _atom_site_fract_x
 _atom_site_fract_y
 _atom_site_fract_z
 _atom_site_occupancy
  Zn  Zn0  1  0.00076000  0.26415000  0.01590000  1.0
  Zn  Zn1  1  0.50076000  0.73585000  0.98410000  1.0
  H  H2  1  0.35419000  0.36870000  0.50891000  1.0
  H  H3  1  0.85420000  0.63131000  0.49110000  1.0
  H  H4  1  0.71039000  0.19345000  0.86196000  1.0
  H  H5  1  0.21039000  0.80655000  0.13803000  1.0
  H  H6  1  0.10585000  0.24619000  0.80519000  1.0
  H  H7  1  0.60582000  0.75380000  0.19481000  1.0
  H  H8  1  0.01832000  0.44390000  0.72928000  1.0
  H  H9  1  0.51830000  0.55610000  0.27072000  1.0
  H  H10  1  0.59778000  0.36713000  0.65451000  1.0
  H  H11  1  0.09776000  0.63289000  0.34550000  1.0
  H  H12  1  0.20060000  0.18014000  0.61824000  1.0
  H  H13  1  0.70061000  0.81987000  0.38177000  1.0
  H  H14  1  0.38394000  0.12265000  0.06537000  1.0
  H  H15  1  0.88393000  0.87735000  0.93462000  1.0
  H  H16  1  0.21361000  0.04291000  0.18762000  1.0
  H  H17  1  0.71359000  0.95709000  0.81237000  1.0
  H  H18  1  0.89325000  0.32853000  0.22068000  1.0
  H  H19  1  0.39326000  0.67147000  0.77932000  1.0
  H  H20  1  0.88551000  0.11177000  0.34217000  1.0
  H  H21  1  0.38554000  0.88822000  0.65783000  1.0
  H  H22  1  0.53599000  0.20073000  0.49370000  1.0
  H  H23  1  0.03600000  0.79927000  0.50630000  1.0
  H  H24  1  0.65824000  0.36457000  0.92554000  1.0
  H  H25  1  0.15824000  0.63542000  0.07445000  1.0
  H  H26  1  0.76266000  0.51495000  0.80849000  1.0
  H  H27  1  0.26263000  0.48504000  0.19151000  1.0
  H  H28  1  0.48304000  0.30563000  0.74898000  1.0
  H  H29  1  0.98304000  0.69439000  0.25102000  1.0
  H  H30  1  0.96446000  0.23666000  0.54562000  1.0
  H  H31  1  0.46447000  0.76334000  0.45438000  1.0
  H  H32  1  0.04478000  0.04595000  0.52565000  1.0
  H  H33  1  0.54478000  0.95405000  0.47436000  1.0
  H  H34  1  0.36839000  0.27886000  0.14687000  1.0
  H  H35  1  0.86840000  0.72114000  0.85312000  1.0
  H  H36  1  0.15766000  0.29671000  0.28933000  1.0
  H  H37  1  0.65767000  0.70328000  0.71067000  1.0
  H  H38  1  0.62547000  0.13437000  0.26853000  1.0
  H  H39  1  0.12548000  0.86563000  0.73147000  1.0
  H  H40  1  0.29186000  0.21524000  0.41035000  1.0
  H  H41  1  0.79188000  0.78476000  0.58965000  1.0
  C  C42  1  0.98966000  0.34389000  0.84211000  1.0
  C  C43  1  0.48965000  0.65610000  0.15789000  1.0
  C  C44  1  0.65896000  0.31526000  0.70870000  1.0
  C  C45  1  0.15894000  0.68475000  0.29130000  1.0
  C  C46  1  0.86892000  0.03810000  0.10363000  1.0
  C  C47  1  0.36890000  0.96191000  0.89637000  1.0
  C  C48  1  0.98868000  0.24324000  0.24714000  1.0
  C  C49  1  0.48868000  0.75676000  0.75286000  1.0
  C  C50  1  0.44486000  0.27510000  0.45756000  1.0
  C  C51  1  0.94488000  0.72491000  0.54245000  1.0
  C  C52  1  0.68731000  0.55207000  0.09318000  1.0
  C  C53  1  0.18731000  0.44791000  0.90682000  1.0
  C  C54  1  0.86387000  0.41238000  0.77140000  1.0
  C  C55  1  0.36385000  0.58762000  0.22860000  1.0
  C  C56  1  0.01650000  0.15091000  0.57970000  1.0
  C  C57  1  0.51651000  0.84909000  0.42030000  1.0
  C  C58  1  0.09576000  0.12307000  0.16321000  1.0
  C  C59  1  0.59575000  0.87693000  0.83679000  1.0
  C  C60  1  0.79512000  0.19019000  0.30864000  1.0
  C  C61  1  0.29513000  0.80981000  0.69136000  1.0
  S  S62  1  0.75136000  0.12457000  0.65341000  1.0
  S  S63  1  0.25137000  0.87543000  0.34659000  1.0
  S  S64  1  0.68249000  0.35394000  0.39635000  1.0
  S  S65  1  0.18252000  0.64605000  0.60365000  1.0
  N  N66  1  0.25408000  0.19648000  0.10629000  1.0
  N  N67  1  0.75408000  0.80351000  0.89370000  1.0
  N  N68  1  0.80223000  0.28795000  0.89955000  1.0
  N  N69  1  0.30223000  0.71205000  0.10045000  1.0
  O  O70  1  0.77587000  0.44090000  0.11615000  1.0
  O  O71  1  0.27585000  0.55911000  0.88386000  1.0
  O  O72  1  0.26145000  0.41140000  0.97891000  1.0
  O  O73  1  0.76144000  0.58858000  0.02108000  1.0
  O  O74  1  0.77367000  0.09505000  0.04155000  1.0
  O  O75  1  0.27366000  0.90496000  0.95845000  1.0
  O  O76  1  0.78451000  0.92263000  0.12030000  1.0
  O  O77  1  0.28449000  0.07736000  0.87969000  1.0
