# generated using pymatgen
data_CoH12C8(NO4)2
_symmetry_space_group_name_H-M   'P 1'
_cell_length_a   7.48450000
_cell_length_b   7.64513000
_cell_length_c   9.34626000
_cell_angle_alpha   93.29370000
_cell_angle_beta   90.90720000
_cell_angle_gamma   70.44700000
_symmetry_Int_Tables_number   1
_chemical_formula_structural   CoH12C8(NO4)2
_chemical_formula_sum   'Co2 H24 C16 N4 O16'
_cell_volume   503.11676717
_cell_formula_units_Z   2
loop_
 _symmetry_equiv_pos_site_id
 _symmetry_equiv_pos_as_xyz
  1  'x, y, z'
loop_
 _atom_site_type_symbol
 _atom_site_label
 _atom_site_symmetry_multiplicity
 _atom_site_fract_x
 _atom_site_fract_y
 _atom_site_fract_z
 _atom_site_occupancy
  Co  Co0  1  0.50000000  1.00000000  0.50000000  1.0
  Co  Co1  1  0.50000000  0.50000000  0.00000000  1.0
  H  H2  1  0.63023000  0.86389000  0.90512000  1.0
  H  H3  1  0.36278000  0.64502000  0.42429000  1.0
  H  H4  1  0.36977000  0.13611000  0.09488000  1.0
  H  H5  1  0.63722000  0.35498000  0.57571000  1.0
  H  H6  1  0.74940000  0.84913000  0.74063000  1.0
  H  H7  1  0.24644000  0.64794000  0.25752000  1.0
  H  H8  1  0.25060000  0.15088000  0.25937000  1.0
  H  H9  1  0.75356000  0.35206000  0.74248000  1.0
  H  H10  1  0.82736000  0.84346000  0.10605000  1.0
  H  H11  1  0.16883000  0.66075000  0.62393000  1.0
  H  H12  1  0.17264000  0.15653000  0.89395000  1.0
  H  H13  1  0.83117000  0.33925000  0.37607000  1.0
  H  H14  1  0.71641000  0.09070000  0.10890000  1.0
  H  H15  1  0.28550000  0.41553000  0.60694000  1.0
  H  H16  1  0.28359000  0.90929000  0.89110000  1.0
  H  H17  1  0.71450000  0.58447000  0.39306000  1.0
  H  H18  1  0.16821000  0.04001000  0.58948000  1.0
  H  H19  1  0.85200000  0.44722000  0.08388000  1.0
  H  H20  1  0.83179000  0.95999000  0.41052000  1.0
  H  H21  1  0.14800000  0.55278000  0.91612000  1.0
  H  H22  1  0.15518000  0.03230000  0.41923000  1.0
  H  H23  1  0.86072000  0.45363000  0.91455000  1.0
  H  H24  1  0.84482000  0.96770000  0.58077000  1.0
  H  H25  1  0.13928000  0.54637000  0.08545000  1.0
  C  C26  1  0.54653000  0.12232000  0.80227000  1.0
  C  C27  1  0.45679000  0.38163000  0.30693000  1.0
  C  C28  1  0.45347000  0.87767000  0.19773000  1.0
  C  C29  1  0.54322000  0.61838000  0.69307000  1.0
  C  C30  1  0.69697000  0.93771000  0.83723000  1.0
  C  C31  1  0.30001000  0.56507000  0.34996000  1.0
  C  C32  1  0.30303000  0.06229000  0.16277000  1.0
  C  C33  1  0.69999000  0.43493000  0.65004000  1.0
  C  C34  1  0.99323000  0.99931000  0.84638000  1.0
  C  C35  1  0.00467000  0.50238000  0.34694000  1.0
  C  C36  1  0.00677000  0.00069000  0.15362000  1.0
  C  C37  1  0.99533000  0.49762000  0.65306000  1.0
  C  C38  1  0.84284000  0.97343000  0.07260000  1.0
  C  C39  1  0.15637000  0.52925000  0.57850000  1.0
  C  C40  1  0.15716000  0.02657000  0.92740000  1.0
  C  C41  1  0.84363000  0.47075000  0.42150000  1.0
  N  N42  1  0.85522000  0.96645000  0.91681000  1.0
  N  N43  1  0.14309000  0.53513000  0.42328000  1.0
  N  N44  1  0.14478000  0.03355000  0.08319000  1.0
  N  N45  1  0.85691000  0.46487000  0.57672000  1.0
  O  O46  1  0.46917000  0.14426000  0.67871000  1.0
  O  O47  1  0.54049000  0.36800000  0.18724000  1.0
  O  O48  1  0.53083000  0.85574000  0.32129000  1.0
  O  O49  1  0.45951000  0.63200000  0.81275000  1.0
  O  O50  1  0.49942000  0.24656000  0.90300000  1.0
  O  O51  1  0.50073000  0.25662000  0.39618000  1.0
  O  O52  1  0.50059000  0.75344000  0.09700000  1.0
  O  O53  1  0.49928000  0.74338000  0.60382000  1.0
  O  O54  1  0.21827000  0.07573000  0.50209000  1.0
  O  O55  1  0.79899000  0.41187000  0.99297000  1.0
  O  O56  1  0.78172000  0.92427000  0.49791000  1.0
  O  O57  1  0.20101000  0.58813000  0.00703000  1.0
  O  O58  1  0.99474000  0.00457000  0.71116000  1.0
  O  O59  1  0.00218000  0.49852000  0.21142000  1.0
  O  O60  1  0.00526000  0.99543000  0.28883000  1.0
  O  O61  1  0.99782000  0.50148000  0.78858000  1.0
