# generated using pymatgen
data_Zn4H10C26S4O13F2
_symmetry_space_group_name_H-M   'P 1'
_cell_length_a   19.65150000
_cell_length_b   19.65100000
_cell_length_c   33.32010000
_cell_angle_alpha   79.25030000
_cell_angle_beta   79.08040000
_cell_angle_gamma   63.90780000
_symmetry_Int_Tables_number   1
_chemical_formula_structural   Zn4H10C26S4O13F2
_chemical_formula_sum   'Zn16 H40 C104 S16 O52 F8'
_cell_volume   11268.73233763
_cell_formula_units_Z   4
loop_
 _symmetry_equiv_pos_site_id
 _symmetry_equiv_pos_as_xyz
  1  'x, y, z'
loop_
 _atom_site_type_symbol
 _atom_site_label
 _atom_site_symmetry_multiplicity
 _atom_site_fract_x
 _atom_site_fract_y
 _atom_site_fract_z
 _atom_site_occupancy
  Zn  Zn0  1  0.59784000  0.94382000  0.52454000  1.0
  Zn  Zn1  1  0.52023000  0.00978000  0.44002000  1.0
  Zn  Zn2  1  0.43559000  0.94491000  0.51744000  1.0
  Zn  Zn3  1  0.44923000  0.10081000  0.51947000  1.0
  Zn  Zn4  1  0.65148000  0.30267000  0.72752000  1.0
  Zn  Zn5  1  0.80645000  0.31615000  0.73382000  1.0
  Zn  Zn6  1  0.73337000  0.23264000  0.80918000  1.0
  Zn  Zn7  1  0.81073000  0.15348000  0.72704000  1.0
  Zn  Zn8  1  0.23980000  0.72916000  0.31053000  1.0
  Zn  Zn9  1  0.30020000  0.65111000  0.22663000  1.0
  Zn  Zn10  1  0.14991000  0.80671000  0.23005000  1.0
  Zn  Zn11  1  0.31115000  0.80803000  0.23255000  1.0
  Zn  Zn12  1  0.94004000  0.43864000  0.01468000  1.0
  Zn  Zn13  1  0.94340000  0.59943000  0.02173000  1.0
  Zn  Zn14  1  0.09705000  0.44434000  0.02157000  1.0
  Zn  Zn15  1  0.01595000  0.51948000  0.93953000  1.0
  H  H16  1  0.56437000  0.25161000  0.64677000  1.0
  H  H17  1  0.69645000  0.99350000  0.60406000  1.0
  H  H18  1  0.31039000  0.78909000  0.39823000  1.0
  H  H19  1  0.45127000  0.94940000  0.35257000  1.0
  H  H20  1  0.75210000  0.53699000  0.65892000  1.0
  H  H21  1  0.31118000  0.51392000  0.39506000  1.0
  H  H22  1  0.02709000  0.78942000  0.40371000  1.0
  H  H23  1  0.04918000  0.04961000  0.67069000  1.0
  H  H24  1  0.84916000  0.35601000  0.94965000  1.0
  H  H25  1  0.89265000  0.40422000  0.79881000  1.0
  H  H26  1  0.22818000  0.46753000  0.85185000  1.0
  H  H27  1  0.84600000  0.84088000  0.95875000  1.0
  H  H28  1  0.99176000  0.69842000  0.10095000  1.0
  H  H29  1  0.24101000  0.55626000  0.15293000  1.0
  H  H30  1  0.72335000  0.69056000  0.10161000  1.0
  H  H31  1  0.98356000  0.21834000  0.09617000  1.0
  H  H32  1  0.44058000  0.21698000  0.60309000  1.0
  H  H33  1  0.49247000  0.24824000  0.56096000  1.0
  H  H34  1  0.47032000  0.28837000  0.60813000  1.0
  H  H35  1  0.78886000  0.95594000  0.64629000  1.0
  H  H36  1  0.77068000  0.00504000  0.68974000  1.0
  H  H37  1  0.82228000  0.02759000  0.64429000  1.0
  H  H38  1  0.30387000  0.87213000  0.47976000  1.0
  H  H39  1  0.39588000  0.79774000  0.47953000  1.0
  H  H40  1  0.32097000  0.78223000  0.46567000  1.0
  H  H41  1  0.36579000  0.95311000  0.27251000  1.0
  H  H42  1  0.44730000  0.86651000  0.26986000  1.0
  H  H43  1  0.45293000  0.94577000  0.28549000  1.0
  H  H44  1  0.80691000  0.23575000  0.90917000  1.0
  H  H45  1  0.72281000  0.31972000  0.90525000  1.0
  H  H46  1  0.77358000  0.29752000  0.94845000  1.0
  H  H47  1  0.01920000  0.43992000  0.84280000  1.0
  H  H48  1  0.93535000  0.52441000  0.83975000  1.0
  H  H49  1  0.96715000  0.46385000  0.79998000  1.0
  H  H50  1  0.03106000  0.82092000  0.14249000  1.0
  H  H51  1  0.99379000  0.77644000  0.18580000  1.0
  H  H52  1  0.95616000  0.79565000  0.13818000  1.0
  H  H53  1  0.23831000  0.47772000  0.06834000  1.0
  H  H54  1  0.20271000  0.43305000  0.11231000  1.0
  H  H55  1  0.27713000  0.45980000  0.11544000  1.0
  C  C56  1  0.68764000  0.93303000  0.44284000  1.0
  C  C57  1  0.43051000  0.92705000  0.43279000  1.0
  C  C58  1  0.55437000  0.81635000  0.56054000  1.0
  C  C59  1  0.32006000  0.06970000  0.56394000  1.0
  C  C60  1  0.57169000  0.07147000  0.56906000  1.0
  C  C61  1  0.44330000  0.17689000  0.43374000  1.0
  C  C62  1  0.68768000  0.42898000  0.68287000  1.0
  C  C63  1  0.81185000  0.32499000  0.82030000  1.0
  C  C64  1  0.56619000  0.31798000  0.81049000  1.0
  C  C65  1  0.80674000  0.06535000  0.80842000  1.0
  C  C66  1  0.68962000  0.17479000  0.68062000  1.0
  C  C67  1  0.94131000  0.19362000  0.69592000  1.0
  C  C68  1  0.31630000  0.56154000  0.30846000  1.0
  C  C69  1  0.16813000  0.68588000  0.18306000  1.0
  C  C70  1  0.07198000  0.80697000  0.31594000  1.0
  C  C71  1  0.18867000  0.93364000  0.18903000  1.0
  C  C72  1  0.32573000  0.81633000  0.31808000  1.0
  C  C73  1  0.42971000  0.68579000  0.18549000  1.0
  C  C74  1  0.81402000  0.56014000  0.05863000  1.0
  C  C75  1  0.06642000  0.56865000  0.07018000  1.0
  C  C76  1  0.05945000  0.31534000  0.06028000  1.0
  C  C77  1  0.18312000  0.44447000  0.93845000  1.0
  C  C78  1  0.93238000  0.43280000  0.92809000  1.0
  C  C79  1  0.93425000  0.68664000  0.93928000  1.0
  C  C80  1  0.59987000  0.10100000  0.59768000  1.0
  C  C81  1  0.66197000  0.14482000  0.65213000  1.0
  C  C82  1  0.56047000  0.17580000  0.60930000  1.0
  C  C83  1  0.70150000  0.07019000  0.64053000  1.0
  C  C84  1  0.59321000  0.19488000  0.63670000  1.0
  C  C85  1  0.66836000  0.05068000  0.61354000  1.0
  C  C86  1  0.40329000  0.89595000  0.40454000  1.0
  C  C87  1  0.35531000  0.84533000  0.34623000  1.0
  C  C88  1  0.36325000  0.84955000  0.41871000  1.0
  C  C89  1  0.39617000  0.89107000  0.33208000  1.0
  C  C90  1  0.34086000  0.82540000  0.38865000  1.0
  C  C91  1  0.41925000  0.91455000  0.36216000  1.0
  C  C92  1  0.54440000  0.69031000  0.59272000  1.0
  C  C93  1  0.69779000  0.55162000  0.64831000  1.0
  C  C94  1  0.57954000  0.74004000  0.58371000  1.0
  C  C95  1  0.66133000  0.50338000  0.65742000  1.0
  C  C96  1  0.65483000  0.61966000  0.62465000  1.0
  C  C97  1  0.58643000  0.62139000  0.61613000  1.0
  C  C98  1  0.42391000  0.26811000  0.36571000  1.0
  C  C99  1  0.33626000  0.46950000  0.37469000  1.0
  C  C100  1  0.41884000  0.25087000  0.40820000  1.0
  C  C101  1  0.34215000  0.48549000  0.33229000  1.0
  C  C102  1  0.36663000  0.39007000  0.38662000  1.0
  C  C103  1  0.39464000  0.34728000  0.35283000  1.0
  C  C104  1  0.78057000  0.91756000  0.37609000  1.0
  C  C105  1  0.98219000  0.81910000  0.38383000  1.0
  C  C106  1  0.76310000  0.90726000  0.41849000  1.0
  C  C107  1  0.99736000  0.83066000  0.34145000  1.0
  C  C108  1  0.90270000  0.85071000  0.39641000  1.0
  C  C109  1  0.85962000  0.88570000  0.36301000  1.0
  C  C110  1  0.20093000  0.16628000  0.60365000  1.0
  C  C111  1  0.06458000  0.09755000  0.66127000  1.0
  C  C112  1  0.24776000  0.09477000  0.59123000  1.0
  C  C113  1  0.01770000  0.16971000  0.67232000  1.0
  C  C114  1  0.13165000  0.09660000  0.63655000  1.0
  C  C115  1  0.13434000  0.16846000  0.62944000  1.0
  C  C116  1  0.84011000  0.35289000  0.84957000  1.0
  C  C117  1  0.90206000  0.40700000  0.89888000  1.0
  C  C118  1  0.82615000  0.33823000  0.89288000  1.0
  C  C119  1  0.91552000  0.42216000  0.85557000  1.0
  C  C120  1  0.85820000  0.36617000  0.91618000  1.0
  C  C121  1  0.88353000  0.39418000  0.83228000  1.0
  C  C122  1  0.47495000  0.33346000  0.87807000  1.0
  C  C123  1  0.27330000  0.43611000  0.87146000  1.0
  C  C124  1  0.49163000  0.34558000  0.83566000  1.0
  C  C125  1  0.25843000  0.42203000  0.91373000  1.0
  C  C126  1  0.35260000  0.40428000  0.85863000  1.0
  C  C127  1  0.39610000  0.36652000  0.89169000  1.0
  C  C128  1  0.87045000  0.91832000  0.82129000  1.0
  C  C129  1  0.86510000  0.83231000  0.92652000  1.0
  C  C130  1  0.82954000  0.99087000  0.83340000  1.0
  C  C131  1  0.90749000  0.76081000  0.91366000  1.0
  C  C132  1  0.85189000  0.88965000  0.89261000  1.0
  C  C133  1  0.88412000  0.85997000  0.85463000  1.0
  C  C134  1  0.13789000  0.65837000  0.15447000  1.0
  C  C135  1  0.09491000  0.59618000  0.09951000  1.0
  C  C136  1  0.06558000  0.70071000  0.14020000  1.0
  C  C137  1  0.16706000  0.55370000  0.11394000  1.0
  C  C138  1  0.04672000  0.66762000  0.11285000  1.0
  C  C139  1  0.18590000  0.58688000  0.14120000  1.0
  C  C140  1  0.54369000  0.59595000  0.13987000  1.0
  C  C141  1  0.69977000  0.64945000  0.10263000  1.0
  C  C142  1  0.50417000  0.66063000  0.16014000  1.0
  C  C143  1  0.73823000  0.58439000  0.08291000  1.0
  C  C144  1  0.62874000  0.65336000  0.12333000  1.0
  C  C145  1  0.61484000  0.59083000  0.11875000  1.0
  C  C146  1  0.20430000  0.05196000  0.14801000  1.0
  C  C147  1  0.04257000  0.19879000  0.10138000  1.0
  C  C148  1  0.16362000  0.00843000  0.16414000  1.0
  C  C149  1  0.08473000  0.24071000  0.08558000  1.0
  C  C150  1  0.08655000  0.12987000  0.12420000  1.0
  C  C151  1  0.16138000  0.12122000  0.12518000  1.0
  C  C152  1  0.48704000  0.23559000  0.59463000  1.0
  C  C153  1  0.77465000  0.01146000  0.65603000  1.0
  C  C154  1  0.34503000  0.82394000  0.46326000  1.0
  C  C155  1  0.41678000  0.91538000  0.28764000  1.0
  C  C156  1  0.77983000  0.29565000  0.91519000  1.0
  C  C157  1  0.96179000  0.46480000  0.83327000  1.0
  C  C158  1  0.00851000  0.77749000  0.15229000  1.0
  C  C159  1  0.22444000  0.47701000  0.10187000  1.0
  S  S160  1  0.66593000  0.70190000  0.60410000  1.0
  S  S161  1  0.57486000  0.53974000  0.63729000  1.0
  S  S162  1  0.37730000  0.33290000  0.43306000  1.0
  S  S163  1  0.38445000  0.40457000  0.30650000  1.0
  S  S164  1  0.84523000  0.85725000  0.44298000  1.0
  S  S165  1  0.91593000  0.87971000  0.31646000  1.0
  S  S166  1  0.21008000  0.02851000  0.61164000  1.0
  S  S167  1  0.05480000  0.23689000  0.65326000  1.0
  S  S168  1  0.40917000  0.39894000  0.81186000  1.0
  S  S169  1  0.34009000  0.37068000  0.93834000  1.0
  S  S170  1  0.80659000  0.98792000  0.88664000  1.0
  S  S171  1  0.93131000  0.76217000  0.86052000  1.0
  S  S172  1  0.55484000  0.71660000  0.15324000  1.0
  S  S173  1  0.68878000  0.52744000  0.08915000  1.0
  S  S174  1  0.07062000  0.05324000  0.15126000  1.0
  S  S175  1  0.17778000  0.19721000  0.09821000  1.0
  O  O176  1  0.50129000  0.99952000  0.50053000  1.0
  O  O177  1  0.68656000  0.91294000  0.48175000  1.0
  O  O178  1  0.48341000  0.94882000  0.41727000  1.0
  O  O179  1  0.49178000  0.84230000  0.54510000  1.0
  O  O180  1  0.63048000  0.97313000  0.42306000  1.0
  O  O181  1  0.59856000  0.84962000  0.55815000  1.0
  O  O182  1  0.39899000  0.93055000  0.47008000  1.0
  O  O183  1  0.34839000  0.99999000  0.55673000  1.0
  O  O184  1  0.50747000  0.11537000  0.55616000  1.0
  O  O185  1  0.34788000  0.11831000  0.55002000  1.0
  O  O186  1  0.61400000  0.00395000  0.55962000  1.0
  O  O187  1  0.47121000  0.11673000  0.41578000  1.0
  O  O188  1  0.43377000  0.18067000  0.47255000  1.0
  O  O189  1  0.75065000  0.25165000  0.74910000  1.0
  O  O190  1  0.64445000  0.39384000  0.68879000  1.0
  O  O191  1  0.81943000  0.35040000  0.78223000  1.0
  O  O192  1  0.62418000  0.27680000  0.82952000  1.0
  O  O193  1  0.75109000  0.40689000  0.69690000  1.0
  O  O194  1  0.56579000  0.33765000  0.77160000  1.0
  O  O195  1  0.78303000  0.27735000  0.83512000  1.0
  O  O196  1  0.77359000  0.12319000  0.82873000  1.0
  O  O197  1  0.76103000  0.14374000  0.68401000  1.0
  O  O198  1  0.82185000  0.06608000  0.76944000  1.0
  O  O199  1  0.63919000  0.23050000  0.69937000  1.0
  O  O200  1  0.90799000  0.26312000  0.70354000  1.0
  O  O201  1  0.91510000  0.14293000  0.70624000  1.0
  O  O202  1  0.24992000  0.74870000  0.25013000  1.0
  O  O203  1  0.28156000  0.61868000  0.32897000  1.0
  O  O204  1  0.23140000  0.63868000  0.19609000  1.0
  O  O205  1  0.06935000  0.82429000  0.27709000  1.0
  O  O206  1  0.33105000  0.56305000  0.26929000  1.0
  O  O207  1  0.13154000  0.77194000  0.33442000  1.0
  O  O208  1  0.12970000  0.75404000  0.19224000  1.0
  O  O209  1  0.13793000  0.90735000  0.20071000  1.0
  O  O210  1  0.33283000  0.83882000  0.27960000  1.0
  O  O211  1  0.25784000  0.90173000  0.19663000  1.0
  O  O212  1  0.29462000  0.77101000  0.33466000  1.0
  O  O213  1  0.39321000  0.64445000  0.18968000  1.0
  O  O214  1  0.40865000  0.74786000  0.20119000  1.0
  O  O215  1  0.99873000  0.50072000  0.99960000  1.0
  O  O216  1  0.83846000  0.49766000  0.04289000  1.0
  O  O217  1  0.00572000  0.61656000  0.05469000  1.0
  O  O218  1  0.10968000  0.34218000  0.04844000  1.0
  O  O219  1  0.84825000  0.60339000  0.05562000  1.0
  O  O220  1  0.99037000  0.34646000  0.05244000  1.0
  O  O221  1  0.10414000  0.49941000  0.06269000  1.0
  O  O222  1  0.18300000  0.42985000  0.97755000  1.0
  O  O223  1  0.96167000  0.48020000  0.91343000  1.0
  O  O224  1  0.12511000  0.47596000  0.91864000  1.0
  O  O225  1  0.92654000  0.40572000  0.96597000  1.0
  O  O226  1  0.91256000  0.68623000  0.97789000  1.0
  O  O227  1  0.97745000  0.62896000  0.91996000  1.0
  F  F228  1  0.47711000  0.70505000  0.58083000  1.0
  F  F229  1  0.45359000  0.21582000  0.33899000  1.0
  F  F230  1  0.72876000  0.95379000  0.34938000  1.0
  F  F231  1  0.21574000  0.22821000  0.59222000  1.0
  F  F232  1  0.52734000  0.29403000  0.90422000  1.0
  F  F233  1  0.89588000  0.90360000  0.78206000  1.0
  F  F234  1  0.51817000  0.54271000  0.13997000  1.0
  F  F235  1  0.27721000  0.03162000  0.15317000  1.0
