# generated using pymatgen
data_NiH4C16S2N3O5F12
_symmetry_space_group_name_H-M   'P 1'
_cell_length_a   8.20146000
_cell_length_b   12.33300000
_cell_length_c   12.35710000
_cell_angle_alpha   70.93360000
_cell_angle_beta   88.93500000
_cell_angle_gamma   70.97540000
_symmetry_Int_Tables_number   1
_chemical_formula_structural   NiH4C16S2N3O5F12
_chemical_formula_sum   'Ni2 H8 C32 S4 N6 O10 F24'
_cell_volume   1111.39164057
_cell_formula_units_Z   2
loop_
 _symmetry_equiv_pos_site_id
 _symmetry_equiv_pos_as_xyz
  1  'x, y, z'
loop_
 _atom_site_type_symbol
 _atom_site_label
 _atom_site_symmetry_multiplicity
 _atom_site_fract_x
 _atom_site_fract_y
 _atom_site_fract_z
 _atom_site_occupancy
  Ni  Ni0  1  0.00000000  0.00000000  0.00000000  1.0
  Ni  Ni1  1  0.00000000  0.50000000  0.50000000  1.0
  H  H2  1  0.47008000  0.71581000  0.50458000  1.0
  H  H3  1  0.52992000  0.28419000  0.49542000  1.0
  H  H4  1  0.56972000  0.89844000  0.36055000  1.0
  H  H5  1  0.43028000  0.10156000  0.63946000  1.0
  H  H6  1  0.24942000  0.72035000  0.84361000  1.0
  H  H7  1  0.75058000  0.27965000  0.15638000  1.0
  H  H8  1  0.90179000  0.35680000  0.23773000  1.0
  H  H9  1  0.09821000  0.64320000  0.76227000  1.0
  C  C10  1  0.35587000  0.00884000  0.13325000  1.0
  C  C11  1  0.64413000  0.99116000  0.86675000  1.0
  C  C12  1  0.36152000  0.91305000  0.24070000  1.0
  C  C13  1  0.63848000  0.08695000  0.75930000  1.0
  C  C14  1  0.27962000  0.76808000  0.35666000  1.0
  C  C15  1  0.72038000  0.23191000  0.64334000  1.0
  C  C16  1  0.41458000  0.77367000  0.41769000  1.0
  C  C17  1  0.58542000  0.22633000  0.58231000  1.0
  C  C18  1  0.46696000  0.86773000  0.34268000  1.0
  C  C19  1  0.53304000  0.13227000  0.65732000  1.0
  C  C20  1  0.17500000  0.69509000  0.38606000  1.0
  C  C21  1  0.82499000  0.30490000  0.61394000  1.0
  C  C22  1  0.14656000  0.91263000  0.81490000  1.0
  C  C23  1  0.85345000  0.08736000  0.18510000  1.0
  C  C24  1  0.19299000  0.78925000  0.88291000  1.0
  C  C25  1  0.80701000  0.21075000  0.11709000  1.0
  C  C26  1  0.15791000  0.75263000  0.99832000  1.0
  C  C27  1  0.84209000  0.24737000  0.00168000  1.0
  C  C28  1  0.15574000  0.94381000  0.68370000  1.0
  C  C29  1  0.84426000  0.05619000  0.31630000  1.0
  C  C30  1  0.17603000  0.61735000  0.05763000  1.0
  C  C31  1  0.82397000  0.38265000  0.94237000  1.0
  C  C32  1  0.10074000  0.35652000  0.34758000  1.0
  C  C33  1  0.89926000  0.64348000  0.65242000  1.0
  C  C34  1  0.92974000  0.39782000  0.29723000  1.0
  C  C35  1  0.07025000  0.60218000  0.70277000  1.0
  C  C36  1  0.79504000  0.49026000  0.31885000  1.0
  C  C37  1  0.20496000  0.50974000  0.68115000  1.0
  C  C38  1  0.23954000  0.26038000  0.30912000  1.0
  C  C39  1  0.76046000  0.73962000  0.69088000  1.0
  C  C40  1  0.61007000  0.51882000  0.26756000  1.0
  C  C41  1  0.38993000  0.48118000  0.73244000  1.0
  S  S42  1  0.27418000  0.13882000  0.92268000  1.0
  S  S43  1  0.72582000  0.86118000  0.07732000  1.0
  S  S44  1  0.46220000  0.17297000  0.00936000  1.0
  S  S45  1  0.53780000  0.82703000  0.99064000  1.0
  N  N46  1  0.24963000  0.03319000  0.03917000  1.0
  N  N47  1  0.75037000  0.96681000  0.96083000  1.0
  N  N48  1  0.47063000  0.06577000  0.12992000  1.0
  N  N49  1  0.52937000  0.93423000  0.87008000  1.0
  N  N50  1  0.09057000  0.63268000  0.41491000  1.0
  N  N51  1  0.90943000  0.36733000  0.58508000  1.0
  O  O52  1  0.24764000  0.85242000  0.24786000  1.0
  O  O53  1  0.75237000  0.14758000  0.75213000  1.0
  O  O54  1  0.08346000  0.00520000  0.84551000  1.0
  O  O55  1  0.91655000  0.99480000  0.15449000  1.0
  O  O56  1  0.10032000  0.81837000  0.06000000  1.0
  O  O57  1  0.89968000  0.18163000  0.94000000  1.0
  O  O58  1  0.16030000  0.38663000  0.42260000  1.0
  O  O59  1  0.83970000  0.61337000  0.57740000  1.0
  O  O60  1  0.79952000  0.55471000  0.37952000  1.0
  O  O61  1  0.20048000  0.44529000  0.62048000  1.0
  F  F62  1  0.27702000  0.85463000  0.65535000  1.0
  F  F63  1  0.72298000  0.14537000  0.34464000  1.0
  F  F64  1  0.99845000  0.95964000  0.63326000  1.0
  F  F65  1  0.00155000  0.04036000  0.36675000  1.0
  F  F66  1  0.18898000  0.04926000  0.63519000  1.0
  F  F67  1  0.81103000  0.95074000  0.36481000  1.0
  F  F68  1  0.02632000  0.60058000  0.03118000  1.0
  F  F69  1  0.97369000  0.39942000  0.96883000  1.0
  F  F70  1  0.30829000  0.54040000  0.02261000  1.0
  F  F71  1  0.69172000  0.45960000  0.97739000  1.0
  F  F72  1  0.19999000  0.58346000  0.17349000  1.0
  F  F73  1  0.80002000  0.41654000  0.82651000  1.0
  F  F74  1  0.31932000  0.15843000  0.40098000  1.0
  F  F75  1  0.68068000  0.84157000  0.59902000  1.0
  F  F76  1  0.17288000  0.22494000  0.23149000  1.0
  F  F77  1  0.82711000  0.77506000  0.76851000  1.0
  F  F78  1  0.36381000  0.30561000  0.25930000  1.0
  F  F79  1  0.63619000  0.69439000  0.74070000  1.0
  F  F80  1  0.60157000  0.45851000  0.19490000  1.0
  F  F81  1  0.39843000  0.54150000  0.80510000  1.0
  F  F82  1  0.50975000  0.48894000  0.35392000  1.0
  F  F83  1  0.49025000  0.51106000  0.64608000  1.0
  F  F84  1  0.53428000  0.64088000  0.20796000  1.0
  F  F85  1  0.46572000  0.35912000  0.79204000  1.0
