# generated using pymatgen
data_Nd2H14C14N4O15
_symmetry_space_group_name_H-M   'P 1'
_cell_length_a   10.32800000
_cell_length_b   11.42460000
_cell_length_c   22.18460000
_cell_angle_alpha   90.00080000
_cell_angle_beta   82.23840000
_cell_angle_gamma   90.00010000
_symmetry_Int_Tables_number   1
_chemical_formula_structural   Nd2H14C14N4O15
_chemical_formula_sum   'Nd8 H56 C56 N16 O60'
_cell_volume   2593.65221910
_cell_formula_units_Z   4
loop_
 _symmetry_equiv_pos_site_id
 _symmetry_equiv_pos_as_xyz
  1  'x, y, z'
loop_
 _atom_site_type_symbol
 _atom_site_label
 _atom_site_symmetry_multiplicity
 _atom_site_fract_x
 _atom_site_fract_y
 _atom_site_fract_z
 _atom_site_occupancy
  Nd  Nd0  1  0.88958000  0.69021000  0.22908000  1.0
  Nd  Nd1  1  0.23646000  0.42986000  0.06390000  1.0
  Nd  Nd2  1  0.61043000  0.19021000  0.27092000  1.0
  Nd  Nd3  1  0.26354000  0.92987000  0.43610000  1.0
  Nd  Nd4  1  0.11042000  0.30979000  0.77092000  1.0
  Nd  Nd5  1  0.76353000  0.57014000  0.93610000  1.0
  Nd  Nd6  1  0.38957000  0.80979000  0.72908000  1.0
  Nd  Nd7  1  0.73646000  0.07013000  0.56390000  1.0
  H  H8  1  0.03521000  0.63086000  0.06279000  1.0
  H  H9  1  0.07102000  0.59625000  0.99374000  1.0
  H  H10  1  0.94657000  0.41513000  0.12821000  1.0
  H  H11  1  0.97664000  0.29028000  0.09783000  1.0
  H  H12  1  0.26823000  0.17570000  0.02235000  1.0
  H  H13  1  0.29419000  0.20398000  0.08882000  1.0
  H  H14  1  0.37174000  0.61645000  0.16009000  1.0
  H  H15  1  0.15425000  0.49075000  0.33987000  1.0
  H  H16  1  0.54366000  0.69596000  0.29784000  1.0
  H  H17  1  0.38190000  0.69019000  0.27673000  1.0
  H  H18  1  0.46961000  0.55899000  0.28795000  1.0
  H  H19  1  0.42744000  0.34934000  0.40986000  1.0
  H  H20  1  0.28044000  0.43088000  0.43006000  1.0
  H  H21  1  0.27536000  0.27511000  0.42311000  1.0
  H  H22  1  0.46479000  0.13086000  0.43722000  1.0
  H  H23  1  0.42899000  0.09626000  0.50626000  1.0
  H  H24  1  0.55343000  0.91514000  0.37179000  1.0
  H  H25  1  0.52335000  0.79028000  0.40217000  1.0
  H  H26  1  0.23178000  0.67570000  0.47765000  1.0
  H  H27  1  0.20583000  0.70398000  0.41118000  1.0
  H  H28  1  0.12827000  0.11645000  0.33991000  1.0
  H  H29  1  0.34575000  0.99075000  0.16013000  1.0
  H  H30  1  0.95635000  0.19597000  0.20216000  1.0
  H  H31  1  0.11811000  0.19019000  0.22327000  1.0
  H  H32  1  0.03039000  0.05899000  0.21205000  1.0
  H  H33  1  0.07257000  0.84934000  0.09014000  1.0
  H  H34  1  0.21957000  0.93087000  0.06994000  1.0
  H  H35  1  0.22465000  0.77511000  0.07688000  1.0
  H  H36  1  0.96479000  0.36914000  0.93721000  1.0
  H  H37  1  0.92899000  0.40375000  0.00626000  1.0
  H  H38  1  0.05343000  0.58486000  0.87179000  1.0
  H  H39  1  0.02336000  0.70972000  0.90218000  1.0
  H  H40  1  0.73178000  0.82430000  0.97765000  1.0
  H  H41  1  0.70582000  0.79602000  0.91118000  1.0
  H  H42  1  0.62827000  0.38355000  0.83991000  1.0
  H  H43  1  0.84575000  0.50925000  0.66013000  1.0
  H  H44  1  0.45634000  0.30404000  0.70216000  1.0
  H  H45  1  0.61811000  0.30982000  0.72327000  1.0
  H  H46  1  0.53039000  0.44101000  0.71205000  1.0
  H  H47  1  0.57255000  0.65066000  0.59014000  1.0
  H  H48  1  0.71956000  0.56912000  0.56994000  1.0
  H  H49  1  0.72463000  0.72488000  0.57689000  1.0
  H  H50  1  0.53521000  0.86913000  0.56278000  1.0
  H  H51  1  0.57101000  0.90374000  0.49374000  1.0
  H  H52  1  0.44657000  0.08487000  0.62821000  1.0
  H  H53  1  0.47665000  0.20972000  0.59783000  1.0
  H  H54  1  0.76821000  0.32430000  0.52235000  1.0
  H  H55  1  0.79417000  0.29602000  0.58882000  1.0
  H  H56  1  0.87173000  0.88355000  0.66009000  1.0
  H  H57  1  0.65425000  0.00925000  0.83987000  1.0
  H  H58  1  0.04365000  0.80404000  0.79784000  1.0
  H  H59  1  0.88189000  0.80982000  0.77673000  1.0
  H  H60  1  0.96961000  0.94101000  0.78795000  1.0
  H  H61  1  0.92743000  0.15066000  0.90986000  1.0
  H  H62  1  0.78043000  0.06913000  0.93006000  1.0
  H  H63  1  0.77535000  0.22489000  0.92312000  1.0
  C  C64  1  0.67711000  0.65468000  0.12237000  1.0
  C  C65  1  0.55384000  0.63713000  0.10474000  1.0
  C  C66  1  0.53825000  0.65057000  0.20599000  1.0
  C  C67  1  0.80955000  0.65481000  0.08696000  1.0
  C  C68  1  0.49949000  0.62231000  0.04672000  1.0
  C  C69  1  0.47902000  0.64934000  0.27078000  1.0
  C  C70  1  0.73371000  0.45443000  0.28248000  1.0
  C  C71  1  0.79979000  0.40932000  0.21961000  1.0
  C  C72  1  0.34319000  0.35440000  0.23961000  1.0
  C  C73  1  0.24035000  0.43259000  0.25376000  1.0
  C  C74  1  0.31234000  0.36836000  0.33869000  1.0
  C  C75  1  0.40734000  0.30866000  0.18043000  1.0
  C  C76  1  0.16229000  0.51181000  0.22002000  1.0
  C  C77  1  0.32382000  0.35541000  0.40420000  1.0
  C  C78  1  0.82289000  0.15467000  0.37763000  1.0
  C  C79  1  0.94616000  0.13713000  0.39526000  1.0
  C  C80  1  0.96176000  0.15057000  0.29401000  1.0
  C  C81  1  0.69046000  0.15480000  0.41304000  1.0
  C  C82  1  0.00051000  0.12231000  0.45328000  1.0
  C  C83  1  0.02098000  0.14934000  0.22923000  1.0
  C  C84  1  0.76630000  0.95441000  0.21753000  1.0
  C  C85  1  0.70021000  0.90932000  0.28039000  1.0
  C  C86  1  0.15682000  0.85440000  0.26039000  1.0
  C  C87  1  0.25966000  0.93259000  0.24624000  1.0
  C  C88  1  0.18767000  0.86836000  0.16130000  1.0
  C  C89  1  0.09268000  0.80866000  0.31957000  1.0
  C  C90  1  0.33772000  0.01182000  0.27998000  1.0
  C  C91  1  0.17619000  0.85540000  0.09580000  1.0
  C  C92  1  0.32289000  0.34531000  0.87763000  1.0
  C  C93  1  0.44616000  0.36287000  0.89526000  1.0
  C  C94  1  0.46175000  0.34942000  0.79401000  1.0
  C  C95  1  0.19045000  0.34519000  0.91304000  1.0
  C  C96  1  0.50051000  0.37768000  0.95328000  1.0
  C  C97  1  0.52098000  0.35066000  0.72922000  1.0
  C  C98  1  0.26629000  0.54558000  0.71752000  1.0
  C  C99  1  0.20021000  0.59068000  0.78039000  1.0
  C  C100  1  0.65681000  0.64561000  0.76039000  1.0
  C  C101  1  0.75966000  0.56742000  0.74624000  1.0
  C  C102  1  0.68765000  0.63164000  0.66131000  1.0
  C  C103  1  0.59266000  0.69134000  0.81958000  1.0
  C  C104  1  0.83771000  0.48819000  0.77998000  1.0
  C  C105  1  0.67617000  0.64459000  0.59580000  1.0
  C  C106  1  0.17710000  0.84532000  0.62237000  1.0
  C  C107  1  0.05384000  0.86287000  0.60474000  1.0
  C  C108  1  0.03824000  0.84943000  0.70599000  1.0
  C  C109  1  0.30954000  0.84519000  0.58696000  1.0
  C  C110  1  0.99949000  0.87769000  0.54672000  1.0
  C  C111  1  0.97902000  0.85066000  0.77077000  1.0
  C  C112  1  0.23371000  0.04558000  0.78247000  1.0
  C  C113  1  0.29979000  0.09068000  0.71961000  1.0
  C  C114  1  0.84318000  0.14560000  0.73961000  1.0
  C  C115  1  0.74034000  0.06741000  0.75376000  1.0
  C  C116  1  0.81233000  0.13164000  0.83870000  1.0
  C  C117  1  0.90732000  0.19134000  0.68043000  1.0
  C  C118  1  0.66228000  0.98818000  0.72002000  1.0
  C  C119  1  0.82381000  0.14460000  0.90420000  1.0
  N  N120  1  0.66485000  0.66368000  0.18488000  1.0
  N  N121  1  0.46948000  0.63467000  0.15846000  1.0
  N  N122  1  0.38656000  0.31608000  0.29240000  1.0
  N  N123  1  0.22300000  0.43812000  0.31648000  1.0
  N  N124  1  0.83515000  0.16368000  0.31512000  1.0
  N  N125  1  0.03052000  0.13467000  0.34154000  1.0
  N  N126  1  0.11346000  0.81608000  0.20760000  1.0
  N  N127  1  0.27701000  0.93813000  0.18352000  1.0
  N  N128  1  0.33515000  0.33631000  0.81512000  1.0
  N  N129  1  0.53052000  0.36532000  0.84154000  1.0
  N  N130  1  0.61345000  0.68392000  0.70760000  1.0
  N  N131  1  0.77700000  0.56188000  0.68352000  1.0
  N  N132  1  0.16485000  0.83631000  0.68488000  1.0
  N  N133  1  0.96947000  0.86533000  0.65846000  1.0
  N  N134  1  0.88654000  0.18392000  0.79240000  1.0
  N  N135  1  0.72299000  0.06187000  0.81648000  1.0
  O  O136  1  0.90654000  0.67866000  0.11510000  1.0
  O  O137  1  0.82414000  0.62809000  0.03097000  1.0
  O  O138  1  0.56937000  0.64206000  0.99651000  1.0
  O  O139  1  0.37943000  0.59235000  0.05228000  1.0
  O  O140  1  0.76730000  0.55413000  0.29954000  1.0
  O  O141  1  0.65057000  0.38668000  0.31135000  1.0
  O  O142  1  0.87458000  0.48054000  0.18707000  1.0
  O  O143  1  0.77681000  0.30580000  0.20471000  1.0
  O  O144  1  0.51762000  0.26180000  0.17937000  1.0
  O  O145  1  0.34443000  0.31619000  0.13442000  1.0
  O  O146  1  0.19287000  0.52658000  0.16264000  1.0
  O  O147  1  0.07151000  0.56501000  0.25296000  1.0
  O  O148  1  0.10568000  0.59595000  0.03279000  1.0
  O  O149  1  0.99954000  0.37266000  0.09246000  1.0
  O  O150  1  0.22387000  0.19323000  0.06290000  1.0
  O  O151  1  0.59346000  0.17866000  0.38490000  1.0
  O  O152  1  0.67586000  0.12808000  0.46903000  1.0
  O  O153  1  0.93063000  0.14206000  0.50349000  1.0
  O  O154  1  0.12057000  0.09235000  0.44772000  1.0
  O  O155  1  0.73270000  0.05413000  0.20046000  1.0
  O  O156  1  0.84944000  0.88668000  0.18866000  1.0
  O  O157  1  0.62542000  0.98055000  0.31293000  1.0
  O  O158  1  0.72320000  0.80581000  0.29529000  1.0
  O  O159  1  0.98240000  0.76180000  0.32062000  1.0
  O  O160  1  0.15559000  0.81618000  0.36558000  1.0
  O  O161  1  0.30713000  0.02659000  0.33736000  1.0
  O  O162  1  0.42850000  0.06501000  0.24704000  1.0
  O  O163  1  0.39432000  0.09596000  0.46721000  1.0
  O  O164  1  0.50046000  0.87267000  0.40753000  1.0
  O  O165  1  0.27615000  0.69323000  0.43710000  1.0
  O  O166  1  0.09346000  0.32134000  0.88490000  1.0
  O  O167  1  0.17587000  0.37191000  0.96903000  1.0
  O  O168  1  0.43064000  0.35794000  0.00349000  1.0
  O  O169  1  0.62057000  0.40765000  0.94772000  1.0
  O  O170  1  0.23269000  0.44587000  0.70046000  1.0
  O  O171  1  0.34943000  0.61332000  0.68865000  1.0
  O  O172  1  0.12542000  0.51945000  0.81293000  1.0
  O  O173  1  0.22319000  0.69420000  0.79529000  1.0
  O  O174  1  0.48238000  0.73821000  0.82063000  1.0
  O  O175  1  0.65557000  0.68382000  0.86558000  1.0
  O  O176  1  0.80713000  0.47342000  0.83736000  1.0
  O  O177  1  0.92849000  0.43500000  0.74704000  1.0
  O  O178  1  0.89432000  0.40405000  0.96721000  1.0
  O  O179  1  0.00046000  0.62733000  0.90754000  1.0
  O  O180  1  0.77614000  0.80677000  0.93710000  1.0
  O  O181  1  0.40653000  0.82134000  0.61510000  1.0
  O  O182  1  0.32413000  0.87192000  0.53097000  1.0
  O  O183  1  0.06937000  0.85794000  0.49651000  1.0
  O  O184  1  0.87943000  0.90765000  0.55228000  1.0
  O  O185  1  0.26730000  0.94587000  0.79954000  1.0
  O  O186  1  0.15057000  0.11332000  0.81134000  1.0
  O  O187  1  0.37458000  0.01945000  0.68707000  1.0
  O  O188  1  0.27681000  0.19420000  0.70471000  1.0
  O  O189  1  0.01760000  0.23820000  0.67937000  1.0
  O  O190  1  0.84441000  0.18382000  0.63443000  1.0
  O  O191  1  0.69287000  0.97341000  0.66264000  1.0
  O  O192  1  0.57150000  0.93499000  0.75296000  1.0
  O  O193  1  0.60567000  0.90404000  0.53279000  1.0
  O  O194  1  0.49954000  0.12733000  0.59247000  1.0
  O  O195  1  0.72385000  0.30677000  0.56290000  1.0
