# generated using pymatgen
data_CuH9C6NO5
_symmetry_space_group_name_H-M   'P 1'
_cell_length_a   8.38656000
_cell_length_b   8.38809000
_cell_length_c   11.94430000
_cell_angle_alpha   90.02070000
_cell_angle_beta   90.00450000
_cell_angle_gamma   89.97380000
_symmetry_Int_Tables_number   1
_chemical_formula_structural   CuH9C6NO5
_chemical_formula_sum   'Cu4 H36 C24 N4 O20'
_cell_volume   840.24815542
_cell_formula_units_Z   4
loop_
 _symmetry_equiv_pos_site_id
 _symmetry_equiv_pos_as_xyz
  1  'x, y, z'
loop_
 _atom_site_type_symbol
 _atom_site_label
 _atom_site_symmetry_multiplicity
 _atom_site_fract_x
 _atom_site_fract_y
 _atom_site_fract_z
 _atom_site_occupancy
  Cu  Cu0  1  0.69651000  0.90567000  0.11139000  1.0
  Cu  Cu1  1  0.30369000  0.09419000  0.61160000  1.0
  Cu  Cu2  1  0.09419000  0.69632000  0.86149000  1.0
  Cu  Cu3  1  0.90591000  0.30351000  0.36160000  1.0
  H  H4  1  0.87963000  0.02228000  0.91134000  1.0
  H  H5  1  0.12044000  0.97776000  0.41150000  1.0
  H  H6  1  0.97675000  0.87956000  0.66200000  1.0
  H  H7  1  0.02323000  0.12040000  0.16189000  1.0
  H  H8  1  0.81250000  0.41898000  0.11253000  1.0
  H  H9  1  0.18726000  0.58108000  0.61251000  1.0
  H  H10  1  0.58104000  0.81245000  0.86223000  1.0
  H  H11  1  0.41904000  0.18740000  0.36219000  1.0
  H  H12  1  0.64682000  0.54134000  0.07432000  1.0
  H  H13  1  0.35306000  0.45869000  0.57437000  1.0
  H  H14  1  0.45882000  0.64659000  0.82425000  1.0
  H  H15  1  0.54110000  0.35340000  0.32438000  1.0
  H  H16  1  0.53862000  0.28723000  0.90506000  1.0
  H  H17  1  0.46139000  0.71278000  0.40508000  1.0
  H  H18  1  0.71215000  0.53861000  0.65519000  1.0
  H  H19  1  0.28778000  0.46138000  0.15524000  1.0
  H  H20  1  0.56585000  0.30871000  0.75738000  1.0
  H  H21  1  0.43415000  0.69130000  0.25739000  1.0
  H  H22  1  0.69092000  0.56585000  0.50747000  1.0
  H  H23  1  0.30903000  0.43412000  0.00752000  1.0
  H  H24  1  0.66590000  0.44214000  0.85186000  1.0
  H  H25  1  0.33414000  0.55786000  0.35180000  1.0
  H  H26  1  0.55726000  0.66592000  0.60182000  1.0
  H  H27  1  0.44270000  0.33407000  0.10185000  1.0
  H  H28  1  0.97698000  0.14855000  0.76835000  1.0
  H  H29  1  0.02300000  0.85145000  0.26842000  1.0
  H  H30  1  0.85147000  0.97647000  0.51843000  1.0
  H  H31  1  0.14851000  0.02349000  0.01826000  1.0
  H  H32  1  0.92810000  0.35525000  0.76394000  1.0
  H  H33  1  0.07188000  0.64477000  0.26387000  1.0
  H  H34  1  0.64472000  0.92803000  0.51350000  1.0
  H  H35  1  0.35526000  0.07195000  0.01341000  1.0
  H  H36  1  0.82625000  0.21998000  0.67308000  1.0
  H  H37  1  0.17373000  0.78004000  0.17311000  1.0
  H  H38  1  0.78032000  0.82556000  0.42324000  1.0
  H  H39  1  0.21968000  0.17436000  0.92314000  1.0
  C  C40  1  0.75494000  0.61249000  0.22543000  1.0
  C  C41  1  0.24491000  0.38771000  0.72545000  1.0
  C  C42  1  0.38769000  0.75524000  0.97520000  1.0
  C  C43  1  0.61229000  0.24493000  0.47524000  1.0
  C  C44  1  0.77384000  0.09913000  0.91966000  1.0
  C  C45  1  0.22620000  0.90086000  0.41977000  1.0
  C  C46  1  0.89992000  0.77383000  0.67025000  1.0
  C  C47  1  0.10009000  0.22612000  0.17020000  1.0
  C  C48  1  0.76932000  0.54174000  0.10796000  1.0
  C  C49  1  0.23055000  0.45832000  0.60801000  1.0
  C  C50  1  0.45830000  0.76918000  0.85777000  1.0
  C  C51  1  0.54173000  0.23079000  0.35781000  1.0
  C  C52  1  0.62337000  0.31939000  0.83952000  1.0
  C  C53  1  0.37665000  0.68061000  0.33952000  1.0
  C  C54  1  0.68007000  0.62333000  0.58963000  1.0
  C  C55  1  0.31989000  0.37666000  0.08964000  1.0
  C  C56  1  0.87971000  0.23402000  0.75648000  1.0
  C  C57  1  0.12028000  0.76601000  0.25650000  1.0
  C  C58  1  0.76594000  0.87937000  0.50650000  1.0
  C  C59  1  0.23403000  0.12060000  0.00638000  1.0
  C  C60  1  0.86828000  0.63688000  0.02582000  1.0
  C  C61  1  0.13169000  0.36288000  0.52597000  1.0
  C  C62  1  0.36297000  0.86788000  0.77550000  1.0
  C  C63  1  0.63723000  0.13226000  0.27550000  1.0
  N  N64  1  0.75920000  0.21150000  0.84267000  1.0
  N  N65  1  0.24080000  0.78848000  0.34272000  1.0
  N  N66  1  0.78790000  0.75910000  0.59296000  1.0
  N  N67  1  0.21205000  0.24089000  0.09288000  1.0
  O  O68  1  0.73677000  0.76398000  0.23666000  1.0
  O  O69  1  0.26428000  0.23637000  0.73672000  1.0
  O  O70  1  0.23629000  0.73649000  0.98651000  1.0
  O  O71  1  0.76376000  0.26310000  0.48660000  1.0
  O  O72  1  0.85286000  0.78877000  0.01892000  1.0
  O  O73  1  0.14697000  0.21098000  0.51936000  1.0
  O  O74  1  0.21106000  0.85238000  0.76858000  1.0
  O  O75  1  0.78910000  0.14792000  0.26861000  1.0
  O  O76  1  0.67392000  0.07756000  0.99795000  1.0
  O  O77  1  0.32614000  0.92238000  0.49808000  1.0
  O  O78  1  0.92134000  0.67408000  0.74867000  1.0
  O  O79  1  0.07875000  0.32582000  0.24870000  1.0
  O  O80  1  0.75575000  0.52110000  0.30858000  1.0
  O  O81  1  0.24301000  0.47887000  0.80876000  1.0
  O  O82  1  0.47900000  0.75698000  0.05843000  1.0
  O  O83  1  0.52084000  0.24400000  0.55837000  1.0
  O  O84  1  0.96326000  0.55980000  0.96327000  1.0
  O  O85  1  0.03684000  0.43974000  0.46317000  1.0
  O  O86  1  0.44011000  0.96274000  0.71294000  1.0
  O  O87  1  0.56036000  0.03725000  0.21281000  1.0
