# generated using pymatgen
data_Mn3H12C14(NO6)2
_symmetry_space_group_name_H-M   'P 1'
_cell_length_a   10.20980000
_cell_length_b   10.20980000
_cell_length_c   11.20880000
_cell_angle_alpha   85.02480000
_cell_angle_beta   85.02470000
_cell_angle_gamma   65.84600000
_symmetry_Int_Tables_number   1
_chemical_formula_structural   Mn3H12C14(NO6)2
_chemical_formula_sum   'Mn6 H24 C28 N4 O24'
_cell_volume   1060.40490488
_cell_formula_units_Z   2
loop_
 _symmetry_equiv_pos_site_id
 _symmetry_equiv_pos_as_xyz
  1  'x, y, z'
loop_
 _atom_site_type_symbol
 _atom_site_label
 _atom_site_symmetry_multiplicity
 _atom_site_fract_x
 _atom_site_fract_y
 _atom_site_fract_z
 _atom_site_occupancy
  Mn  Mn0  1  0.35823000  0.46274000  0.51203000  1.0
  Mn  Mn1  1  0.53726000  0.64176000  0.98798000  1.0
  Mn  Mn2  1  0.64177000  0.53726000  0.48798000  1.0
  Mn  Mn3  1  0.46273000  0.35823000  0.01203000  1.0
  Mn  Mn4  1  0.63206000  0.36795000  0.25000000  1.0
  Mn  Mn5  1  0.36794000  0.63206000  0.75000000  1.0
  H  H6  1  0.72949000  0.37060000  0.02216000  1.0
  H  H7  1  0.09809000  0.37254000  0.49322000  1.0
  H  H8  1  0.48813000  0.06945000  0.36657000  1.0
  H  H9  1  0.36983000  0.00746000  0.20245000  1.0
  H  H10  1  0.10075000  0.13860000  0.18847000  1.0
  H  H11  1  0.44092000  0.79947000  0.32439000  1.0
  H  H12  1  0.62939000  0.27051000  0.47783000  1.0
  H  H13  1  0.62746000  0.90191000  0.00678000  1.0
  H  H14  1  0.93055000  0.51187000  0.13343000  1.0
  H  H15  1  0.99254000  0.63017000  0.29755000  1.0
  H  H16  1  0.86140000  0.89925000  0.31153000  1.0
  H  H17  1  0.20054000  0.55908000  0.17561000  1.0
  H  H18  1  0.27051000  0.62939000  0.97783000  1.0
  H  H19  1  0.90191000  0.62746000  0.50678000  1.0
  H  H20  1  0.51187000  0.93055000  0.63343000  1.0
  H  H21  1  0.63017000  0.99254000  0.79755000  1.0
  H  H22  1  0.89925000  0.86140000  0.81153000  1.0
  H  H23  1  0.55908000  0.20054000  0.67560000  1.0
  H  H24  1  0.37061000  0.72949000  0.52217000  1.0
  H  H25  1  0.37253000  0.09809000  0.99322000  1.0
  H  H26  1  0.06945000  0.48813000  0.86657000  1.0
  H  H27  1  0.00746000  0.36983000  0.70245000  1.0
  H  H28  1  0.13860000  0.10075000  0.68846000  1.0
  H  H29  1  0.79946000  0.44092000  0.82440000  1.0
  C  C30  1  0.91874000  0.34618000  0.33688000  1.0
  C  C31  1  0.07931000  0.26387000  0.33974000  1.0
  C  C32  1  0.15077000  0.29235000  0.42733000  1.0
  C  C33  1  0.37337000  0.11901000  0.35398000  1.0
  C  C34  1  0.30558000  0.08841000  0.26527000  1.0
  C  C35  1  0.15717000  0.16061000  0.25698000  1.0
  C  C36  1  0.48767000  0.71554000  0.25781000  1.0
  C  C37  1  0.65381000  0.08127000  0.16312000  1.0
  C  C38  1  0.73612000  0.92069000  0.16026000  1.0
  C  C39  1  0.70765000  0.84923000  0.07267000  1.0
  C  C40  1  0.88099000  0.62663000  0.14602000  1.0
  C  C41  1  0.91159000  0.69442000  0.23473000  1.0
  C  C42  1  0.83939000  0.84283000  0.24302000  1.0
  C  C43  1  0.28447000  0.51233000  0.24219000  1.0
  C  C44  1  0.08127000  0.65382000  0.66312000  1.0
  C  C45  1  0.92069000  0.73613000  0.66026000  1.0
  C  C46  1  0.84923000  0.70765000  0.57267000  1.0
  C  C47  1  0.62664000  0.88099000  0.64602000  1.0
  C  C48  1  0.69443000  0.91160000  0.73473000  1.0
  C  C49  1  0.84283000  0.83940000  0.74302000  1.0
  C  C50  1  0.51233000  0.28446000  0.74219000  1.0
  C  C51  1  0.34618000  0.91873000  0.83688000  1.0
  C  C52  1  0.26387000  0.07931000  0.83974000  1.0
  C  C53  1  0.29235000  0.15077000  0.92733000  1.0
  C  C54  1  0.11901000  0.37336000  0.85398000  1.0
  C  C55  1  0.08841000  0.30558000  0.76527000  1.0
  C  C56  1  0.16061000  0.15717000  0.75697000  1.0
  C  C57  1  0.71554000  0.48767000  0.75781000  1.0
  N  N58  1  0.29563000  0.22049000  0.43362000  1.0
  N  N59  1  0.77951000  0.70437000  0.06638000  1.0
  N  N60  1  0.70437000  0.77951000  0.56638000  1.0
  N  N61  1  0.22049000  0.29563000  0.93362000  1.0
  O  O62  1  0.36189000  0.25048000  0.51673000  1.0
  O  O63  1  0.85949000  0.44036000  0.41383000  1.0
  O  O64  1  0.85702000  0.31489000  0.25679000  1.0
  O  O65  1  0.44910000  0.75049000  0.15182000  1.0
  O  O66  1  0.63206000  0.41789000  0.05684000  1.0
  O  O67  1  0.57677000  0.59321000  0.29670000  1.0
  O  O68  1  0.74952000  0.63811000  0.98327000  1.0
  O  O69  1  0.55963000  0.14051000  0.08617000  1.0
  O  O70  1  0.68511000  0.14298000  0.24321000  1.0
  O  O71  1  0.24951000  0.55090000  0.34818000  1.0
  O  O72  1  0.58211000  0.36795000  0.44316000  1.0
  O  O73  1  0.40680000  0.42323000  0.20330000  1.0
  O  O74  1  0.63811000  0.74951000  0.48327000  1.0
  O  O75  1  0.14051000  0.55964000  0.58617000  1.0
  O  O76  1  0.14298000  0.68511000  0.74321000  1.0
  O  O77  1  0.55090000  0.24951000  0.84818000  1.0
  O  O78  1  0.36794000  0.58211000  0.94316000  1.0
  O  O79  1  0.42324000  0.40680000  0.70330000  1.0
  O  O80  1  0.25048000  0.36189000  0.01673000  1.0
  O  O81  1  0.44036000  0.85949000  0.91383000  1.0
  O  O82  1  0.31489000  0.85702000  0.75679000  1.0
  O  O83  1  0.75049000  0.44910000  0.65182000  1.0
  O  O84  1  0.41789000  0.63206000  0.55684000  1.0
  O  O85  1  0.59320000  0.57677000  0.79670000  1.0
