# generated using pymatgen
data_LiHCO2
_symmetry_space_group_name_H-M   'P 1'
_cell_length_a   8.52991000
_cell_length_b   8.52992000
_cell_length_c   13.50950000
_cell_angle_alpha   97.45780000
_cell_angle_beta   97.45780000
_cell_angle_gamma   90.11620000
_symmetry_Int_Tables_number   1
_chemical_formula_structural   LiHCO2
_chemical_formula_sum   'Li16 H16 C16 O32'
_cell_volume   966.20603869
_cell_formula_units_Z   16
loop_
 _symmetry_equiv_pos_site_id
 _symmetry_equiv_pos_as_xyz
  1  'x, y, z'
loop_
 _atom_site_type_symbol
 _atom_site_label
 _atom_site_symmetry_multiplicity
 _atom_site_fract_x
 _atom_site_fract_y
 _atom_site_fract_z
 _atom_site_occupancy
  Li  Li0  1  0.83401000  0.17212000  0.00598000  1.0
  Li  Li1  1  0.82787000  0.16599000  0.49402000  1.0
  Li  Li2  1  0.16599000  0.82787000  0.99402000  1.0
  Li  Li3  1  0.17213000  0.83401000  0.50598000  1.0
  Li  Li4  1  0.05755000  0.10559000  0.15903000  1.0
  Li  Li5  1  0.89441000  0.94245000  0.34097000  1.0
  Li  Li6  1  0.94245000  0.89441000  0.84097000  1.0
  Li  Li7  1  0.10559000  0.05755000  0.65903000  1.0
  Li  Li8  1  0.60901000  0.72495000  0.24928000  1.0
  Li  Li9  1  0.27505000  0.39099000  0.25072000  1.0
  Li  Li10  1  0.39099000  0.27505000  0.75072000  1.0
  Li  Li11  1  0.72495000  0.60901000  0.74928000  1.0
  Li  Li12  1  0.39708000  0.59047000  0.08842000  1.0
  Li  Li13  1  0.40953000  0.60292000  0.41158000  1.0
  Li  Li14  1  0.60292000  0.40953000  0.91158000  1.0
  Li  Li15  1  0.59047000  0.39708000  0.58842000  1.0
  H  H16  1  0.64470000  0.89344000  0.07736000  1.0
  H  H17  1  0.10655000  0.35530000  0.42264000  1.0
  H  H18  1  0.35530000  0.10656000  0.92264000  1.0
  H  H19  1  0.89345000  0.64470000  0.57736000  1.0
  H  H20  1  0.34347000  0.98728000  0.26531000  1.0
  H  H21  1  0.01272000  0.65653000  0.23469000  1.0
  H  H22  1  0.65653000  0.01272000  0.73469000  1.0
  H  H23  1  0.98728000  0.34347000  0.76531000  1.0
  H  H24  1  0.59807000  0.87182000  0.53048000  1.0
  H  H25  1  0.12818000  0.40193000  0.96952000  1.0
  H  H26  1  0.40193000  0.12818000  0.46952000  1.0
  H  H27  1  0.87182000  0.59807000  0.03048000  1.0
  H  H28  1  0.77627000  0.37550000  0.18860000  1.0
  H  H29  1  0.62450000  0.22372000  0.31140000  1.0
  H  H30  1  0.22372000  0.62450000  0.81140000  1.0
  H  H31  1  0.37550000  0.77628000  0.68860000  1.0
  C  C32  1  0.74867000  0.93321000  0.13372000  1.0
  C  C33  1  0.06679000  0.25133000  0.36628000  1.0
  C  C34  1  0.25133000  0.06679000  0.86628000  1.0
  C  C35  1  0.93321000  0.74867000  0.63372000  1.0
  C  C36  1  0.31837000  0.90345000  0.19464000  1.0
  C  C37  1  0.09655000  0.68163000  0.30536000  1.0
  C  C38  1  0.68163000  0.09655000  0.80536000  1.0
  C  C39  1  0.90345000  0.31837000  0.69464000  1.0
  C  C40  1  0.64432000  0.85513000  0.45674000  1.0
  C  C41  1  0.14487000  0.35568000  0.04326000  1.0
  C  C42  1  0.35568000  0.14487000  0.54326000  1.0
  C  C43  1  0.85513000  0.64432000  0.95674000  1.0
  C  C44  1  0.69133000  0.41680000  0.12812000  1.0
  C  C45  1  0.58320000  0.30868000  0.37189000  1.0
  C  C46  1  0.30868000  0.58320000  0.87189000  1.0
  C  C47  1  0.41680000  0.69132000  0.62811000  1.0
  O  O48  1  0.83960000  0.03752000  0.11248000  1.0
  O  O49  1  0.96248000  0.16040000  0.38752000  1.0
  O  O50  1  0.16040000  0.96248000  0.88752000  1.0
  O  O51  1  0.03752000  0.83960000  0.61248000  1.0
  O  O52  1  0.12995000  0.23441000  0.28562000  1.0
  O  O53  1  0.76559000  0.87004000  0.21438000  1.0
  O  O54  1  0.87005000  0.76559000  0.71438000  1.0
  O  O55  1  0.23441000  0.12995000  0.78562000  1.0
  O  O56  1  0.04772000  0.25093000  0.05681000  1.0
  O  O57  1  0.74906000  0.95228000  0.44320000  1.0
  O  O58  1  0.95228000  0.74906000  0.94320000  1.0
  O  O59  1  0.25094000  0.04772000  0.55680000  1.0
  O  O60  1  0.20173000  0.93419000  0.13211000  1.0
  O  O61  1  0.06581000  0.79827000  0.36789000  1.0
  O  O62  1  0.79827000  0.06581000  0.86789000  1.0
  O  O63  1  0.93419000  0.20173000  0.63211000  1.0
  O  O64  1  0.60771000  0.53441000  0.15220000  1.0
  O  O65  1  0.46559000  0.39229000  0.34780000  1.0
  O  O66  1  0.39229000  0.46559000  0.84780000  1.0
  O  O67  1  0.53441000  0.60771000  0.65220000  1.0
  O  O68  1  0.58694000  0.73983000  0.39324000  1.0
  O  O69  1  0.26017000  0.41307000  0.10676000  1.0
  O  O70  1  0.41306000  0.26017000  0.60676000  1.0
  O  O71  1  0.73984000  0.58693000  0.89324000  1.0
  O  O72  1  0.40698000  0.78595000  0.18306000  1.0
  O  O73  1  0.21405000  0.59302000  0.31695000  1.0
  O  O74  1  0.59302000  0.21405000  0.81694000  1.0
  O  O75  1  0.78595000  0.40698000  0.68306000  1.0
  O  O76  1  0.31299000  0.65803000  0.95972000  1.0
  O  O77  1  0.34197000  0.68701000  0.54028000  1.0
  O  O78  1  0.68701000  0.34197000  0.04027000  1.0
  O  O79  1  0.65803000  0.31299000  0.45972000  1.0
