# generated using pymatgen
data_ZnH12C20NO5
_symmetry_space_group_name_H-M   'P 1'
_cell_length_a   14.16550000
_cell_length_b   14.16550000
_cell_length_c   26.29160000
_cell_angle_alpha   79.85340000
_cell_angle_beta   79.85340000
_cell_angle_gamma   83.83140000
_symmetry_Int_Tables_number   1
_chemical_formula_structural   ZnH12C20NO5
_chemical_formula_sum   'Zn8 H96 C160 N8 O40'
_cell_volume   5096.05451004
_cell_formula_units_Z   8
loop_
 _symmetry_equiv_pos_site_id
 _symmetry_equiv_pos_as_xyz
  1  'x, y, z'
loop_
 _atom_site_type_symbol
 _atom_site_label
 _atom_site_symmetry_multiplicity
 _atom_site_fract_x
 _atom_site_fract_y
 _atom_site_fract_z
 _atom_site_occupancy
  Zn  Zn0  1  0.18538000  0.88748000  0.58921000  1.0
  Zn  Zn1  1  0.11252000  0.81462000  0.91079000  1.0
  Zn  Zn2  1  0.81462000  0.11252000  0.41079000  1.0
  Zn  Zn3  1  0.88748000  0.18538000  0.08921000  1.0
  Zn  Zn4  1  0.41360000  0.84482000  0.56933000  1.0
  Zn  Zn5  1  0.15518000  0.58641000  0.93067000  1.0
  Zn  Zn6  1  0.58641000  0.15518000  0.43067000  1.0
  Zn  Zn7  1  0.84482000  0.41359000  0.06933000  1.0
  H  H8  1  0.45823000  0.95045000  0.40658000  1.0
  H  H9  1  0.04956000  0.54177000  0.09342000  1.0
  H  H10  1  0.54177000  0.04955000  0.59342000  1.0
  H  H11  1  0.95045000  0.45823000  0.90658000  1.0
  H  H12  1  0.46258000  0.98266000  0.30987000  1.0
  H  H13  1  0.01734000  0.53742000  0.19013000  1.0
  H  H14  1  0.53741000  0.01734000  0.69013000  1.0
  H  H15  1  0.98266000  0.46258000  0.80988000  1.0
  H  H16  1  0.15339000  0.05101000  0.29048000  1.0
  H  H17  1  0.94899000  0.84662000  0.20952000  1.0
  H  H18  1  0.84661000  0.94899000  0.70952000  1.0
  H  H19  1  0.05101000  0.15339000  0.79048000  1.0
  H  H20  1  0.02409000  0.11257000  0.23715000  1.0
  H  H21  1  0.88743000  0.97591000  0.26285000  1.0
  H  H22  1  0.97590000  0.88743000  0.76285000  1.0
  H  H23  1  0.11257000  0.02409000  0.73716000  1.0
  H  H24  1  0.19379000  0.00401000  0.10468000  1.0
  H  H25  1  0.99600000  0.80621000  0.39532000  1.0
  H  H26  1  0.80620000  0.99599000  0.89532000  1.0
  H  H27  1  0.00400000  0.19379000  0.60468000  1.0
  H  H28  1  0.32242000  0.93694000  0.15909000  1.0
  H  H29  1  0.06306000  0.67758000  0.34091000  1.0
  H  H30  1  0.67757000  0.06305000  0.84091000  1.0
  H  H31  1  0.93694000  0.32243000  0.65909000  1.0
  H  H32  1  0.17434000  0.89444000  0.33151000  1.0
  H  H33  1  0.10556000  0.82566000  0.16849000  1.0
  H  H34  1  0.82566000  0.10556000  0.66849000  1.0
  H  H35  1  0.89444000  0.17434000  0.83151000  1.0
  H  H36  1  0.16918000  0.86697000  0.42768000  1.0
  H  H37  1  0.13303000  0.83083000  0.07232000  1.0
  H  H38  1  0.83083000  0.13303000  0.57232000  1.0
  H  H39  1  0.86697000  0.16917000  0.92768000  1.0
  H  H40  1  0.58467000  0.90959000  0.48859000  1.0
  H  H41  1  0.09041000  0.41533000  0.01141000  1.0
  H  H42  1  0.41534000  0.09041000  0.51141000  1.0
  H  H43  1  0.90959000  0.58466000  0.98859000  1.0
  H  H44  1  0.75921000  0.91331000  0.48792000  1.0
  H  H45  1  0.08668000  0.24079000  0.01208000  1.0
  H  H46  1  0.24079000  0.08669000  0.51208000  1.0
  H  H47  1  0.91332000  0.75920000  0.98792000  1.0
  H  H48  1  0.71587000  0.75550000  0.64636000  1.0
  H  H49  1  0.24449000  0.28414000  0.85364000  1.0
  H  H50  1  0.28413000  0.24450000  0.35364000  1.0
  H  H51  1  0.75551000  0.71587000  0.14636000  1.0
  H  H52  1  0.54275000  0.76265000  0.64096000  1.0
  H  H53  1  0.23734000  0.45726000  0.85904000  1.0
  H  H54  1  0.45725000  0.23735000  0.35904000  1.0
  H  H55  1  0.76265000  0.54275000  0.14096000  1.0
  H  H56  1  0.90708000  0.87617000  0.48786000  1.0
  H  H57  1  0.12382000  0.09293000  0.01214000  1.0
  H  H58  1  0.09293000  0.12382000  0.51215000  1.0
  H  H59  1  0.87618000  0.90707000  0.98785000  1.0
  H  H60  1  0.07449000  0.89069000  0.50005000  1.0
  H  H61  1  0.10930000  0.92551000  0.99995000  1.0
  H  H62  1  0.92552000  0.10930000  0.49995000  1.0
  H  H63  1  0.89069000  0.07449000  0.00005000  1.0
  H  H64  1  0.00761000  0.82676000  0.66094000  1.0
  H  H65  1  0.17323000  0.99240000  0.83906000  1.0
  H  H66  1  0.99239000  0.17324000  0.33906000  1.0
  H  H67  1  0.82676000  0.00760000  0.16094000  1.0
  H  H68  1  0.83471000  0.81520000  0.65737000  1.0
  H  H69  1  0.18479000  0.16530000  0.84263000  1.0
  H  H70  1  0.16530000  0.18480000  0.34264000  1.0
  H  H71  1  0.81520000  0.83470000  0.15736000  1.0
  H  H72  1  0.40579000  0.53551000  0.60441000  1.0
  H  H73  1  0.46448000  0.59421000  0.89559000  1.0
  H  H74  1  0.59421000  0.46449000  0.39559000  1.0
  H  H75  1  0.53552000  0.40579000  0.10441000  1.0
  H  H76  1  0.38063000  0.36657000  0.64769000  1.0
  H  H77  1  0.63343000  0.61937000  0.85231000  1.0
  H  H78  1  0.61937000  0.63343000  0.35231000  1.0
  H  H79  1  0.36657000  0.38063000  0.14769000  1.0
  H  H80  1  0.24174000  0.28626000  0.62898000  1.0
  H  H81  1  0.71374000  0.75827000  0.87102000  1.0
  H  H82  1  0.75826000  0.71374000  0.37102000  1.0
  H  H83  1  0.28626000  0.24174000  0.12898000  1.0
  H  H84  1  0.28836000  0.13569000  0.59108000  1.0
  H  H85  1  0.86430000  0.71164000  0.90893000  1.0
  H  H86  1  0.71163000  0.86430000  0.40892000  1.0
  H  H87  1  0.13570000  0.28836000  0.09107000  1.0
  H  H88  1  0.36999000  0.99169000  0.73653000  1.0
  H  H89  1  0.00831000  0.63001000  0.76348000  1.0
  H  H90  1  0.63001000  0.00831000  0.26347000  1.0
  H  H91  1  0.99168000  0.36998000  0.23653000  1.0
  H  H92  1  0.31928000  0.14107000  0.77589000  1.0
  H  H93  1  0.85893000  0.68072000  0.72411000  1.0
  H  H94  1  0.68072000  0.85893000  0.22411000  1.0
  H  H95  1  0.14107000  0.31927000  0.27589000  1.0
  H  H96  1  0.13773000  0.46953000  0.75280000  1.0
  H  H97  1  0.53047000  0.86227000  0.74720000  1.0
  H  H98  1  0.86227000  0.53047000  0.24720000  1.0
  H  H99  1  0.46953000  0.13773000  0.25280000  1.0
  H  H100  1  0.15952000  0.63807000  0.70639000  1.0
  H  H101  1  0.36194000  0.84048000  0.79361000  1.0
  H  H102  1  0.84048000  0.36193000  0.29361000  1.0
  H  H103  1  0.63806000  0.15952000  0.20639000  1.0
  C  C104  1  0.29565000  0.69646000  0.62451000  1.0
  C  C105  1  0.30354000  0.70434000  0.87549000  1.0
  C  C106  1  0.70435000  0.30354000  0.37549000  1.0
  C  C107  1  0.69646000  0.29565000  0.12451000  1.0
  C  C108  1  0.31402000  0.88912000  0.48077000  1.0
  C  C109  1  0.11088000  0.68598000  0.01923000  1.0
  C  C110  1  0.68598000  0.11088000  0.51923000  1.0
  C  C111  1  0.88912000  0.31402000  0.98077000  1.0
  C  C112  1  0.31327000  0.90783000  0.42307000  1.0
  C  C113  1  0.09217000  0.68674000  0.07693000  1.0
  C  C114  1  0.68673000  0.09217000  0.57693000  1.0
  C  C115  1  0.90783000  0.31326000  0.92307000  1.0
  C  C116  1  0.39618000  0.93982000  0.38964000  1.0
  C  C117  1  0.06018000  0.60382000  0.11036000  1.0
  C  C118  1  0.60381000  0.06018000  0.61036000  1.0
  C  C119  1  0.93982000  0.39618000  0.88964000  1.0
  C  C120  1  0.39853000  0.95756000  0.33594000  1.0
  C  C121  1  0.04245000  0.60148000  0.16406000  1.0
  C  C122  1  0.60147000  0.04244000  0.66406000  1.0
  C  C123  1  0.95756000  0.39853000  0.83594000  1.0
  C  C124  1  0.31865000  0.94256000  0.31426000  1.0
  C  C125  1  0.05745000  0.68136000  0.18574000  1.0
  C  C126  1  0.68135000  0.05744000  0.68574000  1.0
  C  C127  1  0.94256000  0.31865000  0.81426000  1.0
  C  C128  1  0.33005000  0.95756000  0.25586000  1.0
  C  C129  1  0.04244000  0.66995000  0.24414000  1.0
  C  C130  1  0.66995000  0.04243000  0.74414000  1.0
  C  C131  1  0.95757000  0.33005000  0.75586000  1.0
  C  C132  1  0.24574000  0.98860000  0.22818000  1.0
  C  C133  1  0.01140000  0.75426000  0.27182000  1.0
  C  C134  1  0.75425000  0.01139000  0.77182000  1.0
  C  C135  1  0.98860000  0.24574000  0.72818000  1.0
  C  C136  1  0.16126000  0.03760000  0.25039000  1.0
  C  C137  1  0.96240000  0.83874000  0.24961000  1.0
  C  C138  1  0.83874000  0.96240000  0.74961000  1.0
  C  C139  1  0.03759000  0.16127000  0.75039000  1.0
  C  C140  1  0.08939000  0.07340000  0.22056000  1.0
  C  C141  1  0.92660000  0.91061000  0.27944000  1.0
  C  C142  1  0.91060000  0.92660000  0.77944000  1.0
  C  C143  1  0.07340000  0.08939000  0.72056000  1.0
  C  C144  1  0.10182000  0.06231000  0.16787000  1.0
  C  C145  1  0.93770000  0.89818000  0.33213000  1.0
  C  C146  1  0.89818000  0.93770000  0.83213000  1.0
  C  C147  1  0.06230000  0.10182000  0.66787000  1.0
  C  C148  1  0.02926000  0.10837000  0.13442000  1.0
  C  C149  1  0.89163000  0.97074000  0.36558000  1.0
  C  C150  1  0.97073000  0.89163000  0.86559000  1.0
  C  C151  1  0.10836000  0.02926000  0.63442000  1.0
  C  C152  1  0.18532000  0.01185000  0.14577000  1.0
  C  C153  1  0.98815000  0.81468000  0.35423000  1.0
  C  C154  1  0.81468000  0.98815000  0.85423000  1.0
  C  C155  1  0.01184000  0.18532000  0.64577000  1.0
  C  C156  1  0.25631000  0.97498000  0.17568000  1.0
  C  C157  1  0.02502000  0.74369000  0.32432000  1.0
  C  C158  1  0.74369000  0.02502000  0.82432000  1.0
  C  C159  1  0.97498000  0.25631000  0.67568000  1.0
  C  C160  1  0.23587000  0.90957000  0.34767000  1.0
  C  C161  1  0.09043000  0.76414000  0.15233000  1.0
  C  C162  1  0.76413000  0.09042000  0.65233000  1.0
  C  C163  1  0.90958000  0.23587000  0.84767000  1.0
  C  C164  1  0.23308000  0.89318000  0.40177000  1.0
  C  C165  1  0.10682000  0.76693000  0.09823000  1.0
  C  C166  1  0.76692000  0.10682000  0.59823000  1.0
  C  C167  1  0.89318000  0.23307000  0.90177000  1.0
  C  C168  1  0.61715000  0.87613000  0.52269000  1.0
  C  C169  1  0.12387000  0.38285000  0.97731000  1.0
  C  C170  1  0.38285000  0.12387000  0.47731000  1.0
  C  C171  1  0.87613000  0.61715000  0.02269000  1.0
  C  C172  1  0.71508000  0.87725000  0.52262000  1.0
  C  C173  1  0.12275000  0.28492000  0.97738000  1.0
  C  C174  1  0.28492000  0.12275000  0.47739000  1.0
  C  C175  1  0.87725000  0.71508000  0.02261000  1.0
  C  C176  1  0.75372000  0.83555000  0.56787000  1.0
  C  C177  1  0.16445000  0.24629000  0.93213000  1.0
  C  C178  1  0.24628000  0.16446000  0.43214000  1.0
  C  C179  1  0.83555000  0.75371000  0.06786000  1.0
  C  C180  1  0.69108000  0.79014000  0.61030000  1.0
  C  C181  1  0.20985000  0.30893000  0.88970000  1.0
  C  C182  1  0.30892000  0.20986000  0.38970000  1.0
  C  C183  1  0.79015000  0.69108000  0.11030000  1.0
  C  C184  1  0.59403000  0.79303000  0.60777000  1.0
  C  C185  1  0.20697000  0.40598000  0.89223000  1.0
  C  C186  1  0.40597000  0.20697000  0.39223000  1.0
  C  C187  1  0.79303000  0.59402000  0.10777000  1.0
  C  C188  1  0.85544000  0.84182000  0.57193000  1.0
  C  C189  1  0.15817000  0.14456000  0.92806000  1.0
  C  C190  1  0.14456000  0.15818000  0.42807000  1.0
  C  C191  1  0.84182000  0.85544000  0.07193000  1.0
  C  C192  1  0.92479000  0.86362000  0.52733000  1.0
  C  C193  1  0.13638000  0.07521000  0.97267000  1.0
  C  C194  1  0.07521000  0.13638000  0.47267000  1.0
  C  C195  1  0.86362000  0.92479000  0.02733000  1.0
  C  C196  1  0.01882000  0.87154000  0.53349000  1.0
  C  C197  1  0.12846000  0.98118000  0.96651000  1.0
  C  C198  1  0.98118000  0.12846000  0.46651000  1.0
  C  C199  1  0.87154000  0.01882000  0.03348000  1.0
  C  C200  1  0.98151000  0.83618000  0.62359000  1.0
  C  C201  1  0.16382000  0.01850000  0.87641000  1.0
  C  C202  1  0.01849000  0.16382000  0.37641000  1.0
  C  C203  1  0.83618000  0.98150000  0.12359000  1.0
  C  C204  1  0.88558000  0.82867000  0.62106000  1.0
  C  C205  1  0.17132000  0.11443000  0.87893000  1.0
  C  C206  1  0.11443000  0.17132000  0.37894000  1.0
  C  C207  1  0.82868000  0.88557000  0.12106000  1.0
  C  C208  1  0.28275000  0.59590000  0.65217000  1.0
  C  C209  1  0.40410000  0.71725000  0.84783000  1.0
  C  C210  1  0.71725000  0.40410000  0.34783000  1.0
  C  C211  1  0.59590000  0.28275000  0.15217000  1.0
  C  C212  1  0.34608000  0.51982000  0.63611000  1.0
  C  C213  1  0.48018000  0.65392000  0.86389000  1.0
  C  C214  1  0.65392000  0.48018000  0.36389000  1.0
  C  C215  1  0.51982000  0.34608000  0.13611000  1.0
  C  C216  1  0.33162000  0.42581000  0.66031000  1.0
  C  C217  1  0.57419000  0.66839000  0.83969000  1.0
  C  C218  1  0.66838000  0.57419000  0.33969000  1.0
  C  C219  1  0.42581000  0.33162000  0.16031000  1.0
  C  C220  1  0.25556000  0.40731000  0.70209000  1.0
  C  C221  1  0.59269000  0.74444000  0.79791000  1.0
  C  C222  1  0.74444000  0.59269000  0.29791000  1.0
  C  C223  1  0.40731000  0.25556000  0.20209000  1.0
  C  C224  1  0.24140000  0.30851000  0.73090000  1.0
  C  C225  1  0.69149000  0.75859000  0.76910000  1.0
  C  C226  1  0.75859000  0.69149000  0.26910000  1.0
  C  C227  1  0.30851000  0.24141000  0.23090000  1.0
  C  C228  1  0.27772000  0.22334000  0.70498000  1.0
  C  C229  1  0.77666000  0.72228000  0.79503000  1.0
  C  C230  1  0.72228000  0.77666000  0.29502000  1.0
  C  C231  1  0.22335000  0.27772000  0.20497000  1.0
  C  C232  1  0.27084000  0.22218000  0.65250000  1.0
  C  C233  1  0.77782000  0.72916000  0.84750000  1.0
  C  C234  1  0.72916000  0.77782000  0.34750000  1.0
  C  C235  1  0.22218000  0.27084000  0.15250000  1.0
  C  C236  1  0.29673000  0.13797000  0.63118000  1.0
  C  C237  1  0.86203000  0.70327000  0.86882000  1.0
  C  C238  1  0.70327000  0.86203000  0.36882000  1.0
  C  C239  1  0.13797000  0.29673000  0.13118000  1.0
  C  C240  1  0.33194000  0.05459000  0.66151000  1.0
  C  C241  1  0.94541000  0.66806000  0.83849000  1.0
  C  C242  1  0.66806000  0.94541000  0.33848000  1.0
  C  C243  1  0.05459000  0.33193000  0.16151000  1.0
  C  C244  1  0.36268000  0.96392000  0.63918000  1.0
  C  C245  1  0.03607000  0.63732000  0.86082000  1.0
  C  C246  1  0.63732000  0.03608000  0.36082000  1.0
  C  C247  1  0.96392000  0.36268000  0.13918000  1.0
  C  C248  1  0.34090000  0.05646000  0.71364000  1.0
  C  C249  1  0.94354000  0.65909000  0.78637000  1.0
  C  C250  1  0.65909000  0.94354000  0.28636000  1.0
  C  C251  1  0.05646000  0.34090000  0.21364000  1.0
  C  C252  1  0.31291000  0.13951000  0.73535000  1.0
  C  C253  1  0.86049000  0.68709000  0.76465000  1.0
  C  C254  1  0.68709000  0.86049000  0.26465000  1.0
  C  C255  1  0.13951000  0.31291000  0.23535000  1.0
  C  C256  1  0.19455000  0.48434000  0.71938000  1.0
  C  C257  1  0.51566000  0.80545000  0.78062000  1.0
  C  C258  1  0.80545000  0.51566000  0.28062000  1.0
  C  C259  1  0.48434000  0.19455000  0.21938000  1.0
  C  C260  1  0.20694000  0.57775000  0.69393000  1.0
  C  C261  1  0.42225000  0.79306000  0.80607000  1.0
  C  C262  1  0.79306000  0.42225000  0.30607000  1.0
  C  C263  1  0.57775000  0.20694000  0.19393000  1.0
  N  N264  1  0.55720000  0.83630000  0.56486000  1.0
  N  N265  1  0.16369000  0.44280000  0.93514000  1.0
  N  N266  1  0.44280000  0.16370000  0.43514000  1.0
  N  N267  1  0.83630000  0.55719000  0.06486000  1.0
  N  N268  1  0.04745000  0.85762000  0.58056000  1.0
  N  N269  1  0.14237000  0.95256000  0.91944000  1.0
  N  N270  1  0.95255000  0.14237000  0.41944000  1.0
  N  N271  1  0.85763000  0.04744000  0.08056000  1.0
  O  O272  1  0.22277000  0.75672000  0.62792000  1.0
  O  O273  1  0.24328000  0.77723000  0.87208000  1.0
  O  O274  1  0.77723000  0.24328000  0.37208000  1.0
  O  O275  1  0.75672000  0.22277000  0.12792000  1.0
  O  O276  1  0.37946000  0.71360000  0.59915000  1.0
  O  O277  1  0.28640000  0.62054000  0.90085000  1.0
  O  O278  1  0.62054000  0.28640000  0.40085000  1.0
  O  O279  1  0.71360000  0.37946000  0.09915000  1.0
  O  O280  1  0.39683000  0.87230000  0.49469000  1.0
  O  O281  1  0.12771000  0.60317000  0.00531000  1.0
  O  O282  1  0.60317000  0.12771000  0.50531000  1.0
  O  O283  1  0.87229000  0.39683000  0.99469000  1.0
  O  O284  1  0.23369000  0.89188000  0.51143000  1.0
  O  O285  1  0.10813000  0.76631000  0.98857000  1.0
  O  O286  1  0.76631000  0.10812000  0.48857000  1.0
  O  O287  1  0.89187000  0.23369000  0.01143000  1.0
  O  O288  1  0.41131000  0.94601000  0.23013000  1.0
  O  O289  1  0.05399000  0.58870000  0.26987000  1.0
  O  O290  1  0.58869000  0.05397000  0.76987000  1.0
  O  O291  1  0.94602000  0.41131000  0.73013000  1.0
  O  O292  1  0.94588000  0.13755000  0.15689000  1.0
  O  O293  1  0.86245000  0.05412000  0.34311000  1.0
  O  O294  1  0.05411000  0.86245000  0.84311000  1.0
  O  O295  1  0.13755000  0.94588000  0.65689000  1.0
  O  O296  1  0.05109000  0.11910000  0.08486000  1.0
  O  O297  1  0.88090000  0.94891000  0.41514000  1.0
  O  O298  1  0.94891000  0.88089000  0.91514000  1.0
  O  O299  1  0.11910000  0.05109000  0.58486000  1.0
  O  O300  1  0.19932000  0.29614000  0.77689000  1.0
  O  O301  1  0.70385000  0.80068000  0.72311000  1.0
  O  O302  1  0.80068000  0.70385000  0.22311000  1.0
  O  O303  1  0.29614000  0.19932000  0.27689000  1.0
  O  O304  1  0.34043000  0.96163000  0.59285000  1.0
  O  O305  1  0.03837000  0.65957000  0.90716000  1.0
  O  O306  1  0.65957000  0.03837000  0.40715000  1.0
  O  O307  1  0.96163000  0.34042000  0.09285000  1.0
  O  O308  1  0.40979000  0.89622000  0.66294000  1.0
  O  O309  1  0.10378000  0.59020000  0.83707000  1.0
  O  O310  1  0.59021000  0.10378000  0.33706000  1.0
  O  O311  1  0.89622000  0.40979000  0.16294000  1.0
