# generated using pymatgen
data_CuH18C20N6O5
_symmetry_space_group_name_H-M   'P 1'
_cell_length_a   9.28503000
_cell_length_b   9.40252000
_cell_length_c   12.43558191
_cell_angle_alpha   102.89805244
_cell_angle_beta   111.92337259
_cell_angle_gamma   89.99810000
_symmetry_Int_Tables_number   1
_chemical_formula_structural   CuH18C20N6O5
_chemical_formula_sum   'Cu2 H36 C40 N12 O10'
_cell_volume   977.56241265
_cell_formula_units_Z   2
loop_
 _symmetry_equiv_pos_site_id
 _symmetry_equiv_pos_as_xyz
  1  'x, y, z'
loop_
 _atom_site_type_symbol
 _atom_site_label
 _atom_site_symmetry_multiplicity
 _atom_site_fract_x
 _atom_site_fract_y
 _atom_site_fract_z
 _atom_site_occupancy
  Cu  Cu0  1  0.00000000  0.00000000  0.00000000  1.0
  Cu  Cu1  1  1.00000000  0.50000000  0.00000000  1.0
  H  H2  1  0.17565000  0.75488000  0.07250000  1.0
  H  H3  1  0.10319000  0.74512000  0.92755000  1.0
  H  H4  1  0.82436000  0.24512000  0.92751000  1.0
  H  H5  1  0.89681000  0.25488000  0.07245000  1.0
  H  H6  1  0.79384000  0.69602000  0.83275000  1.0
  H  H7  1  0.96128000  0.80385000  0.16740000  1.0
  H  H8  1  0.20615000  0.30398000  0.16724000  1.0
  H  H9  1  0.03873000  0.19615000  0.83261000  1.0
  H  H10  1  0.65768000  0.08281000  0.00166000  1.0
  H  H11  1  0.65590000  0.41730000  0.99839000  1.0
  H  H12  1  0.34231000  0.91719000  0.99834000  1.0
  H  H13  1  0.34409000  0.58270000  0.00161000  1.0
  H  H14  1  0.35718000  0.65198000  0.76725000  1.0
  H  H15  1  0.59002000  0.84810000  0.23282000  1.0
  H  H16  1  0.64282000  0.34802000  0.23275000  1.0
  H  H17  1  0.40998000  0.15191000  0.76718000  1.0
  H  H18  1  0.51120000  0.54332000  0.76105000  1.0
  H  H19  1  0.75032000  0.95675000  0.23910000  1.0
  H  H20  1  0.48881000  0.45668000  0.23895000  1.0
  H  H21  1  0.24968000  0.04325000  0.76090000  1.0
  H  H22  1  0.24231000  0.46413000  0.55941000  1.0
  H  H23  1  0.68292000  0.03580000  0.44068000  1.0
  H  H24  1  0.75770000  0.53587000  0.44059000  1.0
  H  H25  1  0.31708000  0.96420000  0.55932000  1.0
  H  H26  1  0.58014000  0.82614000  0.63861000  1.0
  H  H27  1  0.94153000  0.67383000  0.36141000  1.0
  H  H28  1  0.41986000  0.17386000  0.36139000  1.0
  H  H29  1  0.05847000  0.32617000  0.63859000  1.0
  H  H30  1  0.15041000  0.45815000  0.34400000  1.0
  H  H31  1  0.80650000  0.04172000  0.65611000  1.0
  H  H32  1  0.84959000  0.54185000  0.65600000  1.0
  H  H33  1  0.19351000  0.95828000  0.34390000  1.0
  H  H34  1  0.48831000  0.81826000  0.42298000  1.0
  H  H35  1  0.06540000  0.68164000  0.57704000  1.0
  H  H36  1  0.51169000  0.18174000  0.57702000  1.0
  H  H37  1  0.93460000  0.31836000  0.42296000  1.0
  C  C38  1  0.72689000  0.78183000  0.85945000  1.0
  C  C39  1  0.86760000  0.71809000  0.14075000  1.0
  C  C40  1  0.27311000  0.21817000  0.14055000  1.0
  C  C41  1  0.13240000  0.28191000  0.85925000  1.0
  C  C42  1  0.65334000  0.97635000  0.94401000  1.0
  C  C43  1  0.70923000  0.52376000  0.05604000  1.0
  C  C44  1  0.34666000  0.02365000  0.05599000  1.0
  C  C45  1  0.29076000  0.47624000  0.94396000  1.0
  C  C46  1  0.46066000  0.64577000  0.74421000  1.0
  C  C47  1  0.71656000  0.85433000  0.25592000  1.0
  C  C48  1  0.53933000  0.35423000  0.25578000  1.0
  C  C49  1  0.28343000  0.14568000  0.74408000  1.0
  C  C50  1  0.41518000  0.64707000  0.61426000  1.0
  C  C51  1  0.80097000  0.85290000  0.38585000  1.0
  C  C52  1  0.58481000  0.35293000  0.38573000  1.0
  C  C53  1  0.19903000  0.14710000  0.61415000  1.0
  C  C54  1  0.29591000  0.54279000  0.52980000  1.0
  C  C55  1  0.76621000  0.95719000  0.47033000  1.0
  C  C56  1  0.70409000  0.45721000  0.47020000  1.0
  C  C57  1  0.23379000  0.04281000  0.52967000  1.0
  C  C58  1  0.48542000  0.74521000  0.57502000  1.0
  C  C59  1  0.91037000  0.75469000  0.42503000  1.0
  C  C60  1  0.51458000  0.25480000  0.42498000  1.0
  C  C61  1  0.08963000  0.24531000  0.57497000  1.0
  C  C62  1  0.24507000  0.53826000  0.40882000  1.0
  C  C63  1  0.83639000  0.96166000  0.59129000  1.0
  C  C64  1  0.75493000  0.46174000  0.59118000  1.0
  C  C65  1  0.16361000  0.03834000  0.40871000  1.0
  C  C66  1  0.43454000  0.74101000  0.45355000  1.0
  C  C67  1  0.98104000  0.75887000  0.54649000  1.0
  C  C68  1  0.56546000  0.25899000  0.54645000  1.0
  C  C69  1  0.01896000  0.24113000  0.45351000  1.0
  C  C70  1  0.31334000  0.63878000  0.36953000  1.0
  C  C71  1  0.94400000  0.86115000  0.63055000  1.0
  C  C72  1  0.68666000  0.36122000  0.63047000  1.0
  C  C73  1  0.05600000  0.13885000  0.36945000  1.0
  C  C74  1  0.25455000  0.63869000  0.23925000  1.0
  C  C75  1  0.01539000  0.86119000  0.76083000  1.0
  C  C76  1  0.74545000  0.36131000  0.76075000  1.0
  C  C77  1  0.98461000  0.13881000  0.23917000  1.0
  N  N78  1  0.78158000  0.91396000  0.93338000  1.0
  N  N79  1  0.84822000  0.58599000  0.06674000  1.0
  N  N80  1  0.21843000  0.08604000  0.06663000  1.0
  N  N81  1  0.15178000  0.41401000  0.93326000  1.0
  N  N82  1  0.57158000  0.76702000  0.82745000  1.0
  N  N83  1  0.74425000  0.73304000  0.17270000  1.0
  N  N84  1  0.42842000  0.23297000  0.17255000  1.0
  N  N85  1  0.25575000  0.26696000  0.82730000  1.0
  N  N86  1  0.52218000  0.89016000  0.87997000  1.0
  N  N87  1  0.64219000  0.61001000  0.12009000  1.0
  N  N88  1  0.47782000  0.10984000  0.12002000  1.0
  N  N89  1  0.35781000  0.39000000  0.87991000  1.0
  O  O90  1  0.07840000  0.74996000  0.00002000  1.0
  O  O91  1  0.92160000  0.25004000  0.99998000  1.0
  O  O92  1  0.98856000  0.97248000  0.83067000  1.0
  O  O93  1  0.15795000  0.52736000  0.16936000  1.0
  O  O94  1  0.01144000  0.02752000  0.16933000  1.0
  O  O95  1  0.84205000  0.47264000  0.83064000  1.0
  O  O96  1  0.29975000  0.74338000  0.20770000  1.0
  O  O97  1  0.09213000  0.75648000  0.79243000  1.0
  O  O98  1  0.70025000  0.25662000  0.79230000  1.0
  O  O99  1  0.90787000  0.24352000  0.20757000  1.0
