# generated using pymatgen
data_Zn4C24Br12O13
_symmetry_space_group_name_H-M   'P 1'
_cell_length_a   18.68650216
_cell_length_b   18.68660000
_cell_length_c   18.68660000
_cell_angle_alpha   89.99970000
_cell_angle_beta   60.00035023
_cell_angle_gamma   119.99964977
_symmetry_Int_Tables_number   1
_chemical_formula_structural   Zn4C24Br12O13
_chemical_formula_sum   'Zn8 C48 Br24 O26'
_cell_volume   4613.99433743
_cell_formula_units_Z   2
loop_
 _symmetry_equiv_pos_site_id
 _symmetry_equiv_pos_as_xyz
  1  'x, y, z'
loop_
 _atom_site_type_symbol
 _atom_site_label
 _atom_site_symmetry_multiplicity
 _atom_site_fract_x
 _atom_site_fract_y
 _atom_site_fract_z
 _atom_site_occupancy
  Zn  Zn0  1  0.41428000  0.04285000  0.54286000  1.0
  Zn  Zn1  1  0.58572000  0.04286000  0.54285000  1.0
  Zn  Zn2  1  0.58571000  0.04285000  0.37143000  1.0
  Zn  Zn3  1  0.41429000  0.87143000  0.54285000  1.0
  Zn  Zn4  1  0.58572000  0.45714000  0.95714000  1.0
  Zn  Zn5  1  0.41429000  0.45715000  0.12857000  1.0
  Zn  Zn6  1  0.41428000  0.45714000  0.95714000  1.0
  Zn  Zn7  1  0.58571000  0.62856000  0.95715000  1.0
  C  C8  1  0.50000000  0.13718000  0.63718000  1.0
  C  C9  1  0.77435000  0.13717000  0.36282000  1.0
  C  C10  1  0.50000000  0.13719000  0.36282000  1.0
  C  C11  1  0.50001000  0.86283000  0.36281000  1.0
  C  C12  1  0.22564000  0.86282000  0.63718000  1.0
  C  C13  1  0.50000000  0.86282000  0.63719000  1.0
  C  C14  1  0.50000000  0.36282000  0.13718000  1.0
  C  C15  1  0.22563000  0.36282000  0.13718000  1.0
  C  C16  1  0.50000000  0.36282000  0.86283000  1.0
  C  C17  1  0.50000000  0.63718000  0.86281000  1.0
  C  C18  1  0.77436000  0.63718000  0.86282000  1.0
  C  C19  1  0.50000000  0.63719000  0.13718000  1.0
  C  C20  1  0.10985000  0.80493000  0.69507000  1.0
  C  C21  1  0.89015000  0.69507000  0.80493000  1.0
  C  C22  1  0.05363000  0.71185000  0.72318000  1.0
  C  C23  1  0.94637000  0.78815000  0.77681000  1.0
  C  C24  1  0.94637000  0.65822000  0.77682000  1.0
  C  C25  1  0.05363000  0.84178000  0.72318000  1.0
  C  C26  1  0.89015000  0.19507000  0.30492000  1.0
  C  C27  1  0.10985000  0.30493000  0.19508000  1.0
  C  C28  1  0.94637000  0.22318000  0.21185000  1.0
  C  C29  1  0.05363000  0.27682000  0.28815000  1.0
  C  C30  1  0.05363000  0.27681000  0.15822000  1.0
  C  C31  1  0.94637000  0.22319000  0.34178000  1.0
  C  C32  1  0.50000000  0.19507000  0.30493000  1.0
  C  C33  1  0.50000000  0.30492000  0.19508000  1.0
  C  C34  1  0.56496000  0.22318000  0.21185000  1.0
  C  C35  1  0.43504000  0.27682000  0.28815000  1.0
  C  C36  1  0.56496000  0.27681000  0.15823000  1.0
  C  C37  1  0.43504000  0.22319000  0.34177000  1.0
  C  C38  1  0.50000000  0.80492000  0.69508000  1.0
  C  C39  1  0.50000000  0.69508000  0.80492000  1.0
  C  C40  1  0.43504000  0.71185000  0.72318000  1.0
  C  C41  1  0.56496000  0.78814000  0.77682000  1.0
  C  C42  1  0.43504000  0.65823000  0.77681000  1.0
  C  C43  1  0.56496000  0.84177000  0.72319000  1.0
  C  C44  1  0.50000000  0.19508000  0.69507000  1.0
  C  C45  1  0.50000000  0.30492000  0.80492000  1.0
  C  C46  1  0.56496000  0.22318000  0.72319000  1.0
  C  C47  1  0.43504000  0.27682000  0.77681000  1.0
  C  C48  1  0.56497000  0.27682000  0.77681000  1.0
  C  C49  1  0.43504000  0.22319000  0.72318000  1.0
  C  C50  1  0.50000000  0.80492000  0.30492000  1.0
  C  C51  1  0.50000000  0.69508000  0.19508000  1.0
  C  C52  1  0.43504000  0.71186000  0.34177000  1.0
  C  C53  1  0.56496000  0.78815000  0.15822000  1.0
  C  C54  1  0.43504000  0.65823000  0.28815000  1.0
  C  C55  1  0.56497000  0.84178000  0.21184000  1.0
  Br  Br56  1  0.11711000  0.65211000  0.69145000  1.0
  Br  Br57  1  0.88289000  0.84789000  0.80855000  1.0
  Br  Br58  1  0.88289000  0.53500000  0.80856000  1.0
  Br  Br59  1  0.11711000  0.96500000  0.69144000  1.0
  Br  Br60  1  0.88289000  0.19145000  0.15211000  1.0
  Br  Br61  1  0.11711000  0.30856000  0.34789000  1.0
  Br  Br62  1  0.11711000  0.30856000  0.03500000  1.0
  Br  Br63  1  0.88289000  0.19145000  0.46500000  1.0
  Br  Br64  1  0.65644000  0.19144000  0.15211000  1.0
  Br  Br65  1  0.34356000  0.30856000  0.34788000  1.0
  Br  Br66  1  0.65645000  0.30856000  0.03500000  1.0
  Br  Br67  1  0.34356000  0.19145000  0.46499000  1.0
  Br  Br68  1  0.34355000  0.65211000  0.69145000  1.0
  Br  Br69  1  0.65645000  0.84789000  0.80855000  1.0
  Br  Br70  1  0.34355000  0.53500000  0.80856000  1.0
  Br  Br71  1  0.65645000  0.96501000  0.69144000  1.0
  Br  Br72  1  0.65645000  0.19145000  0.69144000  1.0
  Br  Br73  1  0.34356000  0.30856000  0.80855000  1.0
  Br  Br74  1  0.65645000  0.30856000  0.80855000  1.0
  Br  Br75  1  0.34355000  0.19144000  0.69145000  1.0
  Br  Br76  1  0.34356000  0.65211000  0.46499000  1.0
  Br  Br77  1  0.65644000  0.84789000  0.03500000  1.0
  Br  Br78  1  0.34356000  0.53501000  0.34789000  1.0
  Br  Br79  1  0.65645000  0.96500000  0.15211000  1.0
  O  O80  1  0.50000000  0.00000000  0.50000000  1.0
  O  O81  1  0.44004000  0.11469000  0.61468000  1.0
  O  O82  1  0.72937000  0.11469000  0.44527000  1.0
  O  O83  1  0.55997000  0.11469000  0.32535000  1.0
  O  O84  1  0.55995000  0.11468000  0.61469000  1.0
  O  O85  1  0.44004000  0.11468000  0.44527000  1.0
  O  O86  1  0.72937000  0.11468000  0.32536000  1.0
  O  O87  1  0.55996000  0.94527000  0.32535000  1.0
  O  O88  1  0.27063000  0.82536000  0.61468000  1.0
  O  O89  1  0.44005000  0.82536000  0.44527000  1.0
  O  O90  1  0.27063000  0.94528000  0.61468000  1.0
  O  O91  1  0.55996000  0.94527000  0.61468000  1.0
  O  O92  1  0.44004000  0.82536000  0.61468000  1.0
  O  O93  1  0.50000000  0.49999000  1.00000000  1.0
  O  O94  1  0.55996000  0.38531000  0.05473000  1.0
  O  O95  1  0.27063000  0.38531000  0.17465000  1.0
  O  O96  1  0.44005000  0.38532000  0.88531000  1.0
  O  O97  1  0.44005000  0.38532000  0.17464000  1.0
  O  O98  1  0.55996000  0.38532000  0.88531000  1.0
  O  O99  1  0.27063000  0.38532000  0.05473000  1.0
  O  O100  1  0.44004000  0.55473000  0.88532000  1.0
  O  O101  1  0.72937000  0.67464000  0.88532000  1.0
  O  O102  1  0.55996000  0.67464000  0.88532000  1.0
  O  O103  1  0.72937000  0.55472000  0.88531000  1.0
  O  O104  1  0.44003000  0.55472000  0.17465000  1.0
  O  O105  1  0.55996000  0.67464000  0.05473000  1.0
