# generated using pymatgen
data_CuH12C20(NO2)2
_symmetry_space_group_name_H-M   'P 1'
_cell_length_a   8.74265000
_cell_length_b   8.74608000
_cell_length_c   12.87130000
_cell_angle_alpha   108.16600000
_cell_angle_beta   101.09800000
_cell_angle_gamma   104.92400000
_symmetry_Int_Tables_number   1
_chemical_formula_structural   CuH12C20(NO2)2
_chemical_formula_sum   'Cu2 H24 C40 N4 O8'
_cell_volume   862.78773834
_cell_formula_units_Z   2
loop_
 _symmetry_equiv_pos_site_id
 _symmetry_equiv_pos_as_xyz
  1  'x, y, z'
loop_
 _atom_site_type_symbol
 _atom_site_label
 _atom_site_symmetry_multiplicity
 _atom_site_fract_x
 _atom_site_fract_y
 _atom_site_fract_z
 _atom_site_occupancy
  Cu  Cu0  1  0.82933000  0.57952000  0.75002000  1.0
  Cu  Cu1  1  0.17067000  0.42048000  0.24998000  1.0
  H  H2  1  0.21163000  0.43212000  0.63832000  1.0
  H  H3  1  0.79437000  0.07411000  0.86206000  1.0
  H  H4  1  0.78837000  0.56787000  0.36167000  1.0
  H  H5  1  0.20563000  0.92589000  0.13794000  1.0
  H  H6  1  0.48291000  0.41124000  0.61611000  1.0
  H  H7  1  0.79541000  0.36732000  0.88402000  1.0
  H  H8  1  0.51709000  0.58876000  0.38388000  1.0
  H  H9  1  0.20460000  0.63269000  0.11598000  1.0
  H  H10  1  0.87986000  0.74508000  0.96379000  1.0
  H  H11  1  0.78171000  0.41613000  0.53623000  1.0
  H  H12  1  0.12014000  0.25492000  0.03621000  1.0
  H  H13  1  0.21830000  0.58387000  0.46377000  1.0
  H  H14  1  0.88660000  0.95116000  0.14874000  1.0
  H  H15  1  0.80200000  0.23752000  0.35113000  1.0
  H  H16  1  0.11339000  0.04884000  0.85125000  1.0
  H  H17  1  0.19801000  0.76248000  0.64887000  1.0
  H  H18  1  0.62311000  0.98897000  0.18217000  1.0
  H  H19  1  0.80662000  0.94085000  0.31786000  1.0
  H  H20  1  0.37688000  0.01102000  0.81783000  1.0
  H  H21  1  0.19339000  0.05914000  0.68214000  1.0
  H  H22  1  0.35559000  0.82145000  0.03045000  1.0
  H  H23  1  0.79170000  0.82564000  0.46990000  1.0
  H  H24  1  0.64440000  0.17855000  0.96955000  1.0
  H  H25  1  0.20830000  0.17435000  0.53011000  1.0
  C  C26  1  0.14768000  0.61063000  0.82612000  1.0
  C  C27  1  0.78452000  0.82206000  0.67418000  1.0
  C  C28  1  0.85232000  0.38937000  0.17387000  1.0
  C  C29  1  0.21548000  0.17794000  0.32582000  1.0
  C  C30  1  0.31414000  0.59988000  0.81605000  1.0
  C  C31  1  0.78411000  0.99860000  0.68425000  1.0
  C  C32  1  0.68586000  0.40011000  0.18394000  1.0
  C  C33  1  0.21589000  0.00140000  0.31575000  1.0
  C  C34  1  0.32250000  0.49915000  0.71170000  1.0
  C  C35  1  0.78783000  0.11142000  0.78860000  1.0
  C  C36  1  0.67749000  0.50085000  0.28829000  1.0
  C  C37  1  0.21217000  0.88858000  0.21140000  1.0
  C  C38  1  0.47526000  0.48696000  0.69903000  1.0
  C  C39  1  0.78819000  0.27671000  0.80115000  1.0
  C  C40  1  0.52474000  0.51304000  0.30097000  1.0
  C  C41  1  0.21182000  0.72329000  0.19886000  1.0
  C  C42  1  0.61449000  0.67222000  0.88979000  1.0
  C  C43  1  0.78264000  0.22494000  0.61033000  1.0
  C  C44  1  0.38551000  0.32778000  0.11020000  1.0
  C  C45  1  0.21737000  0.77507000  0.38967000  1.0
  C  C46  1  0.76584000  0.76325000  0.97894000  1.0
  C  C47  1  0.78442000  0.28692000  0.52108000  1.0
  C  C48  1  0.23416000  0.23675000  0.02106000  1.0
  C  C49  1  0.21558000  0.71308000  0.47892000  1.0
  C  C50  1  0.76844000  0.87554000  0.08251000  1.0
  C  C51  1  0.79277000  0.18574000  0.41745000  1.0
  C  C52  1  0.23156000  0.12447000  0.91749000  1.0
  C  C53  1  0.20724000  0.81425000  0.58256000  1.0
  C  C54  1  0.61992000  0.89770000  0.10098000  1.0
  C  C55  1  0.79652000  0.01886000  0.39903000  1.0
  C  C56  1  0.38007000  0.10230000  0.89902000  1.0
  C  C57  1  0.20348000  0.98114000  0.60097000  1.0
  C  C58  1  0.47046000  0.80609000  0.01703000  1.0
  C  C59  1  0.78941000  0.95374000  0.48321000  1.0
  C  C60  1  0.52954000  0.19391000  0.98297000  1.0
  C  C61  1  0.21059000  0.04626000  0.51680000  1.0
  C  C62  1  0.46286000  0.69104000  0.90898000  1.0
  C  C63  1  0.78233000  0.05422000  0.59123000  1.0
  C  C64  1  0.53714000  0.30896000  0.09101000  1.0
  C  C65  1  0.21767000  0.94578000  0.40878000  1.0
  N  N66  1  0.61552000  0.57023000  0.78463000  1.0
  N  N67  1  0.78567000  0.33114000  0.71543000  1.0
  N  N68  1  0.38448000  0.42977000  0.21536000  1.0
  N  N69  1  0.21434000  0.66886000  0.28457000  1.0
  O  O70  1  0.05179000  0.60063000  0.73217000  1.0
  O  O71  1  0.86830000  0.81992000  0.76811000  1.0
  O  O72  1  0.94821000  0.39937000  0.26783000  1.0
  O  O73  1  0.13171000  0.18009000  0.23189000  1.0
  O  O74  1  0.10902000  0.62337000  0.91628000  1.0
  O  O75  1  0.70714000  0.69340000  0.58397000  1.0
  O  O76  1  0.89098000  0.37664000  0.08371000  1.0
  O  O77  1  0.29286000  0.30660000  0.41604000  1.0
