# generated using pymatgen
data_YbH14C21(SN3)2
_symmetry_space_group_name_H-M   'P 1'
_cell_length_a   9.82914000
_cell_length_b   10.16320000
_cell_length_c   10.59200000
_cell_angle_alpha   88.27020000
_cell_angle_beta   84.32620000
_cell_angle_gamma   67.43550000
_symmetry_Int_Tables_number   1
_chemical_formula_structural   YbH14C21(SN3)2
_chemical_formula_sum   'Yb2 H28 C42 S4 N12'
_cell_volume   972.27281302
_cell_formula_units_Z   2
loop_
 _symmetry_equiv_pos_site_id
 _symmetry_equiv_pos_as_xyz
  1  'x, y, z'
loop_
 _atom_site_type_symbol
 _atom_site_label
 _atom_site_symmetry_multiplicity
 _atom_site_fract_x
 _atom_site_fract_y
 _atom_site_fract_z
 _atom_site_occupancy
  Yb  Yb0  1  0.81602000  0.44538000  0.02935000  1.0
  Yb  Yb1  1  0.18399000  0.55462000  0.97065000  1.0
  H  H2  1  0.01462000  0.97006000  0.23981000  1.0
  H  H3  1  0.98538000  0.02994000  0.76019000  1.0
  H  H4  1  0.80477000  0.95102000  0.03716000  1.0
  H  H5  1  0.19522000  0.04898000  0.96284000  1.0
  H  H6  1  0.17438000  0.96471000  0.45948000  1.0
  H  H7  1  0.82562000  0.03530000  0.54052000  1.0
  H  H8  1  0.24982000  0.12908000  0.58136000  1.0
  H  H9  1  0.75018000  0.87092000  0.41864000  1.0
  H  H10  1  0.17867000  0.38207000  0.52062000  1.0
  H  H11  1  0.82133000  0.61793000  0.47937000  1.0
  H  H12  1  0.02661000  0.48184000  0.34172000  1.0
  H  H13  1  0.97339000  0.51816000  0.65828000  1.0
  H  H14  1  0.60547000  0.14166000  0.87020000  1.0
  H  H15  1  0.39452000  0.85835000  0.12980000  1.0
  H  H16  1  0.43673000  0.13809000  0.71113000  1.0
  H  H17  1  0.56327000  0.86191000  0.28887000  1.0
  H  H18  1  0.40323000  0.91579000  0.66318000  1.0
  H  H19  1  0.59677000  0.08421000  0.33682000  1.0
  H  H20  1  0.54098000  0.68796000  0.76943000  1.0
  H  H21  1  0.45902000  0.31204000  0.23057000  1.0
  H  H22  1  0.12811000  0.67705000  0.33790000  1.0
  H  H23  1  0.87190000  0.32295000  0.66210000  1.0
  H  H24  1  0.20916000  0.73171000  0.53796000  1.0
  H  H25  1  0.79084000  0.26829000  0.46204000  1.0
  H  H26  1  0.47022000  0.69705000  0.55504000  1.0
  H  H27  1  0.52978000  0.30295000  0.44496000  1.0
  H  H28  1  0.66243000  0.59858000  0.37317000  1.0
  H  H29  1  0.33757000  0.40141000  0.62683000  1.0
  C  C30  1  0.92344000  0.17879000  0.16688000  1.0
  C  C31  1  0.07656000  0.82121000  0.83312000  1.0
  C  C32  1  0.05596000  0.13426000  0.33463000  1.0
  C  C33  1  0.94404000  0.86574000  0.66537000  1.0
  C  C34  1  0.14020000  0.07701000  0.43566000  1.0
  C  C35  1  0.85980000  0.92299000  0.56434000  1.0
  C  C36  1  0.18251000  0.16953000  0.50227000  1.0
  C  C37  1  0.81748000  0.83047000  0.49773000  1.0
  C  C38  1  0.14205000  0.31320000  0.46815000  1.0
  C  C39  1  0.85795000  0.68680000  0.53185000  1.0
  C  C40  1  0.05690000  0.37040000  0.36732000  1.0
  C  C41  1  0.94310000  0.62960000  0.63268000  1.0
  C  C42  1  0.01324000  0.27960000  0.30002000  1.0
  C  C43  1  0.98676000  0.72041000  0.69998000  1.0
  C  C44  1  0.80887000  0.73981000  0.02360000  1.0
  C  C45  1  0.19113000  0.26019000  0.97640000  1.0
  C  C46  1  0.66834000  0.91514000  0.90691000  1.0
  C  C47  1  0.33166000  0.08486000  0.09309000  1.0
  C  C48  1  0.59223000  0.04349000  0.84807000  1.0
  C  C49  1  0.40777000  0.95651000  0.15194000  1.0
  C  C50  1  0.49728000  0.04013000  0.75983000  1.0
  C  C51  1  0.50271000  0.95987000  0.24017000  1.0
  C  C52  1  0.47874000  0.91372000  0.73274000  1.0
  C  C53  1  0.52126000  0.08628000  0.26726000  1.0
  C  C54  1  0.55532000  0.78544000  0.79138000  1.0
  C  C55  1  0.44468000  0.21455000  0.20862000  1.0
  C  C56  1  0.65199000  0.78649000  0.87937000  1.0
  C  C57  1  0.34801000  0.21351000  0.12063000  1.0
  C  C58  1  0.48103000  0.52353000  0.06504000  1.0
  C  C59  1  0.51898000  0.47647000  0.93496000  1.0
  C  C60  1  0.35134000  0.60615000  0.24213000  1.0
  C  C61  1  0.64866000  0.39385000  0.75787000  1.0
  C  C62  1  0.24365000  0.66026000  0.34469000  1.0
  C  C63  1  0.75635000  0.33974000  0.65531000  1.0
  C  C64  1  0.29009000  0.69180000  0.45610000  1.0
  C  C65  1  0.70991000  0.30820000  0.54390000  1.0
  C  C66  1  0.43869000  0.67185000  0.46595000  1.0
  C  C67  1  0.56131000  0.32815000  0.53405000  1.0
  C  C68  1  0.54697000  0.61671000  0.36548000  1.0
  C  C69  1  0.45303000  0.38329000  0.63452000  1.0
  C  C70  1  0.50274000  0.58305000  0.25346000  1.0
  C  C71  1  0.49726000  0.41695000  0.74654000  1.0
  S  S72  1  0.83502000  0.16542000  0.04034000  1.0
  S  S73  1  0.16499000  0.83458000  0.95966000  1.0
  S  S74  1  0.92417000  0.64066000  0.13496000  1.0
  S  S75  1  0.07583000  0.35934000  0.86503000  1.0
  N  N76  1  0.93038000  0.30442000  0.19640000  1.0
  N  N77  1  0.06962000  0.69559000  0.80360000  1.0
  N  N78  1  0.99693000  0.07462000  0.24886000  1.0
  N  N79  1  0.00306000  0.92539000  0.75115000  1.0
  N  N80  1  0.74256000  0.67866000  0.95304000  1.0
  N  N81  1  0.25744000  0.32134000  0.04696000  1.0
  N  N82  1  0.76809000  0.88080000  0.99823000  1.0
  N  N83  1  0.23191000  0.11920000  0.00176000  1.0
  N  N84  1  0.58357000  0.52892000  0.13917000  1.0
  N  N85  1  0.41643000  0.47108000  0.86083000  1.0
  N  N86  1  0.34102000  0.56657000  0.12056000  1.0
  N  N87  1  0.65898000  0.43343000  0.87944000  1.0
