# generated using pymatgen
data_CdH18C26SN4O7
_symmetry_space_group_name_H-M   'P 1'
_cell_length_a   9.50857000
_cell_length_b   12.90610000
_cell_length_c   26.61900000
_cell_angle_alpha   96.86650000
_cell_angle_beta   90.00000000
_cell_angle_gamma   89.99990000
_symmetry_Int_Tables_number   1
_chemical_formula_structural   CdH18C26SN4O7
_chemical_formula_sum   'Cd4 H72 C104 S4 N16 O28'
_cell_volume   3243.21493068
_cell_formula_units_Z   4
loop_
 _symmetry_equiv_pos_site_id
 _symmetry_equiv_pos_as_xyz
  1  'x, y, z'
loop_
 _atom_site_type_symbol
 _atom_site_label
 _atom_site_symmetry_multiplicity
 _atom_site_fract_x
 _atom_site_fract_y
 _atom_site_fract_z
 _atom_site_occupancy
  Cd  Cd0  1  0.60427000  0.12244000  0.03278000  1.0
  Cd  Cd1  1  0.60427000  0.87756000  0.46722000  1.0
  Cd  Cd2  1  0.39573000  0.87756000  0.96723000  1.0
  Cd  Cd3  1  0.39573000  0.12244000  0.53278000  1.0
  H  H4  1  0.98823000  0.81847000  0.98290000  1.0
  H  H5  1  0.98823000  0.18153000  0.51710000  1.0
  H  H6  1  0.01176000  0.18153000  0.01710000  1.0
  H  H7  1  0.01177000  0.81847000  0.48290000  1.0
  H  H8  1  0.64964000  0.96471000  0.11220000  1.0
  H  H9  1  0.64964000  0.03529000  0.38780000  1.0
  H  H10  1  0.35036000  0.03529000  0.88780000  1.0
  H  H11  1  0.35036000  0.96471000  0.61220000  1.0
  H  H12  1  0.85058000  0.97790000  0.97509000  1.0
  H  H13  1  0.85058000  0.02210000  0.52491000  1.0
  H  H14  1  0.14942000  0.02210000  0.02491000  1.0
  H  H15  1  0.14942000  0.97791000  0.47509000  1.0
  H  H16  1  0.24935000  0.43509000  0.08684000  1.0
  H  H17  1  0.24935000  0.56491000  0.41316000  1.0
  H  H18  1  0.75065000  0.56490000  0.91316000  1.0
  H  H19  1  0.75065000  0.43509000  0.58684000  1.0
  H  H20  1  0.53225000  0.26784000  0.94521000  1.0
  H  H21  1  0.53225000  0.73217000  0.55479000  1.0
  H  H22  1  0.46776000  0.73216000  0.05479000  1.0
  H  H23  1  0.46775000  0.26784000  0.44521000  1.0
  H  H24  1  0.39263000  0.42803000  0.93236000  1.0
  H  H25  1  0.39262000  0.57197000  0.56764000  1.0
  H  H26  1  0.60738000  0.57197000  0.06764000  1.0
  H  H27  1  0.60737000  0.42803000  0.43236000  1.0
  H  H28  1  0.26812000  0.15322000  0.14263000  1.0
  H  H29  1  0.26811000  0.84679000  0.35737000  1.0
  H  H30  1  0.73188000  0.84679000  0.85737000  1.0
  H  H31  1  0.73188000  0.15321000  0.64263000  1.0
  H  H32  1  0.78002000  0.80047000  0.12625000  1.0
  H  H33  1  0.78002000  0.19953000  0.37375000  1.0
  H  H34  1  0.21998000  0.19953000  0.87375000  1.0
  H  H35  1  0.21998000  0.80047000  0.62625000  1.0
  H  H36  1  0.24461000  0.57633000  0.96881000  1.0
  H  H37  1  0.24461000  0.42367000  0.53119000  1.0
  H  H38  1  0.75539000  0.42367000  0.03119000  1.0
  H  H39  1  0.75539000  0.57633000  0.46881000  1.0
  H  H40  1  0.10683000  0.51791000  0.14524000  1.0
  H  H41  1  0.10683000  0.48209000  0.35476000  1.0
  H  H42  1  0.89316000  0.48209000  0.85476000  1.0
  H  H43  1  0.89316000  0.51791000  0.64524000  1.0
  H  H44  1  0.08598000  0.16171000  0.21095000  1.0
  H  H45  1  0.08599000  0.83829000  0.28905000  1.0
  H  H46  1  0.91401000  0.83829000  0.78905000  1.0
  H  H47  1  0.91402000  0.16171000  0.71096000  1.0
  H  H48  1  0.95511000  0.33649000  0.26021000  1.0
  H  H49  1  0.95511000  0.66351000  0.23979000  1.0
  H  H50  1  0.04490000  0.66351000  0.73979000  1.0
  H  H51  1  0.04489000  0.33649000  0.76021000  1.0
  H  H52  1  0.20761000  0.82199000  0.11111000  1.0
  H  H53  1  0.20761000  0.17801000  0.38889000  1.0
  H  H54  1  0.79239000  0.17801000  0.88889000  1.0
  H  H55  1  0.79239000  0.82199000  0.61111000  1.0
  H  H56  1  0.96431000  0.41020000  0.08065000  1.0
  H  H57  1  0.96431000  0.58980000  0.41935000  1.0
  H  H58  1  0.03569000  0.58980000  0.91935000  1.0
  H  H59  1  0.03569000  0.41020000  0.58065000  1.0
  H  H60  1  0.80123000  0.23483000  0.19605000  1.0
  H  H61  1  0.80123000  0.76517000  0.30395000  1.0
  H  H62  1  0.19878000  0.76516000  0.80395000  1.0
  H  H63  1  0.19877000  0.23483000  0.69605000  1.0
  H  H64  1  0.39605000  0.27562000  0.09308000  1.0
  H  H65  1  0.39605000  0.72438000  0.40692000  1.0
  H  H66  1  0.60396000  0.72438000  0.90692000  1.0
  H  H67  1  0.60395000  0.27562000  0.59308000  1.0
  H  H68  1  0.02691000  0.82832000  0.18027000  1.0
  H  H69  1  0.02691000  0.17168000  0.31973000  1.0
  H  H70  1  0.97309000  0.17169000  0.81973000  1.0
  H  H71  1  0.97309000  0.82831000  0.68027000  1.0
  H  H72  1  0.09400000  0.69839000  0.99973000  1.0
  H  H73  1  0.09400000  0.30161000  0.50027000  1.0
  H  H74  1  0.90600000  0.30161000  0.00027000  1.0
  H  H75  1  0.90600000  0.69839000  0.49973000  1.0
  C  C76  1  0.91365000  0.84613000  0.01267000  1.0
  C  C77  1  0.91365000  0.15387000  0.48733000  1.0
  C  C78  1  0.08634000  0.15387000  0.98733000  1.0
  C  C79  1  0.08634000  0.84614000  0.51267000  1.0
  C  C80  1  0.96585000  0.69630000  0.06557000  1.0
  C  C81  1  0.96585000  0.30370000  0.43443000  1.0
  C  C82  1  0.03414000  0.30369000  0.93443000  1.0
  C  C83  1  0.03415000  0.69630000  0.56557000  1.0
  C  C84  1  0.72454000  0.92835000  0.08449000  1.0
  C  C85  1  0.72454000  0.07165000  0.41551000  1.0
  C  C86  1  0.27546000  0.07165000  0.91551000  1.0
  C  C87  1  0.27546000  0.92835000  0.58449000  1.0
  C  C88  1  0.30848000  0.44435000  0.00881000  1.0
  C  C89  1  0.30848000  0.55566000  0.49119000  1.0
  C  C90  1  0.69152000  0.55565000  0.99119000  1.0
  C  C91  1  0.69153000  0.44434000  0.50881000  1.0
  C  C92  1  0.83666000  0.93605000  0.00794000  1.0
  C  C93  1  0.83666000  0.06395000  0.49206000  1.0
  C  C94  1  0.16333000  0.06395000  0.99206000  1.0
  C  C95  1  0.16334000  0.93605000  0.50794000  1.0
  C  C96  1  0.89278000  0.79509000  0.05562000  1.0
  C  C97  1  0.89278000  0.20491000  0.44438000  1.0
  C  C98  1  0.10721000  0.20491000  0.94438000  1.0
  C  C99  1  0.10721000  0.79509000  0.55562000  1.0
  C  C100  1  0.30997000  0.39999000  0.05458000  1.0
  C  C101  1  0.30997000  0.60001000  0.44542000  1.0
  C  C102  1  0.69003000  0.60001000  0.94542000  1.0
  C  C103  1  0.69003000  0.39999000  0.55458000  1.0
  C  C104  1  0.04631000  0.99549000  0.19861000  1.0
  C  C105  1  0.04631000  0.00451000  0.30139000  1.0
  C  C106  1  0.95369000  0.00451000  0.80139000  1.0
  C  C107  1  0.95369000  0.99549000  0.69861000  1.0
  C  C108  1  0.46797000  0.30813000  0.97537000  1.0
  C  C109  1  0.46797000  0.69187000  0.52463000  1.0
  C  C110  1  0.53203000  0.69187000  0.02463000  1.0
  C  C111  1  0.53203000  0.30813000  0.47537000  1.0
  C  C112  1  0.39034000  0.39672000  0.96863000  1.0
  C  C113  1  0.39034000  0.60328000  0.53138000  1.0
  C  C114  1  0.60966000  0.60328000  0.03138000  1.0
  C  C115  1  0.60966000  0.39672000  0.46862000  1.0
  C  C116  1  0.21370000  0.08306000  0.15100000  1.0
  C  C117  1  0.21370000  0.91694000  0.34900000  1.0
  C  C118  1  0.78630000  0.91694000  0.84900000  1.0
  C  C119  1  0.78631000  0.08306000  0.65100000  1.0
  C  C120  1  0.79681000  0.83812000  0.09224000  1.0
  C  C121  1  0.79680000  0.16188000  0.40776000  1.0
  C  C122  1  0.20319000  0.16188000  0.90776000  1.0
  C  C123  1  0.20319000  0.83812000  0.59224000  1.0
  C  C124  1  0.22706000  0.53750000  0.00279000  1.0
  C  C125  1  0.22706000  0.46250000  0.49721000  1.0
  C  C126  1  0.77294000  0.46250000  0.99721000  1.0
  C  C127  1  0.77294000  0.53750000  0.50279000  1.0
  C  C128  1  0.78607000  0.24949000  0.09619000  1.0
  C  C129  1  0.78607000  0.75051000  0.40381000  1.0
  C  C130  1  0.21393000  0.75051000  0.90381000  1.0
  C  C131  1  0.21393000  0.24949000  0.59619000  1.0
  C  C132  1  0.24679000  0.98727000  0.12286000  1.0
  C  C133  1  0.24680000  0.01274000  0.37714000  1.0
  C  C134  1  0.75321000  0.01273000  0.87714000  1.0
  C  C135  1  0.75321000  0.98727000  0.62286000  1.0
  C  C136  1  0.87501000  0.31454000  0.13424000  1.0
  C  C137  1  0.87501000  0.68546000  0.36576000  1.0
  C  C138  1  0.12500000  0.68546000  0.86576000  1.0
  C  C139  1  0.12499000  0.31454000  0.63424000  1.0
  C  C140  1  0.04380000  0.45338000  0.15566000  1.0
  C  C141  1  0.04380000  0.54662000  0.34434000  1.0
  C  C142  1  0.95620000  0.54662000  0.84434000  1.0
  C  C143  1  0.95620000  0.45338000  0.65566000  1.0
  C  C144  1  0.11288000  0.08771000  0.18900000  1.0
  C  C145  1  0.11288000  0.91229000  0.31100000  1.0
  C  C146  1  0.88712000  0.91229000  0.81100000  1.0
  C  C147  1  0.88712000  0.08771000  0.68900000  1.0
  C  C148  1  0.04274000  0.43029000  0.20549000  1.0
  C  C149  1  0.04274000  0.56971000  0.29451000  1.0
  C  C150  1  0.95726000  0.56971000  0.79451000  1.0
  C  C151  1  0.95725000  0.43029000  0.70549000  1.0
  C  C152  1  0.95563000  0.35243000  0.22087000  1.0
  C  C153  1  0.95563000  0.64757000  0.27913000  1.0
  C  C154  1  0.04437000  0.64757000  0.77913000  1.0
  C  C155  1  0.04437000  0.35243000  0.72087000  1.0
  C  C156  1  0.17974000  0.89557000  0.13331000  1.0
  C  C157  1  0.17975000  0.10443000  0.36669000  1.0
  C  C158  1  0.82025000  0.10443000  0.86669000  1.0
  C  C159  1  0.82026000  0.89557000  0.63331000  1.0
  C  C160  1  0.96165000  0.39354000  0.11980000  1.0
  C  C161  1  0.96165000  0.60646000  0.38020000  1.0
  C  C162  1  0.03835000  0.60646000  0.88020000  1.0
  C  C163  1  0.03835000  0.39354000  0.61980000  1.0
  C  C164  1  0.87003000  0.29580000  0.18516000  1.0
  C  C165  1  0.87004000  0.70420000  0.31484000  1.0
  C  C166  1  0.12997000  0.70420000  0.81484000  1.0
  C  C167  1  0.12996000  0.29580000  0.68516000  1.0
  C  C168  1  0.39084000  0.31202000  0.05821000  1.0
  C  C169  1  0.39083000  0.68798000  0.44179000  1.0
  C  C170  1  0.60917000  0.68798000  0.94179000  1.0
  C  C171  1  0.60917000  0.31202000  0.55821000  1.0
  C  C172  1  0.35122000  0.98388000  0.08032000  1.0
  C  C173  1  0.35122000  0.01612000  0.41968000  1.0
  C  C174  1  0.64878000  0.01612000  0.91968000  1.0
  C  C175  1  0.64878000  0.98388000  0.58032000  1.0
  C  C176  1  0.07948000  0.89904000  0.17158000  1.0
  C  C177  1  0.07948000  0.10096000  0.32842000  1.0
  C  C178  1  0.92052000  0.10096000  0.82842000  1.0
  C  C179  1  0.92052000  0.89904000  0.67158000  1.0
  S  S180  1  0.92562000  0.00000000  0.25000000  1.0
  S  S181  1  0.07439000  0.00000000  0.75000000  1.0
  S  S182  1  0.15882000  0.50000000  0.25000000  1.0
  S  S183  1  0.84118000  0.50000000  0.75000000  1.0
  N  N184  1  0.06660000  0.65960000  0.03047000  1.0
  N  N185  1  0.06660000  0.34040000  0.46953000  1.0
  N  N186  1  0.93340000  0.34039000  0.96953000  1.0
  N  N187  1  0.93340000  0.65961000  0.53047000  1.0
  N  N188  1  0.13723000  0.57186000  0.03744000  1.0
  N  N189  1  0.13724000  0.42814000  0.46256000  1.0
  N  N190  1  0.86276000  0.42814000  0.96256000  1.0
  N  N191  1  0.86277000  0.57186000  0.53744000  1.0
  N  N192  1  0.74290000  0.97609000  0.04267000  1.0
  N  N193  1  0.74290000  0.02391000  0.45733000  1.0
  N  N194  1  0.25710000  0.02391000  0.95734000  1.0
  N  N195  1  0.25710000  0.97609000  0.54266000  1.0
  N  N196  1  0.46857000  0.26640000  0.01932000  1.0
  N  N197  1  0.46857000  0.73361000  0.48069000  1.0
  N  N198  1  0.53143000  0.73360000  0.98068000  1.0
  N  N199  1  0.53143000  0.26640000  0.51932000  1.0
  O  O200  1  0.81502000  0.24631000  0.04879000  1.0
  O  O201  1  0.81502000  0.75369000  0.45121000  1.0
  O  O202  1  0.18498000  0.75369000  0.95121000  1.0
  O  O203  1  0.18498000  0.24631000  0.54879000  1.0
  O  O204  1  0.41374000  0.06845000  0.07462000  1.0
  O  O205  1  0.41374000  0.93156000  0.42538000  1.0
  O  O206  1  0.58626000  0.93155000  0.92538000  1.0
  O  O207  1  0.58626000  0.06845000  0.57462000  1.0
  O  O208  1  0.36525000  0.89691000  0.05251000  1.0
  O  O209  1  0.36525000  0.10309000  0.44749000  1.0
  O  O210  1  0.63475000  0.10309000  0.94749000  1.0
  O  O211  1  0.63474000  0.89692000  0.55251000  1.0
  O  O212  1  0.68412000  0.19888000  0.11208000  1.0
  O  O213  1  0.68412000  0.80112000  0.38793000  1.0
  O  O214  1  0.31588000  0.80112000  0.88793000  1.0
  O  O215  1  0.31588000  0.19888000  0.61207000  1.0
  O  O216  1  0.84999000  0.09831000  0.25453000  1.0
  O  O217  1  0.84999000  0.90169000  0.24547000  1.0
  O  O218  1  0.15001000  0.90169000  0.74547000  1.0
  O  O219  1  0.15001000  0.09831000  0.75453000  1.0
  O  O220  1  0.93578000  0.65217000  0.10273000  1.0
  O  O221  1  0.93577000  0.34783000  0.39727000  1.0
  O  O222  1  0.06422000  0.34783000  0.89727000  1.0
  O  O223  1  0.06422000  0.65217000  0.60272000  1.0
  O  O224  1  0.23467000  0.42437000  0.27586000  1.0
  O  O225  1  0.23466000  0.57563000  0.22414000  1.0
  O  O226  1  0.76533000  0.57564000  0.72414000  1.0
  O  O227  1  0.76534000  0.42437000  0.77586000  1.0
