# generated using pymatgen
data_Zn2H33C47S3N2O17
_symmetry_space_group_name_H-M   'P 1'
_cell_length_a   10.97870000
_cell_length_b   13.75510000
_cell_length_c   26.32500000
_cell_angle_alpha   89.82130000
_cell_angle_beta   87.53730000
_cell_angle_gamma   89.98020000
_symmetry_Int_Tables_number   1
_chemical_formula_structural   Zn2H33C47S3N2O17
_chemical_formula_sum   'Zn4 H66 C94 S6 N4 O34'
_cell_volume   3971.72920912
_cell_formula_units_Z   2
loop_
 _symmetry_equiv_pos_site_id
 _symmetry_equiv_pos_as_xyz
  1  'x, y, z'
loop_
 _atom_site_type_symbol
 _atom_site_label
 _atom_site_symmetry_multiplicity
 _atom_site_fract_x
 _atom_site_fract_y
 _atom_site_fract_z
 _atom_site_occupancy
  Zn  Zn0  1  0.47123000  0.40009000  0.49603000  1.0
  Zn  Zn1  1  0.47136000  0.59958000  0.49722000  1.0
  Zn  Zn2  1  0.51941000  0.59850000  0.91782000  1.0
  Zn  Zn3  1  0.51883000  0.39999000  0.91432000  1.0
  H  H4  1  0.60223000  0.24767000  0.43396000  1.0
  H  H5  1  0.69162000  0.08775000  0.39844000  1.0
  H  H6  1  0.36374000  0.25024000  0.55956000  1.0
  H  H7  1  0.36468000  0.75129000  0.56446000  1.0
  H  H8  1  0.29596000  0.91092000  0.60635000  1.0
  H  H9  1  0.60368000  0.74720000  0.43913000  1.0
  H  H10  1  0.34902000  0.40184000  0.81721000  1.0
  H  H11  1  0.27321000  0.38426000  0.63350000  1.0
  H  H12  1  0.50230000  0.65097000  0.33460000  1.0
  H  H13  1  0.50956000  0.74151000  0.25357000  1.0
  H  H14  1  0.50110000  0.33967000  0.33600000  1.0
  H  H15  1  0.51195000  0.33788000  0.07739000  1.0
  H  H16  1  0.51940000  0.24758000  0.15829000  1.0
  H  H17  1  0.50568000  0.64932000  0.07615000  1.0
  H  H18  1  0.19797000  0.60593000  0.40536000  1.0
  H  H19  1  0.74598000  0.58308000  0.40781000  1.0
  H  H20  1  0.64819000  0.75346000  0.97636000  1.0
  H  H21  1  0.72725000  0.91543000  0.01031000  1.0
  H  H22  1  0.38307000  0.74556000  0.86998000  1.0
  H  H23  1  0.39294000  0.24445000  0.85460000  1.0
  H  H24  1  0.31864000  0.08323000  0.81918000  1.0
  H  H25  1  0.64156000  0.25373000  0.96787000  1.0
  H  H26  1  0.24894000  0.39625000  0.99259000  1.0
  H  H27  1  0.79687000  0.40871000  0.00958000  1.0
  H  H28  1  0.83030000  0.76150000  0.40614000  1.0
  H  H29  1  0.32549000  0.23379000  0.66154000  1.0
  H  H30  1  0.69876000  0.82367000  0.14059000  1.0
  H  H31  1  0.69857000  0.16292000  0.27140000  1.0
  H  H32  1  0.86661000  0.24080000  0.99703000  1.0
  H  H33  1  0.38645000  0.75640000  0.78577000  1.0
  H  H34  1  0.74426000  0.60390000  0.64838000  1.0
  H  H35  1  0.64692000  0.58835000  0.59695000  1.0
  H  H36  1  0.62876000  0.68957000  0.63747000  1.0
  H  H37  1  0.66469000  0.70653000  0.72521000  1.0
  H  H38  1  0.66827000  0.64457000  0.78429000  1.0
  H  H39  1  0.76713000  0.60935000  0.73247000  1.0
  H  H40  1  0.13874000  0.22075000  0.79366000  1.0
  H  H41  1  0.17912000  0.31063000  0.83903000  1.0
  H  H42  1  0.05561000  0.33003000  0.79908000  1.0
  H  H43  1  0.01453000  0.33564000  0.70969000  1.0
  H  H44  1  0.08609000  0.29631000  0.65151000  1.0
  H  H45  1  0.08517000  0.22072000  0.70617000  1.0
  H  H46  1  0.85923000  0.45641000  0.61295000  1.0
  H  H47  1  0.74553000  0.41151000  0.57308000  1.0
  H  H48  1  0.87997000  0.34355000  0.58222000  1.0
  H  H49  1  0.11415000  0.35528000  0.57373000  1.0
  H  H50  1  0.19633000  0.46568000  0.57667000  1.0
  H  H51  1  0.05624000  0.45220000  0.61188000  1.0
  H  H52  1  0.07884000  0.75725000  0.31464000  1.0
  H  H53  1  0.20498000  0.68005000  0.32585000  1.0
  H  H54  1  0.08947000  0.64275000  0.28471000  1.0
  H  H55  1  0.86899000  0.60514000  0.28686000  1.0
  H  H56  1  0.74171000  0.64666000  0.32483000  1.0
  H  H57  1  0.85988000  0.72824000  0.30502000  1.0
  H  H58  1  0.93287000  0.53772000  0.79604000  1.0
  H  H59  1  0.79279000  0.54064000  0.83226000  1.0
  H  H60  1  0.88941000  0.64372000  0.82989000  1.0
  H  H61  1  0.11605000  0.65105000  0.82381000  1.0
  H  H62  1  0.24725000  0.57965000  0.83383000  1.0
  H  H63  1  0.13273000  0.53594000  0.79445000  1.0
  H  H64  1  0.13794000  0.23365000  0.08457000  1.0
  H  H65  1  0.26222000  0.31224000  0.06786000  1.0
  H  H66  1  0.15138000  0.34635000  0.11570000  1.0
  H  H67  1  0.93023000  0.37165000  0.12487000  1.0
  H  H68  1  0.79869000  0.33838000  0.09156000  1.0
  H  H69  1  0.91725000  0.25292000  0.10089000  1.0
  C  C70  1  0.49435000  0.49348000  0.39669000  1.0
  C  C71  1  0.70907000  0.50500000  0.49595000  1.0
  C  C72  1  0.45710000  0.49025000  0.59758000  1.0
  C  C73  1  0.23665000  0.51664000  0.48991000  1.0
  C  C74  1  0.50535000  0.49608000  0.01548000  1.0
  C  C75  1  0.75477000  0.48904000  0.92075000  1.0
  C  C76  1  0.52340000  0.51583000  0.81592000  1.0
  C  C77  1  0.28236000  0.49297000  0.91296000  1.0
  C  C78  1  0.55303000  0.20358000  0.46258000  1.0
  C  C79  1  0.56218000  0.10197000  0.46351000  1.0
  C  C80  1  0.63681000  0.04863000  0.42734000  1.0
  C  C81  1  0.41778000  0.20464000  0.53360000  1.0
  C  C82  1  0.41904000  0.10320000  0.53818000  1.0
  C  C83  1  0.34993000  0.04910000  0.57653000  1.0
  C  C84  1  0.41944000  0.79530000  0.53753000  1.0
  C  C85  1  0.42134000  0.89683000  0.53988000  1.0
  C  C86  1  0.35076000  0.94987000  0.57736000  1.0
  C  C87  1  0.55565000  0.79339000  0.46681000  1.0
  C  C88  1  0.56500000  0.89502000  0.46533000  1.0
  C  C89  1  0.63861000  0.94923000  0.42843000  1.0
  C  C90  1  0.49252000  0.05082000  0.50180000  1.0
  C  C91  1  0.49415000  0.94773000  0.50250000  1.0
  C  C92  1  0.50736000  0.51053000  0.75948000  1.0
  C  C93  1  0.41408000  0.44803000  0.74215000  1.0
  C  C94  1  0.57922000  0.56528000  0.72538000  1.0
  C  C95  1  0.33400000  0.39729000  0.77671000  1.0
  C  C96  1  0.23381000  0.34637000  0.76157000  1.0
  C  C97  1  0.47288000  0.49508000  0.65419000  1.0
  C  C98  1  0.56397000  0.55535000  0.67191000  1.0
  C  C99  1  0.39461000  0.44143000  0.68892000  1.0
  C  C100  1  0.29183000  0.38663000  0.67378000  1.0
  C  C101  1  0.20992000  0.34285000  0.70860000  1.0
  C  C102  1  0.50375000  0.58287000  0.31348000  1.0
  C  C103  1  0.50747000  0.58359000  0.26023000  1.0
  C  C104  1  0.50916000  0.67326000  0.23259000  1.0
  C  C105  1  0.50458000  0.40632000  0.31369000  1.0
  C  C106  1  0.50932000  0.40355000  0.26047000  1.0
  C  C107  1  0.51404000  0.31477000  0.23123000  1.0
  C  C108  1  0.51046000  0.40605000  0.09845000  1.0
  C  C109  1  0.51259000  0.40539000  0.15163000  1.0
  C  C110  1  0.51598000  0.31582000  0.17927000  1.0
  C  C111  1  0.50809000  0.58264000  0.09832000  1.0
  C  C112  1  0.50938000  0.58546000  0.15145000  1.0
  C  C113  1  0.51001000  0.67433000  0.18064000  1.0
  C  C114  1  0.50162000  0.49471000  0.33976000  1.0
  C  C115  1  0.50960000  0.49373000  0.23296000  1.0
  C  C116  1  0.50756000  0.49421000  0.07226000  1.0
  C  C117  1  0.51078000  0.49525000  0.17891000  1.0
  C  C118  1  0.10016000  0.51564000  0.49006000  1.0
  C  C119  1  0.03746000  0.55709000  0.44892000  1.0
  C  C120  1  0.03771000  0.47322000  0.53140000  1.0
  C  C121  1  0.09879000  0.60051000  0.40593000  1.0
  C  C122  1  0.03760000  0.63596000  0.36504000  1.0
  C  C123  1  0.84546000  0.50756000  0.49301000  1.0
  C  C124  1  0.90816000  0.46714000  0.53265000  1.0
  C  C125  1  0.90720000  0.55316000  0.45054000  1.0
  C  C126  1  0.84517000  0.58972000  0.40798000  1.0
  C  C127  1  0.90724000  0.62783000  0.36533000  1.0
  C  C128  1  0.59148000  0.79646000  0.95170000  1.0
  C  C129  1  0.59442000  0.89837000  0.95138000  1.0
  C  C130  1  0.67017000  0.95333000  0.98374000  1.0
  C  C131  1  0.44377000  0.79256000  0.89038000  1.0
  C  C132  1  0.44276000  0.89381000  0.88495000  1.0
  C  C133  1  0.37152000  0.94615000  0.84909000  1.0
  C  C134  1  0.44814000  0.20194000  0.88004000  1.0
  C  C135  1  0.44587000  0.10021000  0.88026000  1.0
  C  C136  1  0.37288000  0.04543000  0.84683000  1.0
  C  C137  1  0.58919000  0.20648000  0.94403000  1.0
  C  C138  1  0.59506000  0.10496000  0.94754000  1.0
  C  C139  1  0.67062000  0.05269000  0.98181000  1.0
  C  C140  1  0.51934000  0.94778000  0.91687000  1.0
  C  C141  1  0.52051000  0.05081000  0.91494000  1.0
  C  C142  1  0.14599000  0.48940000  0.91420000  1.0
  C  C143  1  0.08476000  0.44321000  0.95652000  1.0
  C  C144  1  0.08336000  0.52992000  0.87473000  1.0
  C  C145  1  0.14953000  0.39854000  0.99593000  1.0
  C  C146  1  0.09154000  0.35778000  0.03837000  1.0
  C  C147  1  0.89113000  0.48699000  0.91921000  1.0
  C  C148  1  0.95342000  0.52642000  0.87675000  1.0
  C  C149  1  0.95447000  0.44366000  0.95990000  1.0
  C  C150  1  0.89598000  0.40378000  0.00479000  1.0
  C  C151  1  0.96120000  0.36339000  0.04379000  1.0
  C  C152  1  0.64991000  0.61127000  0.63653000  1.0
  C  C153  1  0.67444000  0.63476000  0.74310000  1.0
  C  C154  1  0.14815000  0.29935000  0.80041000  1.0
  C  C155  1  0.09362000  0.29635000  0.69271000  1.0
  C  C156  1  0.84387000  0.41748000  0.57731000  1.0
  C  C157  1  0.10471000  0.43488000  0.57571000  1.0
  C  C158  1  0.10650000  0.68115000  0.32034000  1.0
  C  C159  1  0.84048000  0.65375000  0.31836000  1.0
  C  C160  1  0.88796000  0.56374000  0.83158000  1.0
  C  C161  1  0.14862000  0.57648000  0.82952000  1.0
  C  C162  1  0.16457000  0.31017000  0.07862000  1.0
  C  C163  1  0.89777000  0.32973000  0.09254000  1.0
  S  S164  1  0.72856000  0.88771000  0.38033000  1.0
  S  S165  1  0.25142000  0.10977000  0.62168000  1.0
  S  S166  1  0.50859000  0.79123000  0.15106000  1.0
  S  S167  1  0.51132000  0.19787000  0.26090000  1.0
  S  S168  1  0.76063000  0.11672000  0.02591000  1.0
  S  S169  1  0.27784000  0.88312000  0.80606000  1.0
  N  N170  1  0.48201000  0.25171000  0.49673000  1.0
  N  N171  1  0.48413000  0.74699000  0.50155000  1.0
  N  N172  1  0.51789000  0.74684000  0.92186000  1.0
  N  N173  1  0.51791000  0.25183000  0.91130000  1.0
  O  O174  1  0.48293000  0.41076000  0.41788000  1.0
  O  O175  1  0.49977000  0.57526000  0.41923000  1.0
  O  O176  1  0.65532000  0.58622000  0.50324000  1.0
  O  O177  1  0.65693000  0.42310000  0.49220000  1.0
  O  O178  1  0.43894000  0.57046000  0.57482000  1.0
  O  O179  1  0.46591000  0.40753000  0.57598000  1.0
  O  O180  1  0.29011000  0.43464000  0.49274000  1.0
  O  O181  1  0.28902000  0.59922000  0.48826000  1.0
  O  O182  1  0.52468000  0.57820000  0.99434000  1.0
  O  O183  1  0.48508000  0.41640000  0.99268000  1.0
  O  O184  1  0.69956000  0.40818000  0.92745000  1.0
  O  O185  1  0.70325000  0.57088000  0.91413000  1.0
  O  O186  1  0.55525000  0.43810000  0.83799000  1.0
  O  O187  1  0.50164000  0.59688000  0.83827000  1.0
  O  O188  1  0.33300000  0.57328000  0.92252000  1.0
  O  O189  1  0.33779000  0.41331000  0.90254000  1.0
  O  O190  1  0.82216000  0.83172000  0.41511000  1.0
  O  O191  1  0.79436000  0.95964000  0.35061000  1.0
  O  O192  1  0.65262000  0.81753000  0.35611000  1.0
  O  O193  1  0.35128000  0.16577000  0.65307000  1.0
  O  O194  1  0.19213000  0.03798000  0.65370000  1.0
  O  O195  1  0.18017000  0.17972000  0.59466000  1.0
  O  O196  1  0.63907000  0.79359000  0.11891000  1.0
  O  O197  1  0.51266000  0.86448000  0.18982000  1.0
  O  O198  1  0.41894000  0.79298000  0.11296000  1.0
  O  O199  1  0.63643000  0.19760000  0.29213000  1.0
  O  O200  1  0.52378000  0.12462000  0.22212000  1.0
  O  O201  1  0.41488000  0.19518000  0.29943000  1.0
  O  O202  1  0.85272000  0.17188000  0.98686000  1.0
  O  O203  1  0.82695000  0.04618000  0.05402000  1.0
  O  O204  1  0.68414000  0.18752000  0.05212000  1.0
  O  O205  1  0.37728000  0.82248000  0.77206000  1.0
  O  O206  1  0.22806000  0.95336000  0.77258000  1.0
  O  O207  1  0.20227000  0.81524000  0.83481000  1.0
