# generated using pymatgen
data_Co2H17C28N3O8
_symmetry_space_group_name_H-M   'P 1'
_cell_length_a   9.54322000
_cell_length_b   13.61440000
_cell_length_c   15.32050000
_cell_angle_alpha   90.21020000
_cell_angle_beta   104.65600000
_cell_angle_gamma   104.80400000
_symmetry_Int_Tables_number   1
_chemical_formula_structural   Co2H17C28N3O8
_chemical_formula_sum   'Co4 H34 C56 N6 O16'
_cell_volume   1856.85526460
_cell_formula_units_Z   2
loop_
 _symmetry_equiv_pos_site_id
 _symmetry_equiv_pos_as_xyz
  1  'x, y, z'
loop_
 _atom_site_type_symbol
 _atom_site_label
 _atom_site_symmetry_multiplicity
 _atom_site_fract_x
 _atom_site_fract_y
 _atom_site_fract_z
 _atom_site_occupancy
  Co  Co0  1  0.81264000  0.50593000  0.91719000  1.0
  Co  Co1  1  0.18735000  0.49406000  0.08280000  1.0
  Co  Co2  1  0.68546000  0.56226000  0.61723000  1.0
  Co  Co3  1  0.31457000  0.43773000  0.38278000  1.0
  H  H4  1  0.68795000  0.81434000  0.04490000  1.0
  H  H5  1  0.31204000  0.18566000  0.95508000  1.0
  H  H6  1  0.70851000  0.31541000  0.00681000  1.0
  H  H7  1  0.29149000  0.68459000  0.99319000  1.0
  H  H8  1  0.65568000  0.05375000  0.56233000  1.0
  H  H9  1  0.34431000  0.94623000  0.43769000  1.0
  H  H10  1  0.84411000  0.77441000  0.66666667  1.0
  H  H11  1  0.15590000  0.22558000  0.33341000  1.0
  H  H12  1  0.92247000  0.69497000  0.82928000  1.0
  H  H13  1  0.07751000  0.30503000  0.17070000  1.0
  H  H14  1  0.80897000  0.94757000  0.63375000  1.0
  H  H15  1  0.19102000  0.05242000  0.36627000  1.0
  H  H16  1  0.41360000  0.63493000  0.51122000  1.0
  H  H17  1  0.58640000  0.36505000  0.48879000  1.0
  H  H18  1  0.89767000  0.36455000  0.79011000  1.0
  H  H19  1  0.10234000  0.63545000  0.20988000  1.0
  H  H20  1  0.91972000  0.18736000  0.78401000  1.0
  H  H21  1  0.08028000  0.81264000  0.21599000  1.0
  H  H22  1  0.70825000  0.63630000  0.03471000  1.0
  H  H23  1  0.29175000  0.36370000  0.96528000  1.0
  H  H24  1  0.91713000  0.87565000  0.83241000  1.0
  H  H25  1  0.08283000  0.12434000  0.16757000  1.0
  H  H26  1  0.35905000  0.79752000  0.47378000  1.0
  H  H27  1  0.64095000  0.20246000  0.52623000  1.0
  H  H28  1  0.71456000  0.13559000  0.00751000  1.0
  H  H29  1  0.28543000  0.86441000  0.99248000  1.0
  H  H30  1  0.88440000  0.02275000  0.83897000  1.0
  H  H31  1  0.11559000  0.97725000  0.16102000  1.0
  H  H32  1  0.73811000  0.98364000  0.99782000  1.0
  H  H33  1  0.26185000  0.01635000  0.00216000  1.0
  H  H34  1  0.09693000  0.49974000  0.57188000  1.0
  H  H35  1  0.90309000  0.50027000  0.42812000  1.0
  H  H36  1  0.39267000  0.51758000  0.88871000  1.0
  H  H37  1  0.60733000  0.48244000  0.11130000  1.0
  C  C38  1  0.74230000  0.79169000  0.99640000  1.0
  C  C39  1  0.25768000  0.20831000  0.00359000  1.0
  C  C40  1  0.75600000  0.28412000  0.95906000  1.0
  C  C41  1  0.24400000  0.71587000  0.04095000  1.0
  C  C42  1  0.56096000  0.99003000  0.52859000  1.0
  C  C43  1  0.43905000  0.00995000  0.47142000  1.0
  C  C44  1  0.35925000  0.46932000  0.57894000  1.0
  C  C45  1  0.64077000  0.53068000  0.42106000  1.0
  C  C46  1  0.93802000  0.53035000  0.68395000  1.0
  C  C47  1  0.06202000  0.46968000  0.31604000  1.0
  C  C48  1  0.58027000  0.88978000  0.55008000  1.0
  C  C49  1  0.41973000  0.11021000  0.44993000  1.0
  C  C50  1  0.73813000  0.78422000  0.62508000  1.0
  C  C51  1  0.26187000  0.21578000  0.37494000  1.0
  C  C52  1  0.87399000  0.72551000  0.87700000  1.0
  C  C53  1  0.12600000  0.27449000  0.12298000  1.0
  C  C54  1  0.71737000  0.87987000  0.60608000  1.0
  C  C55  1  0.28262000  0.12012000  0.39393000  1.0
  C  C56  1  0.49812000  0.70547000  0.53895000  1.0
  C  C57  1  0.50188000  0.29453000  0.46107000  1.0
  C  C58  1  0.86398000  0.31260000  0.83955000  1.0
  C  C59  1  0.13602000  0.68739000  0.16045000  1.0
  C  C60  1  0.87278000  0.21257000  0.83533000  1.0
  C  C61  1  0.12722000  0.78743000  0.16467000  1.0
  C  C62  1  0.75264000  0.69213000  0.99104000  1.0
  C  C63  1  0.24735000  0.30787000  0.00895000  1.0
  C  C64  1  0.80112000  0.86263000  0.93949000  1.0
  C  C65  1  0.19886000  0.13736000  0.06049000  1.0
  C  C66  1  0.86878000  0.82608000  0.87891000  1.0
  C  C67  1  0.13120000  0.17392000  0.12108000  1.0
  C  C68  1  0.46899000  0.79809000  0.51723000  1.0
  C  C69  1  0.53101000  0.20190000  0.48278000  1.0
  C  C70  1  0.75952000  0.18318000  0.95868000  1.0
  C  C71  1  0.24047000  0.81682000  0.04132000  1.0
  C  C72  1  0.82179000  0.14423000  0.89635000  1.0
  C  C73  1  0.17820000  0.85577000  0.10364000  1.0
  C  C74  1  0.83398000  0.04051000  0.89167000  1.0
  C  C75  1  0.16601000  0.95949000  0.10833000  1.0
  C  C76  1  0.78906000  0.96634000  0.94519000  1.0
  C  C77  1  0.21091000  0.03364000  0.05479000  1.0
  C  C78  1  0.11465000  0.52499000  0.87953000  1.0
  C  C79  1  0.88535000  0.47503000  0.12047000  1.0
  C  C80  1  0.55949000  0.50732000  0.78321000  1.0
  C  C81  1  0.44052000  0.49269000  0.21680000  1.0
  C  C82  1  0.39612000  0.50410000  0.74988000  1.0
  C  C83  1  0.60389000  0.49592000  0.25013000  1.0
  C  C84  1  0.30871000  0.49574000  0.65917000  1.0
  C  C85  1  0.69130000  0.50427000  0.34083000  1.0
  C  C86  1  0.16203000  0.50616000  0.64215000  1.0
  C  C87  1  0.83799000  0.49386000  0.35785000  1.0
  C  C88  1  0.09688000  0.52170000  0.71126000  1.0
  C  C89  1  0.90314000  0.47831000  0.28873000  1.0
  C  C90  1  0.18057000  0.52290000  0.80148000  1.0
  C  C91  1  0.81944000  0.47712000  0.19851000  1.0
  C  C92  1  0.32822000  0.51523000  0.81877000  1.0
  C  C93  1  0.67180000  0.48480000  0.18124000  1.0
  N  N94  1  0.81019000  0.34995000  0.90214000  1.0
  N  N95  1  0.18981000  0.65004000  0.09786000  1.0
  N  N96  1  0.81739000  0.65836000  0.93244000  1.0
  N  N97  1  0.18261000  0.34164000  0.06755000  1.0
  N  N98  1  0.63090000  0.69704000  0.59213000  1.0
  N  N99  1  0.36911000  0.30295000  0.40790000  1.0
  O  O100  1  0.98535000  0.54105000  0.86517000  1.0
  O  O101  1  0.01464000  0.45895000  0.13484000  1.0
  O  O102  1  0.83181000  0.45002000  0.66186000  1.0
  O  O103  1  0.16823000  0.55000000  0.33813000  1.0
  O  O104  1  0.91546000  0.61941000  0.67776000  1.0
  O  O105  1  0.08458000  0.38061000  0.32224000  1.0
  O  O106  1  0.19216000  0.50864000  0.95631000  1.0
  O  O107  1  0.80782000  0.49135000  0.04369000  1.0
  O  O108  1  0.49042000  0.45662000  0.58949000  1.0
  O  O109  1  0.50962000  0.54339000  0.41053000  1.0
  O  O110  1  0.26448000  0.45891000  0.50205000  1.0
  O  O111  1  0.73553000  0.54110000  0.49796000  1.0
  O  O112  1  0.59388000  0.46185000  0.85612000  1.0
  O  O113  1  0.40610000  0.53813000  0.14389000  1.0
  O  O114  1  0.65946000  0.56000000  0.74949000  1.0
  O  O115  1  0.34056000  0.44002000  0.25053000  1.0
