# generated using pymatgen
data_Zn8H11C82N12(O2F)13
_symmetry_space_group_name_H-M   'P 1'
_cell_length_a   18.30070000
_cell_length_b   18.31900000
_cell_length_c   18.33148004
_cell_angle_alpha   119.88856664
_cell_angle_beta   119.76309532
_cell_angle_gamma   60.41700000
_symmetry_Int_Tables_number   1
_chemical_formula_structural   Zn8H11C82N12(O2F)13
_chemical_formula_sum   'Zn8 H11 C82 N12 O26 F13'
_cell_volume   4370.65465170
_cell_formula_units_Z   1
loop_
 _symmetry_equiv_pos_site_id
 _symmetry_equiv_pos_as_xyz
  1  'x, y, z'
loop_
 _atom_site_type_symbol
 _atom_site_label
 _atom_site_symmetry_multiplicity
 _atom_site_fract_x
 _atom_site_fract_y
 _atom_site_fract_z
 _atom_site_occupancy
  Zn  Zn0  1  0.45522000  0.95612000  0.86616000  1.0
  Zn  Zn1  1  0.45068000  0.13072000  0.03858000  1.0
  Zn  Zn2  1  0.62676000  0.95954000  0.04485000  1.0
  Zn  Zn3  1  0.45599000  0.95581000  0.04481000  1.0
  Zn  Zn4  1  0.04405000  0.54469000  0.62990000  1.0
  Zn  Zn5  1  0.86774000  0.54251000  0.45646000  1.0
  Zn  Zn6  1  0.04164000  0.37056000  0.45636000  1.0
  Zn  Zn7  1  0.03805000  0.54857000  0.45425000  1.0
  H  H8  1  0.71822000  0.95770000  0.62856000  1.0
  H  H9  1  0.59291000  0.70844000  0.02187000  1.0
  H  H10  1  0.58995000  0.55756000  0.97199000  1.0
  H  H11  1  0.67849000  0.46981000  0.07571000  1.0
  H  H12  1  0.77406000  0.53160000  0.22734000  1.0
  H  H13  1  0.85310000  0.79922000  0.38875000  1.0
  H  H14  1  0.44792000  0.22329000  0.55489000  1.0
  H  H15  1  0.32623000  0.61061000  0.77895000  1.0
  H  H16  1  0.41560000  0.45398000  0.86235000  1.0
  H  H17  1  0.27430000  0.43342000  0.74357000  1.0
  H  H18  1  0.12453000  0.22316000  0.62194000  1.0
  C  C19  1  0.36826000  0.13404000  0.14497000  1.0
  C  C20  1  0.29220000  0.67317000  0.76522000  1.0
  C  C21  1  0.26303000  0.76767000  0.83489000  1.0
  C  C22  1  0.16848000  0.79101000  0.76083000  1.0
  C  C23  1  0.20576000  0.82981000  0.73042000  1.0
  C  C24  1  0.29920000  0.80588000  0.80398000  1.0
  C  C25  1  0.66003000  0.94622000  0.77354000  1.0
  C  C26  1  0.66546000  0.97984000  0.72365000  1.0
  C  C27  1  0.71515000  0.92856000  0.66588000  1.0
  C  C28  1  0.76141000  0.84079000  0.66012000  1.0
  C  C29  1  0.75820000  0.79877000  0.70575000  1.0
  C  C30  1  0.63862000  0.86070000  0.86399000  1.0
  C  C31  1  0.70432000  0.85305000  0.76294000  1.0
  C  C32  1  0.69819000  0.81257000  0.80792000  1.0
  C  C33  1  0.74783000  0.72466000  0.79986000  1.0
  C  C34  1  0.80390000  0.67093000  0.74699000  1.0
  C  C35  1  0.80700000  0.70781000  0.69833000  1.0
  C  C36  1  0.63271000  0.67039000  0.06728000  1.0
  C  C37  1  0.63082000  0.58610000  0.03966000  1.0
  C  C38  1  0.68173000  0.53587000  0.09785000  1.0
  C  C39  1  0.73514000  0.57061000  0.18282000  1.0
  C  C40  1  0.74001000  0.65663000  0.21324000  1.0
  C  C41  1  0.35837000  0.13688000  0.85906000  1.0
  C  C42  1  0.68684000  0.70843000  0.15461000  1.0
  C  C43  1  0.69295000  0.79413000  0.18428000  1.0
  C  C44  1  0.75292000  0.82593000  0.26740000  1.0
  C  C45  1  0.80640000  0.77387000  0.32421000  1.0
  C  C46  1  0.79886000  0.69259000  0.29850000  1.0
  C  C47  1  0.44436000  0.14750000  0.34032000  1.0
  C  C48  1  0.47568000  0.15355000  0.42962000  1.0
  C  C49  1  0.42268000  0.21605000  0.48476000  1.0
  C  C50  1  0.33903000  0.26834000  0.44870000  1.0
  C  C51  1  0.29987000  0.26073000  0.35714000  1.0
  C  C52  1  0.63531000  0.85189000  0.12713000  1.0
  C  C53  1  0.35511000  0.19967000  0.30152000  1.0
  C  C54  1  0.31794000  0.19355000  0.21037000  1.0
  C  C55  1  0.23029000  0.24431000  0.17572000  1.0
  C  C56  1  0.17788000  0.30188000  0.23200000  1.0
  C  C57  1  0.21018000  0.31092000  0.32064000  1.0
  C  C58  1  0.65633000  0.24473000  0.33625000  1.0
  C  C59  1  0.67012000  0.28733000  0.42657000  1.0
  C  C60  1  0.73247000  0.33277000  0.47892000  1.0
  C  C61  1  0.77943000  0.33734000  0.44137000  1.0
  C  C62  1  0.76238000  0.29670000  0.34643000  1.0
  C  C63  1  0.62742000  0.14506000  0.13885000  1.0
  C  C64  1  0.70079000  0.24736000  0.29294000  1.0
  C  C65  1  0.68666000  0.20239000  0.19982000  1.0
  C  C66  1  0.73161000  0.20768000  0.16164000  1.0
  C  C67  1  0.78960000  0.25812000  0.21287000  1.0
  C  C68  1  0.80489000  0.30229000  0.30303000  1.0
  C  C69  1  0.41837000  0.28185000  0.88914000  1.0
  C  C70  1  0.44680000  0.34728000  0.90413000  1.0
  C  C71  1  0.39329000  0.40247000  0.85015000  1.0
  C  C72  1  0.31523000  0.39037000  0.78403000  1.0
  C  C73  1  0.28584000  0.32298000  0.76744000  1.0
  C  C74  1  0.35558000  0.86522000  0.86147000  1.0
  C  C75  1  0.33847000  0.26625000  0.82158000  1.0
  C  C76  1  0.31100000  0.19652000  0.80387000  1.0
  C  C77  1  0.23533000  0.18361000  0.73198000  1.0
  C  C78  1  0.18376000  0.23650000  0.67729000  1.0
  C  C79  1  0.20730000  0.30631000  0.69568000  1.0
  C  C80  1  0.85673000  0.64127000  0.36163000  1.0
  C  C81  1  0.14588000  0.36339000  0.63783000  1.0
  C  C82  1  0.86292000  0.64639000  0.63811000  1.0
  C  C83  1  0.14512000  0.36856000  0.37137000  1.0
  C  C84  1  0.86359000  0.35908000  0.35146000  1.0
  C  C85  1  0.33039000  0.71037000  0.73515000  1.0
  C  C86  1  0.14197000  0.63757000  0.63490000  1.0
  C  C87  1  0.23613000  0.73396000  0.66207000  1.0
  C  C88  1  0.19979000  0.69535000  0.69172000  1.0
  C  C89  1  0.85462000  0.58124000  0.74496000  1.0
  C  C90  1  0.76266000  0.91064000  0.29955000  1.0
  C  C91  1  0.19197000  0.23707000  0.08403000  1.0
  C  C92  1  0.41544000  0.66968000  0.72453000  1.0
  C  C93  1  0.50428000  0.08942000  0.29119000  1.0
  C  C94  1  0.56080000  0.09642000  0.46716000  1.0
  C  C95  1  0.84613000  0.37871000  0.50005000  1.0
  C  C96  1  0.52915000  0.35686000  0.97175000  1.0
  C  C97  1  0.27705000  0.78393000  0.92471000  1.0
  C  C98  1  0.08351000  0.83036000  0.77134000  1.0
  C  C99  1  0.16121000  0.91220000  0.71418000  1.0
  C  C100  1  0.61605000  0.00611000  0.83757000  1.0
  N  N101  1  0.89665000  0.50834000  0.74517000  1.0
  N  N102  1  0.77418000  0.97892000  0.33061000  1.0
  N  N103  1  0.16127000  0.22967000  0.00859000  1.0
  N  N104  1  0.48567000  0.63539000  0.71666000  1.0
  N  N105  1  0.55426000  0.04314000  0.25157000  1.0
  N  N106  1  0.62795000  0.04943000  0.50085000  1.0
  N  N107  1  0.90274000  0.41068000  0.54598000  1.0
  N  N108  1  0.59681000  0.36539000  0.02647000  1.0
  N  N109  1  0.28798000  0.79433000  0.99718000  1.0
  N  N110  1  0.01303000  0.86073000  0.77771000  1.0
  N  N111  1  0.12392000  0.97978000  0.70069000  1.0
  N  N112  1  0.58324000  0.05305000  0.89322000  1.0
  O  O113  1  0.49547000  0.99984000  0.99720000  1.0
  O  O114  1  0.38890000  0.05424000  0.81811000  1.0
  O  O115  1  0.55167000  0.86621000  0.09834000  1.0
  O  O116  1  0.39545000  0.17416000  0.12890000  1.0
  O  O117  1  0.67779000  0.88280000  0.94748000  1.0
  O  O118  1  0.99892000  0.50151000  0.49912000  1.0
  O  O119  1  0.94032000  0.62559000  0.38695000  1.0
  O  O120  1  0.12560000  0.44738000  0.67746000  1.0
  O  O121  1  0.82060000  0.61543000  0.55623000  1.0
  O  O122  1  0.11907000  0.32643000  0.38623000  1.0
  O  O123  1  0.82265000  0.44229000  0.36853000  1.0
  O  O124  1  0.37435000  0.05255000  0.11146000  1.0
  O  O125  1  0.11250000  0.62346000  0.55191000  1.0
  O  O126  1  0.94679000  0.31842000  0.36971000  1.0
  O  O127  1  0.12802000  0.61062000  0.67719000  1.0
  O  O128  1  0.94635000  0.63029000  0.67718000  1.0
  O  O129  1  0.12163000  0.45191000  0.39026000  1.0
  O  O130  1  0.81845000  0.61825000  0.38482000  1.0
  O  O131  1  0.11857000  0.32236000  0.55434000  1.0
  O  O132  1  0.55613000  0.87222000  0.82088000  1.0
  O  O133  1  0.36059000  0.17422000  0.93970000  1.0
  O  O134  1  0.67510000  0.88156000  0.11311000  1.0
  O  O135  1  0.54492000  0.18514000  0.10878000  1.0
  O  O136  1  0.37644000  0.88651000  0.94457000  1.0
  O  O137  1  0.66857000  0.06219000  0.12264000  1.0
  O  O138  1  0.37621000  0.88541000  0.81882000  1.0
  F  F139  1  0.22365000  0.71823000  0.57750000  1.0
  F  F140  1  0.81354000  0.79196000  0.60824000  1.0
  F  F141  1  0.29156000  0.33102000  0.50420000  1.0
  F  F142  1  0.09244000  0.34716000  0.19561000  1.0
  F  F143  1  0.72044000  0.16503000  0.07407000  1.0
  F  F144  1  0.59775000  0.20012000  0.28918000  1.0
  F  F145  1  0.62533000  0.28459000  0.46480000  1.0
  F  F146  1  0.74675000  0.37106000  0.56697000  1.0
  F  F147  1  0.82938000  0.26363000  0.17143000  1.0
  F  F148  1  0.20722000  0.11867000  0.71360000  1.0
  F  F149  1  0.47163000  0.23016000  0.94082000  1.0
  F  F150  1  0.74253000  0.68637000  0.84285000  1.0
  F  F151  1  0.62213000  0.06699000  0.73264000  1.0
