# generated using pymatgen
data_NaH21C12SN2
_symmetry_space_group_name_H-M   'P 1'
_cell_length_a   5.84569000
_cell_length_b   10.94660000
_cell_length_c   11.84005248
_cell_angle_alpha   63.16438989
_cell_angle_beta   85.01728198
_cell_angle_gamma   81.25430000
_symmetry_Int_Tables_number   1
_chemical_formula_structural   NaH21C12SN2
_chemical_formula_sum   'Na2 H42 C24 S2 N4'
_cell_volume   668.05216526
_cell_formula_units_Z   2
loop_
 _symmetry_equiv_pos_site_id
 _symmetry_equiv_pos_as_xyz
  1  'x, y, z'
loop_
 _atom_site_type_symbol
 _atom_site_label
 _atom_site_symmetry_multiplicity
 _atom_site_fract_x
 _atom_site_fract_y
 _atom_site_fract_z
 _atom_site_occupancy
  Na  Na0  1  0.81588000  0.43901000  0.90581000  1.0
  Na  Na1  1  0.18416000  0.56100000  0.09419000  1.0
  H  H2  1  0.13007000  0.70164000  0.85460000  1.0
  H  H3  1  0.86993000  0.29838000  0.14541000  1.0
  H  H4  1  0.21315000  0.90460000  0.65789000  1.0
  H  H5  1  0.78683000  0.09541000  0.34211000  1.0
  H  H6  1  0.90008000  0.09473000  0.54751000  1.0
  H  H7  1  0.09988000  0.90527000  0.45248000  1.0
  H  H8  1  0.49757000  0.07815000  0.64011000  1.0
  H  H9  1  0.50239000  0.92184000  0.35988000  1.0
  H  H10  1  0.41382000  0.87587000  0.83797000  1.0
  H  H11  1  0.58615000  0.12412000  0.16204000  1.0
  H  H12  1  0.43398000  0.68105000  0.71777000  1.0
  H  H13  1  0.56606000  0.31893000  0.28227000  1.0
  H  H14  1  0.38148000  0.51341000  0.74786000  1.0
  H  H15  1  0.61855000  0.48657000  0.25216000  1.0
  H  H16  1  0.38078000  0.64800000  0.58810000  1.0
  H  H17  1  0.61922000  0.35199000  0.41194000  1.0
  H  H18  1  0.00518000  0.66740000  0.58107000  1.0
  H  H19  1  0.99482000  0.33259000  0.41893000  1.0
  H  H20  1  0.77414000  0.77193000  0.61631000  1.0
  H  H21  1  0.22589000  0.22806000  0.38370000  1.0
  H  H22  1  0.75199000  0.73262000  0.48659000  1.0
  H  H23  1  0.24801000  0.26738000  0.51342000  1.0
  H  H24  1  0.95495000  0.45778000  0.60071000  1.0
  H  H25  1  0.04502000  0.54223000  0.39926000  1.0
  H  H26  1  0.67754000  0.49480000  0.53531000  1.0
  H  H27  1  0.32243000  0.50521000  0.46469000  1.0
  H  H28  1  0.53286000  0.32375000  0.75066000  1.0
  H  H29  1  0.46716000  0.67625000  0.24934000  1.0
  H  H30  1  0.73390000  0.25342000  0.66787000  1.0
  H  H31  1  0.26611000  0.74658000  0.33213000  1.0
  H  H32  1  0.19952000  0.17497000  0.88891000  1.0
  H  H33  1  0.80051000  0.82504000  0.11107000  1.0
  H  H34  1  0.17401000  0.30494000  0.73127000  1.0
  H  H35  1  0.82600000  0.69507000  0.26871000  1.0
  H  H36  1  0.11137000  0.13556000  0.76850000  1.0
  H  H37  1  0.88864000  0.86444000  0.23149000  1.0
  H  H38  1  0.86133000  0.09320000  0.01527000  1.0
  H  H39  1  0.13871000  0.90680000  0.98473000  1.0
  H  H40  1  0.75844000  0.05274000  0.89955000  1.0
  H  H41  1  0.24158000  0.94726000  0.10046000  1.0
  H  H42  1  0.58098000  0.16797000  0.95155000  1.0
  H  H43  1  0.41904000  0.83204000  0.04846000  1.0
  C  C44  1  0.76489000  0.77313000  0.86462000  1.0
  C  C45  1  0.23514000  0.22686000  0.13537000  1.0
  C  C46  1  0.99069000  0.78550000  0.81009000  1.0
  C  C47  1  0.00929000  0.21452000  0.18990000  1.0
  C  C48  1  0.03764000  0.89970000  0.69800000  1.0
  C  C49  1  0.96231000  0.10029000  0.30200000  1.0
  C  C50  1  0.86213000  0.00663000  0.63566000  1.0
  C  C51  1  0.13785000  0.99337000  0.36432000  1.0
  C  C52  1  0.63769000  0.99613000  0.68737000  1.0
  C  C53  1  0.36228000  0.00385000  0.31262000  1.0
  C  C54  1  0.58982000  0.88207000  0.79942000  1.0
  C  C55  1  0.41015000  0.11792000  0.20058000  1.0
  C  C56  1  0.46451000  0.60363000  0.68159000  1.0
  C  C57  1  0.53551000  0.39636000  0.31844000  1.0
  C  C58  1  0.81620000  0.69135000  0.58433000  1.0
  C  C59  1  0.18379000  0.30866000  0.41567000  1.0
  C  C60  1  0.76919000  0.46231000  0.62493000  1.0
  C  C61  1  0.23079000  0.53768000  0.37507000  1.0
  C  C62  1  0.71437000  0.31897000  0.71815000  1.0
  C  C63  1  0.28564000  0.68103000  0.28185000  1.0
  C  C64  1  0.09726000  0.21519000  0.80320000  1.0
  C  C65  1  0.90275000  0.78482000  0.19679000  1.0
  C  C66  1  0.75905000  0.13520000  0.92928000  1.0
  C  C67  1  0.24098000  0.86480000  0.07072000  1.0
  S  S68  1  0.70310000  0.62936000  0.00522000  1.0
  S  S69  1  0.29689000  0.37065000  0.99478000  1.0
  N  N70  1  0.71410000  0.56735000  0.67131000  1.0
  N  N71  1  0.28591000  0.43265000  0.32870000  1.0
  N  N72  1  0.85727000  0.25558000  0.83138000  1.0
  N  N73  1  0.14276000  0.74442000  0.16861000  1.0
