# generated using pymatgen
data_ZnH35C35(N3O2)3
_symmetry_space_group_name_H-M   'P 1'
_cell_length_a   16.79850000
_cell_length_b   17.86030000
_cell_length_c   23.59970000
_cell_angle_alpha   87.36630000
_cell_angle_beta   89.99990000
_cell_angle_gamma   89.99990000
_symmetry_Int_Tables_number   1
_chemical_formula_structural   ZnH35C35(N3O2)3
_chemical_formula_sum   'Zn2 H70 C70 N18 O12'
_cell_volume   7073.05042848
_cell_formula_units_Z   2
loop_
 _symmetry_equiv_pos_site_id
 _symmetry_equiv_pos_as_xyz
  1  'x, y, z'
loop_
 _atom_site_type_symbol
 _atom_site_label
 _atom_site_symmetry_multiplicity
 _atom_site_fract_x
 _atom_site_fract_y
 _atom_site_fract_z
 _atom_site_occupancy
  Zn  Zn0  1  0.58885000  0.50000000  0.50000000  1.0
  Zn  Zn1  1  0.40925000  0.50000000  0.50000000  1.0
  H  H2  1  0.46318000  0.68728000  0.04947000  1.0
  H  H3  1  0.67952000  0.72849000  0.44598000  1.0
  H  H4  1  0.77386000  0.71087000  0.41440000  1.0
  H  H5  1  0.76434000  0.70810000  0.48942000  1.0
  H  H6  1  0.34631000  0.39157000  0.55941000  1.0
  H  H7  1  0.30758000  0.34532000  0.64871000  1.0
  H  H8  1  0.21029000  0.38459000  0.64024000  1.0
  H  H9  1  0.29314000  0.44372000  0.65425000  1.0
  H  H10  1  0.65128000  0.38819000  0.53898000  1.0
  H  H11  1  0.67952000  0.27151000  0.55402000  1.0
  H  H12  1  0.77386000  0.28913000  0.58560000  1.0
  H  H13  1  0.46319000  0.31273000  0.95053000  1.0
  H  H14  1  0.76434000  0.29190000  0.51058000  1.0
  H  H15  1  0.34631000  0.60843000  0.44059000  1.0
  H  H16  1  0.30758000  0.65468000  0.35129000  1.0
  H  H17  1  0.21029000  0.61541000  0.35976000  1.0
  H  H18  1  0.29314000  0.55628000  0.34575000  1.0
  H  H19  1  0.36871000  0.43712000  0.22625000  1.0
  H  H20  1  0.36871000  0.56289000  0.77375000  1.0
  H  H21  1  0.38582000  0.43807000  0.33185000  1.0
  H  H22  1  0.38583000  0.56194000  0.66815000  1.0
  H  H23  1  0.62732000  0.55995000  0.35797000  1.0
  H  H24  1  0.54988000  0.12852000  0.42086000  1.0
  H  H25  1  0.71637000  0.57685000  0.25437000  1.0
  H  H26  1  0.71420000  0.64078000  0.31013000  1.0
  H  H27  1  0.64473000  0.65079000  0.25343000  1.0
  H  H28  1  0.62732000  0.44005000  0.64202000  1.0
  H  H29  1  0.71637000  0.42315000  0.74563000  1.0
  H  H30  1  0.71419000  0.35922000  0.68987000  1.0
  H  H31  1  0.64473000  0.34921000  0.74657000  1.0
  H  H32  1  0.59163000  0.55325000  0.20524000  1.0
  H  H33  1  0.59163000  0.44675000  0.79476000  1.0
  H  H34  1  0.57934000  0.33068000  0.42431000  1.0
  H  H35  1  0.44118000  0.88650000  0.41389000  1.0
  H  H36  1  0.60931000  0.29355000  0.33465000  1.0
  H  H37  1  0.54594000  0.21438000  0.34381000  1.0
  H  H38  1  0.64572000  0.20977000  0.36982000  1.0
  H  H39  1  0.41451000  0.78415000  0.37081000  1.0
  H  H40  1  0.45545000  0.67314000  0.32796000  1.0
  H  H41  1  0.51130000  0.64661000  0.38871000  1.0
  H  H42  1  0.54262000  0.72511000  0.34497000  1.0
  H  H43  1  0.57934000  0.66932000  0.57569000  1.0
  H  H44  1  0.60930000  0.70645000  0.66535000  1.0
  H  H45  1  0.54594000  0.78561000  0.65619000  1.0
  H  H46  1  0.54988000  0.87148000  0.57914000  1.0
  H  H47  1  0.64572000  0.79023000  0.63018000  1.0
  H  H48  1  0.41451000  0.21585000  0.62919000  1.0
  H  H49  1  0.45544000  0.32686000  0.67204000  1.0
  H  H50  1  0.51130000  0.35339000  0.61128000  1.0
  H  H51  1  0.54262000  0.27489000  0.65503000  1.0
  H  H52  1  0.93734000  0.61520000  0.44985000  1.0
  H  H53  1  0.90638000  0.65367000  0.35369000  1.0
  H  H54  1  0.81262000  0.60794000  0.36192000  1.0
  H  H55  1  0.90119000  0.55334000  0.36080000  1.0
  H  H56  1  0.06069000  0.40327000  0.56526000  1.0
  H  H57  1  0.44118000  0.11350000  0.58611000  1.0
  H  H58  1  0.09833000  0.27655000  0.58418000  1.0
  H  H59  1  0.19703000  0.29845000  0.56090000  1.0
  H  H60  1  0.11779000  0.29871000  0.51066000  1.0
  H  H61  1  0.93734000  0.38480000  0.55015000  1.0
  H  H62  1  0.90638000  0.34633000  0.64630000  1.0
  H  H63  1  0.81262000  0.39206000  0.63808000  1.0
  H  H64  1  0.90119000  0.44665000  0.63920000  1.0
  H  H65  1  0.06069000  0.59673000  0.43473000  1.0
  H  H66  1  0.09834000  0.72345000  0.41581000  1.0
  H  H67  1  0.19703000  0.70155000  0.43910000  1.0
  H  H68  1  0.46859000  0.68970000  0.94221000  1.0
  H  H69  1  0.11780000  0.70130000  0.48934000  1.0
  H  H70  1  0.46860000  0.31031000  0.05779000  1.0
  H  H71  1  0.65128000  0.61181000  0.46101000  1.0
  C  C72  1  0.50135000  0.64664000  0.49189000  1.0
  C  C73  1  0.55775000  0.47085000  0.70691000  1.0
  C  C74  1  0.54714000  0.52801000  0.23365000  1.0
  C  C75  1  0.54714000  0.47199000  0.76635000  1.0
  C  C76  1  0.48001000  0.49582000  0.21092000  1.0
  C  C77  1  0.48001000  0.50419000  0.78909000  1.0
  C  C78  1  0.52692000  0.15654000  0.45740000  1.0
  C  C79  1  0.46457000  0.85197000  0.44940000  1.0
  C  C80  1  0.52691000  0.84346000  0.54260000  1.0
  C  C81  1  0.46458000  0.14802000  0.55060000  1.0
  C  C82  1  0.53371000  0.23482000  0.46044000  1.0
  C  C83  1  0.50135000  0.35336000  0.50811000  1.0
  C  C84  1  0.46895000  0.77400000  0.44556000  1.0
  C  C85  1  0.53371000  0.76518000  0.53956000  1.0
  C  C86  1  0.46895000  0.22600000  0.55444000  1.0
  C  C87  1  0.50276000  0.27033000  0.50925000  1.0
  C  C88  1  0.50276000  0.72967000  0.49075000  1.0
  C  C89  1  0.49278000  0.11342000  0.50228000  1.0
  C  C90  1  0.49278000  0.88657000  0.49772000  1.0
  C  C91  1  0.49979000  0.49530000  0.39134000  1.0
  C  C92  1  0.49979000  0.50470000  0.60866000  1.0
  C  C93  1  0.49051000  0.03414000  0.50035000  1.0
  C  C94  1  0.42055000  0.46276000  0.24507000  1.0
  C  C95  1  0.49051000  0.96586000  0.49965000  1.0
  C  C96  1  0.83838000  0.55761000  0.46930000  1.0
  C  C97  1  0.16200000  0.44583000  0.53422000  1.0
  C  C98  1  0.83838000  0.44240000  0.53070000  1.0
  C  C99  1  0.16200000  0.55417000  0.46578000  1.0
  C  C100  1  0.75453000  0.55844000  0.47352000  1.0
  C  C101  1  0.24612000  0.45046000  0.53591000  1.0
  C  C102  1  0.75453000  0.44156000  0.52648000  1.0
  C  C103  1  0.24612000  0.54954000  0.46409000  1.0
  C  C104  1  0.87964000  0.50000000  0.50000000  1.0
  C  C105  1  0.42056000  0.53725000  0.75493000  1.0
  C  C106  1  0.12061000  0.50000000  0.50000000  1.0
  C  C107  1  0.96369000  0.50000000  0.50000000  1.0
  C  C108  1  0.03665000  0.50000000  0.50000000  1.0
  C  C109  1  0.46502000  0.43234000  0.87901000  1.0
  C  C110  1  0.46502000  0.56766000  0.12099000  1.0
  C  C111  1  0.47422000  0.57290000  0.87605000  1.0
  C  C112  1  0.47423000  0.42711000  0.12396000  1.0
  C  C113  1  0.46795000  0.57038000  0.93881000  1.0
  C  C114  1  0.46796000  0.42962000  0.06119000  1.0
  C  C115  1  0.46605000  0.50066000  0.96980000  1.0
  C  C116  1  0.43053000  0.46302000  0.30340000  1.0
  C  C117  1  0.46605000  0.49935000  0.03020000  1.0
  C  C118  1  0.46500000  0.43223000  0.94186000  1.0
  C  C119  1  0.46500000  0.56777000  0.05814000  1.0
  C  C120  1  0.46690000  0.63686000  0.96721000  1.0
  C  C121  1  0.46690000  0.36315000  0.03279000  1.0
  C  C122  1  0.46448000  0.63554000  0.02673000  1.0
  C  C123  1  0.46449000  0.36446000  0.97327000  1.0
  C  C124  1  0.73410000  0.69487000  0.44974000  1.0
  C  C125  1  0.27384000  0.39396000  0.63182000  1.0
  C  C126  1  0.73410000  0.30513000  0.55026000  1.0
  C  C127  1  0.43054000  0.53698000  0.69660000  1.0
  C  C128  1  0.27384000  0.60605000  0.36818000  1.0
  C  C129  1  0.67684000  0.60965000  0.28127000  1.0
  C  C130  1  0.67684000  0.39035000  0.71873000  1.0
  C  C131  1  0.59318000  0.24663000  0.36402000  1.0
  C  C132  1  0.49019000  0.69498000  0.36297000  1.0
  C  C133  1  0.59317000  0.75337000  0.63598000  1.0
  C  C134  1  0.49019000  0.30502000  0.63703000  1.0
  C  C135  1  0.87528000  0.60621000  0.37504000  1.0
  C  C136  1  0.13388000  0.31189000  0.55450000  1.0
  C  C137  1  0.87528000  0.39378000  0.62496000  1.0
  C  C138  1  0.49725000  0.49515000  0.32853000  1.0
  C  C139  1  0.13388000  0.68811000  0.44550000  1.0
  C  C140  1  0.49725000  0.50485000  0.67147000  1.0
  C  C141  1  0.55775000  0.52915000  0.29309000  1.0
  N  N142  1  0.47240000  0.50311000  0.85011000  1.0
  N  N143  1  0.62265000  0.43664000  0.68520000  1.0
  N  N144  1  0.56606000  0.27673000  0.41629000  1.0
  N  N145  1  0.43935000  0.74292000  0.39619000  1.0
  N  N146  1  0.56606000  0.72327000  0.58371000  1.0
  N  N147  1  0.43935000  0.25708000  0.60381000  1.0
  N  N148  1  0.87967000  0.61317000  0.43662000  1.0
  N  N149  1  0.11985000  0.39079000  0.56622000  1.0
  N  N150  1  0.87967000  0.38683000  0.56338000  1.0
  N  N151  1  0.11985000  0.60921000  0.43378000  1.0
  N  N152  1  0.47240000  0.49690000  0.14989000  1.0
  N  N153  1  0.71439000  0.50000000  0.50000000  1.0
  N  N154  1  0.28592000  0.50000000  0.50000000  1.0
  N  N155  1  0.70965000  0.61600000  0.44916000  1.0
  N  N156  1  0.28893000  0.40200000  0.57107000  1.0
  N  N157  1  0.70965000  0.38400000  0.55084000  1.0
  N  N158  1  0.28893000  0.59801000  0.42893000  1.0
  N  N159  1  0.62265000  0.56336000  0.31480000  1.0
  O  O160  1  0.56472000  0.61231000  0.51008000  1.0
  O  O161  1  0.45995000  0.62555000  0.14697000  1.0
  O  O162  1  0.48189000  0.63186000  0.84769000  1.0
  O  O163  1  0.48190000  0.36814000  0.15231000  1.0
  O  O164  1  0.43933000  0.38777000  0.52297000  1.0
  O  O165  1  0.56472000  0.38769000  0.48992000  1.0
  O  O166  1  0.43933000  0.61223000  0.47703000  1.0
  O  O167  1  0.56494000  0.51649000  0.41484000  1.0
  O  O168  1  0.43742000  0.52474000  0.58139000  1.0
  O  O169  1  0.56494000  0.48351000  0.58516000  1.0
  O  O170  1  0.43743000  0.47526000  0.41861000  1.0
  O  O171  1  0.45995000  0.37446000  0.85303000  1.0
