# generated using pymatgen
data_CdH26C30N6(O3F2)2
_symmetry_space_group_name_H-M   'P 1'
_cell_length_a   11.13110000
_cell_length_b   11.77260000
_cell_length_c   13.86888461
_cell_angle_alpha   113.56793509
_cell_angle_beta   113.65979780
_cell_angle_gamma   89.99990000
_symmetry_Int_Tables_number   1
_chemical_formula_structural   CdH26C30N6(O3F2)2
_chemical_formula_sum   'Cd2 H52 C60 N12 O12 F8'
_cell_volume   1497.66375859
_cell_formula_units_Z   2
loop_
 _symmetry_equiv_pos_site_id
 _symmetry_equiv_pos_as_xyz
  1  'x, y, z'
loop_
 _atom_site_type_symbol
 _atom_site_label
 _atom_site_symmetry_multiplicity
 _atom_site_fract_x
 _atom_site_fract_y
 _atom_site_fract_z
 _atom_site_occupancy
  Cd  Cd0  1  0.68874000  0.75001000  0.00000000  1.0
  Cd  Cd1  1  0.31126000  0.24999000  0.00000000  1.0
  H  H2  1  0.87471000  0.55208000  0.94898000  1.0
  H  H3  1  0.92574000  0.94792000  0.05102000  1.0
  H  H4  1  0.12529000  0.44792000  0.05102000  1.0
  H  H5  1  0.07426000  0.05208000  0.94898000  1.0
  H  H6  1  0.70214000  0.76711000  0.77399000  1.0
  H  H7  1  0.92816000  0.73287000  0.22601000  1.0
  H  H8  1  0.29786000  0.23289000  0.22601000  1.0
  H  H9  1  0.07184000  0.26713000  0.77399000  1.0
  H  H10  1  0.05712000  0.53141000  0.88354000  1.0
  H  H11  1  0.17358000  0.96860000  0.11646000  1.0
  H  H12  1  0.94288000  0.46859000  0.11646000  1.0
  H  H13  1  0.82642000  0.03140000  0.88354000  1.0
  H  H14  1  0.87751000  0.75833000  0.70418000  1.0
  H  H15  1  0.17333000  0.74166000  0.29581000  1.0
  H  H16  1  0.12249000  0.24167000  0.29582000  1.0
  H  H17  1  0.82667000  0.25834000  0.70419000  1.0
  H  H18  1  0.17116000  0.59628000  0.79923000  1.0
  H  H19  1  0.37194000  0.90372000  0.20076000  1.0
  H  H20  1  0.82884000  0.40372000  0.20077000  1.0
  H  H21  1  0.62806000  0.09628000  0.79924000  1.0
  H  H22  1  0.14478000  0.73687000  0.78289000  1.0
  H  H23  1  0.36190000  0.76314000  0.21711000  1.0
  H  H24  1  0.85522000  0.26313000  0.21711000  1.0
  H  H25  1  0.63809000  0.23686000  0.78288000  1.0
  H  H26  1  0.66186000  0.65406000  0.24753000  1.0
  H  H27  1  0.41432000  0.84595000  0.75247000  1.0
  H  H28  1  0.33814000  0.34594000  0.75247000  1.0
  H  H29  1  0.58568000  0.15405000  0.24753000  1.0
  H  H30  1  0.80065000  0.72306000  0.45989000  1.0
  H  H31  1  0.34076000  0.77695000  0.54011000  1.0
  H  H32  1  0.19935000  0.27694000  0.54011000  1.0
  H  H33  1  0.65924000  0.22305000  0.45989000  1.0
  H  H34  1  0.90490000  0.95057000  0.59212000  1.0
  H  H35  1  0.31278000  0.54944000  0.40789000  1.0
  H  H36  1  0.09510000  0.04943000  0.40788000  1.0
  H  H37  1  0.68722000  0.45056000  0.59211000  1.0
  H  H38  1  0.87047000  0.10607000  0.50756000  1.0
  H  H39  1  0.36291000  0.39394000  0.49244000  1.0
  H  H40  1  0.12953000  0.89393000  0.49244000  1.0
  H  H41  1  0.63709000  0.60606000  0.50756000  1.0
  H  H42  1  0.73023000  0.03659000  0.29604000  1.0
  H  H43  1  0.43417000  0.46342000  0.70396000  1.0
  H  H44  1  0.26977000  0.96341000  0.70396000  1.0
  H  H45  1  0.56583000  0.53658000  0.29604000  1.0
  H  H46  1  0.52536000  0.72379000  0.10486000  1.0
  H  H47  1  0.42049000  0.77620000  0.89514000  1.0
  H  H48  1  0.47464000  0.27621000  0.89514000  1.0
  H  H49  1  0.57951000  0.22380000  0.10486000  1.0
  H  H50  1  0.55108000  0.87010000  0.12198000  1.0
  H  H51  1  0.42910000  0.62990000  0.87801000  1.0
  H  H52  1  0.44892000  0.12990000  0.87802000  1.0
  H  H53  1  0.57090000  0.37010000  0.12199000  1.0
  C  C54  1  0.87873000  0.59518000  0.89352000  1.0
  C  C55  1  0.98522000  0.90481000  0.10649000  1.0
  C  C56  1  0.12127000  0.40482000  0.10648000  1.0
  C  C57  1  0.01478000  0.09519000  0.89351000  1.0
  C  C58  1  0.78238000  0.71585000  0.79657000  1.0
  C  C59  1  0.98581000  0.78414000  0.20342000  1.0
  C  C60  1  0.21762000  0.28415000  0.20343000  1.0
  C  C61  1  0.01418000  0.21586000  0.79657000  1.0
  C  C62  1  0.98013000  0.58481000  0.85791000  1.0
  C  C63  1  0.12223000  0.91520000  0.14209000  1.0
  C  C64  1  0.01987000  0.41519000  0.14209000  1.0
  C  C65  1  0.87778000  0.08480000  0.85792000  1.0
  C  C66  1  0.88095000  0.71061000  0.75810000  1.0
  C  C67  1  0.12284000  0.78938000  0.24188000  1.0
  C  C68  1  0.11905000  0.28939000  0.24190000  1.0
  C  C69  1  0.87716000  0.21062000  0.75812000  1.0
  C  C70  1  0.98409000  0.64594000  0.79072000  1.0
  C  C71  1  0.19338000  0.85407000  0.20928000  1.0
  C  C72  1  0.01591000  0.35406000  0.20928000  1.0
  C  C73  1  0.80662000  0.14593000  0.79072000  1.0
  C  C74  1  0.09572000  0.64062000  0.75436000  1.0
  C  C75  1  0.34138000  0.85939000  0.24564000  1.0
  C  C76  1  0.90427000  0.35938000  0.24564000  1.0
  C  C77  1  0.65862000  0.14061000  0.75436000  1.0
  C  C78  1  0.04637000  0.56898000  0.62385000  1.0
  C  C79  1  0.42253000  0.93103000  0.37614000  1.0
  C  C80  1  0.95363000  0.43102000  0.37615000  1.0
  C  C81  1  0.57747000  0.06897000  0.62386000  1.0
  C  C82  1  0.00107000  0.43853000  0.56606000  1.0
  C  C83  1  0.43506000  0.06149000  0.43394000  1.0
  C  C84  1  0.99893000  0.56147000  0.43394000  1.0
  C  C85  1  0.56494000  0.93851000  0.56606000  1.0
  C  C86  1  0.95743000  0.37116000  0.44588000  1.0
  C  C87  1  0.51155000  0.12883000  0.55412000  1.0
  C  C88  1  0.04257000  0.62884000  0.55412000  1.0
  C  C89  1  0.48845000  0.87117000  0.44588000  1.0
  C  C90  1  0.68299000  0.84124000  0.25923000  1.0
  C  C91  1  0.42376000  0.65877000  0.74077000  1.0
  C  C92  1  0.31701000  0.15876000  0.74077000  1.0
  C  C93  1  0.57624000  0.34123000  0.25923000  1.0
  C  C94  1  0.70680000  0.75306000  0.30562000  1.0
  C  C95  1  0.40119000  0.74695000  0.69438000  1.0
  C  C96  1  0.29320000  0.24694000  0.69438000  1.0
  C  C97  1  0.59881000  0.25305000  0.30562000  1.0
  C  C98  1  0.78540000  0.79274000  0.42496000  1.0
  C  C99  1  0.36045000  0.70727000  0.57505000  1.0
  C  C100  1  0.21460000  0.20726000  0.57504000  1.0
  C  C101  1  0.63955000  0.29273000  0.42495000  1.0
  C  C102  1  0.84301000  0.91989000  0.49896000  1.0
  C  C103  1  0.34405000  0.58011000  0.50104000  1.0
  C  C104  1  0.15699000  0.08011000  0.50104000  1.0
  C  C105  1  0.65595000  0.41989000  0.49896000  1.0
  C  C106  1  0.82295000  0.00706000  0.45169000  1.0
  C  C107  1  0.37126000  0.49295000  0.54830000  1.0
  C  C108  1  0.17704000  0.99294000  0.54831000  1.0
  C  C109  1  0.62874000  0.50705000  0.45170000  1.0
  C  C110  1  0.74380000  0.96845000  0.33251000  1.0
  C  C111  1  0.41129000  0.53156000  0.66748000  1.0
  C  C112  1  0.25620000  0.03155000  0.66749000  1.0
  C  C113  1  0.58871000  0.46844000  0.33252000  1.0
  N  N114  1  0.78226000  0.66119000  0.86545000  1.0
  N  N115  1  0.91681000  0.83880000  0.13454000  1.0
  N  N116  1  0.21774000  0.33881000  0.13455000  1.0
  N  N117  1  0.08319000  0.16120000  0.86546000  1.0
  N  N118  1  0.65530000  0.47739000  0.99178000  1.0
  N  N119  1  0.66354000  0.02260000  0.00822000  1.0
  N  N120  1  0.34470000  0.52261000  0.00822000  1.0
  N  N121  1  0.33646000  0.97740000  0.99178000  1.0
  N  N122  1  0.59840000  0.80057000  0.13792000  1.0
  N  N123  1  0.46047000  0.69943000  0.86208000  1.0
  N  N124  1  0.40160000  0.19943000  0.86208000  1.0
  N  N125  1  0.53953000  0.30057000  0.13792000  1.0
  O  O126  1  0.75176000  0.57311000  0.05520000  1.0
  O  O127  1  0.69656000  0.92689000  0.94478000  1.0
  O  O128  1  0.24824000  0.42689000  0.94480000  1.0
  O  O129  1  0.30344000  0.07311000  0.05522000  1.0
  O  O130  1  0.55485000  0.47723000  0.90633000  1.0
  O  O131  1  0.64852000  0.02273000  0.09365000  1.0
  O  O132  1  0.44515000  0.52277000  0.09367000  1.0
  O  O133  1  0.35148000  0.97727000  0.90635000  1.0
  O  O134  1  0.66328000  0.38414000  0.01569000  1.0
  O  O135  1  0.64762000  0.11588000  0.98434000  1.0
  O  O136  1  0.33672000  0.61586000  0.98431000  1.0
  O  O137  1  0.35238000  0.88412000  0.01566000  1.0
  F  F138  1  0.99911000  0.37497000  0.62864000  1.0
  F  F139  1  0.37061000  0.12505000  0.37135000  1.0
  F  F140  1  0.00089000  0.62503000  0.37136000  1.0
  F  F141  1  0.62940000  0.87495000  0.62866000  1.0
  F  F142  1  0.91881000  0.24377000  0.39614000  1.0
  F  F143  1  0.52268000  0.25623000  0.60389000  1.0
  F  F144  1  0.08119000  0.75623000  0.60386000  1.0
  F  F145  1  0.47732000  0.74377000  0.39611000  1.0
