# generated using pymatgen
data_CuH10C10(NO)6
_symmetry_space_group_name_H-M   'P 1'
_cell_length_a   5.84355000
_cell_length_b   7.56720000
_cell_length_c   8.86849000
_cell_angle_alpha   82.65500000
_cell_angle_beta   80.83960000
_cell_angle_gamma   69.07870000
_symmetry_Int_Tables_number   1
_chemical_formula_structural   CuH10C10(NO)6
_chemical_formula_sum   'Cu1 H10 C10 N6 O6'
_cell_volume   360.55922015
_cell_formula_units_Z   1
loop_
 _symmetry_equiv_pos_site_id
 _symmetry_equiv_pos_as_xyz
  1  'x, y, z'
loop_
 _atom_site_type_symbol
 _atom_site_label
 _atom_site_symmetry_multiplicity
 _atom_site_fract_x
 _atom_site_fract_y
 _atom_site_fract_z
 _atom_site_occupancy
  Cu  Cu0  1  0.50000000  0.50000000  0.50000000  1.0
  H  H1  1  0.17047000  0.51572000  0.29567000  1.0
  H  H2  1  0.82952000  0.48431000  0.70432000  1.0
  H  H3  1  0.41033000  0.40115000  0.15481000  1.0
  H  H4  1  0.58965000  0.59886000  0.84519000  1.0
  H  H5  1  0.14460000  0.58836000  0.09642000  1.0
  H  H6  1  0.85539000  0.41166000  0.90357000  1.0
  H  H7  1  0.73478000  0.02504000  0.18735000  1.0
  H  H8  1  0.26524000  0.97495000  0.81264000  1.0
  H  H9  1  0.71705000  0.78846000  0.41168000  1.0
  H  H10  1  0.28296000  0.21153000  0.58832000  1.0
  C  C11  1  0.39452000  0.67962000  0.18737000  1.0
  C  C12  1  0.60548000  0.32040000  0.81263000  1.0
  C  C13  1  0.27103000  0.53882000  0.18393000  1.0
  C  C14  1  0.72896000  0.46118000  0.81608000  1.0
  C  C15  1  0.50759000  0.92963000  0.06703000  1.0
  C  C16  1  0.49241000  0.07036000  0.93297000  1.0
  C  C17  1  0.63623000  0.92749000  0.18743000  1.0
  C  C18  1  0.36378000  0.07251000  0.81256000  1.0
  C  C19  1  0.62741000  0.79667000  0.31075000  1.0
  C  C20  1  0.37259000  0.20332000  0.68924000  1.0
  N  N21  1  0.50790000  0.67375000  0.31141000  1.0
  N  N22  1  0.49209000  0.32625000  0.68859000  1.0
  N  N23  1  0.39098000  0.80517000  0.06696000  1.0
  N  N24  1  0.60903000  0.19483000  0.93304000  1.0
  N  N25  1  0.09940000  0.78120000  0.61671000  1.0
  N  N26  1  0.90059000  0.21879000  0.38329000  1.0
  O  O27  1  0.33816000  0.73066000  0.62146000  1.0
  O  O28  1  0.66184000  0.26934000  0.37855000  1.0
  O  O29  1  0.02650000  0.67916000  0.54818000  1.0
  O  O30  1  0.97350000  0.32082000  0.45185000  1.0
  O  O31  1  0.03894000  0.07548000  0.31978000  1.0
  O  O32  1  0.96106000  0.92452000  0.68022000  1.0
