# generated using pymatgen
data_Ho2Fe3H30C42(NO5)6
_symmetry_space_group_name_H-M   'P 1'
_cell_length_a   15.21540000
_cell_length_b   15.21540000
_cell_length_c   15.54250000
_cell_angle_alpha   89.99990000
_cell_angle_beta   89.99990000
_cell_angle_gamma   60.00000000
_symmetry_Int_Tables_number   1
_chemical_formula_structural   Ho2Fe3H30C42(NO5)6
_chemical_formula_sum   'Ho4 Fe6 H60 C84 N12 O60'
_cell_volume   3116.14929002
_cell_formula_units_Z   2
loop_
 _symmetry_equiv_pos_site_id
 _symmetry_equiv_pos_as_xyz
  1  'x, y, z'
loop_
 _atom_site_type_symbol
 _atom_site_label
 _atom_site_symmetry_multiplicity
 _atom_site_fract_x
 _atom_site_fract_y
 _atom_site_fract_z
 _atom_site_occupancy
  Ho  Ho0  1  0.33333333  0.33333333  0.24999000  1.0
  Ho  Ho1  1  0.66666667  0.66666667  0.25000000  1.0
  Ho  Ho2  1  0.66666667  0.66666667  0.75002000  1.0
  Ho  Ho3  1  0.33333333  0.33337667  0.74999000  1.0
  Fe  Fe4  1  0.00000000  0.50000000  0.50000000  1.0
  Fe  Fe5  1  0.50000000  0.50000000  0.50000000  1.0
  Fe  Fe6  1  0.50000000  0.00000000  0.50000000  1.0
  Fe  Fe7  1  0.50000000  0.50000000  1.00000000  1.0
  Fe  Fe8  1  0.00000000  0.50000000  0.00000000  1.0
  Fe  Fe9  1  0.50000000  0.00000000  0.00000000  1.0
  H  H10  1  0.17290000  0.46688000  0.44831000  1.0
  H  H11  1  0.04443000  0.24028000  0.35205000  1.0
  H  H12  1  0.46688000  0.36022000  0.44831000  1.0
  H  H13  1  0.24029000  0.71528000  0.35205000  1.0
  H  H14  1  0.36022000  0.17290000  0.44830000  1.0
  H  H15  1  0.71530000  0.04442000  0.35205000  1.0
  H  H16  1  0.82711000  0.53311000  0.44830000  1.0
  H  H17  1  0.95557000  0.75972000  0.35206000  1.0
  H  H18  1  0.53312000  0.63978000  0.44830000  1.0
  H  H19  1  0.75972000  0.28471000  0.35205000  1.0
  H  H20  1  0.63978000  0.82710000  0.44830000  1.0
  H  H21  1  0.28471000  0.95557000  0.35205000  1.0
  H  H22  1  0.63978000  0.53312000  0.05169000  1.0
  H  H23  1  0.28472000  0.75971000  0.14795000  1.0
  H  H24  1  0.82710000  0.63978000  0.05170000  1.0
  H  H25  1  0.95557000  0.28471000  0.14795000  1.0
  H  H26  1  0.53312000  0.82710000  0.05170000  1.0
  H  H27  1  0.75972000  0.95557000  0.14795000  1.0
  H  H28  1  0.36022000  0.46688000  0.05170000  1.0
  H  H29  1  0.71529000  0.24028000  0.14795000  1.0
  H  H30  1  0.17289000  0.36022000  0.05170000  1.0
  H  H31  1  0.04443000  0.71528000  0.14795000  1.0
  H  H32  1  0.46689000  0.17289000  0.05170000  1.0
  H  H33  1  0.24028000  0.04443000  0.14794000  1.0
  H  H34  1  0.82710000  0.53312000  0.55169000  1.0
  H  H35  1  0.95557000  0.75972000  0.64795000  1.0
  H  H36  1  0.53311000  0.63978000  0.55169000  1.0
  H  H37  1  0.75971000  0.28472000  0.64795000  1.0
  H  H38  1  0.63977000  0.82711000  0.55170000  1.0
  H  H39  1  0.28470000  0.95557000  0.64795000  1.0
  H  H40  1  0.17290000  0.46688000  0.55170000  1.0
  H  H41  1  0.04442000  0.24029000  0.64794000  1.0
  H  H42  1  0.46688000  0.36022000  0.55170000  1.0
  H  H43  1  0.24028000  0.71529000  0.64795000  1.0
  H  H44  1  0.36022000  0.17290000  0.55170000  1.0
  H  H45  1  0.71529000  0.04443000  0.64795000  1.0
  H  H46  1  0.36022000  0.46688000  0.94831000  1.0
  H  H47  1  0.71529000  0.24028000  0.85205000  1.0
  H  H48  1  0.17290000  0.36022000  0.94830000  1.0
  H  H49  1  0.04443000  0.71529000  0.85205000  1.0
  H  H50  1  0.46688000  0.17289000  0.94830000  1.0
  H  H51  1  0.24028000  0.04442000  0.85206000  1.0
  H  H52  1  0.63978000  0.53312000  0.94830000  1.0
  H  H53  1  0.28470000  0.75972000  0.85205000  1.0
  H  H54  1  0.82710000  0.63978000  0.94830000  1.0
  H  H55  1  0.95556000  0.28473000  0.85205000  1.0
  H  H56  1  0.53311000  0.82711000  0.94830000  1.0
  H  H57  1  0.75971000  0.95558000  0.85205000  1.0
  H  H58  1  0.09301000  0.09302000  0.25000000  1.0
  H  H59  1  0.09301000  0.81397000  0.25000000  1.0
  H  H60  1  0.81398000  0.09301000  0.25000000  1.0
  H  H61  1  0.90699000  0.90699000  0.25000000  1.0
  H  H62  1  0.90698000  0.18603000  0.25000000  1.0
  H  H63  1  0.18603000  0.90698000  0.25000000  1.0
  H  H64  1  0.90699000  0.90698000  0.75000000  1.0
  H  H65  1  0.90698000  0.18604000  0.75000000  1.0
  H  H66  1  0.18602000  0.90699000  0.75000000  1.0
  H  H67  1  0.09301000  0.09301000  0.75000000  1.0
  H  H68  1  0.09302000  0.81396000  0.74999000  1.0
  H  H69  1  0.81397000  0.09302000  0.75000000  1.0
  C  C70  1  0.13888000  0.35440000  0.36090000  1.0
  C  C71  1  0.16169000  0.26632000  0.30402000  1.0
  C  C72  1  0.10690000  0.21516000  0.30664000  1.0
  C  C73  1  0.35441000  0.50672000  0.36089000  1.0
  C  C74  1  0.26633000  0.57198000  0.30401000  1.0
  C  C75  1  0.21516000  0.67793000  0.30664000  1.0
  C  C76  1  0.50673000  0.13886000  0.36090000  1.0
  C  C77  1  0.57200000  0.16168000  0.30401000  1.0
  C  C78  1  0.67795000  0.10690000  0.30664000  1.0
  C  C79  1  0.86114000  0.64559000  0.36089000  1.0
  C  C80  1  0.83831000  0.73369000  0.30401000  1.0
  C  C81  1  0.89310000  0.78485000  0.30664000  1.0
  C  C82  1  0.64559000  0.49328000  0.36089000  1.0
  C  C83  1  0.73368000  0.42801000  0.30401000  1.0
  C  C84  1  0.78484000  0.32206000  0.30664000  1.0
  C  C85  1  0.49328000  0.86113000  0.36089000  1.0
  C  C86  1  0.42801000  0.83831000  0.30401000  1.0
  C  C87  1  0.32206000  0.89310000  0.30664000  1.0
  C  C88  1  0.49328000  0.64559000  0.13911000  1.0
  C  C89  1  0.42801000  0.73368000  0.19599000  1.0
  C  C90  1  0.32206000  0.78484000  0.19336000  1.0
  C  C91  1  0.86114000  0.49327000  0.13910000  1.0
  C  C92  1  0.83832000  0.42800000  0.19599000  1.0
  C  C93  1  0.89310000  0.32206000  0.19336000  1.0
  C  C94  1  0.64559000  0.86114000  0.13911000  1.0
  C  C95  1  0.73368000  0.83832000  0.19599000  1.0
  C  C96  1  0.78484000  0.89311000  0.19336000  1.0
  C  C97  1  0.50673000  0.35440000  0.13910000  1.0
  C  C98  1  0.57200000  0.26631000  0.19598000  1.0
  C  C99  1  0.67795000  0.21515000  0.19336000  1.0
  C  C100  1  0.13887000  0.50672000  0.13911000  1.0
  C  C101  1  0.16169000  0.57199000  0.19599000  1.0
  C  C102  1  0.10691000  0.67793000  0.19336000  1.0
  C  C103  1  0.35441000  0.13887000  0.13911000  1.0
  C  C104  1  0.26632000  0.16169000  0.19599000  1.0
  C  C105  1  0.21516000  0.10690000  0.19336000  1.0
  C  C106  1  0.86112000  0.64560000  0.63910000  1.0
  C  C107  1  0.83830000  0.73369000  0.69598000  1.0
  C  C108  1  0.89309000  0.78485000  0.69336000  1.0
  C  C109  1  0.64558000  0.49328000  0.63910000  1.0
  C  C110  1  0.73367000  0.42802000  0.69598000  1.0
  C  C111  1  0.78484000  0.32206000  0.69336000  1.0
  C  C112  1  0.49326000  0.86114000  0.63910000  1.0
  C  C113  1  0.42800000  0.83831000  0.69598000  1.0
  C  C114  1  0.32204000  0.89311000  0.69336000  1.0
  C  C115  1  0.13887000  0.35441000  0.63911000  1.0
  C  C116  1  0.16169000  0.26632000  0.69599000  1.0
  C  C117  1  0.10690000  0.21516000  0.69336000  1.0
  C  C118  1  0.35441000  0.50672000  0.63911000  1.0
  C  C119  1  0.26633000  0.57198000  0.69599000  1.0
  C  C120  1  0.21516000  0.67794000  0.69336000  1.0
  C  C121  1  0.50672000  0.13887000  0.63911000  1.0
  C  C122  1  0.57199000  0.16169000  0.69599000  1.0
  C  C123  1  0.67794000  0.10690000  0.69336000  1.0
  C  C124  1  0.50673000  0.35440000  0.86090000  1.0
  C  C125  1  0.57200000  0.26631000  0.80402000  1.0
  C  C126  1  0.67795000  0.21515000  0.80664000  1.0
  C  C127  1  0.13887000  0.50672000  0.86090000  1.0
  C  C128  1  0.16169000  0.57199000  0.80402000  1.0
  C  C129  1  0.10690000  0.67794000  0.80664000  1.0
  C  C130  1  0.35441000  0.13886000  0.86090000  1.0
  C  C131  1  0.26632000  0.16168000  0.80402000  1.0
  C  C132  1  0.21515000  0.10690000  0.80664000  1.0
  C  C133  1  0.49327000  0.64559000  0.86089000  1.0
  C  C134  1  0.42800000  0.73368000  0.80401000  1.0
  C  C135  1  0.32205000  0.78484000  0.80664000  1.0
  C  C136  1  0.86112000  0.49329000  0.86089000  1.0
  C  C137  1  0.83830000  0.42802000  0.80401000  1.0
  C  C138  1  0.89309000  0.32207000  0.80663000  1.0
  C  C139  1  0.64558000  0.86114000  0.86089000  1.0
  C  C140  1  0.73367000  0.83832000  0.80401000  1.0
  C  C141  1  0.78484000  0.89310000  0.80664000  1.0
  C  C142  1  0.13443000  0.13443000  0.25000000  1.0
  C  C143  1  0.13443000  0.73114000  0.25000000  1.0
  C  C144  1  0.73115000  0.13443000  0.25000000  1.0
  C  C145  1  0.86557000  0.86558000  0.25000000  1.0
  C  C146  1  0.86557000  0.26886000  0.25000000  1.0
  C  C147  1  0.26886000  0.86557000  0.25000000  1.0
  C  C148  1  0.86557000  0.86557000  0.75000000  1.0
  C  C149  1  0.86556000  0.26887000  0.75000000  1.0
  C  C150  1  0.26884000  0.86558000  0.75000000  1.0
  C  C151  1  0.13442000  0.13443000  0.75000000  1.0
  C  C152  1  0.13443000  0.73114000  0.75000000  1.0
  C  C153  1  0.73114000  0.13443000  0.75000000  1.0
  N  N154  1  0.23957000  0.23957000  0.25000000  1.0
  N  N155  1  0.23958000  0.52085000  0.25000000  1.0
  N  N156  1  0.52087000  0.23956000  0.25000000  1.0
  N  N157  1  0.76043000  0.76044000  0.25000000  1.0
  N  N158  1  0.76043000  0.47914000  0.25000000  1.0
  N  N159  1  0.47914000  0.76043000  0.25000000  1.0
  N  N160  1  0.76042000  0.76044000  0.74999000  1.0
  N  N161  1  0.76042000  0.47915000  0.74999000  1.0
  N  N162  1  0.47913000  0.76043000  0.74999000  1.0
  N  N163  1  0.23957000  0.23956000  0.75001000  1.0
  N  N164  1  0.23958000  0.52085000  0.75001000  1.0
  N  N165  1  0.52086000  0.23957000  0.75001000  1.0
  O  O166  1  0.20071000  0.38881000  0.35717000  1.0
  O  O167  1  0.06125000  0.38760000  0.40807000  1.0
  O  O168  1  0.38883000  0.41048000  0.35716000  1.0
  O  O169  1  0.38760000  0.55115000  0.40808000  1.0
  O  O170  1  0.41050000  0.20069000  0.35716000  1.0
  O  O171  1  0.55117000  0.06124000  0.40808000  1.0
  O  O172  1  0.79931000  0.61117000  0.35716000  1.0
  O  O173  1  0.93875000  0.61241000  0.40808000  1.0
  O  O174  1  0.61119000  0.58952000  0.35716000  1.0
  O  O175  1  0.61239000  0.44886000  0.40807000  1.0
  O  O176  1  0.58952000  0.79930000  0.35716000  1.0
  O  O177  1  0.44885000  0.93875000  0.40807000  1.0
  O  O178  1  0.58952000  0.61118000  0.14284000  1.0
  O  O179  1  0.44885000  0.61240000  0.09193000  1.0
  O  O180  1  0.79931000  0.58951000  0.14284000  1.0
  O  O181  1  0.93876000  0.44884000  0.09193000  1.0
  O  O182  1  0.61119000  0.79930000  0.14283000  1.0
  O  O183  1  0.61241000  0.93875000  0.09192000  1.0
  O  O184  1  0.41049000  0.38880000  0.14284000  1.0
  O  O185  1  0.55115000  0.38760000  0.09193000  1.0
  O  O186  1  0.20071000  0.41047000  0.14284000  1.0
  O  O187  1  0.06126000  0.55114000  0.09193000  1.0
  O  O188  1  0.38883000  0.20069000  0.14284000  1.0
  O  O189  1  0.38760000  0.06125000  0.09192000  1.0
  O  O190  1  0.79929000  0.61119000  0.64283000  1.0
  O  O191  1  0.93875000  0.61240000  0.59193000  1.0
  O  O192  1  0.61117000  0.58952000  0.64283000  1.0
  O  O193  1  0.61239000  0.44886000  0.59192000  1.0
  O  O194  1  0.58950000  0.79931000  0.64283000  1.0
  O  O195  1  0.44882000  0.93877000  0.59192000  1.0
  O  O196  1  0.20070000  0.38883000  0.64284000  1.0
  O  O197  1  0.06126000  0.38760000  0.59193000  1.0
  O  O198  1  0.38883000  0.41047000  0.64285000  1.0
  O  O199  1  0.38760000  0.55115000  0.59193000  1.0
  O  O200  1  0.41048000  0.20070000  0.64284000  1.0
  O  O201  1  0.55115000  0.06126000  0.59193000  1.0
  O  O202  1  0.41049000  0.38881000  0.85717000  1.0
  O  O203  1  0.55116000  0.38760000  0.90807000  1.0
  O  O204  1  0.20070000  0.41049000  0.85717000  1.0
  O  O205  1  0.06124000  0.55116000  0.90808000  1.0
  O  O206  1  0.38882000  0.20069000  0.85717000  1.0
  O  O207  1  0.38759000  0.06124000  0.90808000  1.0
  O  O208  1  0.58951000  0.61119000  0.85716000  1.0
  O  O209  1  0.44885000  0.61240000  0.90807000  1.0
  O  O210  1  0.79929000  0.58953000  0.85716000  1.0
  O  O211  1  0.93874000  0.44886000  0.90807000  1.0
  O  O212  1  0.61116000  0.79932000  0.85716000  1.0
  O  O213  1  0.61240000  0.93875000  0.90807000  1.0
  O  O214  1  0.13668000  0.50805000  0.50000000  1.0
  O  O215  1  0.50806000  0.35526000  0.50000000  1.0
  O  O216  1  0.35527000  0.13668000  0.50000000  1.0
  O  O217  1  0.86332000  0.49195000  0.50000000  1.0
  O  O218  1  0.49194000  0.64473000  0.50000000  1.0
  O  O219  1  0.64473000  0.86332000  0.50000000  1.0
  O  O220  1  0.64473000  0.49195000  0.00000000  1.0
  O  O221  1  0.86332000  0.64473000  1.00000000  1.0
  O  O222  1  0.49195000  0.86332000  0.00000000  1.0
  O  O223  1  0.35527000  0.50805000  1.00000000  1.0
  O  O224  1  0.13668000  0.35526000  0.00000000  1.0
  O  O225  1  0.50805000  0.13667000  0.00000000  1.0
