# generated using pymatgen
data_BaH4(C4O3)2
_symmetry_space_group_name_H-M   'P 1'
_cell_length_a   7.44711000
_cell_length_b   7.49573000
_cell_length_c   8.14285000
_cell_angle_alpha   67.83350000
_cell_angle_beta   69.23090000
_cell_angle_gamma   78.71730000
_symmetry_Int_Tables_number   1
_chemical_formula_structural   BaH4(C4O3)2
_chemical_formula_sum   'Ba2 H8 C16 O12'
_cell_volume   392.59112890
_cell_formula_units_Z   2
loop_
 _symmetry_equiv_pos_site_id
 _symmetry_equiv_pos_as_xyz
  1  'x, y, z'
loop_
 _atom_site_type_symbol
 _atom_site_label
 _atom_site_symmetry_multiplicity
 _atom_site_fract_x
 _atom_site_fract_y
 _atom_site_fract_z
 _atom_site_occupancy
  Ba  Ba0  1  0.92759000  0.85298000  0.83755000  1.0
  Ba  Ba1  1  0.07240000  0.14702000  0.16245000  1.0
  H  H2  1  0.63798000  0.96975000  0.24481000  1.0
  H  H3  1  0.36202000  0.03025000  0.75519000  1.0
  H  H4  1  0.54122000  0.22469000  0.97831000  1.0
  H  H5  1  0.45878000  0.77531000  0.02169000  1.0
  H  H6  1  0.94070000  0.66677000  0.52077000  1.0
  H  H7  1  0.05930000  0.33323000  0.47923000  1.0
  H  H8  1  0.24694000  0.55765000  0.72193000  1.0
  H  H9  1  0.75307000  0.44235000  0.27807000  1.0
  C  C10  1  0.83244000  0.37262000  0.84775000  1.0
  C  C11  1  0.16757000  0.62738000  0.15225000  1.0
  C  C12  1  0.71036000  0.49315000  0.72829000  1.0
  C  C13  1  0.28965000  0.50685000  0.27171000  1.0
  C  C14  1  0.78834000  0.64350000  0.56442000  1.0
  C  C15  1  0.21165000  0.35650000  0.43558000  1.0
  C  C16  1  0.67354000  0.76283000  0.45663000  1.0
  C  C17  1  0.32646000  0.23717000  0.54337000  1.0
  C  C18  1  0.47391000  0.73822000  0.51942000  1.0
  C  C19  1  0.52609000  0.26178000  0.48058000  1.0
  C  C20  1  0.39722000  0.58630000  0.68151000  1.0
  C  C21  1  0.60278000  0.41370000  0.31849000  1.0
  C  C22  1  0.51387000  0.46078000  0.78338000  1.0
  C  C23  1  0.48613000  0.53922000  0.21662000  1.0
  C  C24  1  0.34598000  0.87013000  0.41318000  1.0
  C  C25  1  0.65401000  0.12987000  0.58682000  1.0
  O  O26  1  0.96161000  0.45127000  0.85912000  1.0
  O  O27  1  0.03839000  0.54873000  0.14088000  1.0
  O  O28  1  0.79699000  0.19407000  0.93986000  1.0
  O  O29  1  0.20301000  0.80593000  0.06014000  1.0
  O  O30  1  0.16427000  0.86008000  0.48097000  1.0
  O  O31  1  0.83573000  0.13992000  0.51903000  1.0
  O  O32  1  0.42475000  0.99396000  0.25347000  1.0
  O  O33  1  0.57525000  0.00603000  0.74653000  1.0
  O  O34  1  0.75338000  0.90396000  0.29329000  1.0
  O  O35  1  0.24662000  0.09604000  0.70671000  1.0
  O  O36  1  0.43336000  0.31056000  0.93774000  1.0
  O  O37  1  0.56664000  0.68944000  0.06226000  1.0
