# generated using pymatgen
data_CdH12(C2N)10
_symmetry_space_group_name_H-M   'P 1'
_cell_length_a   11.43140000
_cell_length_b   11.43140000
_cell_length_c   17.52050000
_cell_angle_alpha   106.17100000
_cell_angle_beta   106.17100000
_cell_angle_gamma   98.38980000
_symmetry_Int_Tables_number   1
_chemical_formula_structural   CdH12(C2N)10
_chemical_formula_sum   'Cd4 H48 C80 N40'
_cell_volume   2049.02425738
_cell_formula_units_Z   4
loop_
 _symmetry_equiv_pos_site_id
 _symmetry_equiv_pos_as_xyz
  1  'x, y, z'
loop_
 _atom_site_type_symbol
 _atom_site_label
 _atom_site_symmetry_multiplicity
 _atom_site_fract_x
 _atom_site_fract_y
 _atom_site_fract_z
 _atom_site_occupancy
  Cd  Cd0  1  0.23648000  0.76353000  0.75000000  1.0
  Cd  Cd1  1  0.01356000  0.98643000  0.75000000  1.0
  Cd  Cd2  1  0.76352000  0.23647000  0.25000000  1.0
  Cd  Cd3  1  0.98643000  0.01356000  0.25000000  1.0
  H  H4  1  0.44423000  0.85900000  0.92443000  1.0
  H  H5  1  0.98028000  0.06542000  0.92451000  1.0
  H  H6  1  0.14100000  0.55577000  0.57557000  1.0
  H  H7  1  0.93458000  0.01972000  0.57549000  1.0
  H  H8  1  0.55577000  0.14100000  0.07557000  1.0
  H  H9  1  0.01972000  0.93458000  0.07549000  1.0
  H  H10  1  0.85900000  0.44423000  0.42443000  1.0
  H  H11  1  0.06542000  0.98028000  0.42451000  1.0
  H  H12  1  0.79712000  0.77877000  0.91230000  1.0
  H  H13  1  0.61529000  0.13365000  0.91235000  1.0
  H  H14  1  0.22123000  0.20289000  0.58770000  1.0
  H  H15  1  0.86635000  0.38471000  0.58765000  1.0
  H  H16  1  0.20289000  0.22123000  0.08770000  1.0
  H  H17  1  0.38471000  0.86635000  0.08765000  1.0
  H  H18  1  0.77877000  0.79711000  0.41230000  1.0
  H  H19  1  0.13365000  0.61529000  0.41235000  1.0
  H  H20  1  0.37124000  0.70063000  0.63627000  1.0
  H  H21  1  0.76527000  0.93561000  0.63634000  1.0
  H  H22  1  0.29937000  0.62876000  0.86373000  1.0
  H  H23  1  0.06439000  0.23473000  0.86366000  1.0
  H  H24  1  0.62876000  0.29938000  0.36374000  1.0
  H  H25  1  0.23473000  0.06439000  0.36366000  1.0
  H  H26  1  0.70063000  0.37124000  0.13627000  1.0
  H  H27  1  0.93561000  0.76527000  0.13634000  1.0
  H  H28  1  0.49290000  0.61370000  0.54827000  1.0
  H  H29  1  0.55569000  0.93465000  0.54831000  1.0
  H  H30  1  0.38630000  0.50710000  0.95173000  1.0
  H  H31  1  0.06535000  0.44431000  0.95169000  1.0
  H  H32  1  0.50710000  0.38630000  0.45173000  1.0
  H  H33  1  0.44431000  0.06535000  0.45169000  1.0
  H  H34  1  0.61370000  0.49290000  0.04827000  1.0
  H  H35  1  0.93465000  0.55569000  0.04831000  1.0
  H  H36  1  0.71385000  0.60539000  0.61419000  1.0
  H  H37  1  0.40055000  0.00871000  0.61421000  1.0
  H  H38  1  0.39461000  0.28616000  0.88581000  1.0
  H  H39  1  0.99129000  0.59945000  0.88579000  1.0
  H  H40  1  0.28615000  0.39461000  0.38581000  1.0
  H  H41  1  0.59946000  0.99129000  0.38579000  1.0
  H  H42  1  0.60539000  0.71384000  0.11419000  1.0
  H  H43  1  0.00871000  0.40054000  0.11421000  1.0
  H  H44  1  0.81441000  0.68937000  0.77026000  1.0
  H  H45  1  0.45599000  0.08085000  0.77028000  1.0
  H  H46  1  0.31063000  0.18559000  0.72974000  1.0
  H  H47  1  0.91915000  0.54401000  0.72973000  1.0
  H  H48  1  0.18559000  0.31063000  0.22974000  1.0
  H  H49  1  0.54401000  0.91915000  0.22973000  1.0
  H  H50  1  0.68937000  0.81441000  0.27026000  1.0
  H  H51  1  0.08085000  0.45599000  0.27027000  1.0
  C  C52  1  0.50237000  0.82349000  0.88778000  1.0
  C  C53  1  0.88553000  0.06434000  0.88786000  1.0
  C  C54  1  0.17651000  0.49763000  0.61222000  1.0
  C  C55  1  0.93566000  0.11448000  0.61215000  1.0
  C  C56  1  0.49764000  0.17651000  0.11222000  1.0
  C  C57  1  0.11447000  0.93566000  0.11215000  1.0
  C  C58  1  0.82349000  0.50237000  0.38778000  1.0
  C  C59  1  0.06434000  0.88552000  0.38785000  1.0
  C  C60  1  0.62699000  0.82200000  0.93017000  1.0
  C  C61  1  0.80327000  0.10822000  0.93023000  1.0
  C  C62  1  0.17801000  0.37301000  0.56983000  1.0
  C  C63  1  0.89178000  0.19673000  0.56977000  1.0
  C  C64  1  0.37301000  0.17800000  0.06983000  1.0
  C  C65  1  0.19673000  0.89178000  0.06977000  1.0
  C  C66  1  0.82200000  0.62699000  0.43017000  1.0
  C  C67  1  0.10822000  0.80327000  0.43023000  1.0
  C  C68  1  0.69933000  0.77769000  0.88216000  1.0
  C  C69  1  0.68294000  0.10454000  0.88221000  1.0
  C  C70  1  0.22231000  0.30067000  0.61784000  1.0
  C  C71  1  0.89546000  0.31706000  0.61779000  1.0
  C  C72  1  0.30067000  0.22230000  0.11784000  1.0
  C  C73  1  0.31706000  0.89546000  0.11779000  1.0
  C  C74  1  0.77770000  0.69933000  0.38216000  1.0
  C  C75  1  0.10454000  0.68294000  0.38221000  1.0
  C  C76  1  0.64703000  0.73383000  0.79324000  1.0
  C  C77  1  0.64642000  0.05956000  0.79330000  1.0
  C  C78  1  0.26617000  0.35297000  0.70676000  1.0
  C  C79  1  0.94044000  0.35358000  0.70670000  1.0
  C  C80  1  0.35296000  0.26617000  0.20676000  1.0
  C  C81  1  0.35358000  0.94044000  0.20670000  1.0
  C  C82  1  0.73383000  0.64703000  0.29324000  1.0
  C  C83  1  0.05956000  0.64642000  0.29330000  1.0
  C  C84  1  0.51979000  0.73751000  0.75509000  1.0
  C  C85  1  0.73549000  0.01769000  0.75514000  1.0
  C  C86  1  0.26250000  0.48021000  0.74491000  1.0
  C  C87  1  0.98231000  0.26451000  0.74486000  1.0
  C  C88  1  0.48021000  0.26249000  0.24491000  1.0
  C  C89  1  0.26451000  0.98231000  0.24486000  1.0
  C  C90  1  0.73751000  0.51979000  0.25509000  1.0
  C  C91  1  0.01769000  0.73549000  0.25514000  1.0
  C  C92  1  0.46628000  0.69429000  0.66611000  1.0
  C  C93  1  0.70009000  0.97187000  0.66617000  1.0
  C  C94  1  0.30571000  0.53372000  0.83389000  1.0
  C  C95  1  0.02813000  0.29991000  0.83383000  1.0
  C  C96  1  0.53372000  0.30571000  0.33389000  1.0
  C  C97  1  0.29991000  0.02813000  0.33383000  1.0
  C  C98  1  0.69429000  0.46628000  0.16611000  1.0
  C  C99  1  0.97186000  0.70009000  0.16617000  1.0
  C  C100  1  0.53520000  0.64644000  0.61688000  1.0
  C  C101  1  0.58198000  0.97054000  0.61692000  1.0
  C  C102  1  0.35356000  0.46480000  0.88312000  1.0
  C  C103  1  0.02945000  0.41802000  0.88308000  1.0
  C  C104  1  0.46480000  0.35356000  0.38312000  1.0
  C  C105  1  0.41802000  0.02946000  0.38308000  1.0
  C  C106  1  0.64644000  0.53520000  0.11688000  1.0
  C  C107  1  0.97054000  0.58199000  0.11692000  1.0
  C  C108  1  0.66057000  0.64225000  0.65417000  1.0
  C  C109  1  0.49385000  0.01196000  0.65421000  1.0
  C  C110  1  0.35775000  0.33943000  0.84583000  1.0
  C  C111  1  0.98804000  0.50615000  0.84579000  1.0
  C  C112  1  0.33943000  0.35775000  0.34583000  1.0
  C  C113  1  0.50615000  0.98804000  0.34579000  1.0
  C  C114  1  0.64225000  0.66057000  0.15417000  1.0
  C  C115  1  0.01196000  0.49385000  0.15421000  1.0
  C  C116  1  0.71616000  0.68676000  0.74069000  1.0
  C  C117  1  0.52474000  0.05399000  0.74074000  1.0
  C  C118  1  0.31324000  0.28384000  0.75931000  1.0
  C  C119  1  0.94601000  0.47526000  0.75926000  1.0
  C  C120  1  0.28384000  0.31324000  0.25930000  1.0
  C  C121  1  0.47526000  0.94601000  0.25927000  1.0
  C  C122  1  0.68676000  0.71616000  0.24069000  1.0
  C  C123  1  0.05399000  0.52474000  0.24073000  1.0
  C  C124  1  0.67586000  0.87203000  0.02202000  1.0
  C  C125  1  0.84623000  0.14996000  0.02208000  1.0
  C  C126  1  0.12797000  0.32414000  0.47798000  1.0
  C  C127  1  0.85004000  0.15377000  0.47792000  1.0
  C  C128  1  0.32414000  0.12797000  0.97798000  1.0
  C  C129  1  0.15377000  0.85004000  0.97792000  1.0
  C  C130  1  0.87203000  0.67586000  0.52202000  1.0
  C  C131  1  0.14996000  0.84623000  0.52208000  1.0
  N  N132  1  0.45092000  0.78325000  0.80448000  1.0
  N  N133  1  0.85369000  0.02129000  0.80455000  1.0
  N  N134  1  0.21675000  0.54908000  0.69552000  1.0
  N  N135  1  0.97871000  0.14631000  0.69545000  1.0
  N  N136  1  0.54908000  0.21675000  0.19552000  1.0
  N  N137  1  0.14631000  0.97871000  0.19545000  1.0
  N  N138  1  0.78325000  0.45092000  0.30448000  1.0
  N  N139  1  0.02129000  0.85369000  0.30455000  1.0
  N  N140  1  0.61046000  0.92248000  0.07125000  1.0
  N  N141  1  0.96085000  0.14876000  0.07129000  1.0
  N  N142  1  0.07752000  0.38954000  0.42875000  1.0
  N  N143  1  0.85125000  0.03915000  0.42871000  1.0
  N  N144  1  0.38954000  0.07752000  0.92875000  1.0
  N  N145  1  0.03915000  0.85124000  0.92871000  1.0
  N  N146  1  0.92248000  0.61046000  0.57125000  1.0
  N  N147  1  0.14876000  0.96085000  0.57129000  1.0
  N  N148  1  0.79467000  0.88127000  0.06870000  1.0
  N  N149  1  0.77411000  0.18741000  0.06878000  1.0
  N  N150  1  0.11873000  0.20533000  0.43130000  1.0
  N  N151  1  0.81259000  0.22589000  0.43122000  1.0
  N  N152  1  0.20533000  0.11873000  0.93130000  1.0
  N  N153  1  0.22589000  0.81260000  0.93122000  1.0
  N  N154  1  0.88127000  0.79467000  0.56870000  1.0
  N  N155  1  0.18740000  0.77411000  0.56878000  1.0
  N  N156  1  0.80052000  0.93963000  0.14754000  1.0
  N  N157  1  0.84712000  0.20792000  0.14762000  1.0
  N  N158  1  0.06037000  0.19948000  0.35246000  1.0
  N  N159  1  0.79208000  0.15288000  0.35238000  1.0
  N  N160  1  0.19948000  0.06037000  0.85246000  1.0
  N  N161  1  0.15288000  0.79208000  0.85238000  1.0
  N  N162  1  0.93963000  0.80052000  0.64754000  1.0
  N  N163  1  0.20792000  0.84712000  0.64762000  1.0
  N  N164  1  0.69103000  0.96539000  0.14993000  1.0
  N  N165  1  0.95899000  0.18455000  0.14999000  1.0
  N  N166  1  0.03461000  0.30897000  0.35007000  1.0
  N  N167  1  0.81545000  0.04101000  0.35001000  1.0
  N  N168  1  0.30897000  0.03461000  0.85007000  1.0
  N  N169  1  0.04100000  0.81545000  0.85001000  1.0
  N  N170  1  0.96539000  0.69103000  0.64993000  1.0
  N  N171  1  0.18455000  0.95900000  0.64999000  1.0
