# generated using pymatgen
data_CuH3C6N4O2F
_symmetry_space_group_name_H-M   'P 1'
_cell_length_a   5.92554000
_cell_length_b   10.73120000
_cell_length_c   12.41590000
_cell_angle_alpha   90.00030000
_cell_angle_beta   90.00130000
_cell_angle_gamma   90.00000000
_symmetry_Int_Tables_number   1
_chemical_formula_structural   CuH3C6N4O2F
_chemical_formula_sum   'Cu4 H12 C24 N16 O8 F4'
_cell_volume   789.50417156
_cell_formula_units_Z   4
loop_
 _symmetry_equiv_pos_site_id
 _symmetry_equiv_pos_as_xyz
  1  'x, y, z'
loop_
 _atom_site_type_symbol
 _atom_site_label
 _atom_site_symmetry_multiplicity
 _atom_site_fract_x
 _atom_site_fract_y
 _atom_site_fract_z
 _atom_site_occupancy
  Cu  Cu0  1  0.74849000  0.69025000  0.48998000  1.0
  Cu  Cu1  1  0.75151000  0.30975000  0.98997000  1.0
  Cu  Cu2  1  0.25151000  0.19025000  0.01002000  1.0
  Cu  Cu3  1  0.24848000  0.80975000  0.51003000  1.0
  H  H4  1  0.23523000  0.01903000  0.21166000  1.0
  H  H5  1  0.26477000  0.98096000  0.71166000  1.0
  H  H6  1  0.76478000  0.51904000  0.28834000  1.0
  H  H7  1  0.73523000  0.48096000  0.78834000  1.0
  H  H8  1  0.66102000  0.77569000  0.16972000  1.0
  H  H9  1  0.83895000  0.22431000  0.66971000  1.0
  H  H10  1  0.33897000  0.27569000  0.33028000  1.0
  H  H11  1  0.16103000  0.72431000  0.83029000  1.0
  H  H12  1  0.91228000  0.00884000  0.91329000  1.0
  H  H13  1  0.58771000  0.99116000  0.41328000  1.0
  H  H14  1  0.08773000  0.50882000  0.58671000  1.0
  H  H15  1  0.41230000  0.49116000  0.08671000  1.0
  C  C16  1  0.98247000  0.84327000  0.31739000  1.0
  C  C17  1  0.51753000  0.15673000  0.81738000  1.0
  C  C18  1  0.01754000  0.34328000  0.18261000  1.0
  C  C19  1  0.48246000  0.65672000  0.68262000  1.0
  C  C20  1  0.95694000  0.88945000  0.20390000  1.0
  C  C21  1  0.54306000  0.11055000  0.70390000  1.0
  C  C22  1  0.04307000  0.38945000  0.29611000  1.0
  C  C23  1  0.45693000  0.61054000  0.79610000  1.0
  C  C24  1  0.10289000  0.97915000  0.16165000  1.0
  C  C25  1  0.39710000  0.02086000  0.66165000  1.0
  C  C26  1  0.89710000  0.47914000  0.33836000  1.0
  C  C27  1  0.60289000  0.52086000  0.83835000  1.0
  C  C28  1  0.78191000  0.84381000  0.13937000  1.0
  C  C29  1  0.71808000  0.15620000  0.63937000  1.0
  C  C30  1  0.21809000  0.34380000  0.36064000  1.0
  C  C31  1  0.28191000  0.65619000  0.86064000  1.0
  C  C32  1  0.76814000  0.88821000  0.03494000  1.0
  C  C33  1  0.73185000  0.11179000  0.53493000  1.0
  C  C34  1  0.23186000  0.38820000  0.46507000  1.0
  C  C35  1  0.26815000  0.61179000  0.96507000  1.0
  C  C36  1  0.92170000  0.97527000  0.99593000  1.0
  C  C37  1  0.57831000  0.02474000  0.49593000  1.0
  C  C38  1  0.07833000  0.47526000  0.50408000  1.0
  C  C39  1  0.42169000  0.52474000  0.00408000  1.0
  N  N40  1  0.08394000  0.02153000  0.06006000  1.0
  N  N41  1  0.41605000  0.97848000  0.56007000  1.0
  N  N42  1  0.91608000  0.52152000  0.43994000  1.0
  N  N43  1  0.58395000  0.47848000  0.93993000  1.0
  N  N44  1  0.92519000  0.82038000  0.57005000  1.0
  N  N45  1  0.57480000  0.17962000  0.07004000  1.0
  N  N46  1  0.07481000  0.32038000  0.92995000  1.0
  N  N47  1  0.42520000  0.67962000  0.42996000  1.0
  N  N48  1  0.90026000  0.83538000  0.66607000  1.0
  N  N49  1  0.59974000  0.16462000  0.16607000  1.0
  N  N50  1  0.09974000  0.33538000  0.83393000  1.0
  N  N51  1  0.40027000  0.66462000  0.33394000  1.0
  N  N52  1  0.87563000  0.85285000  0.75772000  1.0
  N  N53  1  0.62437000  0.14715000  0.25770000  1.0
  N  N54  1  0.12438000  0.35285000  0.74229000  1.0
  N  N55  1  0.37563000  0.64715000  0.24229000  1.0
  O  O56  1  0.83247000  0.76645000  0.34843000  1.0
  O  O57  1  0.66752000  0.23356000  0.84843000  1.0
  O  O58  1  0.16755000  0.26645000  0.15157000  1.0
  O  O59  1  0.33246000  0.73354000  0.65158000  1.0
  O  O60  1  0.15048000  0.88377000  0.37118000  1.0
  O  O61  1  0.34952000  0.11624000  0.87118000  1.0
  O  O62  1  0.84953000  0.38378000  0.12881000  1.0
  O  O63  1  0.65046000  0.61623000  0.62881000  1.0
  F  F64  1  0.60021000  0.84794000  0.96962000  1.0
  F  F65  1  0.89978000  0.15206000  0.46962000  1.0
  F  F66  1  0.39978000  0.34793000  0.53037000  1.0
  F  F67  1  0.10022000  0.65206000  0.03038000  1.0
