# generated using pymatgen
data_MnH20C26N2(ClO3)2
_symmetry_space_group_name_H-M   'P 1'
_cell_length_a   9.63103000
_cell_length_b   11.63790000
_cell_length_c   12.67568343
_cell_angle_alpha   62.69276260
_cell_angle_beta   81.91002872
_cell_angle_gamma   89.99880000
_symmetry_Int_Tables_number   1
_chemical_formula_structural   MnH20C26N2(ClO3)2
_chemical_formula_sum   'Mn2 H40 C52 N4 Cl4 O12'
_cell_volume   1246.49238646
_cell_formula_units_Z   2
loop_
 _symmetry_equiv_pos_site_id
 _symmetry_equiv_pos_as_xyz
  1  'x, y, z'
loop_
 _atom_site_type_symbol
 _atom_site_label
 _atom_site_symmetry_multiplicity
 _atom_site_fract_x
 _atom_site_fract_y
 _atom_site_fract_z
 _atom_site_occupancy
  Mn  Mn0  1  0.24991000  0.02865000  0.00006000  1.0
  Mn  Mn1  1  0.75009000  0.97133000  0.99996000  1.0
  H  H2  1  0.35748000  0.72663000  0.75223000  1.0
  H  H3  1  0.14220000  0.47857000  0.24751000  1.0
  H  H4  1  0.64253000  0.27338000  0.24777000  1.0
  H  H5  1  0.85780000  0.52142000  0.75250000  1.0
  H  H6  1  0.38409000  0.94300000  0.73865000  1.0
  H  H7  1  0.11585000  0.68144000  0.26101000  1.0
  H  H8  1  0.61592000  0.05700000  0.26136000  1.0
  H  H9  1  0.88416000  0.31855000  0.73899000  1.0
  H  H10  1  0.78427000  0.01646000  0.50916000  1.0
  H  H11  1  0.71584000  0.52584000  0.49076000  1.0
  H  H12  1  0.21574000  0.98355000  0.49084000  1.0
  H  H13  1  0.28416000  0.47416000  0.50923000  1.0
  H  H14  1  0.75780000  0.79341000  0.52605000  1.0
  H  H15  1  0.74202000  0.31958000  0.47395000  1.0
  H  H16  1  0.24220000  0.20659000  0.47395000  1.0
  H  H17  1  0.25798000  0.68043000  0.52604000  1.0
  H  H18  1  0.40401000  0.14282000  0.67188000  1.0
  H  H19  1  0.09628000  0.81460000  0.32777000  1.0
  H  H20  1  0.59598000  0.85717000  0.32812000  1.0
  H  H21  1  0.90372000  0.18540000  0.67223000  1.0
  H  H22  1  0.53828000  0.26383000  0.63770000  1.0
  H  H23  1  0.96218000  0.90141000  0.36222000  1.0
  H  H24  1  0.46171000  0.73617000  0.36230000  1.0
  H  H25  1  0.03782000  0.09857000  0.63779000  1.0
  H  H26  1  0.22196000  0.32108000  0.82195000  1.0
  H  H27  1  0.27823000  0.14301000  0.17835000  1.0
  H  H28  1  0.77804000  0.67891000  0.17806000  1.0
  H  H29  1  0.72177000  0.85698000  0.82166000  1.0
  H  H30  1  0.21422000  0.53885000  0.81530000  1.0
  H  H31  1  0.28583000  0.35411000  0.18502000  1.0
  H  H32  1  0.78578000  0.46115000  0.18469000  1.0
  H  H33  1  0.71417000  0.64589000  0.81498000  1.0
  H  H34  1  0.05641000  0.64744000  0.92551000  1.0
  H  H35  1  0.44360000  0.57321000  0.07443000  1.0
  H  H36  1  0.94359000  0.35257000  0.07448000  1.0
  H  H37  1  0.55640000  0.42680000  0.92556000  1.0
  H  H38  1  0.05948000  0.85615000  0.93621000  1.0
  H  H39  1  0.44053000  0.79278000  0.06335000  1.0
  H  H40  1  0.94052000  0.14385000  0.06379000  1.0
  H  H41  1  0.55946000  0.20722000  0.93665000  1.0
  C  C42  1  0.55577000  0.74794000  0.63953000  1.0
  C  C43  1  0.94402000  0.38735000  0.36042000  1.0
  C  C44  1  0.44424000  0.25207000  0.36046000  1.0
  C  C45  1  0.05598000  0.61265000  0.63957000  1.0
  C  C46  1  0.45144000  0.78938000  0.69934000  1.0
  C  C47  1  0.04836000  0.48852000  0.30048000  1.0
  C  C48  1  0.54857000  0.21062000  0.30066000  1.0
  C  C49  1  0.95164000  0.51147000  0.69952000  1.0
  C  C50  1  0.46680000  0.91263000  0.69102000  1.0
  C  C51  1  0.03316000  0.60351000  0.30875000  1.0
  C  C52  1  0.53320000  0.08737000  0.30898000  1.0
  C  C53  1  0.96685000  0.39649000  0.69124000  1.0
  C  C54  1  0.58649000  0.99488000  0.62110000  1.0
  C  C55  1  0.91361000  0.61591000  0.37881000  1.0
  C  C56  1  0.41351000  0.00513000  0.37890000  1.0
  C  C57  1  0.08639000  0.38408000  0.62119000  1.0
  C  C58  1  0.69153000  0.95139000  0.56226000  1.0
  C  C59  1  0.80851000  0.51371000  0.43768000  1.0
  C  C60  1  0.30848000  0.04862000  0.43774000  1.0
  C  C61  1  0.19148000  0.48629000  0.56231000  1.0
  C  C62  1  0.67672000  0.82811000  0.57120000  1.0
  C  C63  1  0.82315000  0.39934000  0.42878000  1.0
  C  C64  1  0.32328000  0.17189000  0.42880000  1.0
  C  C65  1  0.17684000  0.60067000  0.57121000  1.0
  C  C66  1  0.51513000  0.15849000  0.67657000  1.0
  C  C67  1  0.98514000  0.83497000  0.32326000  1.0
  C  C68  1  0.48486000  0.84152000  0.32342000  1.0
  C  C69  1  0.01486000  0.16502000  0.67674000  1.0
  C  C70  1  0.53860000  0.09752000  0.80812000  1.0
  C  C71  1  0.96144000  0.90550000  0.19181000  1.0
  C  C72  1  0.46140000  0.90248000  0.19188000  1.0
  C  C73  1  0.03854000  0.09449000  0.80819000  1.0
  C  C74  1  0.23356000  0.33323000  0.90065000  1.0
  C  C75  1  0.26657000  0.23380000  0.09965000  1.0
  C  C76  1  0.76644000  0.66677000  0.09935000  1.0
  C  C77  1  0.73343000  0.76621000  0.90035000  1.0
  C  C78  1  0.22998000  0.45417000  0.89763000  1.0
  C  C79  1  0.27006000  0.35172000  0.10269000  1.0
  C  C80  1  0.77002000  0.54583000  0.10237000  1.0
  C  C81  1  0.72994000  0.64828000  0.89730000  1.0
  C  C82  1  0.25000000  0.46501000  0.00016000  1.0
  C  C83  1  0.75001000  0.53499000  0.99984000  1.0
  C  C84  1  0.24998000  0.59177000  0.00005000  1.0
  C  C85  1  0.75002000  0.40823000  0.99995000  1.0
  C  C86  1  0.14283000  0.67480000  0.95837000  1.0
  C  C87  1  0.35716000  0.63336000  0.04153000  1.0
  C  C88  1  0.85716000  0.32520000  0.04163000  1.0
  C  C89  1  0.64284000  0.36665000  0.95846000  1.0
  C  C90  1  0.14489000  0.79222000  0.96241000  1.0
  C  C91  1  0.35512000  0.75493000  0.03724000  1.0
  C  C92  1  0.85511000  0.20778000  0.03759000  1.0
  C  C93  1  0.64488000  0.24507000  0.96276000  1.0
  N  N94  1  0.25008000  0.22451000  0.00015000  1.0
  N  N95  1  0.74992000  0.77549000  0.99986000  1.0
  N  N96  1  0.25000000  0.83328000  0.99978000  1.0
  N  N97  1  0.75000000  0.16672000  0.00022000  1.0
  Cl  Cl98  1  0.53632000  0.59285000  0.65217000  1.0
  Cl  Cl99  1  0.96336000  0.24486000  0.34782000  1.0
  Cl  Cl100  1  0.46369000  0.40716000  0.34782000  1.0
  Cl  Cl101  1  0.03664000  0.75513000  0.65218000  1.0
  O  O102  1  0.60862000  0.11890000  0.60358000  1.0
  O  O103  1  0.89165000  0.72241000  0.39641000  1.0
  O  O104  1  0.39137000  0.88108000  0.39645000  1.0
  O  O105  1  0.10837000  0.27756000  0.60360000  1.0
  O  O106  1  0.44037000  0.10827000  0.88039000  1.0
  O  O107  1  0.05936000  0.98883000  0.11954000  1.0
  O  O108  1  0.55965000  0.89177000  0.11961000  1.0
  O  O109  1  0.94063000  0.01116000  0.88046000  1.0
  O  O110  1  0.65474000  0.05000000  0.83308000  1.0
  O  O111  1  0.84540000  0.88256000  0.16691000  1.0
  O  O112  1  0.34523000  0.94997000  0.16692000  1.0
  O  O113  1  0.15459000  0.11741000  0.83311000  1.0
