# generated using pymatgen
data_ErCoH16C16(N5O3)2
_symmetry_space_group_name_H-M   'P 1'
_cell_length_a   10.02930000
_cell_length_b   10.53310000
_cell_length_c   12.41600000
_cell_angle_alpha   73.73860000
_cell_angle_beta   75.81080000
_cell_angle_gamma   71.28830000
_symmetry_Int_Tables_number   1
_chemical_formula_structural   ErCoH16C16(N5O3)2
_chemical_formula_sum   'Er2 Co2 H32 C32 N20 O12'
_cell_volume   1175.07389660
_cell_formula_units_Z   2
loop_
 _symmetry_equiv_pos_site_id
 _symmetry_equiv_pos_as_xyz
  1  'x, y, z'
loop_
 _atom_site_type_symbol
 _atom_site_label
 _atom_site_symmetry_multiplicity
 _atom_site_fract_x
 _atom_site_fract_y
 _atom_site_fract_z
 _atom_site_occupancy
  Er  Er0  1  0.40226000  0.31221000  0.29055000  1.0
  Er  Er1  1  0.59775000  0.68780000  0.70944000  1.0
  Co  Co2  1  0.34085000  0.29378000  0.73804000  1.0
  Co  Co3  1  0.65918000  0.70621000  0.26196000  1.0
  H  H4  1  0.28543000  0.75283000  0.54433000  1.0
  H  H5  1  0.71454000  0.24719000  0.45568000  1.0
  H  H6  1  0.33064000  0.90386000  0.02671000  1.0
  H  H7  1  0.66934000  0.09616000  0.97328000  1.0
  H  H8  1  0.12908000  0.51406000  0.09039000  1.0
  H  H9  1  0.87093000  0.48593000  0.90963000  1.0
  H  H10  1  0.47712000  0.65477000  0.07013000  1.0
  H  H11  1  0.52287000  0.34525000  0.92985000  1.0
  H  H12  1  0.01433000  0.68290000  0.29452000  1.0
  H  H13  1  0.98567000  0.31709000  0.70547000  1.0
  H  H14  1  0.36213000  0.54223000  0.46054000  1.0
  H  H15  1  0.63786000  0.45779000  0.53946000  1.0
  H  H16  1  0.96957000  0.75707000  0.04075000  1.0
  H  H17  1  0.03042000  0.24291000  0.95928000  1.0
  H  H18  1  0.92245000  0.89974000  0.36950000  1.0
  H  H19  1  0.07752000  0.10025000  0.63051000  1.0
  H  H20  1  0.41839000  0.08536000  0.18464000  1.0
  H  H21  1  0.58164000  0.91463000  0.81535000  1.0
  H  H22  1  0.36411000  0.22593000  0.09973000  1.0
  H  H23  1  0.63591000  0.77407000  0.90027000  1.0
  H  H24  1  0.71418000  0.26363000  0.24427000  1.0
  H  H25  1  0.28583000  0.73636000  0.75574000  1.0
  H  H26  1  0.70017000  0.11238000  0.25216000  1.0
  H  H27  1  0.29983000  0.88762000  0.74784000  1.0
  H  H28  1  0.38637000  0.06072000  0.47852000  1.0
  H  H29  1  0.61344000  0.93935000  0.52147000  1.0
  H  H30  1  0.39740000  0.00928000  0.36748000  1.0
  H  H31  1  0.60263000  0.99072000  0.63251000  1.0
  H  H32  1  0.16717000  0.20551000  0.28689000  1.0
  H  H33  1  0.83286000  0.79450000  0.71308000  1.0
  H  H34  1  0.08376000  0.35549000  0.30922000  1.0
  H  H35  1  0.91626000  0.64449000  0.69078000  1.0
  C  C36  1  0.38002000  0.29722000  0.58336000  1.0
  C  C37  1  0.62000000  0.70277000  0.41664000  1.0
  C  C38  1  0.57905000  0.56459000  0.27680000  1.0
  C  C39  1  0.42097000  0.43540000  0.72320000  1.0
  C  C40  1  0.29735000  0.28169000  0.89486000  1.0
  C  C41  1  0.70270000  0.71829000  0.10514000  1.0
  C  C42  1  0.36459000  0.68577000  0.06418000  1.0
  C  C43  1  0.63541000  0.31423000  0.93582000  1.0
  C  C44  1  0.51660000  0.16345000  0.74760000  1.0
  C  C45  1  0.48344000  0.83655000  0.25240000  1.0
  C  C46  1  0.26710000  0.62510000  0.44495000  1.0
  C  C47  1  0.73288000  0.37491000  0.55505000  1.0
  C  C48  1  0.26576000  0.14632000  0.75644000  1.0
  C  C49  1  0.73426000  0.85369000  0.24355000  1.0
  C  C50  1  0.16884000  0.43023000  0.72207000  1.0
  C  C51  1  0.83119000  0.56975000  0.27794000  1.0
  C  C52  1  0.22220000  0.74077000  0.48983000  1.0
  C  C53  1  0.77778000  0.25924000  0.51017000  1.0
  C  C54  1  0.13862000  0.84922000  0.03172000  1.0
  C  C55  1  0.86137000  0.15077000  0.96829000  1.0
  C  C56  1  0.09712000  0.84195000  0.46434000  1.0
  C  C57  1  0.90286000  0.15805000  0.53567000  1.0
  C  C58  1  0.16516000  0.60570000  0.07360000  1.0
  C  C59  1  0.83483000  0.39430000  0.92642000  1.0
  C  C60  1  0.28276000  0.82032000  0.03977000  1.0
  C  C61  1  0.71723000  0.17969000  0.96022000  1.0
  C  C62  1  0.08095000  0.73849000  0.04692000  1.0
  C  C63  1  0.91904000  0.26150000  0.95308000  1.0
  C  C64  1  0.06732000  0.70735000  0.34942000  1.0
  C  C65  1  0.93266000  0.29266000  0.65057000  1.0
  C  C66  1  0.01940000  0.82326000  0.39251000  1.0
  C  C67  1  0.98057000  0.17675000  0.60750000  1.0
  N  N68  1  0.30456000  0.58069000  0.08378000  1.0
  N  N69  1  0.69545000  0.41932000  0.91622000  1.0
  N  N70  1  0.18995000  0.60938000  0.37565000  1.0
  N  N71  1  0.81003000  0.39063000  0.62435000  1.0
  N  N72  1  0.40439000  0.29186000  0.48723000  1.0
  N  N73  1  0.59561000  0.70815000  0.51277000  1.0
  N  N74  1  0.53093000  0.47482000  0.28219000  1.0
  N  N75  1  0.46909000  0.52518000  0.71781000  1.0
  N  N76  1  0.05828000  0.95666000  0.51218000  1.0
  N  N77  1  0.94168000  0.04335000  0.48782000  1.0
  N  N78  1  0.06577000  0.52166000  0.71102000  1.0
  N  N79  1  0.93425000  0.47831000  0.28899000  1.0
  N  N80  1  0.62481000  0.07590000  0.74595000  1.0
  N  N81  1  0.37523000  0.92410000  0.25404000  1.0
  N  N82  1  0.23132000  0.04762000  0.76318000  1.0
  N  N83  1  0.76868000  0.95239000  0.23680000  1.0
  N  N84  1  0.26993000  0.27685000  0.99308000  1.0
  N  N85  1  0.73010000  0.72313000  0.00692000  1.0
  N  N86  1  0.06068000  0.98858000  0.01302000  1.0
  N  N87  1  0.93931000  0.01141000  0.98698000  1.0
  O  O88  1  0.42623000  0.18092000  0.16015000  1.0
  O  O89  1  0.57378000  0.81908000  0.83985000  1.0
  O  O90  1  0.38098000  0.45260000  0.11276000  1.0
  O  O91  1  0.61903000  0.54740000  0.88724000  1.0
  O  O92  1  0.22807000  0.50119000  0.33187000  1.0
  O  O93  1  0.77194000  0.49881000  0.66813000  1.0
  O  O94  1  0.64770000  0.20740000  0.26700000  1.0
  O  O95  1  0.35230000  0.79260000  0.73300000  1.0
  O  O96  1  0.17442000  0.27773000  0.31788000  1.0
  O  O97  1  0.82560000  0.72226000  0.68212000  1.0
  O  O98  1  0.42391000  0.07389000  0.39718000  1.0
  O  O99  1  0.57610000  0.92609000  0.60284000  1.0
