# generated using pymatgen
data_CdH12C16Br2(N2O)2
_symmetry_space_group_name_H-M   'P 1'
_cell_length_a   3.90648000
_cell_length_b   14.40788739
_cell_length_c   15.92310000
_cell_angle_alpha   105.40931184
_cell_angle_beta   97.05330000
_cell_angle_gamma   97.80900906
_symmetry_Int_Tables_number   1
_chemical_formula_structural   CdH12C16Br2(N2O)2
_chemical_formula_sum   'Cd2 H24 C32 Br4 N8 O4'
_cell_volume   844.05981810
_cell_formula_units_Z   2
loop_
 _symmetry_equiv_pos_site_id
 _symmetry_equiv_pos_as_xyz
  1  'x, y, z'
loop_
 _atom_site_type_symbol
 _atom_site_label
 _atom_site_symmetry_multiplicity
 _atom_site_fract_x
 _atom_site_fract_y
 _atom_site_fract_z
 _atom_site_occupancy
  Cd  Cd0  1  0.35839000  0.24985000  0.25004000  1.0
  Cd  Cd1  1  0.64162000  0.75016000  0.74997000  1.0
  H  H2  1  0.11883000  0.43417000  0.01628000  1.0
  H  H3  1  0.16823000  0.06559000  0.48368000  1.0
  H  H4  1  0.88118000  0.56583000  0.98372000  1.0
  H  H5  1  0.83175000  0.93440000  0.51632000  1.0
  H  H6  1  0.33418000  0.32008000  0.08122000  1.0
  H  H7  1  0.43313000  0.17954000  0.41875000  1.0
  H  H8  1  0.66584000  0.67992000  0.91878000  1.0
  H  H9  1  0.56686000  0.82045000  0.58125000  1.0
  H  H10  1  0.04826000  0.70648000  0.25486000  1.0
  H  H11  1  0.58633000  0.79304000  0.24498000  1.0
  H  H12  1  0.95174000  0.29352000  0.74514000  1.0
  H  H13  1  0.41367000  0.20696000  0.75502000  1.0
  H  H14  1  0.22151000  0.74518000  0.41804000  1.0
  H  H15  1  0.55824000  0.75439000  0.08186000  1.0
  H  H16  1  0.77849000  0.25482000  0.58196000  1.0
  H  H17  1  0.44176000  0.24561000  0.91814000  1.0
  H  H18  1  0.49152000  0.62588000  0.48158000  1.0
  H  H19  1  0.88445000  0.87372000  0.01839000  1.0
  H  H20  1  0.50847000  0.37412000  0.51843000  1.0
  H  H21  1  0.11554000  0.12628000  0.98161000  1.0
  H  H22  1  0.57373000  0.46779000  0.38368000  1.0
  H  H23  1  0.22207000  0.03192000  0.11633000  1.0
  H  H24  1  0.42627000  0.53221000  0.61632000  1.0
  H  H25  1  0.77790000  0.96808000  0.88366000  1.0
  C  C26  1  0.30426000  0.38978000  0.12521000  1.0
  C  C27  1  0.28915000  0.10986000  0.37476000  1.0
  C  C28  1  0.69576000  0.61022000  0.87480000  1.0
  C  C29  1  0.71083000  0.89013000  0.62524000  1.0
  C  C30  1  0.11449000  0.54365000  0.13313000  1.0
  C  C31  1  0.93748000  0.95594000  0.36684000  1.0
  C  C32  1  0.88551000  0.45634000  0.86687000  1.0
  C  C33  1  0.06251000  0.04406000  0.63316000  1.0
  C  C34  1  0.20826000  0.56583000  0.22831000  1.0
  C  C35  1  0.91387000  0.93376000  0.27167000  1.0
  C  C36  1  0.79174000  0.43417000  0.77169000  1.0
  C  C37  1  0.08614000  0.06624000  0.72833000  1.0
  C  C38  1  0.16250000  0.65525000  0.28432000  1.0
  C  C39  1  0.72261000  0.84432000  0.21561000  1.0
  C  C40  1  0.83749000  0.34475000  0.71568000  1.0
  C  C41  1  0.27737000  0.15568000  0.78439000  1.0
  C  C42  1  0.26021000  0.67621000  0.37481000  1.0
  C  C43  1  0.70901000  0.82340000  0.12512000  1.0
  C  C44  1  0.73979000  0.32379000  0.62519000  1.0
  C  C45  1  0.29098000  0.17660000  0.87488000  1.0
  C  C46  1  0.40924000  0.60855000  0.41040000  1.0
  C  C47  1  0.89028000  0.89109000  0.08955000  1.0
  C  C48  1  0.59077000  0.39146000  0.58960000  1.0
  C  C49  1  0.10970000  0.10891000  0.91045000  1.0
  C  C50  1  0.45397000  0.51974000  0.35638000  1.0
  C  C51  1  0.07752000  0.97995000  0.14360000  1.0
  C  C52  1  0.54605000  0.48027000  0.64362000  1.0
  C  C53  1  0.92246000  0.02005000  0.85640000  1.0
  C  C54  1  0.34913000  0.49607000  0.26442000  1.0
  C  C55  1  0.08816000  0.00358000  0.23555000  1.0
  C  C56  1  0.65089000  0.50394000  0.73558000  1.0
  C  C57  1  0.91183000  0.99642000  0.76444000  1.0
  Br  Br58  1  0.94226000  0.31248000  0.37784000  1.0
  Br  Br59  1  0.75105000  0.18707000  0.12229000  1.0
  Br  Br60  1  0.05774000  0.68752000  0.62216000  1.0
  Br  Br61  1  0.24898000  0.81294000  0.87773000  1.0
  N  N62  1  0.38635000  0.40594000  0.21040000  1.0
  N  N63  1  0.26981000  0.09370000  0.28957000  1.0
  N  N64  1  0.61368000  0.59407000  0.78960000  1.0
  N  N65  1  0.73018000  0.90630000  0.71043000  1.0
  N  N66  1  0.18022000  0.45400000  0.08586000  1.0
  N  N67  1  0.14027000  0.04562000  0.41410000  1.0
  N  N68  1  0.81979000  0.54600000  0.91414000  1.0
  N  N69  1  0.85972000  0.95438000  0.58589000  1.0
  O  O70  1  0.98427000  0.59846000  0.09366000  1.0
  O  O71  1  0.79200000  0.90112000  0.40630000  1.0
  O  O72  1  0.01573000  0.40154000  0.90633000  1.0
  O  O73  1  0.20799000  0.09888000  0.59369000  1.0
