# generated using pymatgen
data_Zn2H11C24S2N(ClO4)2
_symmetry_space_group_name_H-M   'P 1'
_cell_length_a   7.52839000
_cell_length_b   12.53740000
_cell_length_c   34.93190000
_cell_angle_alpha   89.82690000
_cell_angle_beta   89.90030000
_cell_angle_gamma   89.78070000
_symmetry_Int_Tables_number   1
_chemical_formula_structural   Zn2H11C24S2N(ClO4)2
_chemical_formula_sum   'Zn4 H22 C48 S4 N2 Cl4 O16'
_cell_volume   3297.05344775
_cell_formula_units_Z   2
loop_
 _symmetry_equiv_pos_site_id
 _symmetry_equiv_pos_as_xyz
  1  'x, y, z'
loop_
 _atom_site_type_symbol
 _atom_site_label
 _atom_site_symmetry_multiplicity
 _atom_site_fract_x
 _atom_site_fract_y
 _atom_site_fract_z
 _atom_site_occupancy
  Zn  Zn0  1  0.78498000  0.00001000  0.49988000  1.0
  Zn  Zn1  1  0.42684000  0.00005000  0.50006000  1.0
  Zn  Zn2  1  0.12421000  0.99897000  0.00003000  1.0
  Zn  Zn3  1  0.48228000  0.99747000  0.99989000  1.0
  H  H4  1  0.66056000  0.99680000  0.88219000  1.0
  H  H5  1  0.67896000  0.99713000  0.81181000  1.0
  H  H6  1  0.10520000  0.99586000  0.80726000  1.0
  H  H7  1  0.80496000  0.99811000  0.69258000  1.0
  H  H8  1  0.23116000  0.99678000  0.68822000  1.0
  H  H9  1  0.24904000  0.99658000  0.61784000  1.0
  H  H10  1  0.25096000  0.99645000  0.75001000  1.0
  H  H11  1  0.65955000  0.99810000  0.74991000  1.0
  H  H12  1  0.66010000  0.99661000  0.11752000  1.0
  H  H13  1  0.67867000  0.99744000  0.18789000  1.0
  H  H14  1  0.10492000  0.99876000  0.19292000  1.0
  H  H15  1  0.80441000  0.00262000  0.30711000  1.0
  H  H16  1  0.23068000  0.99985000  0.31196000  1.0
  H  H17  1  0.24875000  0.00025000  0.38233000  1.0
  H  H18  1  0.25058000  0.99884000  0.25004000  1.0
  H  H19  1  0.65914000  0.00073000  0.24992000  1.0
  H  H20  1  0.40529000  0.64606000  0.50147000  1.0
  H  H21  1  0.50319000  0.64349000  0.99828000  1.0
  H  H22  1  0.10370000  0.39707000  0.49527000  1.0
  H  H23  1  0.02103000  0.26755000  0.49874000  1.0
  H  H24  1  0.80518000  0.39705000  0.00480000  1.0
  H  H25  1  0.88825000  0.26734000  0.00127000  1.0
  C  C26  1  0.68090000  0.79860000  0.49982000  1.0
  C  C27  1  0.52848000  0.99752000  0.57201000  1.0
  C  C28  1  0.67585000  0.20226000  0.50058000  1.0
  C  C29  1  0.52837000  0.00121000  0.42795000  1.0
  C  C30  1  0.22750000  0.79713000  0.99999000  1.0
  C  C31  1  0.38085000  0.99646000  0.92792000  1.0
  C  C32  1  0.23332000  0.20080000  0.99943000  1.0
  C  C33  1  0.38027000  0.99727000  0.07200000  1.0
  C  C34  1  0.37730000  0.99622000  0.88527000  1.0
  C  C35  1  0.53977000  0.99661000  0.86516000  1.0
  C  C36  1  0.54896000  0.99684000  0.82559000  1.0
  C  C37  1  0.39161000  0.99668000  0.80366000  1.0
  C  C38  1  0.22906000  0.99614000  0.82339000  1.0
  C  C39  1  0.22005000  0.99588000  0.86323000  1.0
  C  C40  1  0.38501000  0.99691000  0.76204000  1.0
  C  C41  1  0.52543000  0.99757000  0.73790000  1.0
  C  C42  1  0.68100000  0.99782000  0.67649000  1.0
  C  C43  1  0.51859000  0.99749000  0.69627000  1.0
  C  C44  1  0.36107000  0.99701000  0.67440000  1.0
  C  C45  1  0.36998000  0.99692000  0.63482000  1.0
  C  C46  1  0.53229000  0.99731000  0.61466000  1.0
  C  C47  1  0.68971000  0.99776000  0.63665000  1.0
  C  C48  1  0.37686000  0.99749000  0.11468000  1.0
  C  C49  1  0.53935000  0.99723000  0.13466000  1.0
  C  C50  1  0.54865000  0.99767000  0.17423000  1.0
  C  C51  1  0.39137000  0.99835000  0.19630000  1.0
  C  C52  1  0.22878000  0.99837000  0.17669000  1.0
  C  C53  1  0.21968000  0.99801000  0.13685000  1.0
  C  C54  1  0.38467000  0.99911000  0.23793000  1.0
  C  C55  1  0.52499000  0.00029000  0.26200000  1.0
  C  C56  1  0.68047000  0.00214000  0.32330000  1.0
  C  C57  1  0.51806000  0.00103000  0.30364000  1.0
  C  C58  1  0.36062000  0.00059000  0.32566000  1.0
  C  C59  1  0.36962000  0.00092000  0.36524000  1.0
  C  C60  1  0.53197000  0.00181000  0.38527000  1.0
  C  C61  1  0.68928000  0.00262000  0.36314000  1.0
  C  C62  1  0.83141000  0.38315000  0.50050000  1.0
  C  C63  1  0.54044000  0.61513000  0.50098000  1.0
  C  C64  1  0.68057000  0.31711000  0.50102000  1.0
  C  C65  1  0.68679000  0.68153000  0.50023000  1.0
  C  C66  1  0.59222000  0.50696000  0.50104000  1.0
  C  C67  1  0.77752000  0.49250000  0.50038000  1.0
  C  C68  1  0.07743000  0.38230000  0.99943000  1.0
  C  C69  1  0.36806000  0.61311000  0.99881000  1.0
  C  C70  1  0.22842000  0.31569000  0.99888000  1.0
  C  C71  1  0.22162000  0.68010000  0.99962000  1.0
  C  C72  1  0.31642000  0.50516000  0.99877000  1.0
  C  C73  1  0.13112000  0.49143000  0.99951000  1.0
  S  S74  1  0.47970000  0.38769000  0.50201000  1.0
  S  S75  1  0.88804000  0.61273000  0.49983000  1.0
  S  S76  1  0.42916000  0.38546000  0.99779000  1.0
  S  S77  1  0.02050000  0.61215000  0.00010000  1.0
  N  N78  1  0.00155000  0.34751000  0.50102000  1.0
  N  N79  1  0.90740000  0.34727000  0.99893000  1.0
  Cl  Cl80  1  0.00787000  0.99485000  0.88222000  1.0
  Cl  Cl81  1  0.90175000  0.99833000  0.61759000  1.0
  Cl  Cl82  1  0.00742000  0.99819000  0.11807000  1.0
  Cl  Cl83  1  0.90142000  0.00441000  0.38197000  1.0
  O  O84  1  0.83181000  0.84800000  0.49966000  1.0
  O  O85  1  0.52863000  0.84256000  0.49967000  1.0
  O  O86  1  0.37545000  0.99771000  0.55519000  1.0
  O  O87  1  0.67530000  0.99748000  0.55425000  1.0
  O  O88  1  0.52456000  0.15641000  0.50055000  1.0
  O  O89  1  0.82858000  0.15170000  0.50014000  1.0
  O  O90  1  0.67529000  0.00042000  0.44554000  1.0
  O  O91  1  0.37542000  0.00117000  0.44493000  1.0
  O  O92  1  0.07660000  0.84724000  0.00015000  1.0
  O  O93  1  0.37974000  0.84042000  0.00011000  1.0
  O  O94  1  0.53384000  0.99574000  0.94479000  1.0
  O  O95  1  0.23396000  0.99739000  0.94566000  1.0
  O  O96  1  0.38467000  0.15431000  0.99956000  1.0
  O  O97  1  0.08065000  0.15088000  0.99988000  1.0
  O  O98  1  0.23332000  0.99759000  0.05442000  1.0
  O  O99  1  0.53323000  0.99674000  0.05501000  1.0
