# generated using pymatgen
data_Li2H12C8N2O13
_symmetry_space_group_name_H-M   'P 1'
_cell_length_a   6.88802000
_cell_length_b   8.61785000
_cell_length_c   11.73880000
_cell_angle_alpha   90.00040000
_cell_angle_beta   90.00020000
_cell_angle_gamma   77.40200000
_symmetry_Int_Tables_number   1
_chemical_formula_structural   Li2H12C8N2O13
_chemical_formula_sum   'Li4 H24 C16 N4 O26'
_cell_volume   680.03802766
_cell_formula_units_Z   2
loop_
 _symmetry_equiv_pos_site_id
 _symmetry_equiv_pos_as_xyz
  1  'x, y, z'
loop_
 _atom_site_type_symbol
 _atom_site_label
 _atom_site_symmetry_multiplicity
 _atom_site_fract_x
 _atom_site_fract_y
 _atom_site_fract_z
 _atom_site_occupancy
  Li  Li0  1  0.11744000  0.06737000  0.75000000  1.0
  Li  Li1  1  0.88256000  0.93263000  0.25000000  1.0
  Li  Li2  1  0.66733000  0.04905000  0.75000000  1.0
  Li  Li3  1  0.33268000  0.95095000  0.25000000  1.0
  H  H4  1  0.07446000  0.15784000  0.96178000  1.0
  H  H5  1  0.92554000  0.84216000  0.46177000  1.0
  H  H6  1  0.92554000  0.84216000  0.03822000  1.0
  H  H7  1  0.07446000  0.15784000  0.53822000  1.0
  H  H8  1  0.24767000  0.00692000  0.96354000  1.0
  H  H9  1  0.75234000  0.99308000  0.46354000  1.0
  H  H10  1  0.75234000  0.99308000  0.03646000  1.0
  H  H11  1  0.24767000  0.00692000  0.53646000  1.0
  H  H12  1  0.98074000  0.83653000  0.81592000  1.0
  H  H13  1  0.01927000  0.16348000  0.31592000  1.0
  H  H14  1  0.01927000  0.16347000  0.18408000  1.0
  H  H15  1  0.98074000  0.83653000  0.68409000  1.0
  H  H16  1  0.48456000  0.83958000  0.81703000  1.0
  H  H17  1  0.51545000  0.16042000  0.31703000  1.0
  H  H18  1  0.51545000  0.16042000  0.18297000  1.0
  H  H19  1  0.48456000  0.83958000  0.68297000  1.0
  H  H20  1  0.87145000  0.34524000  0.81733000  1.0
  H  H21  1  0.12855000  0.65475000  0.31732000  1.0
  H  H22  1  0.12855000  0.65475000  0.18267000  1.0
  H  H23  1  0.87145000  0.34524000  0.68268000  1.0
  H  H24  1  0.33481000  0.39747000  0.05517000  1.0
  H  H25  1  0.66518000  0.60253000  0.55516000  1.0
  H  H26  1  0.66518000  0.60253000  0.94483000  1.0
  H  H27  1  0.33481000  0.39747000  0.44483000  1.0
  C  C28  1  0.49682000  0.23827000  0.94810000  1.0
  C  C29  1  0.50317000  0.76172000  0.44811000  1.0
  C  C30  1  0.50317000  0.76174000  0.05190000  1.0
  C  C31  1  0.49683000  0.23828000  0.55190000  1.0
  C  C32  1  0.26026000  0.49087000  0.84934000  1.0
  C  C33  1  0.73972000  0.50913000  0.34934000  1.0
  C  C34  1  0.73973000  0.50913000  0.15066000  1.0
  C  C35  1  0.26027000  0.49086000  0.65066000  1.0
  C  C36  1  0.39693000  0.34136000  0.84942000  1.0
  C  C37  1  0.60307000  0.65865000  0.34940000  1.0
  C  C38  1  0.60307000  0.65863000  0.15059000  1.0
  C  C39  1  0.39693000  0.34136000  0.65059000  1.0
  C  C40  1  0.17107000  0.59039000  0.95211000  1.0
  C  C41  1  0.82892000  0.40961000  0.45211000  1.0
  C  C42  1  0.82892000  0.40961000  0.04790000  1.0
  C  C43  1  0.17107000  0.59038000  0.54789000  1.0
  N  N44  1  0.46047000  0.27477000  0.75000000  1.0
  N  N45  1  0.53953000  0.72524000  0.25000000  1.0
  N  N46  1  0.19893000  0.55964000  0.75001000  1.0
  N  N47  1  0.80107000  0.44036000  0.24999000  1.0
  O  O48  1  0.62561000  0.11803000  0.92499000  1.0
  O  O49  1  0.37440000  0.88196000  0.42500000  1.0
  O  O50  1  0.37439000  0.88197000  0.07500000  1.0
  O  O51  1  0.62561000  0.11803000  0.57501000  1.0
  O  O52  1  0.05971000  0.72266000  0.93449000  1.0
  O  O53  1  0.94029000  0.27734000  0.43449000  1.0
  O  O54  1  0.94028000  0.27734000  0.06551000  1.0
  O  O55  1  0.05971000  0.72266000  0.56551000  1.0
  O  O56  1  0.21427000  0.53430000  0.05334000  1.0
  O  O57  1  0.78572000  0.46569000  0.55334000  1.0
  O  O58  1  0.78572000  0.46569000  0.94666000  1.0
  O  O59  1  0.21428000  0.53431000  0.44666000  1.0
  O  O60  1  0.44931000  0.28264000  0.05267000  1.0
  O  O61  1  0.55069000  0.71736000  0.55268000  1.0
  O  O62  1  0.55070000  0.71736000  0.94733000  1.0
  O  O63  1  0.44931000  0.28264000  0.44732000  1.0
  O  O64  1  0.17408000  0.08985000  0.91211000  1.0
  O  O65  1  0.82592000  0.91015000  0.41211000  1.0
  O  O66  1  0.82592000  0.91016000  0.08789000  1.0
  O  O67  1  0.17408000  0.08985000  0.58789000  1.0
  O  O68  1  0.93767000  0.90781000  0.75000000  1.0
  O  O69  1  0.06234000  0.09218000  0.25000000  1.0
  O  O70  1  0.46348000  0.90958000  0.75000000  1.0
  O  O71  1  0.53653000  0.09042000  0.25000000  1.0
  O  O72  1  0.91756000  0.27963000  0.75000000  1.0
  O  O73  1  0.08245000  0.72037000  0.25000000  1.0
