# generated using pymatgen
data_CuP2H16C17(NO3)2
_symmetry_space_group_name_H-M   'P 1'
_cell_length_a   8.48446000
_cell_length_b   8.71226000
_cell_length_c   12.74770000
_cell_angle_alpha   96.10450000
_cell_angle_beta   107.88600000
_cell_angle_gamma   103.82000000
_symmetry_Int_Tables_number   1
_chemical_formula_structural   CuP2H16C17(NO3)2
_chemical_formula_sum   'Cu2 P4 H32 C34 N4 O12'
_cell_volume   854.16989596
_cell_formula_units_Z   2
loop_
 _symmetry_equiv_pos_site_id
 _symmetry_equiv_pos_as_xyz
  1  'x, y, z'
loop_
 _atom_site_type_symbol
 _atom_site_label
 _atom_site_symmetry_multiplicity
 _atom_site_fract_x
 _atom_site_fract_y
 _atom_site_fract_z
 _atom_site_occupancy
  Cu  Cu0  1  0.68116000  0.68791000  0.90941000  1.0
  Cu  Cu1  1  0.31884000  0.31209000  0.09059000  1.0
  P  P2  1  0.64919000  0.46553000  0.65530000  1.0
  P  P3  1  0.35082000  0.53447000  0.34470000  1.0
  P  P4  1  0.31931000  0.43588000  0.86252000  1.0
  P  P5  1  0.68069000  0.56412000  0.13748000  1.0
  H  H6  1  0.43411000  0.34889000  0.49205000  1.0
  H  H7  1  0.56590000  0.65111000  0.50796000  1.0
  H  H8  1  0.51603000  0.36309000  0.80848000  1.0
  H  H9  1  0.48397000  0.63690000  0.19153000  1.0
  H  H10  1  0.38376000  0.79160000  0.77113000  1.0
  H  H11  1  0.61623000  0.20839000  0.22886000  1.0
  H  H12  1  0.34984000  0.98038000  0.63214000  1.0
  H  H13  1  0.65015000  0.01961000  0.36785000  1.0
  H  H14  1  0.60985000  0.12098000  0.59141000  1.0
  H  H15  1  0.39014000  0.87901000  0.40859000  1.0
  H  H16  1  0.89715000  0.08906000  0.69741000  1.0
  H  H17  1  0.10284000  0.91093000  0.30259000  1.0
  H  H18  1  0.13421000  0.06522000  0.81003000  1.0
  H  H19  1  0.86579000  0.93479000  0.18997000  1.0
  H  H20  1  0.38508000  0.99210000  0.92739000  1.0
  H  H21  1  0.61492000  0.00790000  0.07261000  1.0
  H  H22  1  0.33813000  0.77457000  0.04133000  1.0
  H  H23  1  0.66187000  0.22543000  0.95867000  1.0
  H  H24  1  0.03536000  0.65571000  0.03878000  1.0
  H  H25  1  0.96464000  0.34429000  0.96122000  1.0
  H  H26  1  0.88687000  0.23277000  0.35392000  1.0
  H  H27  1  0.11314000  0.76723000  0.64608000  1.0
  H  H28  1  0.96297000  0.08328000  0.42223000  1.0
  H  H29  1  0.03704000  0.91672000  0.57777000  1.0
  H  H30  1  0.11197000  0.25876000  0.41389000  1.0
  H  H31  1  0.88804000  0.74124000  0.58611000  1.0
  H  H32  1  0.24413000  0.28995000  0.62825000  1.0
  H  H33  1  0.75588000  0.71005000  0.37175000  1.0
  H  H34  1  0.98215000  0.49453000  0.82327000  1.0
  H  H35  1  0.01785000  0.50547000  0.17673000  1.0
  H  H36  1  0.73235000  0.32732000  0.46683000  1.0
  H  H37  1  0.26765000  0.67268000  0.53317000  1.0
  C  C38  1  0.49264000  0.86347000  0.75278000  1.0
  C  C39  1  0.50735000  0.13653000  0.24721000  1.0
  C  C40  1  0.47556000  0.96474000  0.67527000  1.0
  C  C41  1  0.52444000  0.03525000  0.32473000  1.0
  C  C42  1  0.62171000  0.04400000  0.65331000  1.0
  C  C43  1  0.37828000  0.95599000  0.34669000  1.0
  C  C44  1  0.78158000  0.02613000  0.71272000  1.0
  C  C45  1  0.21842000  0.97388000  0.28728000  1.0
  C  C46  1  0.79055000  0.92611000  0.79144000  1.0
  C  C47  1  0.20945000  0.07389000  0.20856000  1.0
  C  C48  1  0.95032000  0.89559000  0.85887000  1.0
  C  C49  1  0.04968000  0.10441000  0.14113000  1.0
  C  C50  1  0.11523000  0.97283000  0.85967000  1.0
  C  C51  1  0.88477000  0.02717000  0.14034000  1.0
  C  C52  1  0.25650000  0.93149000  0.92648000  1.0
  C  C53  1  0.74350000  0.06852000  0.07353000  1.0
  C  C54  1  0.23152000  0.81369000  0.99065000  1.0
  C  C55  1  0.76848000  0.18631000  0.00935000  1.0
  C  C56  1  0.06413000  0.74452000  0.98822000  1.0
  C  C57  1  0.93587000  0.25548000  0.01178000  1.0
  C  C58  1  0.98714000  0.21421000  0.42545000  1.0
  C  C59  1  0.01287000  0.78579000  0.57455000  1.0
  C  C60  1  0.98722000  0.29753000  0.53505000  1.0
  C  C61  1  0.01278000  0.70247000  0.46495000  1.0
  C  C62  1  0.13129000  0.32555000  0.63326000  1.0
  C  C63  1  0.86871000  0.67446000  0.36674000  1.0
  C  C64  1  0.13242000  0.39976000  0.73670000  1.0
  C  C65  1  0.86759000  0.60025000  0.26330000  1.0
  C  C66  1  0.98587000  0.44285000  0.74275000  1.0
  C  C67  1  0.01412000  0.55714000  0.25725000  1.0
  C  C68  1  0.84117000  0.41579000  0.64596000  1.0
  C  C69  1  0.15883000  0.58421000  0.35403000  1.0
  C  C70  1  0.84456000  0.34615000  0.54254000  1.0
  C  C71  1  0.15544000  0.65385000  0.45746000  1.0
  N  N72  1  0.64643000  0.84549000  0.80916000  1.0
  N  N73  1  0.35357000  0.15451000  0.19084000  1.0
  N  N74  1  0.92813000  0.78500000  0.92412000  1.0
  N  N75  1  0.07187000  0.21500000  0.07588000  1.0
  O  O76  1  0.64687000  0.62563000  0.61888000  1.0
  O  O77  1  0.35313000  0.37437000  0.38112000  1.0
  O  O78  1  0.49000000  0.32429000  0.57227000  1.0
  O  O79  1  0.51001000  0.67571000  0.42773000  1.0
  O  O80  1  0.65393000  0.46013000  0.77581000  1.0
  O  O81  1  0.34607000  0.53987000  0.22419000  1.0
  O  O82  1  0.43195000  0.60973000  0.88122000  1.0
  O  O83  1  0.56805000  0.39027000  0.11878000  1.0
  O  O84  1  0.41902000  0.31105000  0.83977000  1.0
  O  O85  1  0.58098000  0.68896000  0.16023000  1.0
  O  O86  1  0.24547000  0.39926000  0.95522000  1.0
  O  O87  1  0.75453000  0.60074000  0.04478000  1.0
