# generated using pymatgen
data_ErZnH12C15N2O13
_symmetry_space_group_name_H-M   'P 1'
_cell_length_a   9.68048000
_cell_length_b   10.46610000
_cell_length_c   10.88010000
_cell_angle_alpha   80.51820000
_cell_angle_beta   72.03280000
_cell_angle_gamma   75.70820000
_symmetry_Int_Tables_number   1
_chemical_formula_structural   ErZnH12C15N2O13
_chemical_formula_sum   'Er2 Zn2 H24 C30 N4 O26'
_cell_volume   1011.42485271
_cell_formula_units_Z   2
loop_
 _symmetry_equiv_pos_site_id
 _symmetry_equiv_pos_as_xyz
  1  'x, y, z'
loop_
 _atom_site_type_symbol
 _atom_site_label
 _atom_site_symmetry_multiplicity
 _atom_site_fract_x
 _atom_site_fract_y
 _atom_site_fract_z
 _atom_site_occupancy
  Er  Er0  1  0.17525000  0.19349000  0.03280000  1.0
  Er  Er1  1  0.82474000  0.80649000  0.96720000  1.0
  Zn  Zn2  1  0.30320000  0.36451000  0.61180000  1.0
  Zn  Zn3  1  0.69680000  0.63551000  0.38821000  1.0
  H  H4  1  0.05731000  0.20721000  0.75307000  1.0
  H  H5  1  0.94271000  0.79279000  0.24693000  1.0
  H  H6  1  0.83093000  0.17391000  0.70870000  1.0
  H  H7  1  0.16909000  0.82608000  0.29130000  1.0
  H  H8  1  0.78709000  0.26705000  0.49017000  1.0
  H  H9  1  0.21292000  0.73296000  0.50983000  1.0
  H  H10  1  0.53238000  0.22510000  0.36743000  1.0
  H  H11  1  0.46765000  0.77495000  0.63257000  1.0
  H  H12  1  0.75978000  0.04224000  0.33407000  1.0
  H  H13  1  0.24026000  0.95781000  0.66591000  1.0
  H  H14  1  0.83225000  0.91864000  0.53204000  1.0
  H  H15  1  0.16775000  0.08138000  0.46797000  1.0
  H  H16  1  0.91132000  0.40292000  0.99258000  1.0
  H  H17  1  0.08866000  0.59710000  0.00742000  1.0
  H  H18  1  0.04644000  0.41625000  0.86826000  1.0
  H  H19  1  0.95356000  0.58375000  0.13174000  1.0
  H  H20  1  0.25403000  0.42002000  0.10769000  1.0
  H  H21  1  0.74598000  0.57996000  0.89230000  1.0
  H  H22  1  0.37089000  0.38535000  0.97512000  1.0
  H  H23  1  0.62910000  0.61462000  0.02486000  1.0
  H  H24  1  0.51604000  0.50971000  0.63530000  1.0
  H  H25  1  0.48398000  0.49028000  0.36471000  1.0
  H  H26  1  0.34895000  0.53678000  0.72997000  1.0
  H  H27  1  0.65107000  0.46322000  0.27004000  1.0
  C  C28  1  0.03325000  0.24436000  0.66079000  1.0
  C  C29  1  0.96676000  0.75565000  0.33921000  1.0
  C  C30  1  0.90709000  0.22719000  0.63491000  1.0
  C  C31  1  0.09293000  0.77280000  0.36508000  1.0
  C  C32  1  0.88490000  0.27679000  0.51427000  1.0
  C  C33  1  0.11511000  0.72321000  0.48573000  1.0
  C  C34  1  0.98946000  0.34013000  0.42144000  1.0
  C  C35  1  0.01054000  0.65988000  0.57856000  1.0
  C  C36  1  0.11184000  0.35599000  0.45556000  1.0
  C  C37  1  0.88816000  0.64401000  0.54445000  1.0
  C  C38  1  0.22823000  0.42906000  0.36647000  1.0
  C  C39  1  0.77177000  0.57094000  0.63354000  1.0
  C  C40  1  0.96958000  0.38153000  0.28799000  1.0
  C  C41  1  0.03042000  0.61847000  0.71201000  1.0
  C  C42  1  0.56807000  0.16772000  0.44945000  1.0
  C  C43  1  0.43196000  0.83232000  0.55054000  1.0
  C  C44  1  0.69361000  0.06493000  0.43210000  1.0
  C  C45  1  0.30642000  0.93511000  0.56788000  1.0
  C  C46  1  0.73250000  0.99668000  0.54176000  1.0
  C  C47  1  0.26751000  0.00334000  0.45822000  1.0
  C  C48  1  0.64399000  0.02826000  0.66622000  1.0
  C  C49  1  0.35601000  0.97174000  0.33377000  1.0
  C  C50  1  0.51989000  0.13233000  0.67447000  1.0
  C  C51  1  0.48010000  0.86766000  0.32552000  1.0
  C  C52  1  0.41154000  0.17141000  0.80127000  1.0
  C  C53  1  0.58843000  0.82856000  0.19873000  1.0
  C  C54  1  0.68975000  0.95088000  0.78236000  1.0
  C  C55  1  0.31023000  0.04911000  0.21763000  1.0
  C  C56  1  0.93911000  0.01979000  0.06293000  1.0
  C  C57  1  0.06086000  0.98021000  0.93707000  1.0
  N  N58  1  0.13073000  0.30843000  0.57352000  1.0
  N  N59  1  0.86928000  0.69158000  0.42648000  1.0
  N  N60  1  0.48554000  0.20134000  0.56779000  1.0
  N  N61  1  0.51445000  0.79867000  0.43220000  1.0
  O  O62  1  0.22254000  0.47158000  0.25381000  1.0
  O  O63  1  0.77747000  0.52840000  0.74619000  1.0
  O  O64  1  0.32542000  0.44536000  0.41847000  1.0
  O  O65  1  0.67457000  0.55466000  0.58153000  1.0
  O  O66  1  0.03587000  0.29891000  0.20642000  1.0
  O  O67  1  0.96412000  0.70108000  0.79359000  1.0
  O  O68  1  0.88212000  0.49001000  0.26645000  1.0
  O  O69  1  0.11791000  0.51000000  0.73354000  1.0
  O  O70  1  0.29717000  0.26522000  0.79739000  1.0
  O  O71  1  0.70280000  0.73475000  0.20262000  1.0
  O  O72  1  0.42853000  0.11185000  0.90715000  1.0
  O  O73  1  0.57146000  0.88812000  0.09284000  1.0
  O  O74  1  0.66295000  0.83641000  0.81835000  1.0
  O  O75  1  0.33703000  0.16359000  0.18164000  1.0
  O  O76  1  0.76679000  0.00020000  0.83136000  1.0
  O  O77  1  0.23319000  0.99979000  0.16865000  1.0
  O  O78  1  0.95221000  0.11219000  0.11707000  1.0
  O  O79  1  0.04777000  0.88781000  0.88292000  1.0
  O  O80  1  0.83626000  0.95469000  0.10212000  1.0
  O  O81  1  0.16372000  0.04530000  0.89790000  1.0
  O  O82  1  0.00475000  0.35297000  0.94172000  1.0
  O  O83  1  0.99524000  0.64704000  0.05828000  1.0
  O  O84  1  0.26451000  0.40214000  0.01726000  1.0
  O  O85  1  0.73548000  0.59784000  0.98273000  1.0
  O  O86  1  0.41051000  0.50259000  0.64835000  1.0
  O  O87  1  0.58951000  0.49738000  0.35168000  1.0
