# generated using pymatgen
data_CuH12C14(SN4)2
_symmetry_space_group_name_H-M   'P 1'
_cell_length_a   8.01309000
_cell_length_b   9.07905000
_cell_length_c   12.27478651
_cell_angle_alpha   68.33669378
_cell_angle_beta   78.19605492
_cell_angle_gamma   89.99340000
_symmetry_Int_Tables_number   1
_chemical_formula_structural   CuH12C14(SN4)2
_chemical_formula_sum   'Cu2 H24 C28 S4 N16'
_cell_volume   809.58677033
_cell_formula_units_Z   2
loop_
 _symmetry_equiv_pos_site_id
 _symmetry_equiv_pos_as_xyz
  1  'x, y, z'
loop_
 _atom_site_type_symbol
 _atom_site_label
 _atom_site_symmetry_multiplicity
 _atom_site_fract_x
 _atom_site_fract_y
 _atom_site_fract_z
 _atom_site_occupancy
  Cu  Cu0  1  0.00000000  0.99999000  0.50001000  1.0
  Cu  Cu1  1  0.50000000  0.50003000  0.49999000  1.0
  H  H2  1  0.93124000  0.63829000  0.69052000  1.0
  H  H3  1  0.56926000  0.32871000  0.30920000  1.0
  H  H4  1  0.06875000  0.36171000  0.30948000  1.0
  H  H5  1  0.43072000  0.67133000  0.69080000  1.0
  H  H6  1  0.63410000  0.02255000  0.67990000  1.0
  H  H7  1  0.86554000  0.70296000  0.31963000  1.0
  H  H8  1  0.36590000  0.97743000  0.32012000  1.0
  H  H9  1  0.13448000  0.29707000  0.68035000  1.0
  H  H10  1  0.44017000  0.64488000  0.96090000  1.0
  H  H11  1  0.05983000  0.60604000  0.03840000  1.0
  H  H12  1  0.55983000  0.35510000  0.03911000  1.0
  H  H13  1  0.94017000  0.39395000  0.96159000  1.0
  H  H14  1  0.34648000  0.78927000  0.85159000  1.0
  H  H15  1  0.15347000  0.64073000  0.14803000  1.0
  H  H16  1  0.65351000  0.21071000  0.14842000  1.0
  H  H17  1  0.84653000  0.35926000  0.85196000  1.0
  H  H18  1  0.38831000  0.07763000  0.81367000  1.0
  H  H19  1  0.11128000  0.89130000  0.18653000  1.0
  H  H20  1  0.61169000  0.92234000  0.18635000  1.0
  H  H21  1  0.88873000  0.10870000  0.81346000  1.0
  H  H22  1  0.56305000  0.71987000  0.10172000  1.0
  H  H23  1  0.93744000  0.82179000  0.89789000  1.0
  H  H24  1  0.43695000  0.28011000  0.89829000  1.0
  H  H25  1  0.06256000  0.17820000  0.10209000  1.0
  C  C26  1  0.83221000  0.70801000  0.71565000  1.0
  C  C27  1  0.66799000  0.42380000  0.28403000  1.0
  C  C28  1  0.16779000  0.29197000  0.28436000  1.0
  C  C29  1  0.33199000  0.57623000  0.71597000  1.0
  C  C30  1  0.68348000  0.90639000  0.70644000  1.0
  C  C31  1  0.81643000  0.61313000  0.29315000  1.0
  C  C32  1  0.31651000  0.09360000  0.29357000  1.0
  C  C33  1  0.18357000  0.38689000  0.70684000  1.0
  C  C34  1  0.45581000  0.76753000  0.89525000  1.0
  C  C35  1  0.04427000  0.66283000  0.10426000  1.0
  C  C36  1  0.54419000  0.23248000  0.10475000  1.0
  C  C37  1  0.95573000  0.33716000  0.89574000  1.0
  C  C38  1  0.47439000  0.88661000  0.95162000  1.0
  C  C39  1  0.02592000  0.83836000  0.04812000  1.0
  C  C40  1  0.52561000  0.11337000  0.04839000  1.0
  C  C41  1  0.97409000  0.16163000  0.95187000  1.0
  C  C42  1  0.43903000  0.04431000  0.89476000  1.0
  C  C43  1  0.06098000  0.93904000  0.10528000  1.0
  C  C44  1  0.56097000  0.95568000  0.10526000  1.0
  C  C45  1  0.93903000  0.06095000  0.89471000  1.0
  C  C46  1  0.53524000  0.84270000  0.05732000  1.0
  C  C47  1  0.96516000  0.90019000  0.94240000  1.0
  C  C48  1  0.46477000  0.15729000  0.94269000  1.0
  C  C49  1  0.03486000  0.09980000  0.05760000  1.0
  C  C50  1  0.35302000  0.15672000  0.57221000  1.0
  C  C51  1  0.14727000  0.72921000  0.42737000  1.0
  C  C52  1  0.64698000  0.84333000  0.42777000  1.0
  C  C53  1  0.85272000  0.27077000  0.57264000  1.0
  S  S54  1  0.25858000  0.97992000  0.64206000  1.0
  S  S55  1  0.24183000  0.62227000  0.35743000  1.0
  S  S56  1  0.74145000  0.02013000  0.35793000  1.0
  S  S57  1  0.75815000  0.37774000  0.64256000  1.0
  N  N58  1  0.61027000  0.77825000  0.80340000  1.0
  N  N59  1  0.88970000  0.58189000  0.19613000  1.0
  N  N60  1  0.38972000  0.22174000  0.19661000  1.0
  N  N61  1  0.11030000  0.41811000  0.80387000  1.0
  N  N62  1  0.70353000  0.65032000  0.81116000  1.0
  N  N63  1  0.79657000  0.46157000  0.18845000  1.0
  N  N64  1  0.29645000  0.34966000  0.18885000  1.0
  N  N65  1  0.20341000  0.53845000  0.81155000  1.0
  N  N66  1  0.82545000  0.86523000  0.64947000  1.0
  N  N67  1  0.67464000  0.51490000  0.35025000  1.0
  N  N68  1  0.17456000  0.13475000  0.35054000  1.0
  N  N69  1  0.32536000  0.48514000  0.64974000  1.0
  N  N70  1  0.42203000  0.28695000  0.51873000  1.0
  N  N71  1  0.07795000  0.80586000  0.48092000  1.0
  N  N72  1  0.57797000  0.71311000  0.48124000  1.0
  N  N73  1  0.92204000  0.19414000  0.51910000  1.0
