# generated using pymatgen
data_HgH9C7NO3
_symmetry_space_group_name_H-M   'P 1'
_cell_length_a   5.26764000
_cell_length_b   10.29670000
_cell_length_c   17.08470000
_cell_angle_alpha   89.99450000
_cell_angle_beta   89.99990000
_cell_angle_gamma   78.58400000
_symmetry_Int_Tables_number   1
_chemical_formula_structural   HgH9C7NO3
_chemical_formula_sum   'Hg4 H36 C28 N4 O12'
_cell_volume   908.32917166
_cell_formula_units_Z   4
loop_
 _symmetry_equiv_pos_site_id
 _symmetry_equiv_pos_as_xyz
  1  'x, y, z'
loop_
 _atom_site_type_symbol
 _atom_site_label
 _atom_site_symmetry_multiplicity
 _atom_site_fract_x
 _atom_site_fract_y
 _atom_site_fract_z
 _atom_site_occupancy
  Hg  Hg0  1  0.38082000  0.54339000  0.62397000  1.0
  Hg  Hg1  1  0.11923000  0.95664000  0.12396000  1.0
  Hg  Hg2  1  0.61929000  0.45665000  0.37603000  1.0
  Hg  Hg3  1  0.88064000  0.04331000  0.87603000  1.0
  H  H4  1  0.38162000  0.97940000  0.55542000  1.0
  H  H5  1  0.11843000  0.52066000  0.05541000  1.0
  H  H6  1  0.61837000  0.02067000  0.44461000  1.0
  H  H7  1  0.88169000  0.47927000  0.94462000  1.0
  H  H8  1  0.50265000  0.80725000  0.53709000  1.0
  H  H9  1  0.99730000  0.69280000  0.03710000  1.0
  H  H10  1  0.49735000  0.19282000  0.46292000  1.0
  H  H11  1  0.00268000  0.30712000  0.96293000  1.0
  H  H12  1  0.63978000  0.89063000  0.61289000  1.0
  H  H13  1  0.86025000  0.60935000  0.11289000  1.0
  H  H14  1  0.36019000  0.10941000  0.38714000  1.0
  H  H15  1  0.13986000  0.39054000  0.88714000  1.0
  H  H16  1  0.90984000  0.69445000  0.83115000  1.0
  H  H17  1  0.59014000  0.80558000  0.33113000  1.0
  H  H18  1  0.09032000  0.30547000  0.16885000  1.0
  H  H19  1  0.40960000  0.19459000  0.66886000  1.0
  H  H20  1  0.96453000  0.57335000  0.75486000  1.0
  H  H21  1  0.53559000  0.92664000  0.25482000  1.0
  H  H22  1  0.03545000  0.42662000  0.24510000  1.0
  H  H23  1  0.46450000  0.07341000  0.74510000  1.0
  H  H24  1  0.67612000  0.69678000  0.75628000  1.0
  H  H25  1  0.82396000  0.80318000  0.25629000  1.0
  H  H26  1  0.32390000  0.30322000  0.24374000  1.0
  H  H27  1  0.17604000  0.19682000  0.74376000  1.0
  H  H28  1  0.20258000  0.23808000  0.55608000  1.0
  H  H29  1  0.29743000  0.26195000  0.05610000  1.0
  H  H30  1  0.79748000  0.76191000  0.44391000  1.0
  H  H31  1  0.70244000  0.73805000  0.94390000  1.0
  H  H32  1  0.94551000  0.20386000  0.49552000  1.0
  H  H33  1  0.55448000  0.29622000  0.99553000  1.0
  H  H34  1  0.05454000  0.79615000  0.50447000  1.0
  H  H35  1  0.44541000  0.70376000  0.00447000  1.0
  H  H36  1  0.97287000  0.14722000  0.59402000  1.0
  H  H37  1  0.52712000  0.35281000  0.09404000  1.0
  H  H38  1  0.02712000  0.85281000  0.40597000  1.0
  H  H39  1  0.47282000  0.64715000  0.90596000  1.0
  C  C40  1  0.21143000  0.72906000  0.66249000  1.0
  C  C41  1  0.28861000  0.77095000  0.16248000  1.0
  C  C42  1  0.78861000  0.27096000  0.33752000  1.0
  C  C43  1  0.71137000  0.22903000  0.83752000  1.0
  C  C44  1  0.26950000  0.84728000  0.63883000  1.0
  C  C45  1  0.23051000  0.65274000  0.13883000  1.0
  C  C46  1  0.73048000  0.15275000  0.36118000  1.0
  C  C47  1  0.76954000  0.34722000  0.86118000  1.0
  C  C48  1  0.01715000  0.76554000  0.72138000  1.0
  C  C49  1  0.48290000  0.73446000  0.22137000  1.0
  C  C50  1  0.98287000  0.23445000  0.27862000  1.0
  C  C51  1  0.51712000  0.26557000  0.77863000  1.0
  C  C52  1  0.45868000  0.88328000  0.58270000  1.0
  C  C53  1  0.04134000  0.61676000  0.08270000  1.0
  C  C54  1  0.54131000  0.11678000  0.41732000  1.0
  C  C55  1  0.95873000  0.38317000  0.91732000  1.0
  C  C56  1  0.88482000  0.67714000  0.76854000  1.0
  C  C57  1  0.61525000  0.82285000  0.26852000  1.0
  C  C58  1  0.11523000  0.32283000  0.23145000  1.0
  C  C59  1  0.38471000  0.17721000  0.73146000  1.0
  C  C60  1  0.83008000  0.35525000  0.58251000  1.0
  C  C61  1  0.66997000  0.14479000  0.08251000  1.0
  C  C62  1  0.17004000  0.64478000  0.41747000  1.0
  C  C63  1  0.32986000  0.85516000  0.91748000  1.0
  C  C64  1  0.99975000  0.22815000  0.55489000  1.0
  C  C65  1  0.50026000  0.27190000  0.05491000  1.0
  C  C66  1  0.00031000  0.77186000  0.44509000  1.0
  C  C67  1  0.49962000  0.72808000  0.94509000  1.0
  N  N68  1  0.95966000  0.89572000  0.73156000  1.0
  N  N69  1  0.54040000  0.60428000  0.23154000  1.0
  N  N70  1  0.04031000  0.10427000  0.26845000  1.0
  N  N71  1  0.45972000  0.39575000  0.76845000  1.0
  O  O72  1  0.11952000  0.94892000  0.67879000  1.0
  O  O73  1  0.38053000  0.55109000  0.17878000  1.0
  O  O74  1  0.88043000  0.05109000  0.32123000  1.0
  O  O75  1  0.61962000  0.44890000  0.82123000  1.0
  O  O76  1  0.57973000  0.36133000  0.57361000  1.0
  O  O77  1  0.92031000  0.13871000  0.07361000  1.0
  O  O78  1  0.42038000  0.63872000  0.42637000  1.0
  O  O79  1  0.07952000  0.86121000  0.92637000  1.0
  O  O80  1  0.92092000  0.44669000  0.61256000  1.0
  O  O81  1  0.57914000  0.05334000  0.11256000  1.0
  O  O82  1  0.07924000  0.55334000  0.38741000  1.0
  O  O83  1  0.42064000  0.94663000  0.88744000  1.0
