# generated using pymatgen
data_CuH24C22(NO2)2
_symmetry_space_group_name_H-M   'P 1'
_cell_length_a   10.83380000
_cell_length_b   10.85620000
_cell_length_c   10.89760000
_cell_angle_alpha   109.67300000
_cell_angle_beta   110.05500000
_cell_angle_gamma   95.42330000
_symmetry_Int_Tables_number   1
_chemical_formula_structural   CuH24C22(NO2)2
_chemical_formula_sum   'Cu2 H48 C44 N4 O8'
_cell_volume   1101.31217775
_cell_formula_units_Z   2
loop_
 _symmetry_equiv_pos_site_id
 _symmetry_equiv_pos_as_xyz
  1  'x, y, z'
loop_
 _atom_site_type_symbol
 _atom_site_label
 _atom_site_symmetry_multiplicity
 _atom_site_fract_x
 _atom_site_fract_y
 _atom_site_fract_z
 _atom_site_occupancy
  Cu  Cu0  1  0.30006000  0.29647000  0.45507000  1.0
  Cu  Cu1  1  0.69994000  0.70353000  0.54493000  1.0
  H  H2  1  0.60927000  0.43239000  0.58951000  1.0
  H  H3  1  0.39073000  0.56760000  0.41049000  1.0
  H  H4  1  0.81270000  0.34271000  0.59637000  1.0
  H  H5  1  0.18730000  0.65728000  0.40363000  1.0
  H  H6  1  0.78577000  0.09458000  0.46675000  1.0
  H  H7  1  0.21424000  0.90541000  0.53325000  1.0
  H  H8  1  0.62070000  0.85888000  0.31119000  1.0
  H  H9  1  0.37929000  0.14111000  0.68881000  1.0
  H  H10  1  0.38966000  0.72404000  0.18329000  1.0
  H  H11  1  0.61033000  0.27596000  0.81670000  1.0
  H  H12  1  0.13215000  0.71204000  0.10764000  1.0
  H  H13  1  0.86785000  0.28796000  0.89236000  1.0
  H  H14  1  0.95151000  0.83615000  0.12470000  1.0
  H  H15  1  0.04849000  0.16385000  0.87530000  1.0
  H  H16  1  0.01931000  0.08666000  0.27248000  1.0
  H  H17  1  0.98070000  0.91335000  0.72752000  1.0
  H  H18  1  0.54938000  0.54954000  0.93907000  1.0
  H  H19  1  0.45062000  0.45046000  0.06093000  1.0
  H  H20  1  0.40062000  0.60651000  0.90685000  1.0
  H  H21  1  0.59938000  0.39349000  0.09315000  1.0
  H  H22  1  0.47477000  0.73168000  0.77478000  1.0
  H  H23  1  0.52523000  0.26832000  0.22523000  1.0
  H  H24  1  0.62815000  0.68080000  0.81715000  1.0
  H  H25  1  0.37186000  0.31920000  0.18286000  1.0
  H  H26  1  0.67541000  0.79585000  0.07963000  1.0
  H  H27  1  0.32459000  0.20416000  0.92038000  1.0
  H  H28  1  0.52302000  0.84676000  0.03319000  1.0
  H  H29  1  0.47698000  0.15324000  0.96682000  1.0
  H  H30  1  0.76314000  0.93221000  0.96731000  1.0
  H  H31  1  0.23685000  0.06779000  0.03269000  1.0
  H  H32  1  0.60742000  0.97761000  0.91408000  1.0
  H  H33  1  0.39257000  0.02239000  0.08591000  1.0
  H  H34  1  0.78994000  0.04416000  0.22493000  1.0
  H  H35  1  0.21006000  0.95584000  0.77507000  1.0
  H  H36  1  0.63834000  0.09378000  0.16502000  1.0
  H  H37  1  0.36166000  0.90622000  0.83498000  1.0
  H  H38  1  0.89440000  0.17695000  0.12273000  1.0
  H  H39  1  0.10560000  0.82306000  0.87727000  1.0
  H  H40  1  0.74233000  0.22312000  0.05520000  1.0
  H  H41  1  0.25766000  0.77689000  0.94481000  1.0
  H  H42  1  0.88683000  0.29084000  0.37340000  1.0
  H  H43  1  0.11318000  0.70916000  0.62660000  1.0
  H  H44  1  0.76002000  0.36169000  0.29135000  1.0
  H  H45  1  0.23998000  0.63831000  0.70867000  1.0
  H  H46  1  0.97354000  0.52383000  0.39190000  1.0
  H  H47  1  0.02646000  0.47617000  0.60810000  1.0
  H  H48  1  0.93179000  0.45621000  0.20622000  1.0
  H  H49  1  0.06821000  0.54380000  0.79378000  1.0
  C  C50  1  0.59908000  0.32555000  0.53313000  1.0
  C  C51  1  0.40092000  0.67444000  0.46686000  1.0
  C  C52  1  0.71362000  0.27327000  0.53582000  1.0
  C  C53  1  0.28639000  0.72672000  0.46418000  1.0
  C  C54  1  0.69812000  0.13708000  0.46463000  1.0
  C  C55  1  0.30188000  0.86292000  0.53536000  1.0
  C  C56  1  0.56673000  0.05141000  0.38854000  1.0
  C  C57  1  0.43327000  0.94859000  0.61146000  1.0
  C  C58  1  0.53804000  0.90888000  0.31165000  1.0
  C  C59  1  0.46195000  0.09111000  0.68834000  1.0
  C  C60  1  0.40784000  0.83251000  0.24011000  1.0
  C  C61  1  0.59216000  0.16749000  0.75989000  1.0
  C  C62  1  0.29533000  0.89190000  0.24026000  1.0
  C  C63  1  0.70467000  0.10809000  0.75974000  1.0
  C  C64  1  0.15814000  0.82041000  0.16933000  1.0
  C  C65  1  0.84186000  0.17958000  0.83067000  1.0
  C  C66  1  0.05800000  0.88885000  0.17908000  1.0
  C  C67  1  0.94200000  0.11115000  0.82092000  1.0
  C  C68  1  0.09425000  0.02856000  0.26032000  1.0
  C  C69  1  0.90575000  0.97144000  0.73967000  1.0
  C  C70  1  0.32180000  0.03243000  0.31756000  1.0
  C  C71  1  0.67821000  0.96757000  0.68244000  1.0
  C  C72  1  0.45764000  0.11259000  0.39117000  1.0
  C  C73  1  0.54235000  0.88740000  0.60882000  1.0
  C  C74  1  0.40524000  0.45908000  0.72417000  1.0
  C  C75  1  0.59476000  0.54092000  0.27583000  1.0
  C  C76  1  0.47745000  0.58143000  0.86329000  1.0
  C  C77  1  0.52256000  0.41857000  0.13671000  1.0
  C  C78  1  0.54770000  0.70499000  0.85495000  1.0
  C  C79  1  0.45230000  0.29501000  0.14505000  1.0
  C  C80  1  0.60568000  0.82434000  0.99843000  1.0
  C  C81  1  0.39432000  0.17566000  0.00157000  1.0
  C  C82  1  0.67715000  0.95168000  0.99742000  1.0
  C  C83  1  0.32285000  0.04833000  0.00258000  1.0
  C  C84  1  0.72599000  0.07189000  0.13957000  1.0
  C  C85  1  0.27401000  0.92811000  0.86043000  1.0
  C  C86  1  0.80430000  0.19856000  0.14374000  1.0
  C  C87  1  0.19569000  0.80145000  0.85626000  1.0
  C  C88  1  0.84737000  0.32117000  0.28337000  1.0
  C  C89  1  0.15263000  0.67883000  0.71663000  1.0
  C  C90  1  0.95872000  0.43121000  0.30043000  1.0
  C  C91  1  0.04128000  0.56880000  0.69957000  1.0
  C  C92  1  0.09302000  0.38966000  0.32703000  1.0
  C  C93  1  0.90699000  0.61034000  0.67297000  1.0
  N  N94  1  0.47458000  0.24663000  0.46268000  1.0
  N  N95  1  0.52543000  0.75338000  0.53732000  1.0
  N  N96  1  0.22268000  0.09810000  0.32737000  1.0
  N  N97  1  0.77732000  0.90190000  0.67263000  1.0
  O  O98  1  0.39372000  0.47647000  0.60873000  1.0
  O  O99  1  0.60627000  0.52354000  0.39127000  1.0
  O  O100  1  0.35955000  0.34842000  0.72409000  1.0
  O  O101  1  0.64046000  0.65158000  0.27591000  1.0
  O  O102  1  0.12278000  0.33489000  0.41988000  1.0
  O  O103  1  0.87722000  0.66511000  0.58012000  1.0
  O  O104  1  0.16692000  0.40844000  0.26525000  1.0
  O  O105  1  0.83307000  0.59156000  0.73475000  1.0
