# generated using pymatgen
data_Ni3H46C60(N3O4)4
_symmetry_space_group_name_H-M   'P 1'
_cell_length_a   11.28370000
_cell_length_b   12.07750000
_cell_length_c   12.57680000
_cell_angle_alpha   102.37400000
_cell_angle_beta   108.80200000
_cell_angle_gamma   108.72800000
_symmetry_Int_Tables_number   1
_chemical_formula_structural   Ni3H46C60(N3O4)4
_chemical_formula_sum   'Ni3 H46 C60 N12 O16'
_cell_volume   1436.82147782
_cell_formula_units_Z   1
loop_
 _symmetry_equiv_pos_site_id
 _symmetry_equiv_pos_as_xyz
  1  'x, y, z'
loop_
 _atom_site_type_symbol
 _atom_site_label
 _atom_site_symmetry_multiplicity
 _atom_site_fract_x
 _atom_site_fract_y
 _atom_site_fract_z
 _atom_site_occupancy
  Ni  Ni0  1  0.00000000  0.00000000  0.00000000  1.0
  Ni  Ni1  1  0.01524000  0.28233000  0.44490000  1.0
  Ni  Ni2  1  0.98476000  0.71767000  0.55510000  1.0
  H  H3  1  0.95246000  0.10576000  0.20007000  1.0
  H  H4  1  0.04754000  0.89426000  0.79994000  1.0
  H  H5  1  0.78776000  0.28593000  0.37793000  1.0
  H  H6  1  0.21224000  0.71407000  0.62204000  1.0
  H  H7  1  0.86801000  0.27851000  0.76257000  1.0
  H  H8  1  0.13199000  0.72149000  0.23744000  1.0
  H  H9  1  0.43983000  0.02505000  0.63190000  1.0
  H  H10  1  0.56017000  0.97495000  0.36810000  1.0
  H  H11  1  0.54846000  0.37667000  0.57359000  1.0
  H  H12  1  0.45154000  0.62333000  0.42642000  1.0
  H  H13  1  0.90722000  0.18766000  0.89009000  1.0
  H  H14  1  0.09278000  0.81235000  0.10992000  1.0
  H  H15  1  0.68335000  0.80298000  0.80385000  1.0
  H  H16  1  0.31666000  0.19703000  0.19616000  1.0
  H  H17  1  0.51418000  0.88677000  0.66284000  1.0
  H  H18  1  0.48583000  0.11323000  0.33715000  1.0
  H  H19  1  0.34416000  0.35315000  0.56673000  1.0
  H  H20  1  0.65583000  0.64684000  0.43328000  1.0
  H  H21  1  0.24017000  0.96333000  0.46703000  1.0
  H  H22  1  0.75983000  0.03666000  0.53298000  1.0
  H  H23  1  0.00481000  0.00151000  0.38064000  1.0
  H  H24  1  0.99518000  0.99848000  0.61937000  1.0
  H  H25  1  0.72699000  0.48582000  0.52728000  1.0
  H  H26  1  0.27301000  0.51418000  0.47273000  1.0
  H  H27  1  0.97987000  0.49143000  0.86316000  1.0
  H  H28  1  0.02013000  0.50857000  0.13684000  1.0
  H  H29  1  0.11681000  0.69934000  0.81786000  1.0
  H  H30  1  0.88319000  0.30067000  0.18214000  1.0
  H  H31  1  0.36290000  0.51426000  0.14945000  1.0
  H  H32  1  0.63711000  0.48573000  0.85055000  1.0
  H  H33  1  0.07475000  0.22408000  0.80954000  1.0
  H  H34  1  0.92525000  0.77592000  0.19046000  1.0
  H  H35  1  0.30252000  0.59138000  0.82052000  1.0
  H  H36  1  0.69748000  0.40862000  0.17948000  1.0
  H  H37  1  0.60602000  0.65391000  0.16518000  1.0
  H  H38  1  0.39399000  0.34609000  0.83482000  1.0
  H  H39  1  0.31402000  0.77691000  0.97076000  1.0
  H  H40  1  0.68597000  0.22308000  0.02924000  1.0
  H  H41  1  0.77926000  0.87526000  0.27497000  1.0
  H  H42  1  0.22074000  0.12474000  0.72502000  1.0
  H  H43  1  0.48220000  0.99801000  0.09030000  1.0
  H  H44  1  0.51780000  0.00199000  0.90969000  1.0
  H  H45  1  0.88188000  0.43256000  0.41837000  1.0
  H  H46  1  0.11813000  0.56745000  0.58164000  1.0
  H  H47  1  0.06747000  0.19815000  0.17183000  1.0
  H  H48  1  0.93253000  0.80186000  0.82817000  1.0
  C  C49  1  0.75881000  0.25708000  0.72026000  1.0
  C  C50  1  0.24119000  0.74292000  0.27975000  1.0
  C  C51  1  0.65786000  0.14374000  0.70503000  1.0
  C  C52  1  0.34214000  0.85626000  0.29498000  1.0
  C  C53  1  0.51776000  0.11127000  0.63973000  1.0
  C  C54  1  0.48224000  0.88873000  0.36027000  1.0
  C  C55  1  0.47932000  0.19552000  0.59258000  1.0
  C  C56  1  0.52068000  0.80448000  0.40743000  1.0
  C  C57  1  0.57856000  0.31061000  0.60923000  1.0
  C  C58  1  0.42144000  0.68939000  0.39077000  1.0
  C  C59  1  0.71789000  0.34041000  0.67385000  1.0
  C  C60  1  0.28211000  0.65959000  0.32616000  1.0
  C  C61  1  0.82549000  0.09414000  0.84699000  1.0
  C  C62  1  0.17451000  0.90587000  0.15302000  1.0
  C  C63  1  0.70408000  0.89584000  0.80061000  1.0
  C  C64  1  0.29593000  0.10417000  0.19940000  1.0
  C  C65  1  0.62095000  0.93551000  0.72783000  1.0
  C  C66  1  0.37905000  0.06449000  0.27217000  1.0
  C  C67  1  0.28343000  0.25312000  0.52332000  1.0
  C  C68  1  0.71656000  0.74687000  0.47669000  1.0
  C  C69  1  0.22758000  0.04936000  0.47384000  1.0
  C  C70  1  0.77242000  0.95064000  0.52616000  1.0
  C  C71  1  0.11116000  0.06926000  0.43104000  1.0
  C  C72  1  0.88884000  0.93074000  0.56897000  1.0
  C  C73  1  0.81248000  0.52003000  0.61444000  1.0
  C  C74  1  0.18753000  0.47997000  0.38557000  1.0
  C  C75  1  0.94941000  0.52122000  0.78743000  1.0
  C  C76  1  0.05060000  0.47878000  0.21257000  1.0
  C  C77  1  0.01562000  0.62328000  0.76416000  1.0
  C  C78  1  0.98439000  0.37672000  0.23584000  1.0
  C  C79  1  0.17774000  0.26916000  0.04780000  1.0
  C  C80  1  0.82226000  0.73083000  0.95220000  1.0
  C  C81  1  0.21511000  0.36051000  0.98602000  1.0
  C  C82  1  0.78489000  0.63949000  0.01397000  1.0
  C  C83  1  0.31322000  0.48416000  0.05171000  1.0
  C  C84  1  0.68678000  0.51583000  0.94829000  1.0
  C  C85  1  0.14817000  0.32116000  0.86089000  1.0
  C  C86  1  0.85183000  0.67884000  0.13910000  1.0
  C  C87  1  0.17853000  0.40435000  0.80149000  1.0
  C  C88  1  0.82147000  0.59565000  0.19851000  1.0
  C  C89  1  0.34545000  0.56891000  0.99325000  1.0
  C  C90  1  0.65455000  0.43108000  0.00675000  1.0
  C  C91  1  0.27744000  0.52768000  0.86770000  1.0
  C  C92  1  0.72256000  0.47232000  0.13230000  1.0
  C  C93  1  0.10907000  0.35926000  0.66796000  1.0
  C  C94  1  0.89092000  0.64074000  0.33204000  1.0
  C  C95  1  0.44806000  0.70018000  0.06107000  1.0
  C  C96  1  0.55194000  0.29981000  0.93893000  1.0
  C  C97  1  0.57936000  0.72946000  0.14802000  1.0
  C  C98  1  0.42064000  0.27054000  0.85197000  1.0
  C  C99  1  0.41574000  0.79817000  0.03785000  1.0
  C  C100  1  0.58425000  0.20182000  0.96215000  1.0
  C  C101  1  0.67668000  0.85326000  0.20902000  1.0
  C  C102  1  0.32332000  0.14674000  0.79098000  1.0
  C  C103  1  0.50997000  0.92191000  0.10326000  1.0
  C  C104  1  0.49003000  0.07809000  0.89673000  1.0
  C  C105  1  0.64162000  0.95066000  0.18917000  1.0
  C  C106  1  0.35837000  0.04934000  0.81082000  1.0
  C  C107  1  0.73609000  0.08465000  0.26542000  1.0
  C  C108  1  0.26391000  0.91535000  0.73456000  1.0
  N  N109  1  0.83142000  0.99562000  0.87422000  1.0
  N  N110  1  0.16858000  0.00439000  0.12580000  1.0
  N  N111  1  0.69894000  0.06205000  0.75708000  1.0
  N  N112  1  0.30106000  0.93795000  0.24293000  1.0
  N  N113  1  0.14734000  0.19654000  0.46280000  1.0
  N  N114  1  0.85266000  0.80346000  0.53722000  1.0
  N  N115  1  0.33762000  0.16706000  0.53193000  1.0
  N  N116  1  0.66238000  0.83293000  0.46807000  1.0
  N  N117  1  0.92934000  0.62130000  0.65614000  1.0
  N  N118  1  0.07067000  0.37870000  0.34386000  1.0
  N  N119  1  0.81996000  0.45576000  0.69155000  1.0
  N  N120  1  0.18004000  0.54425000  0.30846000  1.0
  O  O121  1  0.11447000  0.15413000  0.97777000  1.0
  O  O122  1  0.88554000  0.84587000  0.02223000  1.0
  O  O123  1  0.20752000  0.31094000  0.15860000  1.0
  O  O124  1  0.79247000  0.68906000  0.84140000  1.0
  O  O125  1  0.00783000  0.25236000  0.60933000  1.0
  O  O126  1  0.99215000  0.74764000  0.39068000  1.0
  O  O127  1  0.15643000  0.42804000  0.61246000  1.0
  O  O128  1  0.84356000  0.57196000  0.38754000  1.0
  O  O129  1  0.67967000  0.15823000  0.28253000  1.0
  O  O130  1  0.32033000  0.84178000  0.71741000  1.0
  O  O131  1  0.86686000  0.11546000  0.31115000  1.0
  O  O132  1  0.13314000  0.88453000  0.68884000  1.0
  O  O133  1  0.97607000  0.12539000  0.13568000  1.0
  O  O134  1  0.02393000  0.87462000  0.86433000  1.0
  O  O135  1  0.87315000  0.36066000  0.44519000  1.0
  O  O136  1  0.12684000  0.63932000  0.55480000  1.0
