# generated using pymatgen
data_ErH5C6(NO3)2
_symmetry_space_group_name_H-M   'P 1'
_cell_length_a   5.96980000
_cell_length_b   9.57230000
_cell_length_c   14.79430000
_cell_angle_alpha   92.83770000
_cell_angle_beta   89.99980000
_cell_angle_gamma   89.99980000
_symmetry_Int_Tables_number   1
_chemical_formula_structural   ErH5C6(NO3)2
_chemical_formula_sum   'Er4 H20 C24 N8 O24'
_cell_volume   844.37941253
_cell_formula_units_Z   4
loop_
 _symmetry_equiv_pos_site_id
 _symmetry_equiv_pos_as_xyz
  1  'x, y, z'
loop_
 _atom_site_type_symbol
 _atom_site_label
 _atom_site_symmetry_multiplicity
 _atom_site_fract_x
 _atom_site_fract_y
 _atom_site_fract_z
 _atom_site_occupancy
  Er  Er0  1  0.56990000  0.12799000  0.75163000  1.0
  Er  Er1  1  0.06990000  0.37201000  0.74837000  1.0
  Er  Er2  1  0.43010000  0.87201000  0.24837000  1.0
  Er  Er3  1  0.93010000  0.62799000  0.25163000  1.0
  H  H4  1  0.76631000  0.08493000  0.39027000  1.0
  H  H5  1  0.26631000  0.41508000  0.10973000  1.0
  H  H6  1  0.23370000  0.91507000  0.60973000  1.0
  H  H7  1  0.73369000  0.58492000  0.89027000  1.0
  H  H8  1  0.14604000  0.88801000  0.03340000  1.0
  H  H9  1  0.64605000  0.61199000  0.46660000  1.0
  H  H10  1  0.85396000  0.11199000  0.96660000  1.0
  H  H11  1  0.35396000  0.38802000  0.53340000  1.0
  H  H12  1  0.86227000  0.87432000  0.77996000  1.0
  H  H13  1  0.36227000  0.62567000  0.72004000  1.0
  H  H14  1  0.13773000  0.12568000  0.22004000  1.0
  H  H15  1  0.63773000  0.37432000  0.27996000  1.0
  H  H16  1  0.68002000  0.82675000  0.70404000  1.0
  H  H17  1  0.18002000  0.67325000  0.79596000  1.0
  H  H18  1  0.31998000  0.17325000  0.29596000  1.0
  H  H19  1  0.81998000  0.32675000  0.20404000  1.0
  H  H20  1  0.27445000  0.22179000  0.61644000  1.0
  H  H21  1  0.77445000  0.27821000  0.88356000  1.0
  H  H22  1  0.72555000  0.77821000  0.38355000  1.0
  H  H23  1  0.22555000  0.72178000  0.11644000  1.0
  C  C24  1  0.87417000  0.15593000  0.56965000  1.0
  C  C25  1  0.37417000  0.34407000  0.93035000  1.0
  C  C26  1  0.12584000  0.84407000  0.43034000  1.0
  C  C27  1  0.62584000  0.65593000  0.06965000  1.0
  C  C28  1  0.67602000  0.07471000  0.53215000  1.0
  C  C29  1  0.17602000  0.42529000  0.96786000  1.0
  C  C30  1  0.32399000  0.92529000  0.46786000  1.0
  C  C31  1  0.82398000  0.57471000  0.03215000  1.0
  C  C32  1  0.64653000  0.04816000  0.43935000  1.0
  C  C33  1  0.14653000  0.45184000  0.06065000  1.0
  C  C34  1  0.35348000  0.95183000  0.56065000  1.0
  C  C35  1  0.85347000  0.54816000  0.93935000  1.0
  C  C36  1  0.21559000  0.92991000  0.84893000  1.0
  C  C37  1  0.71558000  0.57010000  0.65106000  1.0
  C  C38  1  0.78441000  0.07010000  0.15106000  1.0
  C  C39  1  0.28441000  0.42990000  0.34893000  1.0
  C  C40  1  0.36174000  0.96818000  0.93001000  1.0
  C  C41  1  0.86175000  0.53182000  0.57000000  1.0
  C  C42  1  0.63826000  0.03181000  0.06999000  1.0
  C  C43  1  0.13827000  0.46819000  0.43000000  1.0
  C  C44  1  0.30434000  0.93822000  0.01859000  1.0
  C  C45  1  0.80435000  0.56178000  0.48142000  1.0
  C  C46  1  0.69566000  0.06177000  0.98141000  1.0
  C  C47  1  0.19566000  0.43823000  0.51858000  1.0
  N  N48  1  0.52853000  0.02684000  0.59195000  1.0
  N  N49  1  0.02853000  0.47316000  0.90806000  1.0
  N  N50  1  0.47149000  0.97316000  0.40806000  1.0
  N  N51  1  0.97148000  0.52684000  0.09195000  1.0
  N  N52  1  0.55714000  0.03081000  0.91217000  1.0
  N  N53  1  0.05715000  0.46919000  0.58783000  1.0
  N  N54  1  0.44286000  0.96918000  0.08783000  1.0
  N  N55  1  0.94286000  0.53082000  0.41217000  1.0
  O  O56  1  0.85154000  0.20481000  0.65253000  1.0
  O  O57  1  0.35154000  0.29518000  0.84747000  1.0
  O  O58  1  0.14847000  0.79519000  0.34747000  1.0
  O  O59  1  0.64847000  0.70482000  0.15253000  1.0
  O  O60  1  0.04241000  0.17005000  0.52112000  1.0
  O  O61  1  0.54242000  0.32996000  0.97888000  1.0
  O  O62  1  0.95759000  0.82995000  0.47888000  1.0
  O  O63  1  0.45758000  0.67004000  0.02112000  1.0
  O  O64  1  0.26578000  0.98666000  0.77570000  1.0
  O  O65  1  0.76577000  0.51334000  0.72429000  1.0
  O  O66  1  0.73422000  0.01334000  0.22429000  1.0
  O  O67  1  0.23422000  0.48665000  0.27570000  1.0
  O  O68  1  0.05871000  0.84246000  0.85840000  1.0
  O  O69  1  0.55871000  0.65754000  0.64159000  1.0
  O  O70  1  0.94127000  0.15755000  0.14160000  1.0
  O  O71  1  0.44128000  0.34245000  0.35840000  1.0
  O  O72  1  0.74530000  0.90811000  0.73748000  1.0
  O  O73  1  0.24530000  0.59189000  0.76252000  1.0
  O  O74  1  0.25469000  0.09189000  0.26253000  1.0
  O  O75  1  0.75468000  0.40811000  0.23747000  1.0
  O  O76  1  0.33735000  0.25868000  0.67394000  1.0
  O  O77  1  0.83735000  0.24133000  0.82607000  1.0
  O  O78  1  0.66265000  0.74133000  0.32606000  1.0
  O  O79  1  0.16266000  0.75867000  0.17394000  1.0
