# generated using pymatgen
data_AgH10C11N3O2
_symmetry_space_group_name_H-M   'P 1'
_cell_length_a   6.44803000
_cell_length_b   6.87446000
_cell_length_c   25.55840000
_cell_angle_alpha   89.99960000
_cell_angle_beta   89.99940000
_cell_angle_gamma   73.20400000
_symmetry_Int_Tables_number   1
_chemical_formula_structural   AgH10C11N3O2
_chemical_formula_sum   'Ag4 H40 C44 N12 O8'
_cell_volume   1084.58940702
_cell_formula_units_Z   4
loop_
 _symmetry_equiv_pos_site_id
 _symmetry_equiv_pos_as_xyz
  1  'x, y, z'
loop_
 _atom_site_type_symbol
 _atom_site_label
 _atom_site_symmetry_multiplicity
 _atom_site_fract_x
 _atom_site_fract_y
 _atom_site_fract_z
 _atom_site_occupancy
  Ag  Ag0  1  0.52162000  0.78290000  0.01842000  1.0
  Ag  Ag1  1  0.02161000  0.28290000  0.48158000  1.0
  Ag  Ag2  1  0.47839000  0.21711000  0.98158000  1.0
  Ag  Ag3  1  0.97838000  0.71710000  0.51842000  1.0
  H  H4  1  0.18530000  0.67711000  0.96744000  1.0
  H  H5  1  0.68531000  0.17711000  0.53255000  1.0
  H  H6  1  0.81470000  0.32290000  0.03255000  1.0
  H  H7  1  0.31469000  0.82289000  0.46744000  1.0
  H  H8  1  0.90399000  0.70770000  0.96225000  1.0
  H  H9  1  0.40399000  0.20769000  0.53775000  1.0
  H  H10  1  0.09601000  0.29231000  0.03775000  1.0
  H  H11  1  0.59601000  0.79231000  0.46224000  1.0
  H  H12  1  0.84129000  0.53738000  0.82237000  1.0
  H  H13  1  0.34130000  0.03739000  0.67763000  1.0
  H  H14  1  0.15870000  0.46264000  0.17763000  1.0
  H  H15  1  0.65870000  0.96263000  0.32237000  1.0
  H  H16  1  0.80511000  0.34752000  0.74042000  1.0
  H  H17  1  0.30514000  0.84753000  0.75958000  1.0
  H  H18  1  0.19486000  0.65249000  0.25958000  1.0
  H  H19  1  0.69489000  0.15249000  0.24042000  1.0
  H  H20  1  0.47912000  0.22662000  0.72850000  1.0
  H  H21  1  0.97916000  0.72662000  0.77150000  1.0
  H  H22  1  0.52086000  0.77337000  0.27150000  1.0
  H  H23  1  0.02089000  0.27338000  0.22850000  1.0
  H  H24  1  0.19352000  0.29476000  0.79691000  1.0
  H  H25  1  0.69356000  0.79475000  0.70310000  1.0
  H  H26  1  0.80646000  0.70523000  0.20310000  1.0
  H  H27  1  0.30648000  0.20524000  0.29691000  1.0
  H  H28  1  0.23499000  0.48114000  0.87833000  1.0
  H  H29  1  0.73501000  0.98113000  0.62167000  1.0
  H  H30  1  0.76500000  0.51886000  0.12167000  1.0
  H  H31  1  0.26500000  0.01886000  0.37833000  1.0
  H  H32  1  0.29422000  0.93450000  0.12407000  1.0
  H  H33  1  0.79422000  0.43451000  0.37593000  1.0
  H  H34  1  0.70578000  0.06549000  0.87593000  1.0
  H  H35  1  0.20577000  0.56549000  0.62406000  1.0
  H  H36  1  0.92713000  0.05037000  0.16634000  1.0
  H  H37  1  0.42713000  0.55036000  0.33366000  1.0
  H  H38  1  0.07289000  0.94962000  0.83366000  1.0
  H  H39  1  0.57287000  0.44963000  0.66634000  1.0
  H  H40  1  0.61398000  0.99239000  0.11570000  1.0
  H  H41  1  0.11398000  0.49239000  0.38430000  1.0
  H  H42  1  0.38603000  0.00760000  0.88430000  1.0
  H  H43  1  0.88601000  0.50761000  0.61570000  1.0
  C  C44  1  0.58154000  0.61909000  0.90505000  1.0
  C  C45  1  0.08154000  0.11909000  0.59495000  1.0
  C  C46  1  0.41845000  0.38091000  0.09496000  1.0
  C  C47  1  0.91845000  0.88091000  0.40504000  1.0
  C  C48  1  0.54174000  0.52039000  0.85486000  1.0
  C  C49  1  0.04175000  0.02039000  0.64514000  1.0
  C  C50  1  0.45826000  0.47961000  0.14514000  1.0
  C  C51  1  0.95826000  0.97962000  0.35487000  1.0
  C  C52  1  0.69967000  0.48473000  0.81549000  1.0
  C  C53  1  0.19969000  0.98473000  0.68451000  1.0
  C  C54  1  0.30031000  0.51528000  0.18451000  1.0
  C  C55  1  0.80033000  0.01528000  0.31549000  1.0
  C  C56  1  0.67822000  0.37936000  0.77019000  1.0
  C  C57  1  0.17826000  0.87937000  0.72981000  1.0
  C  C58  1  0.32175000  0.62064000  0.22981000  1.0
  C  C59  1  0.82177000  0.12065000  0.27019000  1.0
  C  C60  1  0.49579000  0.31074000  0.76362000  1.0
  C  C61  1  0.99582000  0.81075000  0.73638000  1.0
  C  C62  1  0.50419000  0.68924000  0.23638000  1.0
  C  C63  1  0.00422000  0.18926000  0.26362000  1.0
  C  C64  1  0.33518000  0.34923000  0.80216000  1.0
  C  C65  1  0.83521000  0.84923000  0.69785000  1.0
  C  C66  1  0.66481000  0.65077000  0.19785000  1.0
  C  C67  1  0.16481000  0.15077000  0.30215000  1.0
  C  C68  1  0.35783000  0.45340000  0.84774000  1.0
  C  C69  1  0.85785000  0.95340000  0.65226000  1.0
  C  C70  1  0.64216000  0.54659000  0.15226000  1.0
  C  C71  1  0.14216000  0.04661000  0.34774000  1.0
  C  C72  1  0.00735000  0.79999000  0.03183000  1.0
  C  C73  1  0.50735000  0.29998000  0.46817000  1.0
  C  C74  1  0.99265000  0.20001000  0.96817000  1.0
  C  C75  1  0.49265000  0.70001000  0.53182000  1.0
  C  C76  1  0.15192000  0.91468000  0.10443000  1.0
  C  C77  1  0.65192000  0.41469000  0.39557000  1.0
  C  C78  1  0.84809000  0.08531000  0.89557000  1.0
  C  C79  1  0.34807000  0.58531000  0.60443000  1.0
  C  C80  1  0.94935000  0.97876000  0.12813000  1.0
  C  C81  1  0.44936000  0.47876000  0.37187000  1.0
  C  C82  1  0.05066000  0.02123000  0.87187000  1.0
  C  C83  1  0.55065000  0.52123000  0.62813000  1.0
  C  C84  1  0.77850000  0.94559000  0.10030000  1.0
  C  C85  1  0.27850000  0.44559000  0.39970000  1.0
  C  C86  1  0.22151000  0.05441000  0.89970000  1.0
  C  C87  1  0.72150000  0.55441000  0.60030000  1.0
  N  N88  1  0.03483000  0.71602000  0.98461000  1.0
  N  N89  1  0.53483000  0.21601000  0.51539000  1.0
  N  N90  1  0.96516000  0.28400000  0.01539000  1.0
  N  N91  1  0.46516000  0.78400000  0.48461000  1.0
  N  N92  1  0.18317000  0.82939000  0.05705000  1.0
  N  N93  1  0.68317000  0.32939000  0.44295000  1.0
  N  N94  1  0.81684000  0.17061000  0.94295000  1.0
  N  N95  1  0.31682000  0.67061000  0.55705000  1.0
  N  N96  1  0.80373000  0.85450000  0.05333000  1.0
  N  N97  1  0.30373000  0.35450000  0.44667000  1.0
  N  N98  1  0.19627000  0.14549000  0.94667000  1.0
  N  N99  1  0.69626000  0.64550000  0.55333000  1.0
  O  O100  1  0.45224000  0.61962000  0.94339000  1.0
  O  O101  1  0.95225000  0.11961000  0.55661000  1.0
  O  O102  1  0.54775000  0.38038000  0.05662000  1.0
  O  O103  1  0.04775000  0.88038000  0.44338000  1.0
  O  O104  1  0.73926000  0.69266000  0.90675000  1.0
  O  O105  1  0.23926000  0.19267000  0.59325000  1.0
  O  O106  1  0.26072000  0.30734000  0.09325000  1.0
  O  O107  1  0.76073000  0.80734000  0.40675000  1.0
