# generated using pymatgen
data_RbSnH6(C2O)6
_symmetry_space_group_name_H-M   'P 1'
_cell_length_a   12.12310000
_cell_length_b   12.16939985
_cell_length_c   12.16870000
_cell_angle_alpha   109.54933958
_cell_angle_beta   109.39600000
_cell_angle_gamma   109.39399123
_symmetry_Int_Tables_number   1
_chemical_formula_structural   RbSnH6(C2O)6
_chemical_formula_sum   'Rb4 Sn4 H24 C48 O24'
_cell_volume   1383.25456798
_cell_formula_units_Z   4
loop_
 _symmetry_equiv_pos_site_id
 _symmetry_equiv_pos_as_xyz
  1  'x, y, z'
loop_
 _atom_site_type_symbol
 _atom_site_label
 _atom_site_symmetry_multiplicity
 _atom_site_fract_x
 _atom_site_fract_y
 _atom_site_fract_z
 _atom_site_occupancy
  Rb  Rb0  1  0.00022000  0.00011000  0.44029000  1.0
  Rb  Rb1  1  0.00010000  0.44009000  0.99982000  1.0
  Rb  Rb2  1  0.55993000  0.55964000  0.55979000  1.0
  Rb  Rb3  1  0.44039000  0.00000000  0.00006000  1.0
  Sn  Sn4  1  0.99923000  0.99911000  0.78402000  1.0
  Sn  Sn5  1  0.00061000  0.78520000  0.00091000  1.0
  Sn  Sn6  1  0.21537000  0.21597000  0.21509000  1.0
  Sn  Sn7  1  0.78468000  0.00002000  0.00007000  1.0
  H  H8  1  0.68937000  0.96130000  0.39590000  1.0
  H  H9  1  0.31139000  0.70627000  0.27277000  1.0
  H  H10  1  0.56565000  0.29434000  0.60365000  1.0
  H  H11  1  0.43379000  0.03796000  0.72771000  1.0
  H  H12  1  0.27121000  0.30918000  0.70559000  1.0
  H  H13  1  0.39580000  0.68965000  0.96195000  1.0
  H  H14  1  0.72802000  0.43463000  0.03870000  1.0
  H  H15  1  0.60515000  0.56657000  0.29372000  1.0
  H  H16  1  0.03853000  0.72705000  0.43333000  1.0
  H  H17  1  0.29345000  0.60409000  0.56546000  1.0
  H  H18  1  0.70613000  0.27227000  0.31030000  1.0
  H  H19  1  0.96192000  0.39626000  0.69066000  1.0
  H  H20  1  0.73852000  0.26182000  0.74813000  1.0
  H  H21  1  0.26097000  0.00963000  0.52264000  1.0
  H  H22  1  0.51383000  0.99127000  0.25139000  1.0
  H  H23  1  0.48727000  0.73763000  0.47792000  1.0
  H  H24  1  0.52252000  0.26010000  0.00868000  1.0
  H  H25  1  0.74965000  0.74024000  0.26239000  1.0
  H  H26  1  0.47658000  0.48625000  0.73822000  1.0
  H  H27  1  0.25133000  0.51301000  0.99041000  1.0
  H  H28  1  0.73829000  0.47743000  0.48700000  1.0
  H  H29  1  0.99043000  0.25190000  0.51372000  1.0
  H  H30  1  0.00942000  0.52215000  0.25982000  1.0
  H  H31  1  0.26244000  0.74854000  0.73972000  1.0
  C  C32  1  0.72920000  0.11423000  0.58111000  1.0
  C  C33  1  0.27068000  0.85156000  0.38508000  1.0
  C  C34  1  0.53353000  0.14906000  0.41849000  1.0
  C  C35  1  0.46674000  0.88502000  0.61541000  1.0
  C  C36  1  0.38434000  0.26940000  0.85095000  1.0
  C  C37  1  0.58178000  0.73042000  0.11500000  1.0
  C  C38  1  0.61504000  0.46689000  0.88576000  1.0
  C  C39  1  0.41915000  0.53354000  0.14843000  1.0
  C  C40  1  0.88558000  0.61490000  0.46651000  1.0
  C  C41  1  0.14807000  0.41888000  0.53311000  1.0
  C  C42  1  0.85130000  0.38455000  0.26955000  1.0
  C  C43  1  0.11502000  0.58151000  0.73058000  1.0
  C  C44  1  0.83418000  0.09710000  0.66933000  1.0
  C  C45  1  0.16546000  0.83438000  0.26295000  1.0
  C  C46  1  0.42832000  0.16604000  0.33037000  1.0
  C  C47  1  0.57162000  0.90213000  0.73774000  1.0
  C  C48  1  0.26215000  0.16419000  0.83390000  1.0
  C  C49  1  0.66957000  0.83562000  0.09790000  1.0
  C  C50  1  0.73734000  0.57239000  0.90305000  1.0
  C  C51  1  0.33108000  0.42854000  0.16557000  1.0
  C  C52  1  0.90256000  0.73709000  0.57152000  1.0
  C  C53  1  0.16485000  0.33069000  0.42777000  1.0
  C  C54  1  0.83390000  0.26225000  0.16431000  1.0
  C  C55  1  0.09797000  0.66969000  0.83567000  1.0
  C  C56  1  0.66479000  0.03688000  0.44072000  1.0
  C  C57  1  0.33579000  0.77584000  0.37260000  1.0
  C  C58  1  0.59619000  0.22466000  0.55886000  1.0
  C  C59  1  0.40372000  0.96278000  0.62791000  1.0
  C  C60  1  0.37146000  0.33416000  0.77532000  1.0
  C  C61  1  0.44096000  0.66516000  0.03724000  1.0
  C  C62  1  0.62786000  0.40381000  0.96305000  1.0
  C  C63  1  0.55998000  0.59687000  0.22422000  1.0
  C  C64  1  0.96310000  0.62732000  0.40319000  1.0
  C  C65  1  0.22400000  0.55924000  0.59614000  1.0
  C  C66  1  0.77578000  0.37208000  0.33484000  1.0
  C  C67  1  0.03727000  0.44112000  0.66582000  1.0
  C  C68  1  0.69302000  0.20695000  0.63921000  1.0
  C  C69  1  0.30675000  0.94617000  0.51351000  1.0
  C  C70  1  0.56765000  0.05431000  0.36036000  1.0
  C  C71  1  0.43313000  0.79280000  0.48701000  1.0
  C  C72  1  0.51325000  0.30604000  0.94565000  1.0
  C  C73  1  0.64036000  0.69429000  0.20724000  1.0
  C  C74  1  0.48607000  0.43218000  0.79302000  1.0
  C  C75  1  0.36059000  0.56739000  0.05385000  1.0
  C  C76  1  0.79317000  0.48649000  0.43263000  1.0
  C  C77  1  0.05383000  0.36083000  0.56779000  1.0
  C  C78  1  0.94606000  0.51295000  0.30575000  1.0
  C  C79  1  0.20722000  0.63961000  0.69391000  1.0
  O  O80  1  0.85327000  0.00009000  0.61059000  1.0
  O  O81  1  0.14629000  0.75616000  0.14713000  1.0
  O  O82  1  0.39041000  0.24439000  0.38914000  1.0
  O  O83  1  0.60920000  0.99898000  0.85338000  1.0
  O  O84  1  0.14586000  0.14445000  0.75543000  1.0
  O  O85  1  0.61028000  0.85444000  0.00109000  1.0
  O  O86  1  0.85348000  0.61073000  0.00005000  1.0
  O  O87  1  0.39015000  0.39090000  0.24370000  1.0
  O  O88  1  0.99926000  0.85284000  0.60912000  1.0
  O  O89  1  0.24266000  0.38947000  0.38952000  1.0
  O  O90  1  0.75583000  0.14662000  0.14551000  1.0
  O  O91  1  0.00137000  0.61094000  0.85533000  1.0
  O  O92  1  0.89968000  0.17486000  0.79479000  1.0
  O  O93  1  0.09976000  0.89458000  0.27496000  1.0
  O  O94  1  0.38004000  0.10545000  0.20484000  1.0
  O  O95  1  0.61989000  0.82457000  0.72605000  1.0
  O  O96  1  0.27452000  0.09930000  0.89451000  1.0
  O  O97  1  0.79542000  0.90148000  0.17544000  1.0
  O  O98  1  0.72506000  0.62011000  0.82532000  1.0
  O  O99  1  0.20516000  0.38035000  0.10544000  1.0
  O  O100  1  0.82488000  0.72522000  0.61977000  1.0
  O  O101  1  0.10491000  0.20526000  0.38008000  1.0
  O  O102  1  0.89387000  0.27388000  0.09843000  1.0
  O  O103  1  0.17516000  0.79524000  0.90064000  1.0
