# generated using pymatgen
data_MnH8(C3O4)2
_symmetry_space_group_name_H-M   'P 1'
_cell_length_a   7.39170000
_cell_length_b   8.20518000
_cell_length_c   15.00160000
_cell_angle_alpha   90.43080000
_cell_angle_beta   90.37060000
_cell_angle_gamma   89.75890000
_symmetry_Int_Tables_number   1
_chemical_formula_structural   MnH8(C3O4)2
_chemical_formula_sum   'Mn4 H32 C24 O32'
_cell_volume   909.79785403
_cell_formula_units_Z   4
loop_
 _symmetry_equiv_pos_site_id
 _symmetry_equiv_pos_as_xyz
  1  'x, y, z'
loop_
 _atom_site_type_symbol
 _atom_site_label
 _atom_site_symmetry_multiplicity
 _atom_site_fract_x
 _atom_site_fract_y
 _atom_site_fract_z
 _atom_site_occupancy
  Mn  Mn0  1  0.75033000  0.34265000  0.69308000  1.0
  Mn  Mn1  1  0.25694000  0.16956000  0.19488000  1.0
  Mn  Mn2  1  0.74863000  0.84420000  0.80572000  1.0
  Mn  Mn3  1  0.24633000  0.64814000  0.29579000  1.0
  H  H4  1  0.10918000  0.27989000  0.72844000  1.0
  H  H5  1  0.89982000  0.21922000  0.22688000  1.0
  H  H6  1  0.38869000  0.77774000  0.77506000  1.0
  H  H7  1  0.59337000  0.70569000  0.26095000  1.0
  H  H8  1  0.90132000  0.71977000  0.26875000  1.0
  H  H9  1  0.10818000  0.77883000  0.77470000  1.0
  H  H10  1  0.61538000  0.23164000  0.22411000  1.0
  H  H11  1  0.39299000  0.28077000  0.72854000  1.0
  H  H12  1  0.10378000  0.40621000  0.64632000  1.0
  H  H13  1  0.90389000  0.08942000  0.14533000  1.0
  H  H14  1  0.39427000  0.91241000  0.85442000  1.0
  H  H15  1  0.58337000  0.57776000  0.34256000  1.0
  H  H16  1  0.91413000  0.58690000  0.34754000  1.0
  H  H17  1  0.10413000  0.91372000  0.85424000  1.0
  H  H18  1  0.60342000  0.09926000  0.14453000  1.0
  H  H19  1  0.39418000  0.40693000  0.64628000  1.0
  H  H20  1  0.74842000  0.63966000  0.60750000  1.0
  H  H21  1  0.24915000  0.87002000  0.11166000  1.0
  H  H22  1  0.75020000  0.14192000  0.89310000  1.0
  H  H23  1  0.25962000  0.37712000  0.38968000  1.0
  H  H24  1  0.74811000  0.50036000  0.52760000  1.0
  H  H25  1  0.25623000  0.00542000  0.03054000  1.0
  H  H26  1  0.75090000  0.00225000  0.97216000  1.0
  H  H27  1  0.24602000  0.51709000  0.46877000  1.0
  H  H28  1  0.75157000  0.28201000  0.02993000  1.0
  H  H29  1  0.24889000  0.21240000  0.53026000  1.0
  H  H30  1  0.74989000  0.78199000  0.46621000  1.0
  H  H31  1  0.24328000  0.72336000  0.97359000  1.0
  H  H32  1  0.74916000  0.48135000  0.17544000  1.0
  H  H33  1  0.24619000  0.01990000  0.67693000  1.0
  H  H34  1  0.75337000  0.98367000  0.32274000  1.0
  H  H35  1  0.25238000  0.52045000  0.83031000  1.0
  C  C36  1  0.75157000  0.47308000  0.86181000  1.0
  C  C37  1  0.25929000  0.00615000  0.36321000  1.0
  C  C38  1  0.74763000  0.97167000  0.63679000  1.0
  C  C39  1  0.23476000  0.53622000  0.14179000  1.0
  C  C40  1  0.75146000  0.51328000  0.95691000  1.0
  C  C41  1  0.24975000  0.97719000  0.45822000  1.0
  C  C42  1  0.74800000  0.01229000  0.54187000  1.0
  C  C43  1  0.23976000  0.49347000  0.04934000  1.0
  C  C44  1  0.75131000  0.41382000  0.03045000  1.0
  C  C45  1  0.24819000  0.08055000  0.53137000  1.0
  C  C46  1  0.74936000  0.91399000  0.46700000  1.0
  C  C47  1  0.24389000  0.59153000  0.97434000  1.0
  C  C48  1  0.75015000  0.51735000  0.10605000  1.0
  C  C49  1  0.24687000  0.98058000  0.60768000  1.0
  C  C50  1  0.75193000  0.01876000  0.39265000  1.0
  C  C51  1  0.24908000  0.48637000  0.90001000  1.0
  C  C52  1  0.74969000  0.67486000  0.07466000  1.0
  C  C53  1  0.24750000  0.82150000  0.57712000  1.0
  C  C54  1  0.75180000  0.17595000  0.42593000  1.0
  C  C55  1  0.24805000  0.32862000  0.93181000  1.0
  C  C56  1  0.74953000  0.82908000  0.12428000  1.0
  C  C57  1  0.24741000  0.66632000  0.62392000  1.0
  C  C58  1  0.75439000  0.33066000  0.37727000  1.0
  C  C59  1  0.24941000  0.17517000  0.88218000  1.0
  O  O60  1  0.75241000  0.32201000  0.83997000  1.0
  O  O61  1  0.26239000  0.15531000  0.33641000  1.0
  O  O62  1  0.74628000  0.82084000  0.65788000  1.0
  O  O63  1  0.22760000  0.68824000  0.16633000  1.0
  O  O64  1  0.75079000  0.58278000  0.80218000  1.0
  O  O65  1  0.26685000  0.88660000  0.30770000  1.0
  O  O66  1  0.74893000  0.08152000  0.69710000  1.0
  O  O67  1  0.24013000  0.43436000  0.20805000  1.0
  O  O68  1  0.75406000  0.96545000  0.08353000  1.0
  O  O69  1  0.24819000  0.53220000  0.57874000  1.0
  O  O70  1  0.74745000  0.46874000  0.41757000  1.0
  O  O71  1  0.24732000  0.03723000  0.92263000  1.0
  O  O72  1  0.74549000  0.81955000  0.20943000  1.0
  O  O73  1  0.24709000  0.66931000  0.70882000  1.0
  O  O74  1  0.76343000  0.32005000  0.29253000  1.0
  O  O75  1  0.25222000  0.18374000  0.79715000  1.0
  O  O76  1  0.75067000  0.67405000  0.98288000  1.0
  O  O77  1  0.24912000  0.81812000  0.48553000  1.0
  O  O78  1  0.74914000  0.17350000  0.51770000  1.0
  O  O79  1  0.24286000  0.33136000  0.02426000  1.0
  O  O80  1  0.03284000  0.32521000  0.67954000  1.0
  O  O81  1  0.97644000  0.17051000  0.17911000  1.0
  O  O82  1  0.46646000  0.83086000  0.82095000  1.0
  O  O83  1  0.51424000  0.62707000  0.29295000  1.0
  O  O84  1  0.98230000  0.67097000  0.31513000  1.0
  O  O85  1  0.03113000  0.83332000  0.82016000  1.0
  O  O86  1  0.53663000  0.18724000  0.17579000  1.0
  O  O87  1  0.46743000  0.32682000  0.67982000  1.0
  O  O88  1  0.75010000  0.52116000  0.59313000  1.0
  O  O89  1  0.26930000  0.98542000  0.09619000  1.0
  O  O90  1  0.74745000  0.02375000  0.90707000  1.0
  O  O91  1  0.24677000  0.49460000  0.40251000  1.0
