# generated using pymatgen
data_Zr6H25C52Cl5O36
_symmetry_space_group_name_H-M   'P 1'
_cell_length_a   14.75909476
_cell_length_b   14.76940000
_cell_length_c   14.78260000
_cell_angle_alpha   119.89120000
_cell_angle_beta   90.15320044
_cell_angle_gamma   60.10107331
_symmetry_Int_Tables_number   1
_chemical_formula_structural   Zr6H25C52Cl5O36
_chemical_formula_sum   'Zr6 H25 C52 Cl5 O36'
_cell_volume   2288.75735823
_cell_formula_units_Z   1
loop_
 _symmetry_equiv_pos_site_id
 _symmetry_equiv_pos_as_xyz
  1  'x, y, z'
loop_
 _atom_site_type_symbol
 _atom_site_label
 _atom_site_symmetry_multiplicity
 _atom_site_fract_x
 _atom_site_fract_y
 _atom_site_fract_z
 _atom_site_occupancy
  Zr  Zr0  1  0.38474000  0.49332000  0.11594000  1.0
  Zr  Zr1  1  0.62029000  0.50079000  0.88063000  1.0
  Zr  Zr2  1  0.38185000  0.73491000  0.11780000  1.0
  Zr  Zr3  1  0.62275000  0.25800000  0.87809000  1.0
  Zr  Zr4  1  0.62342000  0.49557000  0.11689000  1.0
  Zr  Zr5  1  0.38319000  0.49547000  0.87754000  1.0
  H  H6  1  0.41003000  0.68196000  0.27946000  1.0
  H  H7  1  0.78501000  0.31212000  0.90575000  1.0
  H  H8  1  0.40528000  0.68760000  0.90668000  1.0
  H  H9  1  0.40994000  0.30577000  0.90164000  1.0
  H  H10  1  0.42023000  0.40037000  0.36867000  1.0
  H  H11  1  0.58442000  0.58998000  0.45486000  1.0
  H  H12  1  0.42149000  0.40767000  0.54232000  1.0
  H  H13  1  0.10424000  0.45462000  0.11883000  1.0
  H  H14  1  0.05100000  0.58149000  0.90535000  1.0
  H  H15  1  0.93066000  0.46177000  0.11563000  1.0
  H  H16  1  0.91233000  0.21933000  0.15333000  1.0
  H  H17  1  0.90443000  0.94114000  0.85912000  1.0
  H  H18  1  0.07999000  0.04291000  0.14714000  1.0
  H  H19  1  0.37299000  0.22089000  0.56170000  1.0
  H  H20  1  0.65171000  0.94234000  0.58435000  1.0
  H  H21  1  0.37934000  0.04398000  0.39326000  1.0
  H  H22  1  0.03586000  0.70247000  0.36594000  1.0
  H  H23  1  0.12106000  0.70329000  0.45154000  1.0
  H  H24  1  0.95065000  0.87452000  0.62136000  1.0
  H  H25  1  0.86534000  0.87418000  0.53584000  1.0
  H  H26  1  0.65326000  0.92988000  0.85835000  1.0
  H  H27  1  0.36793000  0.23194000  0.15068000  1.0
  H  H28  1  0.64236000  0.77058000  0.86849000  1.0
  H  H29  1  0.80458000  0.29042000  0.52258000  1.0
  H  H30  1  0.17946000  0.08116000  0.48091000  1.0
  C  C31  1  0.50655000  0.48823000  0.29763000  1.0
  C  C32  1  0.79809000  0.51363000  0.00474000  1.0
  C  C33  1  0.50275000  0.49852000  0.69487000  1.0
  C  C34  1  0.19554000  0.50311000  0.00356000  1.0
  C  C35  1  0.19492000  0.79739000  0.29610000  1.0
  C  C36  1  0.51006000  0.18954000  0.99940000  1.0
  C  C37  1  0.80166000  0.19549000  0.69212000  1.0
  C  C38  1  0.50069000  0.80626000  0.00853000  1.0
  C  C39  1  0.50994000  0.79664000  0.29726000  1.0
  C  C40  1  0.19287000  0.79518000  0.99967000  1.0
  C  C41  1  0.50821000  0.19384000  0.68714000  1.0
  C  C42  1  0.80192000  0.19311000  0.00327000  1.0
  C  C43  1  0.50187000  0.50326000  0.59600000  1.0
  C  C44  1  0.50474000  0.49201000  0.40055000  1.0
  C  C45  1  0.54524000  0.55825000  0.57230000  1.0
  C  C46  1  0.45642000  0.44261000  0.42543000  1.0
  C  C47  1  0.54893000  0.54960000  0.47381000  1.0
  C  C48  1  0.45670000  0.44725000  0.52159000  1.0
  C  C49  1  0.89398000  0.52404000  0.00885000  1.0
  C  C50  1  0.08913000  0.51437000  0.00958000  1.0
  C  C51  1  0.92682000  0.56183000  0.95177000  1.0
  C  C52  1  0.05440000  0.48371000  0.07189000  1.0
  C  C53  1  0.02472000  0.55478000  0.95121000  1.0
  C  C54  1  0.95841000  0.48795000  0.07021000  1.0
  C  C55  1  0.08920000  0.89293000  0.99877000  1.0
  C  C56  1  0.89946000  0.09062000  0.00520000  1.0
  C  C57  1  0.03735000  0.86478000  0.91785000  1.0
  C  C58  1  0.94809000  0.12002000  0.08747000  1.0
  C  C59  1  0.94358000  0.96335000  0.92184000  1.0
  C  C60  1  0.04152000  0.02196000  0.08350000  1.0
  C  C61  1  0.51701000  0.89440000  0.39480000  1.0
  C  C62  1  0.51187000  0.09176000  0.58347000  1.0
  C  C63  1  0.59554000  0.86606000  0.44891000  1.0
  C  C64  1  0.43499000  0.12146000  0.52944000  1.0
  C  C65  1  0.59213000  0.96452000  0.54212000  1.0
  C  C66  1  0.43844000  0.02346000  0.43655000  1.0
  C  C67  1  0.09279000  0.89988000  0.39440000  1.0
  C  C68  1  0.89971000  0.09590000  0.58975000  1.0
  C  C69  1  0.04130000  0.87177000  0.44504000  1.0
  C  C70  1  0.95080000  0.12707000  0.53976000  1.0
  C  C71  1  0.94746000  0.96658000  0.53915000  1.0
  C  C72  1  0.04438000  0.03128000  0.44345000  1.0
  C  C73  1  0.04672000  0.76411000  0.44012000  1.0
  C  C74  1  0.94013000  0.87149000  0.54652000  1.0
  C  C75  1  0.50050000  0.91005000  0.01363000  1.0
  C  C76  1  0.51032000  0.09065000  0.00397000  1.0
  C  C77  1  0.42278000  0.04195000  0.09495000  1.0
  C  C78  1  0.58907000  0.96037000  0.92395000  1.0
  C  C79  1  0.42844000  0.13042000  0.08900000  1.0
  C  C80  1  0.58306000  0.87252000  0.92965000  1.0
  C  C81  1  0.91569000  0.26283000  0.59324000  1.0
  C  C82  1  0.08543000  0.07557000  0.39100000  1.0
  Cl  Cl83  1  0.58898000  0.64507000  0.66391000  1.0
  Cl  Cl84  1  0.85072000  0.62163000  0.88321000  1.0
  Cl  Cl85  1  0.08212000  0.71243000  0.80910000  1.0
  Cl  Cl86  1  0.69887000  0.71391000  0.40945000  1.0
  Cl  Cl87  1  0.31689000  0.10541000  0.20471000  1.0
  O  O88  1  0.43044000  0.48578000  0.25739000  1.0
  O  O89  1  0.75938000  0.50852000  0.92641000  1.0
  O  O90  1  0.58060000  0.49522000  0.73400000  1.0
  O  O91  1  0.23859000  0.49615000  0.07708000  1.0
  O  O92  1  0.23649000  0.83407000  0.25769000  1.0
  O  O93  1  0.58456000  0.15153000  0.92028000  1.0
  O  O94  1  0.76554000  0.15573000  0.73182000  1.0
  O  O95  1  0.42431000  0.83844000  0.08173000  1.0
  O  O96  1  0.58392000  0.67973000  0.25658000  1.0
  O  O97  1  0.23675000  0.67812000  0.92283000  1.0
  O  O98  1  0.42936000  0.30930000  0.72729000  1.0
  O  O99  1  0.76546000  0.30862000  0.07829000  1.0
  O  O100  1  0.23227000  0.83500000  0.07593000  1.0
  O  O101  1  0.58332000  0.15722000  0.72880000  1.0
  O  O102  1  0.76337000  0.15709000  0.92483000  1.0
  O  O103  1  0.42913000  0.83713000  0.26276000  1.0
  O  O104  1  0.23405000  0.68234000  0.25980000  1.0
  O  O105  1  0.57662000  0.69168000  0.92963000  1.0
  O  O106  1  0.76238000  0.31156000  0.73220000  1.0
  O  O107  1  0.43315000  0.30562000  0.07482000  1.0
  O  O108  1  0.23632000  0.49930000  0.92476000  1.0
  O  O109  1  0.58227000  0.49063000  0.25969000  1.0
  O  O110  1  0.76410000  0.50538000  0.07806000  1.0
  O  O111  1  0.42665000  0.49551000  0.73118000  1.0
  O  O112  1  0.43681000  0.35934000  0.92836000  1.0
  O  O113  1  0.43367000  0.63217000  0.93163000  1.0
  O  O114  1  0.70484000  0.36349000  0.93120000  1.0
  O  O115  1  0.43546000  0.62900000  0.19946000  1.0
  O  O116  1  0.55107000  0.59650000  0.04854000  1.0
  O  O117  1  0.55342000  0.39593000  0.04672000  1.0
  O  O118  1  0.55215000  0.39862000  0.84957000  1.0
  O  O119  1  0.35410000  0.59334000  0.04681000  1.0
  O  O120  1  0.83607000  0.33510000  0.56692000  1.0
  O  O121  1  0.96430000  0.30180000  0.65016000  1.0
  O  O122  1  0.16238000  0.09735000  0.42446000  1.0
  O  O123  1  0.04526000  0.10059000  0.32798000  1.0
