# generated using pymatgen
data_AlH16C20O7
_symmetry_space_group_name_H-M   'P 1'
_cell_length_a   6.62372000
_cell_length_b   20.42350000
_cell_length_c   24.10870000
_cell_angle_alpha   89.85670000
_cell_angle_beta   87.13010000
_cell_angle_gamma   87.51710000
_symmetry_Int_Tables_number   1
_chemical_formula_structural   AlH16C20O7
_chemical_formula_sum   'Al4 H64 C80 O28'
_cell_volume   3254.26533433
_cell_formula_units_Z   4
loop_
 _symmetry_equiv_pos_site_id
 _symmetry_equiv_pos_as_xyz
  1  'x, y, z'
loop_
 _atom_site_type_symbol
 _atom_site_label
 _atom_site_symmetry_multiplicity
 _atom_site_fract_x
 _atom_site_fract_y
 _atom_site_fract_z
 _atom_site_occupancy
  Al  Al0  1  0.13121000  0.50434000  0.50198000  1.0
  Al  Al1  1  0.63241000  0.50290000  0.49858000  1.0
  Al  Al2  1  0.71333000  0.99935000  0.99919000  1.0
  Al  Al3  1  0.21350000  0.99889000  0.99849000  1.0
  H  H4  1  0.61043000  0.70407000  0.53233000  1.0
  H  H5  1  0.57507000  0.86709000  0.67457000  1.0
  H  H6  1  0.07466000  0.67693000  0.92752000  1.0
  H  H7  1  0.09051000  0.78272000  0.97838000  1.0
  H  H8  1  0.72129000  0.87733000  0.76578000  1.0
  H  H9  1  0.67021000  0.16465000  0.76654000  1.0
  H  H10  1  0.63631000  0.24139000  0.68669000  1.0
  H  H11  1  0.19573000  0.26379000  0.81528000  1.0
  H  H12  1  0.68397000  0.65790000  0.25959000  1.0
  H  H13  1  0.71198000  0.73247000  0.17762000  1.0
  H  H14  1  0.47985000  0.11865000  0.34554000  1.0
  H  H15  1  0.47476000  0.11378000  0.16512000  1.0
  H  H16  1  0.50240000  0.11645000  0.24440000  1.0
  H  H17  1  0.97098000  0.61679000  0.84986000  1.0
  H  H18  1  0.53878000  0.80590000  0.58887000  1.0
  H  H19  1  0.16133000  0.34061000  0.73571000  1.0
  H  H20  1  0.14885000  0.83217000  0.23137000  1.0
  H  H21  1  0.12081000  0.75766000  0.31329000  1.0
  H  H22  1  0.43364000  0.46721000  0.19139000  1.0
  H  H23  1  0.17004000  0.45244000  0.19806000  1.0
  H  H24  1  0.12938000  0.49316000  0.10005000  1.0
  H  H25  1  0.23075000  0.55428000  0.14198000  1.0
  H  H26  1  0.39241000  0.50828000  0.09378000  1.0
  H  H27  1  0.25795000  0.69376000  0.66238000  1.0
  H  H28  1  0.28298000  0.64331000  0.60133000  1.0
  H  H29  1  0.54779000  0.61118000  0.66904000  1.0
  H  H30  1  0.35464000  0.59649000  0.72079000  1.0
  H  H31  1  0.38105000  0.54658000  0.65978000  1.0
  H  H32  1  0.71320000  0.38507000  0.27772000  1.0
  H  H33  1  0.76632000  0.40095000  0.34825000  1.0
  H  H34  1  0.84173000  0.49726000  0.28548000  1.0
  H  H35  1  0.65250000  0.51830000  0.33822000  1.0
  H  H36  1  0.58218000  0.50367000  0.26902000  1.0
  H  H37  1  0.09839000  0.24149000  0.49658000  1.0
  H  H38  1  0.10249000  0.31870000  0.53040000  1.0
  H  H39  1  0.30101000  0.26669000  0.60638000  1.0
  H  H40  1  0.06800000  0.22794000  0.60011000  1.0
  H  H41  1  0.29820000  0.18921000  0.57222000  1.0
  H  H42  1  0.36016000  0.32265000  0.06271000  1.0
  H  H43  1  0.67318000  0.21702000  0.97442000  1.0
  H  H44  1  0.53008000  0.29325000  0.97213000  1.0
  H  H45  1  0.31978000  0.24537000  0.89849000  1.0
  H  H46  1  0.58160000  0.24645000  0.87631000  1.0
  H  H47  1  0.47461000  0.17180000  0.89940000  1.0
  H  H48  1  0.36136000  0.38694000  0.25247000  1.0
  H  H49  1  0.18797000  0.12008000  0.39337000  1.0
  H  H50  1  0.09637000  0.15394000  0.45817000  1.0
  H  H51  1  0.30764000  0.06926000  0.50838000  1.0
  H  H52  1  0.13359000  0.03200000  0.46552000  1.0
  H  H53  1  0.39434000  0.03410000  0.44352000  1.0
  H  H54  1  0.11744000  0.88607000  0.76327000  1.0
  H  H55  1  0.21068000  0.92350000  0.82325000  1.0
  H  H56  1  0.99266000  0.02525000  0.80585000  1.0
  H  H57  1  0.16174000  0.00659000  0.74789000  1.0
  H  H58  1  0.90222000  0.98788000  0.74557000  1.0
  H  H59  1  0.77149000  0.54370000  0.81661000  1.0
  H  H60  1  0.02555000  0.53503000  0.78801000  1.0
  H  H61  1  0.90266000  0.48491000  0.70191000  1.0
  H  H62  1  0.82139000  0.43960000  0.76161000  1.0
  H  H63  1  0.64800000  0.49432000  0.72870000  1.0
  H  H64  1  0.37841000  0.48595000  0.57036000  1.0
  H  H65  1  0.90881000  0.45921000  0.43931000  1.0
  H  H66  1  0.48458000  0.96765000  0.93138000  1.0
  H  H67  1  0.94725000  0.03259000  0.06537000  1.0
  C  C68  1  0.37625000  0.57941000  0.42412000  1.0
  C  C69  1  0.40781000  0.40350000  0.44464000  1.0
  C  C70  1  0.87841000  0.42733000  0.57896000  1.0
  C  C71  1  0.85134000  0.60190000  0.55487000  1.0
  C  C72  1  0.99166000  0.84087000  0.90900000  1.0
  C  C73  1  0.81500000  0.66111000  0.59051000  1.0
  C  C74  1  0.03499000  0.72332000  0.90741000  1.0
  C  C75  1  0.04398000  0.78154000  0.93567000  1.0
  C  C76  1  0.93562000  0.84130000  0.85407000  1.0
  C  C77  1  0.91777000  0.78189000  0.82417000  1.0
  C  C78  1  0.97177000  0.72215000  0.85218000  1.0
  C  C79  1  0.84891000  0.77786000  0.76808000  1.0
  C  C80  1  0.86401000  0.71712000  0.73905000  1.0
  C  C81  1  0.89240000  0.65807000  0.77143000  1.0
  C  C82  1  0.95032000  0.66121000  0.82539000  1.0
  C  C83  1  0.74613000  0.83218000  0.74227000  1.0
  C  C84  1  0.66659000  0.82665000  0.69132000  1.0
  C  C85  1  0.70583000  0.76949000  0.65826000  1.0
  C  C86  1  0.82289000  0.71600000  0.68056000  1.0
  C  C87  1  0.63288000  0.76530000  0.60425000  1.0
  C  C88  1  0.67604000  0.71018000  0.57246000  1.0
  C  C89  1  0.89725000  0.66569000  0.64267000  1.0
  C  C90  1  0.75789000  0.24613000  0.71509000  1.0
  C  C91  1  0.89602000  0.29627000  0.70616000  1.0
  C  C92  1  0.05441000  0.30199000  0.74276000  1.0
  C  C93  1  0.07366000  0.25915000  0.78706000  1.0
  C  C94  1  0.93500000  0.20915000  0.79625000  1.0
  C  C95  1  0.77707000  0.20328000  0.75947000  1.0
  C  C96  1  0.87953000  0.34063000  0.66136000  1.0
  C  C97  1  0.95155000  0.16556000  0.84169000  1.0
  C  C98  1  0.95940000  0.12758000  0.88064000  1.0
  C  C99  1  0.87426000  0.37999000  0.62335000  1.0
  C  C100  1  0.58302000  0.73752000  0.20742000  1.0
  C  C101  1  0.43235000  0.78719000  0.19932000  1.0
  C  C102  1  0.26487000  0.79381000  0.23784000  1.0
  C  C103  1  0.24926000  0.75238000  0.28335000  1.0
  C  C104  1  0.40086000  0.70310000  0.29170000  1.0
  C  C105  1  0.56760000  0.69612000  0.25296000  1.0
  C  C106  1  0.44885000  0.83075000  0.15382000  1.0
  C  C107  1  0.38748000  0.66123000  0.33836000  1.0
  C  C108  1  0.37926000  0.62471000  0.37833000  1.0
  C  C109  1  0.45998000  0.86958000  0.11548000  1.0
  C  C110  1  0.42656000  0.15888000  0.08711000  1.0
  C  C111  1  0.41278000  0.34091000  0.41195000  1.0
  C  C112  1  0.38590000  0.27701000  0.08517000  1.0
  C  C113  1  0.39554000  0.21785000  0.05726000  1.0
  C  C114  1  0.44879000  0.16022000  0.14382000  1.0
  C  C115  1  0.43504000  0.21966000  0.17402000  1.0
  C  C116  1  0.40203000  0.27868000  0.14333000  1.0
  C  C117  1  0.44714000  0.22170000  0.23382000  1.0
  C  C118  1  0.42547000  0.28290000  0.26185000  1.0
  C  C119  1  0.38757000  0.34106000  0.23018000  1.0
  C  C120  1  0.37696000  0.33925000  0.17344000  1.0
  C  C121  1  0.47428000  0.16329000  0.26545000  1.0
  C  C122  1  0.46121000  0.16404000  0.32221000  1.0
  C  C123  1  0.42935000  0.22397000  0.35216000  1.0
  C  C124  1  0.43032000  0.28478000  0.32203000  1.0
  C  C125  1  0.40417000  0.22291000  0.41109000  1.0
  C  C126  1  0.39306000  0.28136000  0.44094000  1.0
  C  C127  1  0.43424000  0.34305000  0.35444000  1.0
  C  C128  1  0.43409000  0.09569000  0.05585000  1.0
  C  C129  1  0.46819000  0.91827000  0.07207000  1.0
  C  C130  1  0.99115000  0.90342000  0.94081000  1.0
  C  C131  1  0.95777000  0.07979000  0.92500000  1.0
  C  C132  1  0.30091000  0.45527000  0.16804000  1.0
  C  C133  1  0.26103000  0.50564000  0.12324000  1.0
  C  C134  1  0.24957000  0.64333000  0.64656000  1.0
  C  C135  1  0.39131000  0.59655000  0.67583000  1.0
  C  C136  1  0.66956000  0.41606000  0.31418000  1.0
  C  C137  1  0.68662000  0.48814000  0.30106000  1.0
  C  C138  1  0.18469000  0.27105000  0.52435000  1.0
  C  C139  1  0.21537000  0.23650000  0.57902000  1.0
  C  C140  1  0.52509000  0.24001000  0.96488000  1.0
  C  C141  1  0.47216000  0.22501000  0.90607000  1.0
  C  C142  1  0.22538000  0.12666000  0.43697000  1.0
  C  C143  1  0.26809000  0.06165000  0.46523000  1.0
  C  C144  1  0.08065000  0.92249000  0.79640000  1.0
  C  C145  1  0.03047000  0.98948000  0.77266000  1.0
  C  C146  1  0.86557000  0.54154000  0.77743000  1.0
  C  C147  1  0.80571000  0.48693000  0.74014000  1.0
  O  O148  1  0.57610000  0.42395000  0.45895000  1.0
  O  O149  1  0.20459000  0.56775000  0.44700000  1.0
  O  O150  1  0.02722000  0.57491000  0.54811000  1.0
  O  O151  1  0.23405000  0.43087000  0.45525000  1.0
  O  O152  1  0.05401000  0.44222000  0.56017000  1.0
  O  O153  1  0.54702000  0.55434000  0.43690000  1.0
  O  O154  1  0.37743000  0.50730000  0.53437000  1.0
  O  O155  1  0.70881000  0.44989000  0.56304000  1.0
  O  O156  1  0.69244000  0.58172000  0.53385000  1.0
  O  O157  1  0.89173000  0.49368000  0.46700000  1.0
  O  O158  1  0.29915000  0.94559000  0.06030000  1.0
  O  O159  1  0.60515000  0.06482000  0.05031000  1.0
  O  O160  1  0.78445000  0.06917000  0.94750000  1.0
  O  O161  1  0.64240000  0.93004000  0.05072000  1.0
  O  O162  1  0.82187000  0.93479000  0.94801000  1.0
  O  O163  1  0.26967000  0.07722000  0.03747000  1.0
  O  O164  1  0.47057000  0.99445000  0.96461000  1.0
  O  O165  1  0.15732000  0.92013000  0.95986000  1.0
  O  O166  1  0.12703000  0.05227000  0.93605000  1.0
  O  O167  1  0.95701000  0.00464000  0.03281000  1.0
  O  O168  1  0.33806000  0.39305000  0.14115000  1.0
  O  O169  1  0.04552000  0.62151000  0.65777000  1.0
  O  O170  1  0.46048000  0.40494000  0.33167000  1.0
  O  O171  1  0.38137000  0.28296000  0.49791000  1.0
  O  O172  1  0.37008000  0.21275000  0.00120000  1.0
  O  O173  1  0.40504000  0.16427000  0.43966000  1.0
  O  O174  1  0.90567000  0.90229000  0.82978000  1.0
  O  O175  1  0.83788000  0.60181000  0.74768000  1.0
