# generated using pymatgen
data_CuH12C9(N3O2)2
_symmetry_space_group_name_H-M   'P 1'
_cell_length_a   8.91609000
_cell_length_b   8.91621000
_cell_length_c   9.45652000
_cell_angle_alpha   69.05010000
_cell_angle_beta   69.05010000
_cell_angle_gamma   80.66070000
_symmetry_Int_Tables_number   1
_chemical_formula_structural   CuH12C9(N3O2)2
_chemical_formula_sum   'Cu2 H24 C18 N12 O8'
_cell_volume   655.15173765
_cell_formula_units_Z   2
loop_
 _symmetry_equiv_pos_site_id
 _symmetry_equiv_pos_as_xyz
  1  'x, y, z'
loop_
 _atom_site_type_symbol
 _atom_site_label
 _atom_site_symmetry_multiplicity
 _atom_site_fract_x
 _atom_site_fract_y
 _atom_site_fract_z
 _atom_site_occupancy
  Cu  Cu0  1  0.50000000  0.00000000  0.00000000  1.0
  Cu  Cu1  1  0.00000000  0.50000000  0.50000000  1.0
  H  H2  1  0.30651000  0.10682000  0.74151000  1.0
  H  H3  1  0.89317000  0.69349000  0.75849000  1.0
  H  H4  1  0.69349000  0.89318000  0.25849000  1.0
  H  H5  1  0.10682000  0.30651000  0.24151000  1.0
  H  H6  1  0.27318000  0.68255000  0.14101000  1.0
  H  H7  1  0.31745000  0.72682000  0.35899000  1.0
  H  H8  1  0.72682000  0.31746000  0.85899000  1.0
  H  H9  1  0.68255000  0.27318000  0.64101000  1.0
  H  H10  1  0.07751000  0.06897000  0.67449000  1.0
  H  H11  1  0.93102000  0.92250000  0.82550000  1.0
  H  H12  1  0.92249000  0.93103000  0.32550000  1.0
  H  H13  1  0.06897000  0.07751000  0.17450000  1.0
  H  H14  1  0.16811000  0.39098000  0.81584000  1.0
  H  H15  1  0.60903000  0.83188000  0.68416000  1.0
  H  H16  1  0.83190000  0.60901000  0.18417000  1.0
  H  H17  1  0.39097000  0.16812000  0.31584000  1.0
  H  H18  1  0.20778000  0.50650000  0.91672000  1.0
  H  H19  1  0.49350000  0.79222000  0.58328000  1.0
  H  H20  1  0.79223000  0.49349000  0.08328000  1.0
  H  H21  1  0.50650000  0.20778000  0.41672000  1.0
  H  H22  1  0.34971000  0.49475000  0.72856000  1.0
  H  H23  1  0.50526000  0.65028000  0.77144000  1.0
  H  H24  1  0.65029000  0.50524000  0.27145000  1.0
  H  H25  1  0.49474000  0.34972000  0.22856000  1.0
  C  C26  1  0.05708000  0.94291000  0.75000000  1.0
  C  C27  1  0.94291000  0.05709000  0.25000000  1.0
  C  C28  1  0.27484000  0.99168000  0.83543000  1.0
  C  C29  1  0.00832000  0.72515000  0.66457000  1.0
  C  C30  1  0.72515000  0.00833000  0.16457000  1.0
  C  C31  1  0.99168000  0.27484000  0.33543000  1.0
  C  C32  1  0.25181000  0.77612000  0.03793000  1.0
  C  C33  1  0.22389000  0.74819000  0.46208000  1.0
  C  C34  1  0.74818000  0.22389000  0.96207000  1.0
  C  C35  1  0.77612000  0.25181000  0.53792000  1.0
  C  C36  1  0.33958000  0.27942000  0.93210000  1.0
  C  C37  1  0.72058000  0.66042000  0.56789000  1.0
  C  C38  1  0.66043000  0.72058000  0.06790000  1.0
  C  C39  1  0.27942000  0.33958000  0.43212000  1.0
  C  C40  1  0.26349000  0.42910000  0.84254000  1.0
  C  C41  1  0.57091000  0.73651000  0.65746000  1.0
  C  C42  1  0.73652000  0.57090000  0.15747000  1.0
  C  C43  1  0.42909000  0.26349000  0.34254000  1.0
  N  N44  1  0.15801000  0.90328000  0.85045000  1.0
  N  N45  1  0.09672000  0.84199000  0.64955000  1.0
  N  N46  1  0.84199000  0.09672000  0.14954000  1.0
  N  N47  1  0.90328000  0.15801000  0.35045000  1.0
  N  N48  1  0.33588000  0.91448000  0.95387000  1.0
  N  N49  1  0.08552000  0.66412000  0.54613000  1.0
  N  N50  1  0.66412000  0.08552000  0.04613000  1.0
  N  N51  1  0.91448000  0.33588000  0.45387000  1.0
  N  N52  1  0.14100000  0.76565000  0.97886000  1.0
  N  N53  1  0.23435000  0.85899000  0.52114000  1.0
  N  N54  1  0.85900000  0.23435000  0.02113000  1.0
  N  N55  1  0.76566000  0.14101000  0.47886000  1.0
  O  O56  1  0.46670000  0.21746000  0.84806000  1.0
  O  O57  1  0.78254000  0.53329000  0.65193000  1.0
  O  O58  1  0.53330000  0.78254000  0.15193000  1.0
  O  O59  1  0.21746000  0.46671000  0.34807000  1.0
  O  O60  1  0.27684000  0.21305000  0.08049000  1.0
  O  O61  1  0.78696000  0.72316000  0.41950000  1.0
  O  O62  1  0.72317000  0.78695000  0.91951000  1.0
  O  O63  1  0.21304000  0.27683000  0.58051000  1.0
