# generated using pymatgen
data_Ag2H18C23N12
_symmetry_space_group_name_H-M   'P 1'
_cell_length_a   7.78877000
_cell_length_b   8.26966000
_cell_length_c   10.31700000
_cell_angle_alpha   76.55600000
_cell_angle_beta   85.65920000
_cell_angle_gamma   89.61600000
_symmetry_Int_Tables_number   1
_chemical_formula_structural   Ag2H18C23N12
_chemical_formula_sum   'Ag2 H18 C23 N12'
_cell_volume   644.41878288
_cell_formula_units_Z   1
loop_
 _symmetry_equiv_pos_site_id
 _symmetry_equiv_pos_as_xyz
  1  'x, y, z'
loop_
 _atom_site_type_symbol
 _atom_site_label
 _atom_site_symmetry_multiplicity
 _atom_site_fract_x
 _atom_site_fract_y
 _atom_site_fract_z
 _atom_site_occupancy
  Ag  Ag0  1  0.81245000  0.84789000  0.46425000  1.0
  Ag  Ag1  1  0.65292000  0.67332000  0.12204000  1.0
  H  H2  1  0.04595000  0.82059000  0.96271000  1.0
  H  H3  1  0.14079000  0.39964000  0.81530000  1.0
  H  H4  1  0.98298000  0.52638000  0.61286000  1.0
  H  H5  1  0.77164000  0.02015000  0.69295000  1.0
  H  H6  1  0.98715000  0.09251000  0.68096000  1.0
  H  H7  1  0.86699000  0.04564000  0.83948000  1.0
  H  H8  1  0.42770000  0.68213000  0.61629000  1.0
  H  H9  1  0.32729000  0.10948000  0.75320000  1.0
  H  H10  1  0.47359000  0.98645000  0.96133000  1.0
  H  H11  1  0.69156000  0.48846000  0.89342000  1.0
  H  H12  1  0.60119000  0.45975000  0.74586000  1.0
  H  H13  1  0.47674000  0.41533000  0.90224000  1.0
  H  H14  1  0.98332000  0.59566000  0.30678000  1.0
  H  H15  1  0.49297000  0.93785000  0.28899000  1.0
  H  H16  1  0.20956000  0.00385000  0.40047000  1.0
  H  H17  1  0.40622000  0.43361000  0.19310000  1.0
  H  H18  1  0.24041000  0.51013000  0.08508000  1.0
  H  H19  1  0.18559000  0.38027000  0.24590000  1.0
  C  C20  1  0.52231000  0.33026000  0.47666000  1.0
  C  C21  1  0.60604000  0.19146000  0.44799000  1.0
  C  C22  1  0.61815000  0.47473000  0.47060000  1.0
  C  C23  1  0.34397000  0.32449000  0.51216000  1.0
  C  C24  1  0.94278000  0.18856000  0.10167000  1.0
  C  C25  1  0.84435000  0.04496000  0.11121000  1.0
  C  C26  1  0.86395000  0.33011000  0.12951000  1.0
  C  C27  1  0.11870000  0.18706000  0.05914000  1.0
  C  C28  1  0.95282000  0.83239000  0.76771000  1.0
  C  C29  1  0.03397000  0.75528000  0.88312000  1.0
  C  C30  1  0.08436000  0.52290000  0.80300000  1.0
  C  C31  1  0.99897000  0.59383000  0.69038000  1.0
  C  C32  1  0.89049000  0.00714000  0.74496000  1.0
  C  C33  1  0.51218000  0.67523000  0.81307000  1.0
  C  C34  1  0.43606000  0.75011000  0.69455000  1.0
  C  C35  1  0.38251000  0.98548000  0.76867000  1.0
  C  C36  1  0.46222000  0.91653000  0.88483000  1.0
  C  C37  1  0.57454000  0.50024000  0.83926000  1.0
  C  C38  1  0.09815000  0.67187000  0.30336000  1.0
  C  C39  1  0.25641000  0.62931000  0.24624000  1.0
  C  C40  1  0.37859000  0.86071000  0.29390000  1.0
  C  C41  1  0.22211000  0.89866000  0.35354000  1.0
  C  C42  1  0.27358000  0.47943000  0.19006000  1.0
  N  N43  1  0.67753000  0.07565000  0.42345000  1.0
  N  N44  1  0.69781000  0.59580000  0.46684000  1.0
  N  N45  1  0.19521000  0.31924000  0.54182000  1.0
  N  N46  1  0.76591000  0.92298000  0.11596000  1.0
  N  N47  1  0.79468000  0.44761000  0.15298000  1.0
  N  N48  1  0.26472000  0.18319000  0.02236000  1.0
  N  N49  1  0.93414000  0.74768000  0.67279000  1.0
  N  N50  1  0.10056000  0.60320000  0.90052000  1.0
  N  N51  1  0.52645000  0.76211000  0.90727000  1.0
  N  N52  1  0.37041000  0.90297000  0.67186000  1.0
  N  N53  1  0.08086000  0.80477000  0.35633000  1.0
  N  N54  1  0.39573000  0.72721000  0.24070000  1.0
