# generated using pymatgen
data_NdPH15C7NO7
_symmetry_space_group_name_H-M   'P 1'
_cell_length_a   5.04912000
_cell_length_b   12.62810000
_cell_length_c   20.59245736
_cell_angle_alpha   89.99892926
_cell_angle_beta   84.87328653
_cell_angle_gamma   89.99810000
_symmetry_Int_Tables_number   1
_chemical_formula_structural   NdPH15C7NO7
_chemical_formula_sum   'Nd4 P4 H60 C28 N4 O28'
_cell_volume   1307.73878807
_cell_formula_units_Z   4
loop_
 _symmetry_equiv_pos_site_id
 _symmetry_equiv_pos_as_xyz
  1  'x, y, z'
loop_
 _atom_site_type_symbol
 _atom_site_label
 _atom_site_symmetry_multiplicity
 _atom_site_fract_x
 _atom_site_fract_y
 _atom_site_fract_z
 _atom_site_occupancy
  Nd  Nd0  1  0.48692000  0.14817000  0.02087000  1.0
  Nd  Nd1  1  0.01306000  0.64818000  0.47912000  1.0
  Nd  Nd2  1  0.51308000  0.85183000  0.97913000  1.0
  Nd  Nd3  1  0.98694000  0.35183000  0.52088000  1.0
  P  P4  1  0.01789000  0.02735000  0.91488000  1.0
  P  P5  1  0.48211000  0.52736000  0.58512000  1.0
  P  P6  1  0.98209000  0.97265000  0.08512000  1.0
  P  P7  1  0.51788000  0.47266000  0.41488000  1.0
  H  H8  1  0.56152000  0.18865000  0.88062000  1.0
  H  H9  1  0.93852000  0.68865000  0.61937000  1.0
  H  H10  1  0.43850000  0.81135000  0.11938000  1.0
  H  H11  1  0.06147000  0.31135000  0.38063000  1.0
  H  H12  1  0.81003000  0.24284000  0.90701000  1.0
  H  H13  1  0.68999000  0.74285000  0.59299000  1.0
  H  H14  1  0.18999000  0.75715000  0.09299000  1.0
  H  H15  1  0.31002000  0.25716000  0.40701000  1.0
  H  H16  1  0.62196000  0.37479000  0.04818000  1.0
  H  H17  1  0.87793000  0.87479000  0.45183000  1.0
  H  H18  1  0.37802000  0.62521000  0.95184000  1.0
  H  H19  1  0.12209000  0.12523000  0.54817000  1.0
  H  H20  1  0.91694000  0.32169000  0.04523000  1.0
  H  H21  1  0.58297000  0.82170000  0.45477000  1.0
  H  H22  1  0.08304000  0.67829000  0.95478000  1.0
  H  H23  1  0.41703000  0.17831000  0.54523000  1.0
  H  H24  1  0.93139000  0.96386000  0.81210000  1.0
  H  H25  1  0.56870000  0.46387000  0.68789000  1.0
  H  H26  1  0.06862000  0.03614000  0.18789000  1.0
  H  H27  1  0.43131000  0.53614000  0.31211000  1.0
  H  H28  1  0.80016000  0.09115000  0.82161000  1.0
  H  H29  1  0.69988000  0.59117000  0.67837000  1.0
  H  H30  1  0.19984000  0.90884000  0.17838000  1.0
  H  H31  1  0.30011000  0.40884000  0.32163000  1.0
  H  H32  1  0.03846000  0.05816000  0.69888000  1.0
  H  H33  1  0.46159000  0.55815000  0.80112000  1.0
  H  H34  1  0.96152000  0.94184000  0.30112000  1.0
  H  H35  1  0.53841000  0.44183000  0.19888000  1.0
  H  H36  1  0.23113000  0.95232000  0.72688000  1.0
  H  H37  1  0.26894000  0.45230000  0.77311000  1.0
  H  H38  1  0.76886000  0.04768000  0.27311000  1.0
  H  H39  1  0.73104000  0.54769000  0.22688000  1.0
  H  H40  1  0.45377000  0.04273000  0.62929000  1.0
  H  H41  1  0.04632000  0.54271000  0.87071000  1.0
  H  H42  1  0.54623000  0.95728000  0.37071000  1.0
  H  H43  1  0.95368000  0.45728000  0.12929000  1.0
  H  H44  1  0.64426000  0.04912000  0.69737000  1.0
  H  H45  1  0.85580000  0.54912000  0.80263000  1.0
  H  H46  1  0.35573000  0.95089000  0.30263000  1.0
  H  H47  1  0.14419000  0.45088000  0.19736000  1.0
  H  H48  1  0.27635000  0.22466000  0.65520000  1.0
  H  H49  1  0.22370000  0.72465000  0.84480000  1.0
  H  H50  1  0.72367000  0.77535000  0.34480000  1.0
  H  H51  1  0.77630000  0.27534000  0.15520000  1.0
  H  H52  1  0.45536000  0.32869000  0.74351000  1.0
  H  H53  1  0.04465000  0.82869000  0.75650000  1.0
  H  H54  1  0.54466000  0.67130000  0.25649000  1.0
  H  H55  1  0.95535000  0.17132000  0.24351000  1.0
  H  H56  1  0.64228000  0.21901000  0.76549000  1.0
  H  H57  1  0.85774000  0.71901000  0.73452000  1.0
  H  H58  1  0.35771000  0.78099000  0.23451000  1.0
  H  H59  1  0.14225000  0.28099000  0.26548000  1.0
  H  H60  1  0.21282000  0.22981000  0.83598000  1.0
  H  H61  1  0.28718000  0.72983000  0.66402000  1.0
  H  H62  1  0.78720000  0.77018000  0.16402000  1.0
  H  H63  1  0.71283000  0.27018000  0.33598000  1.0
  H  H64  1  0.03537000  0.23102000  0.76520000  1.0
  H  H65  1  0.46464000  0.73103000  0.73480000  1.0
  H  H66  1  0.96463000  0.76898000  0.23480000  1.0
  H  H67  1  0.53535000  0.26897000  0.26521000  1.0
  C  C68  1  0.98148000  0.04398000  0.82787000  1.0
  C  C69  1  0.51856000  0.54399000  0.67213000  1.0
  C  C70  1  0.01854000  0.95603000  0.17212000  1.0
  C  C71  1  0.48144000  0.45602000  0.32787000  1.0
  C  C72  1  0.22289000  0.03874000  0.72228000  1.0
  C  C73  1  0.27716000  0.53873000  0.77771000  1.0
  C  C74  1  0.77712000  0.96127000  0.27771000  1.0
  C  C75  1  0.72283000  0.46125000  0.22229000  1.0
  C  C76  1  0.46028000  0.07712000  0.67814000  1.0
  C  C77  1  0.03978000  0.57713000  0.82187000  1.0
  C  C78  1  0.53972000  0.92289000  0.32186000  1.0
  C  C79  1  0.96023000  0.42286000  0.17813000  1.0
  C  C80  1  0.46171000  0.19842000  0.67518000  1.0
  C  C81  1  0.03832000  0.69843000  0.82482000  1.0
  C  C82  1  0.53829000  0.80159000  0.32482000  1.0
  C  C83  1  0.96167000  0.30156000  0.17518000  1.0
  C  C84  1  0.45900000  0.24205000  0.74414000  1.0
  C  C85  1  0.04103000  0.74206000  0.75587000  1.0
  C  C86  1  0.54102000  0.75795000  0.25586000  1.0
  C  C87  1  0.95897000  0.25794000  0.24414000  1.0
  C  C88  1  0.21668000  0.20008000  0.78573000  1.0
  C  C89  1  0.28334000  0.70010000  0.71428000  1.0
  C  C90  1  0.78334000  0.79991000  0.21428000  1.0
  C  C91  1  0.71666000  0.29991000  0.28573000  1.0
  C  C92  1  0.68060000  0.24017000  0.62711000  1.0
  C  C93  1  0.81945000  0.74015000  0.87290000  1.0
  C  C94  1  0.31940000  0.75986000  0.37290000  1.0
  C  C95  1  0.18052000  0.25985000  0.12710000  1.0
  N  N96  1  0.21421000  0.08390000  0.78799000  1.0
  N  N97  1  0.28583000  0.58391000  0.71201000  1.0
  N  N98  1  0.78580000  0.91610000  0.21200000  1.0
  N  N99  1  0.71417000  0.41609000  0.28799000  1.0
  O  O100  1  0.72222000  0.01765000  0.94530000  1.0
  O  O101  1  0.77778000  0.51766000  0.55469000  1.0
  O  O102  1  0.27777000  0.98234000  0.05469000  1.0
  O  O103  1  0.22220000  0.48234000  0.44531000  1.0
  O  O104  1  0.15136000  0.12604000  0.94159000  1.0
  O  O105  1  0.34861000  0.62605000  0.55841000  1.0
  O  O106  1  0.84864000  0.87395000  0.05840000  1.0
  O  O107  1  0.65139000  0.37395000  0.44159000  1.0
  O  O108  1  0.16615000  0.92300000  0.92335000  1.0
  O  O109  1  0.33387000  0.42301000  0.57665000  1.0
  O  O110  1  0.83385000  0.07699000  0.07664000  1.0
  O  O111  1  0.66612000  0.57700000  0.42335000  1.0
  O  O112  1  0.69217000  0.20279000  0.56792000  1.0
  O  O113  1  0.80786000  0.70276000  0.93208000  1.0
  O  O114  1  0.30783000  0.79722000  0.43208000  1.0
  O  O115  1  0.19210000  0.29721000  0.06792000  1.0
  O  O116  1  0.84343000  0.31024000  0.64163000  1.0
  O  O117  1  0.65666000  0.81025000  0.85838000  1.0
  O  O118  1  0.15655000  0.68977000  0.35837000  1.0
  O  O119  1  0.34338000  0.18975000  0.14163000  1.0
  O  O120  1  0.61542000  0.24222000  0.91107000  1.0
  O  O121  1  0.88458000  0.74222000  0.58892000  1.0
  O  O122  1  0.38461000  0.75778000  0.08893000  1.0
  O  O123  1  0.11541000  0.25779000  0.41108000  1.0
  O  O124  1  0.73427000  0.31941000  0.02788000  1.0
  O  O125  1  0.76564000  0.81943000  0.47212000  1.0
  O  O126  1  0.26572000  0.68057000  0.97212000  1.0
  O  O127  1  0.23435000  0.18059000  0.52789000  1.0
