# generated using pymatgen
data_PrH6C8NO8
_symmetry_space_group_name_H-M   'P 1'
_cell_length_a   6.82574000
_cell_length_b   11.81640000
_cell_length_c   13.53110000
_cell_angle_alpha   90.00000000
_cell_angle_beta   97.91270000
_cell_angle_gamma   89.99960000
_symmetry_Int_Tables_number   1
_chemical_formula_structural   PrH6C8NO8
_chemical_formula_sum   'Pr4 H24 C32 N4 O32'
_cell_volume   1080.96912474
_cell_formula_units_Z   4
loop_
 _symmetry_equiv_pos_site_id
 _symmetry_equiv_pos_as_xyz
  1  'x, y, z'
loop_
 _atom_site_type_symbol
 _atom_site_label
 _atom_site_symmetry_multiplicity
 _atom_site_fract_x
 _atom_site_fract_y
 _atom_site_fract_z
 _atom_site_occupancy
  Pr  Pr0  1  0.92374000  0.17766000  0.24467000  1.0
  Pr  Pr1  1  0.07626000  0.67766000  0.25533000  1.0
  Pr  Pr2  1  0.07626000  0.82234000  0.75533000  1.0
  Pr  Pr3  1  0.92374000  0.32234000  0.74467000  1.0
  H  H4  1  0.16784000  0.06250000  0.04730000  1.0
  H  H5  1  0.83216000  0.56250000  0.45271000  1.0
  H  H6  1  0.83216000  0.93750000  0.95270000  1.0
  H  H7  1  0.16784000  0.43750000  0.54730000  1.0
  H  H8  1  0.55387000  0.19384000  0.84653000  1.0
  H  H9  1  0.44612000  0.69384000  0.65347000  1.0
  H  H10  1  0.44613000  0.80616000  0.15347000  1.0
  H  H11  1  0.55388000  0.30616000  0.34653000  1.0
  H  H12  1  0.74988000  0.44537000  0.23651000  1.0
  H  H13  1  0.25013000  0.94537000  0.26349000  1.0
  H  H14  1  0.25012000  0.55463000  0.76349000  1.0
  H  H15  1  0.74988000  0.05463000  0.73651000  1.0
  H  H16  1  0.60986000  0.36561000  0.16595000  1.0
  H  H17  1  0.39014000  0.86561000  0.33405000  1.0
  H  H18  1  0.39014000  0.63439000  0.83405000  1.0
  H  H19  1  0.60986000  0.13439000  0.66594000  1.0
  H  H20  1  0.92218000  0.93536000  0.33845000  1.0
  H  H21  1  0.07783000  0.43536000  0.16154000  1.0
  H  H22  1  0.07779000  0.06464000  0.66154000  1.0
  H  H23  1  0.92219000  0.56464000  0.83846000  1.0
  H  H24  1  0.06878000  0.99775000  0.42022000  1.0
  H  H25  1  0.93123000  0.49775000  0.07977000  1.0
  H  H26  1  0.93123000  0.00224000  0.57976000  1.0
  H  H27  1  0.06876000  0.50224000  0.92024000  1.0
  C  C28  1  0.42922000  0.11217000  0.22018000  1.0
  C  C29  1  0.57079000  0.61217000  0.27982000  1.0
  C  C30  1  0.57078000  0.88783000  0.77982000  1.0
  C  C31  1  0.42922000  0.38783000  0.72018000  1.0
  C  C32  1  0.44857000  0.13259000  0.11182000  1.0
  C  C33  1  0.55144000  0.63260000  0.38819000  1.0
  C  C34  1  0.55143000  0.86741000  0.88819000  1.0
  C  C35  1  0.44857000  0.36741000  0.61181000  1.0
  C  C36  1  0.30385000  0.10332000  0.03280000  1.0
  C  C37  1  0.69615000  0.60332000  0.46721000  1.0
  C  C38  1  0.69615000  0.89668000  0.96720000  1.0
  C  C39  1  0.30385000  0.39668000  0.53280000  1.0
  C  C40  1  0.33978000  0.12700000  0.93560000  1.0
  C  C41  1  0.66021000  0.62700000  0.56440000  1.0
  C  C42  1  0.66021000  0.87300000  0.06440000  1.0
  C  C43  1  0.33979000  0.37300000  0.43560000  1.0
  C  C44  1  0.19255000  0.09421000  0.84688000  1.0
  C  C45  1  0.80745000  0.59421000  0.65312000  1.0
  C  C46  1  0.80745000  0.90579000  0.15312000  1.0
  C  C47  1  0.19255000  0.40579000  0.34688000  1.0
  C  C48  1  0.51992000  0.17605000  0.92100000  1.0
  C  C49  1  0.48008000  0.67605000  0.57900000  1.0
  C  C50  1  0.48008000  0.82395000  0.07900000  1.0
  C  C51  1  0.51993000  0.32395000  0.42100000  1.0
  C  C52  1  0.66112000  0.19623000  0.00385000  1.0
  C  C53  1  0.33888000  0.69623000  0.49615000  1.0
  C  C54  1  0.33887000  0.80377000  0.99615000  1.0
  C  C55  1  0.66113000  0.30377000  0.50385000  1.0
  C  C56  1  0.86906000  0.23688000  0.99689000  1.0
  C  C57  1  0.13093000  0.73688000  0.50311000  1.0
  C  C58  1  0.13094000  0.76312000  0.00311000  1.0
  C  C59  1  0.86907000  0.26312000  0.49689000  1.0
  N  N60  1  0.62382000  0.17580000  0.09689000  1.0
  N  N61  1  0.37618000  0.67580000  0.40311000  1.0
  N  N62  1  0.37618000  0.82420000  0.90311000  1.0
  N  N63  1  0.62383000  0.32420000  0.59689000  1.0
  O  O64  1  0.58684000  0.11422000  0.28121000  1.0
  O  O65  1  0.41316000  0.61422000  0.21879000  1.0
  O  O66  1  0.41316000  0.88578000  0.71879000  1.0
  O  O67  1  0.58684000  0.38578000  0.78121000  1.0
  O  O68  1  0.25770000  0.09105000  0.24348000  1.0
  O  O69  1  0.74231000  0.59105000  0.25652000  1.0
  O  O70  1  0.74230000  0.90895000  0.75652000  1.0
  O  O71  1  0.25770000  0.40895000  0.74348000  1.0
  O  O72  1  0.17053000  0.15966000  0.77109000  1.0
  O  O73  1  0.82947000  0.65966000  0.72891000  1.0
  O  O74  1  0.82947000  0.84035000  0.22891000  1.0
  O  O75  1  0.17053000  0.34034000  0.27109000  1.0
  O  O76  1  0.10415000  0.00083000  0.85282000  1.0
  O  O77  1  0.89586000  0.50084000  0.64718000  1.0
  O  O78  1  0.89585000  0.99917000  0.14717000  1.0
  O  O79  1  0.10415000  0.49917000  0.35282000  1.0
  O  O80  1  0.91971000  0.25187000  0.91142000  1.0
  O  O81  1  0.08028000  0.75188000  0.58858000  1.0
  O  O82  1  0.08028000  0.74813000  0.08857000  1.0
  O  O83  1  0.91972000  0.24812000  0.41142000  1.0
  O  O84  1  0.98241000  0.25047000  0.07872000  1.0
  O  O85  1  0.01759000  0.75048000  0.42127000  1.0
  O  O86  1  0.01759000  0.74952000  0.92127000  1.0
  O  O87  1  0.98241000  0.24952000  0.57872000  1.0
  O  O88  1  0.94960000  0.00892000  0.37288000  1.0
  O  O89  1  0.05040000  0.50891000  0.12712000  1.0
  O  O90  1  0.05037000  0.99108000  0.62712000  1.0
  O  O91  1  0.94960000  0.49108000  0.87288000  1.0
  O  O92  1  0.71940000  0.36470000  0.22000000  1.0
  O  O93  1  0.28061000  0.86470000  0.28000000  1.0
  O  O94  1  0.28060000  0.63530000  0.77999000  1.0
  O  O95  1  0.71939000  0.13530000  0.72001000  1.0
