# generated using pymatgen
data_Zn2H17C26(N4O)2
_symmetry_space_group_name_H-M   'P 1'
_cell_length_a   14.85820000
_cell_length_b   15.01250000
_cell_length_c   23.49600000
_cell_angle_alpha   92.30880000
_cell_angle_beta   90.03580000
_cell_angle_gamma   102.21800000
_symmetry_Int_Tables_number   1
_chemical_formula_structural   Zn2H17C26(N4O)2
_chemical_formula_sum   'Zn8 H68 C104 N32 O8'
_cell_volume   5117.89378386
_cell_formula_units_Z   4
loop_
 _symmetry_equiv_pos_site_id
 _symmetry_equiv_pos_as_xyz
  1  'x, y, z'
loop_
 _atom_site_type_symbol
 _atom_site_label
 _atom_site_symmetry_multiplicity
 _atom_site_fract_x
 _atom_site_fract_y
 _atom_site_fract_z
 _atom_site_occupancy
  Zn  Zn0  1  0.58202000  0.41091000  0.43721000  1.0
  Zn  Zn1  1  0.46319000  0.56944000  0.44258000  1.0
  Zn  Zn2  1  0.06863000  0.92470000  0.92157000  1.0
  Zn  Zn3  1  0.91453000  0.05380000  0.92721000  1.0
  Zn  Zn4  1  0.47017000  0.58460000  0.58343000  1.0
  Zn  Zn5  1  0.57938000  0.40606000  0.57904000  1.0
  Zn  Zn6  1  0.91488000  0.07340000  0.06640000  1.0
  Zn  Zn7  1  0.07302000  0.93865000  0.06107000  1.0
  H  H8  1  0.68255000  0.45439000  0.30814000  1.0
  H  H9  1  0.26467000  0.44784000  0.41969000  1.0
  H  H10  1  0.15607000  0.98104000  0.79582000  1.0
  H  H11  1  0.72895000  0.89608000  0.93175000  1.0
  H  H12  1  0.08867000  0.45270000  0.59448000  1.0
  H  H13  1  0.93339000  0.53693000  0.64445000  1.0
  H  H14  1  0.56302000  0.04850000  0.10103000  1.0
  H  H15  1  0.40863000  0.14711000  0.13364000  1.0
  H  H16  1  0.10357000  0.55282000  0.63970000  1.0
  H  H17  1  0.91763000  0.43556000  0.59975000  1.0
  H  H18  1  0.57959000  0.16191000  0.13297000  1.0
  H  H19  1  0.39453000  0.03438000  0.10283000  1.0
  H  H20  1  0.74005000  0.50073000  0.81725000  1.0
  H  H21  1  0.20840000  0.37939000  0.72665000  1.0
  H  H22  1  0.17892000  0.04594000  0.30020000  1.0
  H  H23  1  0.76804000  0.85576000  0.22363000  1.0
  H  H24  1  0.26507000  0.12966000  0.38226000  1.0
  H  H25  1  0.68666000  0.76044000  0.29812000  1.0
  H  H26  1  0.82026000  0.60190000  0.89485000  1.0
  H  H27  1  0.10899000  0.27241000  0.78777000  1.0
  H  H28  1  0.21017000  0.38112000  0.32314000  1.0
  H  H29  1  0.68070000  0.51978000  0.19085000  1.0
  H  H30  1  0.63007000  0.77993000  0.87728000  1.0
  H  H31  1  0.15813000  0.04615000  0.68294000  1.0
  H  H32  1  0.54940000  0.67771000  0.80114000  1.0
  H  H33  1  0.25916000  0.15274000  0.62197000  1.0
  H  H34  1  0.12243000  0.29705000  0.24182000  1.0
  H  H35  1  0.76242000  0.61570000  0.11573000  1.0
  H  H36  1  0.73552000  0.09410000  0.58790000  1.0
  H  H37  1  0.72673000  0.92858000  0.59061000  1.0
  H  H38  1  0.11937000  0.58177000  0.08313000  1.0
  H  H39  1  0.09893000  0.41633000  0.08427000  1.0
  H  H40  1  0.58204000  0.67564000  0.70658000  1.0
  H  H41  1  0.39190000  0.24036000  0.59378000  1.0
  H  H42  1  0.98184000  0.18989000  0.19836000  1.0
  H  H43  1  0.94295000  0.74770000  0.09408000  1.0
  H  H44  1  0.62260000  0.74092000  0.41798000  1.0
  H  H45  1  0.66749000  0.22410000  0.41094000  1.0
  H  H46  1  0.05457000  0.24602000  0.90113000  1.0
  H  H47  1  0.13200000  0.72160000  0.89748000  1.0
  H  H48  1  0.61923000  0.77950000  0.60163000  1.0
  H  H49  1  0.64001000  0.21249000  0.59396000  1.0
  H  H50  1  0.06681000  0.25839000  0.08563000  1.0
  H  H51  1  0.11930000  0.73596000  0.08154000  1.0
  H  H52  1  0.76640000  0.55633000  0.41937000  1.0
  H  H53  1  0.25993000  0.62960000  0.41127000  1.0
  H  H54  1  0.25426000  0.08022000  0.89729000  1.0
  H  H55  1  0.71510000  0.11972000  0.89875000  1.0
  H  H56  1  0.93071000  0.66348000  0.43232000  1.0
  H  H57  1  0.09769000  0.68277000  0.42791000  1.0
  H  H58  1  0.41315000  0.19575000  0.90589000  1.0
  H  H59  1  0.57994000  0.21284000  0.90568000  1.0
  H  H60  1  0.64330000  0.89792000  0.41391000  1.0
  H  H61  1  0.65187000  0.06217000  0.41141000  1.0
  H  H62  1  0.13065000  0.40390000  0.90198000  1.0
  H  H63  1  0.15025000  0.56956000  0.90076000  1.0
  H  H64  1  0.77193000  0.54352000  0.60324000  1.0
  H  H65  1  0.24993000  0.60732000  0.59369000  1.0
  H  H66  1  0.24983000  0.10097000  0.08161000  1.0
  H  H67  1  0.73228000  0.16509000  0.08157000  1.0
  H  H68  1  0.61290000  0.25531000  0.70413000  1.0
  H  H69  1  0.34835000  0.63855000  0.67889000  1.0
  H  H70  1  0.23329000  0.90119000  0.13548000  1.0
  H  H71  1  0.70150000  0.04961000  0.14281000  1.0
  H  H72  1  0.52814000  0.66779000  0.32499000  1.0
  H  H73  1  0.42253000  0.23597000  0.40930000  1.0
  H  H74  1  0.95626000  0.15238000  0.80833000  1.0
  H  H75  1  0.93583000  0.73122000  0.92206000  1.0
  C  C76  1  0.63658000  0.49941000  0.31988000  1.0
  C  C77  1  0.31534000  0.40544000  0.42177000  1.0
  C  C78  1  0.09923000  0.01384000  0.80604000  1.0
  C  C79  1  0.79038000  0.86769000  0.93196000  1.0
  C  C80  1  0.61460000  0.54946000  0.74221000  1.0
  C  C81  1  0.31372000  0.33641000  0.63760000  1.0
  C  C82  1  0.09805000  0.11857000  0.21321000  1.0
  C  C83  1  0.82099000  0.80488000  0.12213000  1.0
  C  C84  1  0.64459000  0.80130000  0.50794000  1.0
  C  C85  1  0.66903000  0.18109000  0.50189000  1.0
  C  C86  1  0.07930000  0.29580000  0.99317000  1.0
  C  C87  1  0.13050000  0.68647000  0.99019000  1.0
  C  C88  1  0.81267000  0.56701000  0.51147000  1.0
  C  C89  1  0.21261000  0.61872000  0.50261000  1.0
  C  C90  1  0.29348000  0.11410000  0.98986000  1.0
  C  C91  1  0.68562000  0.15553000  0.99009000  1.0
  C  C92  1  0.96573000  0.56239000  0.55302000  1.0
  C  C93  1  0.06092000  0.57245000  0.55021000  1.0
  C  C94  1  0.44362000  0.14221000  0.04112000  1.0
  C  C95  1  0.53887000  0.15137000  0.04081000  1.0
  C  C96  1  0.91312000  0.59187000  0.51118000  1.0
  C  C97  1  0.11365000  0.61415000  0.50539000  1.0
  C  C98  1  0.39249000  0.15115000  0.99247000  1.0
  C  C99  1  0.59215000  0.17096000  0.99215000  1.0
  C  C100  1  0.96588000  0.63662000  0.46642000  1.0
  C  C101  1  0.06169000  0.64735000  0.46373000  1.0
  C  C102  1  0.44709000  0.18216000  0.94485000  1.0
  C  C103  1  0.54277000  0.19165000  0.94462000  1.0
  C  C104  1  0.06542000  0.51689000  0.60253000  1.0
  C  C105  1  0.95752000  0.50596000  0.60573000  1.0
  C  C106  1  0.54168000  0.11439000  0.09995000  1.0
  C  C107  1  0.43389000  0.10496000  0.10053000  1.0
  C  C108  1  0.71637000  0.56238000  0.83007000  1.0
  C  C109  1  0.19847000  0.30661000  0.71680000  1.0
  C  C110  1  0.18489000  0.11936000  0.30533000  1.0
  C  C111  1  0.74743000  0.78216000  0.21574000  1.0
  C  C112  1  0.23385000  0.16692000  0.35156000  1.0
  C  C113  1  0.70164000  0.72847000  0.25769000  1.0
  C  C114  1  0.76124000  0.61985000  0.87406000  1.0
  C  C115  1  0.14126000  0.24589000  0.75093000  1.0
  C  C116  1  0.24550000  0.26220000  0.35871000  1.0
  C  C117  1  0.67671000  0.63297000  0.24983000  1.0
  C  C118  1  0.73672000  0.70338000  0.88908000  1.0
  C  C119  1  0.12778000  0.15106000  0.74092000  1.0
  C  C120  1  0.58747000  0.60478000  0.70141000  1.0
  C  C121  1  0.38025000  0.30851000  0.60255000  1.0
  C  C122  1  0.02192000  0.13984000  0.18571000  1.0
  C  C123  1  0.90427000  0.80152000  0.09513000  1.0
  C  C124  1  0.20105000  0.30708000  0.31936000  1.0
  C  C125  1  0.70076000  0.59357000  0.19836000  1.0
  C  C126  1  0.65510000  0.71886000  0.86467000  1.0
  C  C127  1  0.17060000  0.11931000  0.69321000  1.0
  C  C128  1  0.60999000  0.66151000  0.82108000  1.0
  C  C129  1  0.22775000  0.17999000  0.65884000  1.0
  C  C130  1  0.15181000  0.25959000  0.27332000  1.0
  C  C131  1  0.74679000  0.64781000  0.15596000  1.0
  C  C132  1  0.64418000  0.58620000  0.79946000  1.0
  C  C133  1  0.24525000  0.27505000  0.67069000  1.0
  C  C134  1  0.14467000  0.16503000  0.26445000  1.0
  C  C135  1  0.77031000  0.74320000  0.16372000  1.0
  C  C136  1  0.71472000  0.05095000  0.54962000  1.0
  C  C137  1  0.71005000  0.95749000  0.55106000  1.0
  C  C138  1  0.12206000  0.54349000  0.04292000  1.0
  C  C139  1  0.11066000  0.44923000  0.04359000  1.0
  C  C140  1  0.67897000  0.89939000  0.50334000  1.0
  C  C141  1  0.68879000  0.08996000  0.50040000  1.0
  C  C142  1  0.10912000  0.39529000  0.99298000  1.0
  C  C143  1  0.13267000  0.58956000  0.99155000  1.0
  C  C144  1  0.66558000  0.94056000  0.45212000  1.0
  C  C145  1  0.67023000  0.03367000  0.45069000  1.0
  C  C146  1  0.12744000  0.44218000  0.94213000  1.0
  C  C147  1  0.13868000  0.53657000  0.94144000  1.0
  C  C148  1  0.61264000  0.73640000  0.46362000  1.0
  C  C149  1  0.65598000  0.23461000  0.45611000  1.0
  C  C150  1  0.05088000  0.23438000  0.94646000  1.0
  C  C151  1  0.12792000  0.73971000  0.94248000  1.0
  C  C152  1  0.75513000  0.53988000  0.55811000  1.0
  C  C153  1  0.26954000  0.61202000  0.54940000  1.0
  C  C154  1  0.23640000  0.08619000  0.03646000  1.0
  C  C155  1  0.74157000  0.14780000  0.03707000  1.0
  C  C156  1  0.61180000  0.75552000  0.55732000  1.0
  C  C157  1  0.64276000  0.22903000  0.54939000  1.0
  C  C158  1  0.05655000  0.24084000  0.04047000  1.0
  C  C159  1  0.12108000  0.74705000  0.03610000  1.0
  C  C160  1  0.75229000  0.54762000  0.46439000  1.0
  C  C161  1  0.27328000  0.62465000  0.45638000  1.0
  C  C162  1  0.23844000  0.07666000  0.94236000  1.0
  C  C163  1  0.73347000  0.12657000  0.94369000  1.0
  C  C164  1  0.61304000  0.46645000  0.71044000  1.0
  C  C165  1  0.33688000  0.43352000  0.63460000  1.0
  C  C166  1  0.11787000  0.04621000  0.17782000  1.0
  C  C167  1  0.80708000  0.89248000  0.10993000  1.0
  C  C168  1  0.55905000  0.60896000  0.32936000  1.0
  C  C169  1  0.39523000  0.29689000  0.41751000  1.0
  C  C170  1  0.99844000  0.10211000  0.81305000  1.0
  C  C171  1  0.89584000  0.78365000  0.92739000  1.0
  C  C172  1  0.62659000  0.58079000  0.29556000  1.0
  C  C173  1  0.31090000  0.31584000  0.40011000  1.0
  C  C174  1  0.07581000  0.09006000  0.78191000  1.0
  C  C175  1  0.80079000  0.77777000  0.91943000  1.0
  C  C176  1  0.62526000  0.37832000  0.72902000  1.0
  C  C177  1  0.30871000  0.50884000  0.66569000  1.0
  C  C178  1  0.19136000  0.99577000  0.17905000  1.0
  C  C179  1  0.73001000  0.93437000  0.12669000  1.0
  N  N180  1  0.58009000  0.48153000  0.36493000  1.0
  N  N181  1  0.39693000  0.43746000  0.44860000  1.0
  N  N182  1  0.04145000  0.98406000  0.84876000  1.0
  N  N183  1  0.87314000  0.92208000  0.94458000  1.0
  N  N184  1  0.57098000  0.56025000  0.65050000  1.0
  N  N185  1  0.43675000  0.38129000  0.58012000  1.0
  N  N186  1  0.99906000  0.08541000  0.13828000  1.0
  N  N187  1  0.93752000  0.88122000  0.06987000  1.0
  N  N188  1  0.56287000  0.65982000  0.48506000  1.0
  N  N189  1  0.62458000  0.30804000  0.47498000  1.0
  N  N190  1  0.01291000  0.15108000  0.96503000  1.0
  N  N191  1  0.11769000  0.82405000  0.95893000  1.0
  N  N192  1  0.66819000  0.50560000  0.53961000  1.0
  N  N193  1  0.35652000  0.61376000  0.53294000  1.0
  N  N194  1  0.15562000  0.03455000  0.01790000  1.0
  N  N195  1  0.81546000  0.11541000  0.02033000  1.0
  N  N196  1  0.56248000  0.67168000  0.54270000  1.0
  N  N197  1  0.61591000  0.30434000  0.53302000  1.0
  N  N198  1  0.01636000  0.15498000  0.02290000  1.0
  N  N199  1  0.11317000  0.82866000  0.01723000  1.0
  N  N200  1  0.66674000  0.50989000  0.48189000  1.0
  N  N201  1  0.35871000  0.62145000  0.47488000  1.0
  N  N202  1  0.15679000  0.02867000  0.95998000  1.0
  N  N203  1  0.81056000  0.10272000  0.96215000  1.0
  N  N204  1  0.58691000  0.47581000  0.65549000  1.0
  N  N205  1  0.40913000  0.45631000  0.59861000  1.0
  N  N206  1  0.05748000  0.02852000  0.13318000  1.0
  N  N207  1  0.87830000  0.93711000  0.07877000  1.0
  N  N208  1  0.53156000  0.54967000  0.37044000  1.0
  N  N209  1  0.44628000  0.37051000  0.44564000  1.0
  N  N210  1  0.97807000  0.03879000  0.85270000  1.0
  N  N211  1  0.93795000  0.87021000  0.94159000  1.0
  O  O212  1  0.64756000  0.36050000  0.77674000  1.0
  O  O213  1  0.60594000  0.31106000  0.68595000  1.0
  O  O214  1  0.24195000  0.50986000  0.69573000  1.0
  O  O215  1  0.37351000  0.59077000  0.65912000  1.0
  O  O216  1  0.25875000  0.00784000  0.21030000  1.0
  O  O217  1  0.17783000  0.92665000  0.13608000  1.0
  O  O218  1  0.65012000  0.89526000  0.13305000  1.0
  O  O219  1  0.75827000  0.02744000  0.13604000  1.0
