# generated using pymatgen
data_CuH10C17NO4
_symmetry_space_group_name_H-M   'P 1'
_cell_length_a   13.09590000
_cell_length_b   13.09590000
_cell_length_c   14.01900000
_cell_angle_alpha   93.52730000
_cell_angle_beta   93.52730000
_cell_angle_gamma   97.22900000
_symmetry_Int_Tables_number   1
_chemical_formula_structural   CuH10C17NO4
_chemical_formula_sum   'Cu6 H60 C102 N6 O24'
_cell_volume   2374.83296199
_cell_formula_units_Z   6
loop_
 _symmetry_equiv_pos_site_id
 _symmetry_equiv_pos_as_xyz
  1  'x, y, z'
loop_
 _atom_site_type_symbol
 _atom_site_label
 _atom_site_symmetry_multiplicity
 _atom_site_fract_x
 _atom_site_fract_y
 _atom_site_fract_z
 _atom_site_occupancy
  Cu  Cu0  1  0.31639000  0.69117000  0.40840000  1.0
  Cu  Cu1  1  0.30883000  0.68361000  0.59160000  1.0
  Cu  Cu2  1  0.67229000  0.97938000  0.25266000  1.0
  Cu  Cu3  1  0.02062000  0.32771000  0.74734000  1.0
  Cu  Cu4  1  0.68131000  0.98817000  0.06913000  1.0
  Cu  Cu5  1  0.01183000  0.31869000  0.93087000  1.0
  H  H6  1  0.46874000  0.75304000  0.25612000  1.0
  H  H7  1  0.24696000  0.53126000  0.74388000  1.0
  H  H8  1  0.47237000  0.75448000  0.07770000  1.0
  H  H9  1  0.24552000  0.52763000  0.92230000  1.0
  H  H10  1  0.15189000  0.62278000  0.05602000  1.0
  H  H11  1  0.37722000  0.84811000  0.94398000  1.0
  H  H12  1  0.16062000  0.63050000  0.23586000  1.0
  H  H13  1  0.36950000  0.83938000  0.76414000  1.0
  H  H14  1  0.26695000  0.99587000  0.67319000  1.0
  H  H15  1  0.00413000  0.73305000  0.32681000  1.0
  H  H16  1  0.24688000  0.18341000  0.68694000  1.0
  H  H17  1  0.81659000  0.75312000  0.31306000  1.0
  H  H18  1  0.25838000  0.35164000  0.61527000  1.0
  H  H19  1  0.64836000  0.74162000  0.38473000  1.0
  H  H20  1  0.35602000  0.37953000  0.32921000  1.0
  H  H21  1  0.62047000  0.64398000  0.67079000  1.0
  H  H22  1  0.37154000  0.19126000  0.31377000  1.0
  H  H23  1  0.80874000  0.62846000  0.68623000  1.0
  H  H24  1  0.35948000  0.02274000  0.38575000  1.0
  H  H25  1  0.97726000  0.64052000  0.61425000  1.0
  H  H26  1  0.83497000  0.00416000  0.42312000  1.0
  H  H27  1  0.99584000  0.16503000  0.57688000  1.0
  H  H28  1  0.84572000  0.00664000  0.60278000  1.0
  H  H29  1  0.99336000  0.15428000  0.39722000  1.0
  H  H30  1  0.51355000  0.94139000  0.58505000  1.0
  H  H31  1  0.05861000  0.48645000  0.41495000  1.0
  H  H32  1  0.51689000  0.94093000  0.40669000  1.0
  H  H33  1  0.05907000  0.48311000  0.59331000  1.0
  H  H34  1  0.79654000  0.11102000  0.73857000  1.0
  H  H35  1  0.88899000  0.20346000  0.26143000  1.0
  H  H36  1  0.79384000  0.11130000  0.91662000  1.0
  H  H37  1  0.88870000  0.20616000  0.08338000  1.0
  H  H38  1  0.57167000  0.85516000  0.89772000  1.0
  H  H39  1  0.14484000  0.42833000  0.10228000  1.0
  H  H40  1  0.56457000  0.84326000  0.71814000  1.0
  H  H41  1  0.15674000  0.43543000  0.28186000  1.0
  H  H42  1  0.33796000  0.91775000  0.26752000  1.0
  H  H43  1  0.08224000  0.66204000  0.73248000  1.0
  H  H44  1  0.16750000  0.89587000  0.33561000  1.0
  H  H45  1  0.10413000  0.83250000  0.66439000  1.0
  H  H46  1  0.98062000  0.91803000  0.32320000  1.0
  H  H47  1  0.08197000  0.01938000  0.67680000  1.0
  H  H48  1  0.01840000  0.06261000  0.05767000  1.0
  H  H49  1  0.93739000  0.98160000  0.94233000  1.0
  H  H50  1  0.18829000  0.08413000  0.98981000  1.0
  H  H51  1  0.91587000  0.81171000  0.01019000  1.0
  H  H52  1  0.37472000  0.05928000  0.00049000  1.0
  H  H53  1  0.94072000  0.62528000  0.99951000  1.0
  H  H54  1  0.59998000  0.64332000  0.26368000  1.0
  H  H55  1  0.35668000  0.40002000  0.73632000  1.0
  H  H56  1  0.56902000  0.47100000  0.32823000  1.0
  H  H57  1  0.52900000  0.43098000  0.67177000  1.0
  H  H58  1  0.59146000  0.28420000  0.31727000  1.0
  H  H59  1  0.71580000  0.40854000  0.68273000  1.0
  H  H60  1  0.75177000  0.32451000  0.06017000  1.0
  H  H61  1  0.67549000  0.24823000  0.93983000  1.0
  H  H62  1  0.77168000  0.49276000  0.99004000  1.0
  H  H63  1  0.50724000  0.22832000  0.00996000  1.0
  H  H64  1  0.74714000  0.67943000  0.99940000  1.0
  H  H65  1  0.32057000  0.25286000  0.00060000  1.0
  C  C66  1  0.40014000  0.72478000  0.20928000  1.0
  C  C67  1  0.27522000  0.59986000  0.79072000  1.0
  C  C68  1  0.40195000  0.72583000  0.11024000  1.0
  C  C69  1  0.27417000  0.59805000  0.88976000  1.0
  C  C70  1  0.31235000  0.68837000  0.05266000  1.0
  C  C71  1  0.31163000  0.68765000  0.94734000  1.0
  C  C72  1  0.22378000  0.65172000  0.09790000  1.0
  C  C73  1  0.34828000  0.77622000  0.90210000  1.0
  C  C74  1  0.22835000  0.65555000  0.19747000  1.0
  C  C75  1  0.34445000  0.77165000  0.80253000  1.0
  C  C76  1  0.31892000  0.88528000  0.51805000  1.0
  C  C77  1  0.11472000  0.68108000  0.48195000  1.0
  C  C78  1  0.31309000  0.99840000  0.52760000  1.0
  C  C79  1  0.00160000  0.68691000  0.47240000  1.0
  C  C80  1  0.28261000  0.04431000  0.61400000  1.0
  C  C81  1  0.95569000  0.71739000  0.38600000  1.0
  C  C82  1  0.27191000  0.14762000  0.62159000  1.0
  C  C83  1  0.85238000  0.72809000  0.37841000  1.0
  C  C84  1  0.29321000  0.21021000  0.54401000  1.0
  C  C85  1  0.78979000  0.70679000  0.45599000  1.0
  C  C86  1  0.28476000  0.31681000  0.55030000  1.0
  C  C87  1  0.68319000  0.71524000  0.44970000  1.0
  C  C88  1  0.30852000  0.37645000  0.47454000  1.0
  C  C89  1  0.62355000  0.69148000  0.52547000  1.0
  C  C90  1  0.33906000  0.33077000  0.38800000  1.0
  C  C91  1  0.66923000  0.66094000  0.61200000  1.0
  C  C92  1  0.34778000  0.22705000  0.37980000  1.0
  C  C93  1  0.77295000  0.65222000  0.62020000  1.0
  C  C94  1  0.32609000  0.16442000  0.45731000  1.0
  C  C95  1  0.83558000  0.67391000  0.54269000  1.0
  C  C96  1  0.33499000  0.05798000  0.45135000  1.0
  C  C97  1  0.94202000  0.66501000  0.54865000  1.0
  C  C98  1  0.30403000  0.48978000  0.48443000  1.0
  C  C99  1  0.51022000  0.69597000  0.51557000  1.0
  C  C100  1  0.76569000  0.99163000  0.46250000  1.0
  C  C101  1  0.00837000  0.23431000  0.53750000  1.0
  C  C102  1  0.77111000  0.99320000  0.56193000  1.0
  C  C103  1  0.00680000  0.22889000  0.43807000  1.0
  C  C104  1  0.67957000  0.97481000  0.60856000  1.0
  C  C105  1  0.02520000  0.32043000  0.39144000  1.0
  C  C106  1  0.58651000  0.95528000  0.55184000  1.0
  C  C107  1  0.04472000  0.41349000  0.44815000  1.0
  C  C108  1  0.58805000  0.95586000  0.45280000  1.0
  C  C109  1  0.04414000  0.41195000  0.54720000  1.0
  C  C110  1  0.68058000  0.97690000  0.71383000  1.0
  C  C111  1  0.02310000  0.31942000  0.28617000  1.0
  C  C112  1  0.74612000  0.05232000  0.77109000  1.0
  C  C113  1  0.94768000  0.25388000  0.22891000  1.0
  C  C114  1  0.74401000  0.05319000  0.87022000  1.0
  C  C115  1  0.94681000  0.25599000  0.12978000  1.0
  C  C116  1  0.61953000  0.91079000  0.85918000  1.0
  C  C117  1  0.08921000  0.38047000  0.14082000  1.0
  C  C118  1  0.61569000  0.90460000  0.75964000  1.0
  C  C119  1  0.09540000  0.38431000  0.24036000  1.0
  C  C120  1  0.47943000  0.97889000  0.14463000  1.0
  C  C121  1  0.02111000  0.52057000  0.85537000  1.0
  C  C122  1  0.36701000  0.98852000  0.13605000  1.0
  C  C123  1  0.01148000  0.63299000  0.86396000  1.0
  C  C124  1  0.30519000  0.95467000  0.20741000  1.0
  C  C125  1  0.04533000  0.69481000  0.79259000  1.0
  C  C126  1  0.19934000  0.96625000  0.20281000  1.0
  C  C127  1  0.03375000  0.80066000  0.79719000  1.0
  C  C128  1  0.13429000  0.93244000  0.27531000  1.0
  C  C129  1  0.06756000  0.86571000  0.72469000  1.0
  C  C130  1  0.03129000  0.94451000  0.26848000  1.0
  C  C131  1  0.05549000  0.96871000  0.73152000  1.0
  C  C132  1  0.98839000  0.98934000  0.18805000  1.0
  C  C133  1  0.01066000  0.01160000  0.81195000  1.0
  C  C134  1  0.05070000  0.02547000  0.11782000  1.0
  C  C135  1  0.97453000  0.94930000  0.88218000  1.0
  C  C136  1  0.15678000  0.01468000  0.12303000  1.0
  C  C137  1  0.98532000  0.84322000  0.87697000  1.0
  C  C138  1  0.22173000  0.04794000  0.05028000  1.0
  C  C139  1  0.95206000  0.77827000  0.94972000  1.0
  C  C140  1  0.32441000  0.03427000  0.05602000  1.0
  C  C141  1  0.96573000  0.67559000  0.94398000  1.0
  C  C142  1  0.87504000  0.99337000  0.17776000  1.0
  C  C143  1  0.00663000  0.12496000  0.82224000  1.0
  C  C144  1  0.66928000  0.78548000  0.14299000  1.0
  C  C145  1  0.21452000  0.33072000  0.85701000  1.0
  C  C146  1  0.67432000  0.67223000  0.13379000  1.0
  C  C147  1  0.32777000  0.32568000  0.86621000  1.0
  C  C148  1  0.63698000  0.61025000  0.20384000  1.0
  C  C149  1  0.38975000  0.36302000  0.79616000  1.0
  C  C150  1  0.64651000  0.50394000  0.19904000  1.0
  C  C151  1  0.49606000  0.35349000  0.80096000  1.0
  C  C152  1  0.60828000  0.43816000  0.26946000  1.0
  C  C153  1  0.56184000  0.39172000  0.73054000  1.0
  C  C154  1  0.62064000  0.33517000  0.26372000  1.0
  C  C155  1  0.66483000  0.37936000  0.73628000  1.0
  C  C156  1  0.67166000  0.29350000  0.18665000  1.0
  C  C157  1  0.70650000  0.32834000  0.81335000  1.0
  C  C158  1  0.71065000  0.35613000  0.11785000  1.0
  C  C159  1  0.64387000  0.28935000  0.88215000  1.0
  C  C160  1  0.69828000  0.46172000  0.12140000  1.0
  C  C161  1  0.53828000  0.30172000  0.87860000  1.0
  C  C162  1  0.73403000  0.52649000  0.04941000  1.0
  C  C163  1  0.47351000  0.26597000  0.95059000  1.0
  C  C164  1  0.72093000  0.62921000  0.05456000  1.0
  C  C165  1  0.37079000  0.27907000  0.94544000  1.0
  C  C166  1  0.68098000  0.18108000  0.17798000  1.0
  C  C167  1  0.81892000  0.31902000  0.82202000  1.0
  N  N168  1  0.31485000  0.69083000  0.25259000  1.0
  N  N169  1  0.30917000  0.68515000  0.74741000  1.0
  N  N170  1  0.67595000  0.97394000  0.40839000  1.0
  N  N171  1  0.02606000  0.32404000  0.59161000  1.0
  N  N172  1  0.68201000  0.98389000  0.91394000  1.0
  N  N173  1  0.01611000  0.31799000  0.08606000  1.0
  O  O174  1  0.33084000  0.84505000  0.43473000  1.0
  O  O175  1  0.15495000  0.66916000  0.56527000  1.0
  O  O176  1  0.31046000  0.83657000  0.59401000  1.0
  O  O177  1  0.16343000  0.68954000  0.40599000  1.0
  O  O178  1  0.30716000  0.53198000  0.56952000  1.0
  O  O179  1  0.46802000  0.69284000  0.43048000  1.0
  O  O180  1  0.29917000  0.53634000  0.40723000  1.0
  O  O181  1  0.46366000  0.70083000  0.59277000  1.0
  O  O182  1  0.52015000  0.97331000  0.22910000  1.0
  O  O183  1  0.02669000  0.47985000  0.77090000  1.0
  O  O184  1  0.52637000  0.97838000  0.06747000  1.0
  O  O185  1  0.02162000  0.47363000  0.93253000  1.0
  O  O186  1  0.82632000  0.98775000  0.25380000  1.0
  O  O187  1  0.01225000  0.17368000  0.74620000  1.0
  O  O188  1  0.83478000  0.99990000  0.09330000  1.0
  O  O189  1  0.00010000  0.16522000  0.90670000  1.0
  O  O190  1  0.66141000  0.82587000  0.22721000  1.0
  O  O191  1  0.17413000  0.33859000  0.77279000  1.0
  O  O192  1  0.67478000  0.83380000  0.06679000  1.0
  O  O193  1  0.16620000  0.32522000  0.93321000  1.0
  O  O194  1  0.68030000  0.13374000  0.25473000  1.0
  O  O195  1  0.86626000  0.31970000  0.74527000  1.0
  O  O196  1  0.68763000  0.14072000  0.09334000  1.0
  O  O197  1  0.85928000  0.31237000  0.90666000  1.0
