# generated using pymatgen
data_ZnH12C11O10
_symmetry_space_group_name_H-M   'P 1'
_cell_length_a   4.90738000
_cell_length_b   11.66360000
_cell_length_c   22.76170000
_cell_angle_alpha   90.00000000
_cell_angle_beta   90.00000000
_cell_angle_gamma   101.22800000
_symmetry_Int_Tables_number   1
_chemical_formula_structural   ZnH12C11O10
_chemical_formula_sum   'Zn4 H48 C44 O40'
_cell_volume   1277.89178121
_cell_formula_units_Z   4
loop_
 _symmetry_equiv_pos_site_id
 _symmetry_equiv_pos_as_xyz
  1  'x, y, z'
loop_
 _atom_site_type_symbol
 _atom_site_label
 _atom_site_symmetry_multiplicity
 _atom_site_fract_x
 _atom_site_fract_y
 _atom_site_fract_z
 _atom_site_occupancy
  Zn  Zn0  1  0.14934000  0.66861000  0.78906000  1.0
  Zn  Zn1  1  0.35066000  0.83140000  0.28907000  1.0
  Zn  Zn2  1  0.85067000  0.33140000  0.21093000  1.0
  Zn  Zn3  1  0.64934000  0.16860000  0.71094000  1.0
  H  H4  1  0.02995000  0.20615000  0.09705000  1.0
  H  H5  1  0.47008000  0.29385000  0.59704000  1.0
  H  H6  1  0.97007000  0.79386000  0.90295000  1.0
  H  H7  1  0.52990000  0.70615000  0.40296000  1.0
  H  H8  1  0.81385000  0.57667000  0.87140000  1.0
  H  H9  1  0.68614000  0.92333000  0.37140000  1.0
  H  H10  1  0.18615000  0.42333000  0.12859000  1.0
  H  H11  1  0.31387000  0.07667000  0.62860000  1.0
  H  H12  1  0.81773000  0.47505000  0.82155000  1.0
  H  H13  1  0.68226000  0.02495000  0.32155000  1.0
  H  H14  1  0.18228000  0.52495000  0.17845000  1.0
  H  H15  1  0.31774000  0.97505000  0.67845000  1.0
  H  H16  1  0.56617000  0.61751000  0.73320000  1.0
  H  H17  1  0.93385000  0.88250000  0.23320000  1.0
  H  H18  1  0.43383000  0.38249000  0.26680000  1.0
  H  H19  1  0.06616000  0.11750000  0.76680000  1.0
  H  H20  1  0.29716000  0.51129000  0.72357000  1.0
  H  H21  1  0.20285000  0.98871000  0.22357000  1.0
  H  H22  1  0.70284000  0.48871000  0.27643000  1.0
  H  H23  1  0.79715000  0.01129000  0.77644000  1.0
  H  H24  1  0.78934000  0.43737000  0.01687000  1.0
  H  H25  1  0.71069000  0.06263000  0.51687000  1.0
  H  H26  1  0.21070000  0.56263000  0.98313000  1.0
  H  H27  1  0.28929000  0.93736000  0.48313000  1.0
  H  H28  1  0.12007000  0.41917000  0.93594000  1.0
  H  H29  1  0.37995000  0.08083000  0.43594000  1.0
  H  H30  1  0.87995000  0.58083000  0.06405000  1.0
  H  H31  1  0.62005000  0.91916000  0.56405000  1.0
  H  H32  1  0.32053000  0.09555000  0.97754000  1.0
  H  H33  1  0.17946000  0.40445000  0.47754000  1.0
  H  H34  1  0.67949000  0.90445000  0.02246000  1.0
  H  H35  1  0.82050000  0.59555000  0.52246000  1.0
  H  H36  1  0.23229000  0.01700000  0.87837000  1.0
  H  H37  1  0.26766000  0.48302000  0.37837000  1.0
  H  H38  1  0.76771000  0.98300000  0.12163000  1.0
  H  H39  1  0.73230000  0.51698000  0.62163000  1.0
  H  H40  1  0.37732000  0.93530000  0.93253000  1.0
  H  H41  1  0.12263000  0.56470000  0.43253000  1.0
  H  H42  1  0.62269000  0.06470000  0.06747000  1.0
  H  H43  1  0.87735000  0.43529000  0.56747000  1.0
  H  H44  1  0.44047000  0.34772000  0.89028000  1.0
  H  H45  1  0.05951000  0.15227000  0.39028000  1.0
  H  H46  1  0.55956000  0.65228000  0.10972000  1.0
  H  H47  1  0.94046000  0.84772000  0.60971000  1.0
  H  H48  1  0.21876000  0.39960000  0.83874000  1.0
  H  H49  1  0.28126000  0.10040000  0.33874000  1.0
  H  H50  1  0.78128000  0.60039000  0.16126000  1.0
  H  H51  1  0.71874000  0.89961000  0.66126000  1.0
  C  C52  1  0.34994000  0.28453000  0.05126000  1.0
  C  C53  1  0.15008000  0.21548000  0.55126000  1.0
  C  C54  1  0.65009000  0.71548000  0.94874000  1.0
  C  C55  1  0.84990000  0.78452000  0.44874000  1.0
  C  C56  1  0.53946000  0.26748000  0.00299000  1.0
  C  C57  1  0.96055000  0.23252000  0.50300000  1.0
  C  C58  1  0.46057000  0.73252000  0.99701000  1.0
  C  C59  1  0.03942000  0.76747000  0.49700000  1.0
  C  C60  1  0.76311000  0.35826000  0.99069000  1.0
  C  C61  1  0.73690000  0.14174000  0.49069000  1.0
  C  C62  1  0.23691000  0.64174000  0.00930000  1.0
  C  C63  1  0.26307000  0.85825000  0.50931000  1.0
  C  C64  1  0.94886000  0.34754000  0.94580000  1.0
  C  C65  1  0.55114000  0.15246000  0.44580000  1.0
  C  C66  1  0.05115000  0.65247000  0.05420000  1.0
  C  C67  1  0.44884000  0.84753000  0.55420000  1.0
  C  C68  1  0.91307000  0.24565000  0.91220000  1.0
  C  C69  1  0.58692000  0.25436000  0.41220000  1.0
  C  C70  1  0.08696000  0.75435000  0.08780000  1.0
  C  C71  1  0.41305000  0.74564000  0.58780000  1.0
  C  C72  1  0.68386000  0.15327000  0.92367000  1.0
  C  C73  1  0.81614000  0.34674000  0.42367000  1.0
  C  C74  1  0.31615000  0.84674000  0.07633000  1.0
  C  C75  1  0.18384000  0.65326000  0.57633000  1.0
  C  C76  1  0.50007000  0.16440000  0.96899000  1.0
  C  C77  1  0.99992000  0.33560000  0.46899000  1.0
  C  C78  1  0.49996000  0.83560000  0.03101000  1.0
  C  C79  1  0.00004000  0.66440000  0.53102000  1.0
  C  C80  1  0.41100000  0.97583000  0.88878000  1.0
  C  C81  1  0.08897000  0.52418000  0.38878000  1.0
  C  C82  1  0.58901000  0.02419000  0.11122000  1.0
  C  C83  1  0.91101000  0.47581000  0.61122000  1.0
  C  C84  1  0.42501000  0.88034000  0.84417000  1.0
  C  C85  1  0.07495000  0.61968000  0.34417000  1.0
  C  C86  1  0.57499000  0.11967000  0.15583000  1.0
  C  C87  1  0.92505000  0.38033000  0.65583000  1.0
  C  C88  1  0.30183000  0.32262000  0.85247000  1.0
  C  C89  1  0.19814000  0.17738000  0.35247000  1.0
  C  C90  1  0.69819000  0.67738000  0.14753000  1.0
  C  C91  1  0.80182000  0.82262000  0.64753000  1.0
  C  C92  1  0.47205000  0.28807000  0.80261000  1.0
  C  C93  1  0.02794000  0.21193000  0.30262000  1.0
  C  C94  1  0.52798000  0.71193000  0.19738000  1.0
  C  C95  1  0.97204000  0.78806000  0.69738000  1.0
  O  O96  1  0.15468000  0.19079000  0.06375000  1.0
  O  O97  1  0.34534000  0.30921000  0.56375000  1.0
  O  O98  1  0.84534000  0.80921000  0.93625000  1.0
  O  O99  1  0.65464000  0.69079000  0.43625000  1.0
  O  O100  1  0.93094000  0.54673000  0.84112000  1.0
  O  O101  1  0.56905000  0.95327000  0.34112000  1.0
  O  O102  1  0.06907000  0.45327000  0.15888000  1.0
  O  O103  1  0.43094000  0.04673000  0.65888000  1.0
  O  O104  1  0.37464000  0.37886000  0.07802000  1.0
  O  O105  1  0.12539000  0.12115000  0.57801000  1.0
  O  O106  1  0.62538000  0.62115000  0.92198000  1.0
  O  O107  1  0.87459000  0.87885000  0.42198000  1.0
  O  O108  1  0.39139000  0.57312000  0.75145000  1.0
  O  O109  1  0.10863000  0.92688000  0.25145000  1.0
  O  O110  1  0.60861000  0.42688000  0.24855000  1.0
  O  O111  1  0.89138000  0.07312000  0.74855000  1.0
  O  O112  1  0.08135000  0.22752000  0.86735000  1.0
  O  O113  1  0.41863000  0.27248000  0.36736000  1.0
  O  O114  1  0.91868000  0.77248000  0.13265000  1.0
  O  O115  1  0.58134000  0.72752000  0.63265000  1.0
  O  O116  1  0.38430000  0.19056000  0.77569000  1.0
  O  O117  1  0.11568000  0.30944000  0.27569000  1.0
  O  O118  1  0.61572000  0.80943000  0.22431000  1.0
  O  O119  1  0.88430000  0.69056000  0.72432000  1.0
  O  O120  1  0.69395000  0.35556000  0.78913000  1.0
  O  O121  1  0.80605000  0.14444000  0.28913000  1.0
  O  O122  1  0.30609000  0.64443000  0.21087000  1.0
  O  O123  1  0.19393000  0.85556000  0.71087000  1.0
  O  O124  1  0.66346000  0.05979000  0.88686000  1.0
  O  O125  1  0.83652000  0.44022000  0.38686000  1.0
  O  O126  1  0.33655000  0.94021000  0.11314000  1.0
  O  O127  1  0.16347000  0.55979000  0.61315000  1.0
  O  O128  1  0.21730000  0.79185000  0.84960000  1.0
  O  O129  1  0.28265000  0.70816000  0.34961000  1.0
  O  O130  1  0.78270000  0.20816000  0.15039000  1.0
  O  O131  1  0.71734000  0.29183000  0.65039000  1.0
  O  O132  1  0.61422000  0.88663000  0.80750000  1.0
  O  O133  1  0.88575000  0.61337000  0.30750000  1.0
  O  O134  1  0.38578000  0.11337000  0.19249000  1.0
  O  O135  1  0.11425000  0.38663000  0.69250000  1.0
