# generated using pymatgen
data_AgH13C13S(NO)2
_symmetry_space_group_name_H-M   'P 1'
_cell_length_a   5.16478000
_cell_length_b   8.53055000
_cell_length_c   15.59390000
_cell_angle_alpha   102.46400000
_cell_angle_beta   92.46160000
_cell_angle_gamma   102.49100000
_symmetry_Int_Tables_number   1
_chemical_formula_structural   AgH13C13S(NO)2
_chemical_formula_sum   'Ag2 H26 C26 S2 N4 O4'
_cell_volume   652.06987489
_cell_formula_units_Z   2
loop_
 _symmetry_equiv_pos_site_id
 _symmetry_equiv_pos_as_xyz
  1  'x, y, z'
loop_
 _atom_site_type_symbol
 _atom_site_label
 _atom_site_symmetry_multiplicity
 _atom_site_fract_x
 _atom_site_fract_y
 _atom_site_fract_z
 _atom_site_occupancy
  Ag  Ag0  1  0.77047000  0.48907000  0.05078000  1.0
  Ag  Ag1  1  0.24886000  0.51098000  0.94965000  1.0
  H  H2  1  0.75858000  0.81413000  0.97752000  1.0
  H  H3  1  0.26002000  0.18761000  0.02329000  1.0
  H  H4  1  0.87585000  0.10349000  0.07519000  1.0
  H  H5  1  0.13737000  0.89876000  0.92510000  1.0
  H  H6  1  0.59604000  0.17219000  0.19614000  1.0
  H  H7  1  0.41366000  0.82893000  0.80337000  1.0
  H  H8  1  0.27202000  0.96567000  0.31208000  1.0
  H  H9  1  0.73867000  0.03254000  0.68748000  1.0
  H  H10  1  0.99013000  0.87093000  0.23550000  1.0
  H  H11  1  0.02235000  0.12761000  0.76330000  1.0
  H  H12  1  0.13959000  0.08572000  0.24896000  1.0
  H  H13  1  0.87219000  0.91315000  0.75076000  1.0
  H  H14  1  0.60897000  0.75297000  0.33167000  1.0
  H  H15  1  0.40844000  0.24875000  0.66904000  1.0
  H  H16  1  0.56129000  0.87729000  0.48796000  1.0
  H  H17  1  0.45223000  0.12493000  0.51235000  1.0
  H  H18  1  0.76260000  0.58060000  0.46191000  1.0
  H  H19  1  0.25364000  0.41716000  0.53750000  1.0
  H  H20  1  0.80819000  0.45872000  0.30482000  1.0
  H  H21  1  0.21172000  0.53886000  0.69488000  1.0
  H  H22  1  0.01048000  0.73218000  0.61263000  1.0
  H  H23  1  0.01428000  0.26553000  0.38840000  1.0
  H  H24  1  0.00222000  0.91618000  0.57902000  1.0
  H  H25  1  0.99609000  0.07666000  0.41992000  1.0
  H  H26  1  0.31014000  0.88463000  0.61734000  1.0
  H  H27  1  0.70129000  0.12371000  0.38139000  1.0
  C  C28  1  0.65544000  0.84936000  0.03567000  1.0
  C  C29  1  0.36187000  0.15202000  0.96487000  1.0
  C  C30  1  0.71686000  0.00803000  0.08859000  1.0
  C  C31  1  0.29723000  0.99365000  0.91161000  1.0
  C  C32  1  0.56036000  0.04552000  0.15725000  1.0
  C  C33  1  0.45208000  0.95547000  0.84258000  1.0
  C  C34  1  0.35652000  0.92319000  0.17564000  1.0
  C  C35  1  0.65749000  0.07689000  0.82420000  1.0
  C  C36  1  0.32006000  0.76146000  0.12309000  1.0
  C  C37  1  0.69748000  0.23849000  0.87716000  1.0
  C  C38  1  0.17933000  0.96376000  0.24695000  1.0
  C  C39  1  0.83284000  0.03516000  0.75252000  1.0
  C  C40  1  0.21009000  0.59991000  0.30908000  1.0
  C  C41  1  0.80868000  0.39960000  0.69118000  1.0
  C  C42  1  0.42230000  0.71780000  0.36013000  1.0
  C  C43  1  0.59482000  0.28297000  0.64027000  1.0
  C  C44  1  0.39391000  0.78713000  0.44782000  1.0
  C  C45  1  0.62110000  0.21396000  0.55237000  1.0
  C  C46  1  0.15566000  0.74190000  0.48560000  1.0
  C  C47  1  0.85906000  0.25799000  0.51421000  1.0
  C  C48  1  0.94768000  0.62033000  0.43336000  1.0
  C  C49  1  0.06882000  0.37820000  0.56632000  1.0
  C  C50  1  0.97234000  0.54991000  0.34572000  1.0
  C  C51  1  0.04621000  0.44846000  0.65418000  1.0
  C  C52  1  0.11927000  0.82236000  0.57852000  1.0
  C  C53  1  0.89321000  0.17746000  0.42110000  1.0
  S  S54  1  0.23873000  0.51480000  0.19614000  1.0
  S  S55  1  0.78175000  0.48504000  0.80422000  1.0
  N  N56  1  0.45943000  0.72982000  0.05183000  1.0
  N  N57  1  0.55947000  0.27063000  0.94872000  1.0
  N  N58  1  0.13215000  0.62738000  0.13888000  1.0
  N  N59  1  0.88708000  0.37188000  0.86144000  1.0
  O  O60  1  0.05807000  0.35233000  0.17411000  1.0
  O  O61  1  0.96424000  0.64687000  0.82610000  1.0
  O  O62  1  0.52368000  0.52234000  0.19058000  1.0
  O  O63  1  0.49730000  0.47898000  0.81002000  1.0
