# generated using pymatgen
data_CdH4C2(N2Cl)2
_symmetry_space_group_name_H-M   'P 1'
_cell_length_a   6.85173000
_cell_length_b   9.00575000
_cell_length_c   10.69900000
_cell_angle_alpha   89.99980000
_cell_angle_beta   98.85550000
_cell_angle_gamma   89.99930000
_symmetry_Int_Tables_number   1
_chemical_formula_structural   CdH4C2(N2Cl)2
_chemical_formula_sum   'Cd4 H16 C8 N16 Cl8'
_cell_volume   652.31190354
_cell_formula_units_Z   4
loop_
 _symmetry_equiv_pos_site_id
 _symmetry_equiv_pos_as_xyz
  1  'x, y, z'
loop_
 _atom_site_type_symbol
 _atom_site_label
 _atom_site_symmetry_multiplicity
 _atom_site_fract_x
 _atom_site_fract_y
 _atom_site_fract_z
 _atom_site_occupancy
  Cd  Cd0  1  0.25289000  0.09466000  0.52668000  1.0
  Cd  Cd1  1  0.24711000  0.59466000  0.97332000  1.0
  Cd  Cd2  1  0.74711000  0.90534000  0.47332000  1.0
  Cd  Cd3  1  0.75289000  0.40534000  0.02668000  1.0
  H  H4  1  0.33619000  0.39379000  0.62862000  1.0
  H  H5  1  0.16382000  0.89379000  0.87138000  1.0
  H  H6  1  0.66382000  0.60621000  0.37137000  1.0
  H  H7  1  0.83618000  0.10621000  0.12862000  1.0
  H  H8  1  0.36446000  0.58390000  0.60277000  1.0
  H  H9  1  0.13554000  0.08389000  0.89723000  1.0
  H  H10  1  0.63555000  0.41611000  0.39723000  1.0
  H  H11  1  0.86446000  0.91611000  0.10277000  1.0
  H  H12  1  0.22852000  0.69258000  0.41387000  1.0
  H  H13  1  0.27149000  0.19257000  0.08613000  1.0
  H  H14  1  0.77149000  0.30743000  0.58613000  1.0
  H  H15  1  0.72851000  0.80743000  0.91387000  1.0
  H  H16  1  0.10228000  0.58801000  0.29105000  1.0
  H  H17  1  0.39772000  0.08801000  0.20894000  1.0
  H  H18  1  0.89772000  0.41199000  0.70894000  1.0
  H  H19  1  0.60228000  0.91199000  0.79105000  1.0
  C  C20  1  0.02609000  0.31993000  0.30672000  1.0
  C  C21  1  0.47392000  0.81993000  0.19328000  1.0
  C  C22  1  0.97391000  0.68007000  0.69327000  1.0
  C  C23  1  0.52607000  0.18007000  0.80672000  1.0
  C  C24  1  0.20594000  0.47173000  0.45481000  1.0
  C  C25  1  0.29407000  0.97173000  0.04520000  1.0
  C  C26  1  0.79406000  0.52826000  0.54519000  1.0
  C  C27  1  0.70593000  0.02827000  0.95480000  1.0
  N  N28  1  0.13260000  0.33531000  0.41697000  1.0
  N  N29  1  0.36741000  0.83530000  0.08303000  1.0
  N  N30  1  0.86741000  0.66470000  0.58303000  1.0
  N  N31  1  0.63258000  0.16469000  0.91697000  1.0
  N  N32  1  0.92703000  0.29604000  0.20838000  1.0
  N  N33  1  0.57299000  0.79604000  0.29163000  1.0
  N  N34  1  0.07298000  0.70396000  0.79162000  1.0
  N  N35  1  0.42700000  0.20397000  0.70837000  1.0
  N  N36  1  0.30417000  0.48452000  0.57188000  1.0
  N  N37  1  0.19584000  0.98451000  0.92812000  1.0
  N  N38  1  0.69584000  0.51548000  0.42811000  1.0
  N  N39  1  0.80416000  0.01549000  0.07188000  1.0
  N  N40  1  0.18081000  0.59091000  0.38034000  1.0
  N  N41  1  0.31920000  0.09090000  0.11966000  1.0
  N  N42  1  0.81920000  0.40909000  0.61966000  1.0
  N  N43  1  0.68080000  0.90909000  0.88034000  1.0
  Cl  Cl44  1  0.95645000  0.05787000  0.65115000  1.0
  Cl  Cl45  1  0.54355000  0.55787000  0.84885000  1.0
  Cl  Cl46  1  0.04355000  0.94213000  0.34885000  1.0
  Cl  Cl47  1  0.45645000  0.44213000  0.15115000  1.0
  Cl  Cl48  1  0.44647000  0.84281000  0.59489000  1.0
  Cl  Cl49  1  0.05353000  0.34280000  0.90512000  1.0
  Cl  Cl50  1  0.55353000  0.15719000  0.40511000  1.0
  Cl  Cl51  1  0.94646000  0.65720000  0.09488000  1.0
