# generated using pymatgen
data_ZnH12C7S2(NO)4
_symmetry_space_group_name_H-M   'P 1'
_cell_length_a   8.20513000
_cell_length_b   11.64190000
_cell_length_c   13.39600000
_cell_angle_alpha   90.00000000
_cell_angle_beta   90.00000000
_cell_angle_gamma   90.00000000
_symmetry_Int_Tables_number   1
_chemical_formula_structural   ZnH12C7S2(NO)4
_chemical_formula_sum   'Zn4 H48 C28 S8 N16 O16'
_cell_volume   1279.63016628
_cell_formula_units_Z   4
loop_
 _symmetry_equiv_pos_site_id
 _symmetry_equiv_pos_as_xyz
  1  'x, y, z'
loop_
 _atom_site_type_symbol
 _atom_site_label
 _atom_site_symmetry_multiplicity
 _atom_site_fract_x
 _atom_site_fract_y
 _atom_site_fract_z
 _atom_site_occupancy
  Zn  Zn0  1  0.22272000  0.89669000  0.82449000  1.0
  Zn  Zn1  1  0.27728000  0.10331000  0.32449000  1.0
  Zn  Zn2  1  0.72272000  0.60331000  0.17551000  1.0
  Zn  Zn3  1  0.77728000  0.39669000  0.67551000  1.0
  H  H4  1  0.20998000  0.90690000  0.14837000  1.0
  H  H5  1  0.29002000  0.09310000  0.64837000  1.0
  H  H6  1  0.70998000  0.59310000  0.85163000  1.0
  H  H7  1  0.79002000  0.40690000  0.35163000  1.0
  H  H8  1  0.28204000  0.93531000  0.02764000  1.0
  H  H9  1  0.21796000  0.06469000  0.52764000  1.0
  H  H10  1  0.78204000  0.56469000  0.97236000  1.0
  H  H11  1  0.71796000  0.43531000  0.47236000  1.0
  H  H12  1  0.07137000  0.74315000  0.18251000  1.0
  H  H13  1  0.42863000  0.25685000  0.68251000  1.0
  H  H14  1  0.57137000  0.75685000  0.81749000  1.0
  H  H15  1  0.92863000  0.24315000  0.31749000  1.0
  H  H16  1  0.02941000  0.64250000  0.08924000  1.0
  H  H17  1  0.47059000  0.35750000  0.58924000  1.0
  H  H18  1  0.52941000  0.85750000  0.91076000  1.0
  H  H19  1  0.97059000  0.14250000  0.41076000  1.0
  H  H20  1  0.60856000  0.94931000  0.71772000  1.0
  H  H21  1  0.89144000  0.05070000  0.21772000  1.0
  H  H22  1  0.10857000  0.55069000  0.28228000  1.0
  H  H23  1  0.39144000  0.44930000  0.78228000  1.0
  H  H24  1  0.71631000  0.07311000  0.75600000  1.0
  H  H25  1  0.78369000  0.92689000  0.25600000  1.0
  H  H26  1  0.21631000  0.42689000  0.24400000  1.0
  H  H27  1  0.28369000  0.57311000  0.74400000  1.0
  H  H28  1  0.77272000  0.77264000  0.69952000  1.0
  H  H29  1  0.72727000  0.22736000  0.19952000  1.0
  H  H30  1  0.27273000  0.72736000  0.30048000  1.0
  H  H31  1  0.22727000  0.27264000  0.80048000  1.0
  H  H32  1  0.98370000  0.78484000  0.71166000  1.0
  H  H33  1  0.51630000  0.21516000  0.21166000  1.0
  H  H34  1  0.48370000  0.71516000  0.28834000  1.0
  H  H35  1  0.01630000  0.28484000  0.78834000  1.0
  H  H36  1  0.54378000  0.65173000  0.46398000  1.0
  H  H37  1  0.95623000  0.34827000  0.96398000  1.0
  H  H38  1  0.04378000  0.84827000  0.53602000  1.0
  H  H39  1  0.45622000  0.15173000  0.03602000  1.0
  H  H40  1  0.36769000  0.61148000  0.53092000  1.0
  H  H41  1  0.13232000  0.38852000  0.03092000  1.0
  H  H42  1  0.86769000  0.88852000  0.46908000  1.0
  H  H43  1  0.63231000  0.11148000  0.96908000  1.0
  H  H44  1  0.49725000  0.95802000  0.53839000  1.0
  H  H45  1  0.00274000  0.04198000  0.03839000  1.0
  H  H46  1  0.99725000  0.54198000  0.46161000  1.0
  H  H47  1  0.50275000  0.45801000  0.96161000  1.0
  H  H48  1  0.58463000  0.85602000  0.44501000  1.0
  H  H49  1  0.91537000  0.14399000  0.94501000  1.0
  H  H50  1  0.08463000  0.64398000  0.55499000  1.0
  H  H51  1  0.41537000  0.35602000  0.05499000  1.0
  C  C52  1  0.15349000  0.78589000  0.04333000  1.0
  C  C53  1  0.34651000  0.21411000  0.54333000  1.0
  C  C54  1  0.65349000  0.71411000  0.95667000  1.0
  C  C55  1  0.84651000  0.28589000  0.45667000  1.0
  C  C56  1  0.86101000  0.93521000  0.73457000  1.0
  C  C57  1  0.63898000  0.06479000  0.23457000  1.0
  C  C58  1  0.36102000  0.56479000  0.26543000  1.0
  C  C59  1  0.13898000  0.43521000  0.76543000  1.0
  C  C60  1  0.35794000  0.79960000  0.65840000  1.0
  C  C61  1  0.14206000  0.20040000  0.15840000  1.0
  C  C62  1  0.85794000  0.70040000  0.34160000  1.0
  C  C63  1  0.64206000  0.29960000  0.84160000  1.0
  C  C64  1  0.45697000  0.78093000  0.56614000  1.0
  C  C65  1  0.04303000  0.21908000  0.06614000  1.0
  C  C66  1  0.95697000  0.71907000  0.43386000  1.0
  C  C67  1  0.54303000  0.28092000  0.93386000  1.0
  C  C68  1  0.48391000  0.65836000  0.53702000  1.0
  C  C69  1  0.01610000  0.34164000  0.03702000  1.0
  C  C70  1  0.98391000  0.84164000  0.46298000  1.0
  C  C71  1  0.51609000  0.15836000  0.96298000  1.0
  C  C72  1  0.58755000  0.59433000  0.61303000  1.0
  C  C73  1  0.91246000  0.40567000  0.11303000  1.0
  C  C74  1  0.08755000  0.90567000  0.38697000  1.0
  C  C75  1  0.41245000  0.09433000  0.88697000  1.0
  C  C76  1  0.51760000  0.86976000  0.51433000  1.0
  C  C77  1  0.98240000  0.13024000  0.01433000  1.0
  C  C78  1  0.01760000  0.63024000  0.48567000  1.0
  C  C79  1  0.48240000  0.36976000  0.98567000  1.0
  S  S80  1  0.15968000  0.73861000  0.92130000  1.0
  S  S81  1  0.34032000  0.26139000  0.42130000  1.0
  S  S82  1  0.65968000  0.76139000  0.07870000  1.0
  S  S83  1  0.84032000  0.23861000  0.57870000  1.0
  S  S84  1  0.03080000  0.01808000  0.75977000  1.0
  S  S85  1  0.46920000  0.98192000  0.25977000  1.0
  S  S86  1  0.53080000  0.48192000  0.24023000  1.0
  S  S87  1  0.96920000  0.51808000  0.74023000  1.0
  N  N88  1  0.21013000  0.88726000  0.07408000  1.0
  N  N89  1  0.28987000  0.11274000  0.57408000  1.0
  N  N90  1  0.71013000  0.61274000  0.92592000  1.0
  N  N91  1  0.78987000  0.38726000  0.42592000  1.0
  N  N92  1  0.08785000  0.71548000  0.11111000  1.0
  N  N93  1  0.41215000  0.28452000  0.61111000  1.0
  N  N94  1  0.58785000  0.78452000  0.88889000  1.0
  N  N95  1  0.91215000  0.21548000  0.38889000  1.0
  N  N96  1  0.71738000  0.98888000  0.73477000  1.0
  N  N97  1  0.78262000  0.01112000  0.23477000  1.0
  N  N98  1  0.21738000  0.51112000  0.26523000  1.0
  N  N99  1  0.28262000  0.48888000  0.76523000  1.0
  N  N100  1  0.87227000  0.82357000  0.71300000  1.0
  N  N101  1  0.62773000  0.17643000  0.21300000  1.0
  N  N102  1  0.37227000  0.67643000  0.28700000  1.0
  N  N103  1  0.12773000  0.32357000  0.78700000  1.0
  O  O104  1  0.39723000  0.88542000  0.71499000  1.0
  O  O105  1  0.10276000  0.11458000  0.21499000  1.0
  O  O106  1  0.89723000  0.61458000  0.28501000  1.0
  O  O107  1  0.60277000  0.38542000  0.78501000  1.0
  O  O108  1  0.24047000  0.73343000  0.67884000  1.0
  O  O109  1  0.25953000  0.26657000  0.17885000  1.0
  O  O110  1  0.74047000  0.76657000  0.32116000  1.0
  O  O111  1  0.75953000  0.23343000  0.82116000  1.0
  O  O112  1  0.62571000  0.49052000  0.58702000  1.0
  O  O113  1  0.87429000  0.50948000  0.08702000  1.0
  O  O114  1  0.12571000  0.00948000  0.41298000  1.0
  O  O115  1  0.37429000  0.99052000  0.91298000  1.0
  O  O116  1  0.63045000  0.64021000  0.69383000  1.0
  O  O117  1  0.86955000  0.35979000  0.19383000  1.0
  O  O118  1  0.13045000  0.85979000  0.30617000  1.0
  O  O119  1  0.36955000  0.14020000  0.80617000  1.0
