# generated using pymatgen
data_AlH9C16O5
_symmetry_space_group_name_H-M   'P 1'
_cell_length_a   6.69747000
_cell_length_b   23.44920000
_cell_length_c   25.97580000
_cell_angle_alpha   90.00000000
_cell_angle_beta   90.00000000
_cell_angle_gamma   89.99990000
_symmetry_Int_Tables_number   1
_chemical_formula_structural   AlH9C16O5
_chemical_formula_sum   'Al4 H36 C64 O20'
_cell_volume   4079.50753403
_cell_formula_units_Z   4
loop_
 _symmetry_equiv_pos_site_id
 _symmetry_equiv_pos_as_xyz
  1  'x, y, z'
loop_
 _atom_site_type_symbol
 _atom_site_label
 _atom_site_symmetry_multiplicity
 _atom_site_fract_x
 _atom_site_fract_y
 _atom_site_fract_z
 _atom_site_occupancy
  Al  Al0  1  0.21048000  0.75096000  0.25000000  1.0
  Al  Al1  1  0.78952000  0.24904000  0.75000000  1.0
  Al  Al2  1  0.71048000  0.74904000  0.25000000  1.0
  Al  Al3  1  0.28952000  0.25096000  0.75000000  1.0
  H  H4  1  0.35128000  0.36869000  0.63203000  1.0
  H  H5  1  0.64873000  0.63132000  0.36797000  1.0
  H  H6  1  0.64872000  0.63132000  0.13203000  1.0
  H  H7  1  0.35128000  0.36869000  0.86797000  1.0
  H  H8  1  0.85127000  0.13131000  0.86797000  1.0
  H  H9  1  0.14873000  0.86869000  0.13203000  1.0
  H  H10  1  0.14873000  0.86869000  0.36797000  1.0
  H  H11  1  0.85128000  0.13131000  0.63203000  1.0
  H  H12  1  0.33839000  0.44081000  0.56103000  1.0
  H  H13  1  0.66161000  0.55919000  0.43897000  1.0
  H  H14  1  0.66161000  0.55919000  0.06103000  1.0
  H  H15  1  0.33839000  0.44081000  0.93897000  1.0
  H  H16  1  0.83839000  0.05919000  0.93897000  1.0
  H  H17  1  0.16161000  0.94081000  0.06104000  1.0
  H  H18  1  0.16161000  0.94081000  0.43897000  1.0
  H  H19  1  0.83838000  0.05919000  0.56103000  1.0
  H  H20  1  0.71178000  0.35962000  0.63308000  1.0
  H  H21  1  0.28822000  0.64038000  0.36692000  1.0
  H  H22  1  0.28822000  0.64038000  0.13307000  1.0
  H  H23  1  0.71178000  0.35962000  0.86692000  1.0
  H  H24  1  0.21178000  0.14038000  0.86692000  1.0
  H  H25  1  0.78823000  0.85961000  0.13307000  1.0
  H  H26  1  0.78823000  0.85962000  0.36693000  1.0
  H  H27  1  0.21178000  0.14038000  0.63308000  1.0
  H  H28  1  0.69566000  0.43153000  0.56197000  1.0
  H  H29  1  0.30434000  0.56848000  0.43803000  1.0
  H  H30  1  0.30433000  0.56847000  0.06197000  1.0
  H  H31  1  0.69566000  0.43152000  0.93804000  1.0
  H  H32  1  0.19566000  0.06848000  0.93803000  1.0
  H  H33  1  0.80434000  0.93152000  0.06197000  1.0
  H  H34  1  0.80434000  0.93152000  0.43803000  1.0
  H  H35  1  0.19566000  0.06847000  0.56197000  1.0
  H  H36  1  0.45631000  0.67445000  0.25000000  1.0
  H  H37  1  0.54369000  0.32555000  0.75000000  1.0
  H  H38  1  0.95632000  0.82555000  0.25000000  1.0
  H  H39  1  0.04368000  0.17445000  0.75000000  1.0
  C  C40  1  0.46217000  0.81878000  0.31972000  1.0
  C  C41  1  0.53783000  0.18122000  0.68028000  1.0
  C  C42  1  0.53783000  0.18122000  0.81972000  1.0
  C  C43  1  0.46216000  0.81878000  0.18028000  1.0
  C  C44  1  0.96216000  0.68122000  0.18028000  1.0
  C  C45  1  0.03785000  0.31879000  0.81972000  1.0
  C  C46  1  0.03785000  0.31879000  0.68028000  1.0
  C  C47  1  0.96216000  0.68122000  0.31972000  1.0
  C  C48  1  0.20154000  0.42288000  0.57690000  1.0
  C  C49  1  0.79847000  0.57713000  0.42310000  1.0
  C  C50  1  0.79846000  0.57713000  0.07690000  1.0
  C  C51  1  0.20154000  0.42287000  0.92310000  1.0
  C  C52  1  0.70154000  0.07713000  0.92309000  1.0
  C  C53  1  0.29847000  0.92288000  0.07691000  1.0
  C  C54  1  0.29847000  0.92288000  0.42309000  1.0
  C  C55  1  0.70154000  0.07712000  0.57691000  1.0
  C  C56  1  0.20891000  0.38294000  0.61634000  1.0
  C  C57  1  0.79109000  0.61706000  0.38366000  1.0
  C  C58  1  0.79108000  0.61706000  0.11634000  1.0
  C  C59  1  0.20891000  0.38294000  0.88366000  1.0
  C  C60  1  0.70891000  0.11706000  0.88366000  1.0
  C  C61  1  0.29109000  0.88294000  0.11634000  1.0
  C  C62  1  0.29109000  0.88294000  0.38366000  1.0
  C  C63  1  0.70891000  0.11706000  0.61634000  1.0
  C  C64  1  0.03213000  0.36035000  0.63691000  1.0
  C  C65  1  0.96787000  0.63965000  0.36309000  1.0
  C  C66  1  0.96787000  0.63965000  0.13691000  1.0
  C  C67  1  0.03213000  0.36035000  0.86309000  1.0
  C  C68  1  0.53213000  0.13965000  0.86309000  1.0
  C  C69  1  0.46787000  0.86035000  0.13691000  1.0
  C  C70  1  0.46787000  0.86035000  0.36309000  1.0
  C  C71  1  0.53213000  0.13965000  0.63691000  1.0
  C  C72  1  0.84741000  0.37791000  0.61690000  1.0
  C  C73  1  0.15259000  0.62209000  0.38310000  1.0
  C  C74  1  0.15258000  0.62209000  0.11690000  1.0
  C  C75  1  0.84741000  0.37791000  0.88310000  1.0
  C  C76  1  0.34741000  0.12209000  0.88310000  1.0
  C  C77  1  0.65259000  0.87791000  0.11690000  1.0
  C  C78  1  0.65259000  0.87791000  0.38310000  1.0
  C  C79  1  0.34741000  0.12209000  0.61690000  1.0
  C  C80  1  0.83881000  0.41771000  0.57749000  1.0
  C  C81  1  0.16119000  0.58229000  0.42252000  1.0
  C  C82  1  0.16118000  0.58229000  0.07748000  1.0
  C  C83  1  0.83881000  0.41771000  0.92252000  1.0
  C  C84  1  0.33881000  0.08229000  0.92252000  1.0
  C  C85  1  0.66119000  0.91771000  0.07748000  1.0
  C  C86  1  0.66119000  0.91771000  0.42252000  1.0
  C  C87  1  0.33881000  0.08229000  0.57749000  1.0
  C  C88  1  0.01601000  0.44116000  0.55690000  1.0
  C  C89  1  0.98399000  0.55884000  0.44310000  1.0
  C  C90  1  0.98398000  0.55884000  0.05690000  1.0
  C  C91  1  0.01601000  0.44116000  0.94310000  1.0
  C  C92  1  0.51601000  0.05884000  0.94310000  1.0
  C  C93  1  0.48399000  0.94116000  0.05690000  1.0
  C  C94  1  0.48399000  0.94116000  0.44310000  1.0
  C  C95  1  0.51601000  0.05884000  0.55690000  1.0
  C  C96  1  0.00613000  0.48223000  0.51712000  1.0
  C  C97  1  0.99387000  0.51778000  0.48288000  1.0
  C  C98  1  0.99386000  0.51777000  0.01712000  1.0
  C  C99  1  0.00614000  0.48222000  0.98288000  1.0
  C  C100  1  0.50613000  0.01777000  0.98288000  1.0
  C  C101  1  0.49387000  0.98223000  0.01712000  1.0
  C  C102  1  0.49387000  0.98222000  0.48288000  1.0
  C  C103  1  0.50613000  0.01777000  0.51712000  1.0
  O  O104  1  0.63016000  0.80179000  0.19748000  1.0
  O  O105  1  0.36984000  0.19821000  0.80252000  1.0
  O  O106  1  0.36984000  0.19821000  0.69748000  1.0
  O  O107  1  0.63016000  0.80179000  0.30252000  1.0
  O  O108  1  0.13017000  0.69821000  0.30252000  1.0
  O  O109  1  0.86983000  0.30179000  0.69748000  1.0
  O  O110  1  0.86983000  0.30179000  0.80252000  1.0
  O  O111  1  0.13017000  0.69821000  0.19748000  1.0
  O  O112  1  0.29133000  0.80405000  0.30260000  1.0
  O  O113  1  0.70868000  0.19595000  0.69740000  1.0
  O  O114  1  0.70868000  0.19595000  0.80260000  1.0
  O  O115  1  0.29132000  0.80405000  0.19740000  1.0
  O  O116  1  0.79133000  0.69595000  0.19740000  1.0
  O  O117  1  0.20867000  0.30405000  0.80260000  1.0
  O  O118  1  0.20867000  0.30405000  0.69740000  1.0
  O  O119  1  0.79133000  0.69595000  0.30260000  1.0
  O  O120  1  0.45940000  0.71569000  0.25000000  1.0
  O  O121  1  0.54060000  0.28431000  0.75000000  1.0
  O  O122  1  0.95940000  0.78431000  0.25000000  1.0
  O  O123  1  0.04060000  0.21569000  0.75000000  1.0
