# generated using pymatgen
data_Nd2H24C24S3(NO8)2
_symmetry_space_group_name_H-M   'P 1'
_cell_length_a   9.68006000
_cell_length_b   10.95878018
_cell_length_c   19.07780000
_cell_angle_alpha   83.92754020
_cell_angle_beta   76.62080000
_cell_angle_gamma   64.37717337
_symmetry_Int_Tables_number   1
_chemical_formula_structural   Nd2H24C24S3(NO8)2
_chemical_formula_sum   'Nd4 H48 C48 S6 N4 O32'
_cell_volume   1775.22169911
_cell_formula_units_Z   2
loop_
 _symmetry_equiv_pos_site_id
 _symmetry_equiv_pos_as_xyz
  1  'x, y, z'
loop_
 _atom_site_type_symbol
 _atom_site_label
 _atom_site_symmetry_multiplicity
 _atom_site_fract_x
 _atom_site_fract_y
 _atom_site_fract_z
 _atom_site_occupancy
  Nd  Nd0  1  0.26528000  0.02809000  0.50228000  1.0
  Nd  Nd1  1  0.73472000  0.97191000  0.49772000  1.0
  Nd  Nd2  1  0.26944000  0.48305000  0.00485000  1.0
  Nd  Nd3  1  0.73056000  0.51695000  0.99515000  1.0
  H  H4  1  0.86320000  0.27140000  0.79885000  1.0
  H  H5  1  0.13681000  0.72860000  0.20116000  1.0
  H  H6  1  0.97547000  0.12470000  0.74231000  1.0
  H  H7  1  0.02453000  0.87529000  0.25770000  1.0
  H  H8  1  0.76662000  0.20629000  0.75423000  1.0
  H  H9  1  0.23338000  0.79371000  0.24578000  1.0
  H  H10  1  0.24482000  0.96398000  0.36474000  1.0
  H  H11  1  0.75517000  0.03603000  0.63525000  1.0
  H  H12  1  0.07801000  0.97681000  0.40613000  1.0
  H  H13  1  0.92199000  0.02320000  0.59387000  1.0
  H  H14  1  0.39009000  0.66743000  0.60502000  1.0
  H  H15  1  0.60989000  0.33258000  0.39498000  1.0
  H  H16  1  0.53327000  0.39678000  0.59838000  1.0
  H  H17  1  0.46672000  0.60322000  0.40162000  1.0
  H  H18  1  0.76714000  0.12846000  0.31566000  1.0
  H  H19  1  0.23286000  0.87155000  0.68434000  1.0
  H  H20  1  0.78542000  0.49721000  0.73944000  1.0
  H  H21  1  0.21462000  0.50277000  0.26056000  1.0
  H  H22  1  0.65925000  0.46074000  0.69929000  1.0
  H  H23  1  0.34077000  0.53925000  0.30070000  1.0
  H  H24  1  0.80736000  0.50418000  0.64336000  1.0
  H  H25  1  0.19268000  0.49579000  0.35663000  1.0
  H  H26  1  0.79250000  0.25669000  0.18833000  1.0
  H  H27  1  0.20750000  0.74332000  0.81167000  1.0
  H  H28  1  0.91456000  0.48465000  0.32167000  1.0
  H  H29  1  0.08543000  0.51536000  0.67833000  1.0
  H  H30  1  0.78137000  0.49482000  0.26786000  1.0
  H  H31  1  0.21863000  0.50519000  0.73214000  1.0
  H  H32  1  0.90945000  0.57672000  0.23800000  1.0
  H  H33  1  0.09055000  0.42329000  0.76200000  1.0
  H  H34  1  0.13146000  0.44963000  0.88151000  1.0
  H  H35  1  0.86854000  0.55038000  0.11849000  1.0
  H  H36  1  0.30560000  0.34091000  0.87805000  1.0
  H  H37  1  0.69439000  0.65910000  0.12195000  1.0
  H  H38  1  0.00137000  0.87383000  0.10134000  1.0
  H  H39  1  0.99864000  0.12616000  0.89866000  1.0
  H  H40  1  0.88705000  0.13865000  0.07234000  1.0
  H  H41  1  0.11296000  0.86134000  0.92767000  1.0
  H  H42  1  0.94370000  0.22438000  0.28618000  1.0
  H  H43  1  0.05629000  0.77563000  0.71382000  1.0
  H  H44  1  0.10303000  0.23460000  0.31349000  1.0
  H  H45  1  0.89695000  0.76541000  0.68651000  1.0
  H  H46  1  0.13548000  0.15499000  0.23042000  1.0
  H  H47  1  0.86451000  0.84502000  0.76958000  1.0
  H  H48  1  0.19116000  0.27457000  0.14083000  1.0
  H  H49  1  0.80883000  0.72544000  0.85918000  1.0
  H  H50  1  0.00106000  0.33361000  0.58525000  1.0
  H  H51  1  0.99895000  0.66636000  0.41475000  1.0
  C  C52  1  0.87310000  0.22238000  0.74951000  1.0
  C  C53  1  0.12691000  0.77761000  0.25050000  1.0
  C  C54  1  0.10207000  0.79601000  0.54838000  1.0
  C  C55  1  0.89792000  0.20400000  0.45161000  1.0
  C  C56  1  0.33670000  0.72294000  0.07221000  1.0
  C  C57  1  0.66331000  0.27706000  0.92779000  1.0
  C  C58  1  0.34863000  0.60331000  0.58442000  1.0
  C  C59  1  0.65136000  0.39669000  0.41558000  1.0
  C  C60  1  0.57160000  0.25840000  0.18096000  1.0
  C  C61  1  0.42840000  0.74160000  0.81904000  1.0
  C  C62  1  0.23383000  0.86999000  0.06992000  1.0
  C  C63  1  0.76618000  0.13001000  0.93008000  1.0
  C  C64  1  0.48311000  0.08941000  0.36614000  1.0
  C  C65  1  0.51689000  0.91059000  0.63385000  1.0
  C  C66  1  0.10987000  0.25338000  0.01890000  1.0
  C  C67  1  0.89014000  0.74662000  0.98110000  1.0
  C  C68  1  0.09761000  0.37211000  0.16196000  1.0
  C  C69  1  0.90240000  0.62789000  0.83804000  1.0
  C  C70  1  0.42371000  0.46068000  0.58158000  1.0
  C  C71  1  0.57628000  0.53932000  0.41842000  1.0
  C  C72  1  0.34447000  0.40678000  0.55191000  1.0
  C  C73  1  0.65551000  0.59322000  0.44810000  1.0
  C  C74  1  0.21376000  0.65526000  0.55664000  1.0
  C  C75  1  0.78624000  0.34474000  0.44335000  1.0
  C  C76  1  0.39144000  0.26353000  0.53587000  1.0
  C  C77  1  0.60855000  0.73647000  0.46414000  1.0
  C  C78  1  0.54588000  0.14401000  0.29877000  1.0
  C  C79  1  0.45411000  0.85600000  0.70123000  1.0
  C  C80  1  0.68313000  0.16244000  0.28049000  1.0
  C  C81  1  0.31687000  0.83756000  0.71951000  1.0
  C  C82  1  0.12744000  0.11542000  0.04299000  1.0
  C  C83  1  0.87256000  0.88458000  0.95701000  1.0
  C  C84  1  0.77985000  0.45048000  0.69260000  1.0
  C  C85  1  0.22017000  0.54951000  0.30739000  1.0
  C  C86  1  0.99883000  0.25816000  0.62808000  1.0
  C  C87  1  0.00117000  0.74182000  0.37192000  1.0
  C  C88  1  0.69693000  0.22900000  0.21338000  1.0
  C  C89  1  0.30307000  0.77101000  0.78662000  1.0
  C  C90  1  0.53869000  0.32994000  0.11208000  1.0
  C  C91  1  0.46132000  0.67006000  0.88792000  1.0
  C  C92  1  0.89855000  0.48806000  0.26630000  1.0
  C  C93  1  0.10145000  0.51195000  0.73371000  1.0
  C  C94  1  0.07117000  0.93120000  0.08346000  1.0
  C  C95  1  0.92883000  0.06880000  0.91655000  1.0
  C  C96  1  0.01040000  0.07109000  0.06807000  1.0
  C  C97  1  0.98960000  0.92891000  0.93193000  1.0
  C  C98  1  0.05225000  0.23788000  0.26699000  1.0
  C  C99  1  0.94774000  0.76213000  0.73301000  1.0
  S  S100  1  0.17839000  0.52961000  0.52807000  1.0
  S  S101  1  0.82160000  0.47039000  0.47193000  1.0
  S  S102  1  0.43750000  0.20510000  0.23292000  1.0
  S  S103  1  0.56250000  0.79490000  0.76707000  1.0
  S  S104  1  0.31160000  0.98537000  0.03951000  1.0
  S  S105  1  0.68839000  0.01464000  0.96049000  1.0
  N  N106  1  0.01898000  0.36652000  0.22871000  1.0
  N  N107  1  0.98102000  0.63349000  0.77129000  1.0
  N  N108  1  0.88990000  0.30865000  0.68778000  1.0
  N  N109  1  0.11012000  0.69133000  0.31222000  1.0
  O  O110  1  0.34817000  0.08955000  0.37361000  1.0
  O  O111  1  0.65183000  0.91046000  0.62639000  1.0
  O  O112  1  0.23256000  0.27475000  0.00746000  1.0
  O  O113  1  0.76743000  0.72526000  0.99254000  1.0
  O  O114  1  0.41211000  0.34459000  0.09597000  1.0
  O  O115  1  0.58790000  0.65541000  0.90403000  1.0
  O  O116  1  0.09285000  0.13593000  0.62009000  1.0
  O  O117  1  0.90716000  0.86404000  0.37992000  1.0
  O  O118  1  0.52809000  0.18174000  0.54331000  1.0
  O  O119  1  0.47189000  0.81827000  0.45669000  1.0
  O  O120  1  0.12750000  0.89234000  0.56701000  1.0
  O  O121  1  0.87250000  0.10766000  0.43298000  1.0
  O  O122  1  0.98328000  0.81275000  0.52428000  1.0
  O  O123  1  0.01671000  0.18725000  0.47572000  1.0
  O  O124  1  0.07055000  0.47876000  0.12441000  1.0
  O  O125  1  0.92944000  0.52125000  0.87559000  1.0
  O  O126  1  0.26944000  0.64295000  0.08283000  1.0
  O  O127  1  0.73057000  0.35705000  0.91717000  1.0
  O  O128  1  0.19179000  0.92463000  0.40402000  1.0
  O  O129  1  0.80822000  0.07537000  0.59598000  1.0
  O  O130  1  0.29240000  0.23560000  0.51511000  1.0
  O  O131  1  0.70759000  0.76440000  0.48489000  1.0
  O  O132  1  0.63732000  0.37103000  0.07494000  1.0
  O  O133  1  0.36268000  0.62897000  0.92506000  1.0
  O  O134  1  0.48366000  0.68627000  0.06241000  1.0
  O  O135  1  0.51635000  0.31373000  0.93759000  1.0
  O  O136  1  0.97533000  0.34216000  0.01179000  1.0
  O  O137  1  0.02466000  0.65784000  0.98821000  1.0
  O  O138  1  0.23950000  0.43793000  0.88038000  1.0
  O  O139  1  0.76050000  0.56207000  0.11962000  1.0
  O  O140  1  0.56222000  0.04847000  0.41536000  1.0
  O  O141  1  0.43779000  0.95153000  0.58463000  1.0
