# generated using pymatgen
data_AgH19C17N4O3
_symmetry_space_group_name_H-M   'P 1'
_cell_length_a   10.92430000
_cell_length_b   12.05150000
_cell_length_c   14.64330000
_cell_angle_alpha   90.00050000
_cell_angle_beta   89.99990000
_cell_angle_gamma   89.99990000
_symmetry_Int_Tables_number   1
_chemical_formula_structural   AgH19C17N4O3
_chemical_formula_sum   'Ag4 H76 C68 N16 O12'
_cell_volume   1927.85196801
_cell_formula_units_Z   4
loop_
 _symmetry_equiv_pos_site_id
 _symmetry_equiv_pos_as_xyz
  1  'x, y, z'
loop_
 _atom_site_type_symbol
 _atom_site_label
 _atom_site_symmetry_multiplicity
 _atom_site_fract_x
 _atom_site_fract_y
 _atom_site_fract_z
 _atom_site_occupancy
  Ag  Ag0  1  0.41440000  0.13152000  0.98782000  1.0
  Ag  Ag1  1  0.91440000  0.86848000  0.01218000  1.0
  Ag  Ag2  1  0.41440000  0.63152000  0.01218000  1.0
  Ag  Ag3  1  0.91440000  0.36848000  0.98782000  1.0
  H  H4  1  0.38557000  0.36173000  0.80642000  1.0
  H  H5  1  0.88556000  0.63827000  0.19359000  1.0
  H  H6  1  0.38555000  0.86174000  0.19358000  1.0
  H  H7  1  0.88556000  0.13827000  0.80642000  1.0
  H  H8  1  0.52366000  0.54885000  0.64764000  1.0
  H  H9  1  0.02366000  0.45114000  0.35235000  1.0
  H  H10  1  0.52365000  0.04886000  0.35236000  1.0
  H  H11  1  0.02366000  0.95114000  0.64764000  1.0
  H  H12  1  0.70556000  0.17620000  0.70694000  1.0
  H  H13  1  0.20556000  0.82379000  0.29305000  1.0
  H  H14  1  0.70556000  0.67621000  0.29305000  1.0
  H  H15  1  0.20556000  0.32379000  0.70695000  1.0
  H  H16  1  0.69414000  0.59155000  0.53851000  1.0
  H  H17  1  0.19413000  0.40845000  0.46148000  1.0
  H  H18  1  0.69413000  0.09156000  0.46148000  1.0
  H  H19  1  0.19414000  0.90845000  0.53852000  1.0
  H  H20  1  0.88441000  0.53365000  0.46058000  1.0
  H  H21  1  0.38440000  0.46634000  0.53941000  1.0
  H  H22  1  0.88440000  0.03366000  0.53942000  1.0
  H  H23  1  0.38440000  0.96635000  0.46059000  1.0
  H  H24  1  0.97374000  0.34605000  0.48878000  1.0
  H  H25  1  0.47373000  0.65393000  0.51122000  1.0
  H  H26  1  0.97373000  0.84607000  0.51122000  1.0
  H  H27  1  0.47373000  0.15393000  0.48878000  1.0
  H  H28  1  0.87182000  0.21588000  0.59521000  1.0
  H  H29  1  0.37182000  0.78412000  0.40478000  1.0
  H  H30  1  0.87182000  0.71589000  0.40478000  1.0
  H  H31  1  0.37182000  0.28411000  0.59522000  1.0
  H  H32  1  0.63812000  0.29722000  0.04250000  1.0
  H  H33  1  0.13812000  0.70278000  0.95750000  1.0
  H  H34  1  0.63812000  0.79722000  0.95750000  1.0
  H  H35  1  0.13812000  0.20278000  0.04250000  1.0
  H  H36  1  0.69108000  0.21751000  0.94654000  1.0
  H  H37  1  0.19108000  0.78249000  0.05346000  1.0
  H  H38  1  0.69108000  0.71751000  0.05346000  1.0
  H  H39  1  0.19108000  0.28249000  0.94654000  1.0
  H  H40  1  0.75319000  0.29594000  0.18467000  1.0
  H  H41  1  0.25319000  0.70406000  0.81533000  1.0
  H  H42  1  0.75319000  0.79594000  0.81533000  1.0
  H  H43  1  0.25319000  0.20406000  0.18467000  1.0
  H  H44  1  0.89011000  0.21516000  0.19205000  1.0
  H  H45  1  0.39012000  0.78484000  0.80795000  1.0
  H  H46  1  0.89011000  0.71516000  0.80795000  1.0
  H  H47  1  0.39011000  0.28484000  0.19205000  1.0
  H  H48  1  0.54991000  0.05735000  0.17799000  1.0
  H  H49  1  0.04991000  0.94265000  0.82201000  1.0
  H  H50  1  0.54991000  0.55735000  0.82201000  1.0
  H  H51  1  0.04991000  0.44265000  0.17799000  1.0
  H  H52  1  0.56068000  0.20522000  0.17539000  1.0
  H  H53  1  0.06067000  0.79479000  0.82461000  1.0
  H  H54  1  0.56067000  0.70522000  0.82462000  1.0
  H  H55  1  0.06067000  0.29479000  0.17539000  1.0
  H  H56  1  0.88090000  0.01541000  0.19435000  1.0
  H  H57  1  0.38090000  0.98459000  0.80565000  1.0
  H  H58  1  0.88090000  0.51540000  0.80565000  1.0
  H  H59  1  0.38090000  0.48460000  0.19435000  1.0
  H  H60  1  0.73527000  0.94850000  0.18858000  1.0
  H  H61  1  0.23527000  0.05150000  0.81142000  1.0
  H  H62  1  0.73527000  0.44849000  0.81141000  1.0
  H  H63  1  0.23527000  0.55151000  0.18859000  1.0
  H  H64  1  0.67848000  0.02143000  0.94944000  1.0
  H  H65  1  0.17848000  0.97856000  0.05056000  1.0
  H  H66  1  0.67848000  0.52144000  0.05056000  1.0
  H  H67  1  0.17848000  0.47856000  0.94944000  1.0
  H  H68  1  0.62140000  0.95091000  0.04951000  1.0
  H  H69  1  0.12140000  0.04908000  0.95049000  1.0
  H  H70  1  0.62140000  0.45092000  0.95049000  1.0
  H  H71  1  0.12140000  0.54909000  0.04951000  1.0
  H  H72  1  0.95965000  0.11091000  0.06506000  1.0
  H  H73  1  0.45965000  0.88909000  0.93494000  1.0
  H  H74  1  0.95965000  0.61091000  0.93494000  1.0
  H  H75  1  0.45965000  0.38909000  0.06506000  1.0
  H  H76  1  0.87774000  0.11449000  0.95883000  1.0
  H  H77  1  0.37774000  0.88552000  0.04117000  1.0
  H  H78  1  0.87774000  0.61449000  0.04117000  1.0
  H  H79  1  0.37775000  0.38551000  0.95883000  1.0
  C  C80  1  0.50910000  0.21485000  0.81130000  1.0
  C  C81  1  0.00909000  0.78515000  0.18870000  1.0
  C  C82  1  0.50910000  0.71484000  0.18869000  1.0
  C  C83  1  0.00909000  0.28515000  0.81130000  1.0
  C  C84  1  0.56202000  0.28912000  0.73953000  1.0
  C  C85  1  0.06202000  0.71088000  0.26047000  1.0
  C  C86  1  0.56202000  0.78913000  0.26047000  1.0
  C  C87  1  0.06202000  0.21087000  0.73953000  1.0
  C  C88  1  0.50863000  0.39601000  0.72097000  1.0
  C  C89  1  0.00862000  0.60399000  0.27902000  1.0
  C  C90  1  0.50862000  0.89601000  0.27902000  1.0
  C  C91  1  0.00862000  0.10399000  0.72098000  1.0
  C  C92  1  0.56354000  0.46703000  0.65888000  1.0
  C  C93  1  0.06354000  0.53297000  0.34112000  1.0
  C  C94  1  0.56354000  0.96704000  0.34111000  1.0
  C  C95  1  0.06354000  0.03296000  0.65888000  1.0
  C  C96  1  0.67143000  0.43623000  0.61199000  1.0
  C  C97  1  0.17143000  0.56376000  0.38801000  1.0
  C  C98  1  0.67143000  0.93624000  0.38801000  1.0
  C  C99  1  0.17143000  0.06376000  0.61199000  1.0
  C  C100  1  0.72337000  0.32823000  0.62823000  1.0
  C  C101  1  0.22337000  0.67176000  0.37177000  1.0
  C  C102  1  0.72337000  0.82824000  0.37177000  1.0
  C  C103  1  0.22337000  0.17176000  0.62824000  1.0
  C  C104  1  0.66630000  0.25752000  0.69245000  1.0
  C  C105  1  0.16630000  0.74247000  0.30754000  1.0
  C  C106  1  0.66630000  0.75753000  0.30754000  1.0
  C  C107  1  0.16630000  0.24247000  0.69246000  1.0
  C  C108  1  0.73201000  0.50898000  0.55043000  1.0
  C  C109  1  0.23199000  0.49102000  0.44956000  1.0
  C  C110  1  0.73199000  0.00899000  0.44956000  1.0
  C  C111  1  0.23199000  0.99102000  0.55043000  1.0
  C  C112  1  0.83823000  0.47665000  0.50707000  1.0
  C  C113  1  0.33821000  0.52335000  0.49292000  1.0
  C  C114  1  0.83821000  0.97666000  0.49293000  1.0
  C  C115  1  0.33821000  0.02335000  0.50707000  1.0
  C  C116  1  0.88885000  0.37004000  0.52262000  1.0
  C  C117  1  0.38884000  0.62995000  0.47738000  1.0
  C  C118  1  0.88884000  0.87005000  0.47738000  1.0
  C  C119  1  0.38884000  0.12995000  0.52262000  1.0
  C  C120  1  0.83230000  0.29734000  0.58178000  1.0
  C  C121  1  0.33230000  0.70264000  0.41821000  1.0
  C  C122  1  0.83230000  0.79736000  0.41821000  1.0
  C  C123  1  0.33230000  0.20264000  0.58179000  1.0
  C  C124  1  0.68416000  0.22049000  0.02131000  1.0
  C  C125  1  0.18416000  0.77951000  0.97869000  1.0
  C  C126  1  0.68416000  0.72050000  0.97869000  1.0
  C  C127  1  0.18416000  0.27951000  0.02131000  1.0
  C  C128  1  0.79764000  0.21853000  0.16272000  1.0
  C  C129  1  0.29764000  0.78148000  0.83728000  1.0
  C  C130  1  0.79763000  0.71853000  0.83728000  1.0
  C  C131  1  0.29763000  0.28148000  0.16272000  1.0
  C  C132  1  0.60538000  0.12752000  0.15454000  1.0
  C  C133  1  0.10538000  0.87248000  0.84546000  1.0
  C  C134  1  0.60538000  0.62752000  0.84546000  1.0
  C  C135  1  0.10538000  0.37248000  0.15454000  1.0
  C  C136  1  0.78830000  0.02059000  0.16548000  1.0
  C  C137  1  0.28830000  0.97941000  0.83452000  1.0
  C  C138  1  0.78830000  0.52058000  0.83452000  1.0
  C  C139  1  0.28830000  0.47942000  0.16548000  1.0
  C  C140  1  0.67396000  0.02233000  0.02441000  1.0
  C  C141  1  0.17397000  0.97767000  0.97559000  1.0
  C  C142  1  0.67397000  0.52233000  0.97559000  1.0
  C  C143  1  0.17397000  0.47767000  0.02441000  1.0
  C  C144  1  0.86857000  0.11484000  0.03335000  1.0
  C  C145  1  0.36857000  0.88516000  0.96665000  1.0
  C  C146  1  0.86857000  0.61484000  0.96665000  1.0
  C  C147  1  0.36857000  0.38516000  0.03335000  1.0
  N  N148  1  0.61006000  0.12505000  0.05287000  1.0
  N  N149  1  0.11006000  0.87495000  0.94713000  1.0
  N  N150  1  0.61006000  0.62505000  0.94714000  1.0
  N  N151  1  0.11006000  0.37495000  0.05287000  1.0
  N  N152  1  0.80860000  0.21937000  0.06131000  1.0
  N  N153  1  0.30860000  0.78063000  0.93869000  1.0
  N  N154  1  0.80860000  0.71937000  0.93869000  1.0
  N  N155  1  0.30860000  0.28064000  0.06131000  1.0
  N  N156  1  0.79883000  0.01624000  0.06349000  1.0
  N  N157  1  0.29882000  0.98377000  0.93651000  1.0
  N  N158  1  0.79883000  0.51624000  0.93651000  1.0
  N  N159  1  0.29883000  0.48377000  0.06349000  1.0
  N  N160  1  0.72764000  0.12301000  0.19466000  1.0
  N  N161  1  0.22764000  0.87699000  0.80534000  1.0
  N  N162  1  0.72764000  0.62301000  0.80534000  1.0
  N  N163  1  0.22764000  0.37700000  0.19466000  1.0
  O  O164  1  0.40989000  0.25086000  0.85132000  1.0
  O  O165  1  0.90989000  0.74915000  0.14868000  1.0
  O  O166  1  0.40989000  0.75085000  0.14868000  1.0
  O  O167  1  0.90989000  0.24914000  0.85132000  1.0
  O  O168  1  0.56107000  0.12561000  0.83312000  1.0
  O  O169  1  0.06107000  0.87439000  0.16687000  1.0
  O  O170  1  0.56107000  0.62561000  0.16687000  1.0
  O  O171  1  0.06107000  0.37439000  0.83313000  1.0
  O  O172  1  0.40611000  0.42938000  0.76579000  1.0
  O  O173  1  0.90611000  0.57063000  0.23421000  1.0
  O  O174  1  0.40611000  0.92938000  0.23421000  1.0
  O  O175  1  0.90611000  0.07062000  0.76579000  1.0
