# generated using pymatgen
data_ZnH17C20N2O5
_symmetry_space_group_name_H-M   'P 1'
_cell_length_a   9.56013000
_cell_length_b   10.54990000
_cell_length_c   10.94590000
_cell_angle_alpha   108.30000000
_cell_angle_beta   110.55000000
_cell_angle_gamma   103.29300000
_symmetry_Int_Tables_number   1
_chemical_formula_structural   ZnH17C20N2O5
_chemical_formula_sum   'Zn2 H34 C40 N4 O10'
_cell_volume   906.77304305
_cell_formula_units_Z   2
loop_
 _symmetry_equiv_pos_site_id
 _symmetry_equiv_pos_as_xyz
  1  'x, y, z'
loop_
 _atom_site_type_symbol
 _atom_site_label
 _atom_site_symmetry_multiplicity
 _atom_site_fract_x
 _atom_site_fract_y
 _atom_site_fract_z
 _atom_site_occupancy
  Zn  Zn0  1  0.40889000  0.18010000  0.94756000  1.0
  Zn  Zn1  1  0.59111000  0.81990000  0.05244000  1.0
  H  H2  1  0.39708000  0.91327000  0.82105000  1.0
  H  H3  1  0.60292000  0.08673000  0.17895000  1.0
  H  H4  1  0.27239000  0.41324000  0.25618000  1.0
  H  H5  1  0.72761000  0.58676000  0.74382000  1.0
  H  H6  1  0.07318000  0.44766000  0.71520000  1.0
  H  H7  1  0.92683000  0.55234000  0.28480000  1.0
  H  H8  1  0.73642000  0.52686000  0.95203000  1.0
  H  H9  1  0.26359000  0.47314000  0.04797000  1.0
  H  H10  1  0.03722000  0.28725000  0.03659000  1.0
  H  H11  1  0.96278000  0.71275000  0.96341000  1.0
  H  H12  1  0.31050000  0.91693000  0.92540000  1.0
  H  H13  1  0.68950000  0.08307000  0.07461000  1.0
  H  H14  1  0.70417000  0.38746000  0.53099000  1.0
  H  H15  1  0.29583000  0.61254000  0.46901000  1.0
  H  H16  1  0.93732000  0.31437000  0.26160000  1.0
  H  H17  1  0.06269000  0.68563000  0.73840000  1.0
  H  H18  1  0.88855000  0.13384000  0.38541000  1.0
  H  H19  1  0.11145000  0.86616000  0.61459000  1.0
  H  H20  1  0.08944000  0.19650000  0.41540000  1.0
  H  H21  1  0.91056000  0.80350000  0.58460000  1.0
  H  H22  1  0.07622000  0.03983000  0.92634000  1.0
  H  H23  1  0.92378000  0.96017000  0.07366000  1.0
  H  H24  1  0.71180000  0.07079000  0.48179000  1.0
  H  H25  1  0.28820000  0.92921000  0.51821000  1.0
  H  H26  1  0.38433000  0.43606000  0.74113000  1.0
  H  H27  1  0.61567000  0.56394000  0.25886000  1.0
  H  H28  1  0.33785000  0.29422000  0.57568000  1.0
  H  H29  1  0.66215000  0.70578000  0.42432000  1.0
  H  H30  1  0.46587000  0.30207000  0.74507000  1.0
  H  H31  1  0.53413000  0.69793000  0.25493000  1.0
  H  H32  1  0.77638000  0.93260000  0.82352000  1.0
  H  H33  1  0.22362000  0.06740000  0.17648000  1.0
  H  H34  1  0.59771000  0.94487000  0.60632000  1.0
  H  H35  1  0.40229000  0.05513000  0.39368000  1.0
  C  C36  1  0.37180000  0.45147000  0.36318000  1.0
  C  C37  1  0.62820000  0.54853000  0.63682000  1.0
  C  C38  1  0.04160000  0.47005000  0.62042000  1.0
  C  C39  1  0.95841000  0.52996000  0.37958000  1.0
  C  C40  1  0.85172000  0.51511000  0.97268000  1.0
  C  C41  1  0.14828000  0.48490000  0.02733000  1.0
  C  C42  1  0.02257000  0.38128000  0.02115000  1.0
  C  C43  1  0.97742000  0.61872000  0.97885000  1.0
  C  C44  1  0.87338000  0.39496000  0.99349000  1.0
  C  C45  1  0.12662000  0.60504000  0.00651000  1.0
  C  C46  1  0.74044000  0.28157000  0.98822000  1.0
  C  C47  1  0.25957000  0.71843000  0.01178000  1.0
  C  C48  1  0.21690000  0.23393000  0.69262000  1.0
  C  C49  1  0.78310000  0.76607000  0.30738000  1.0
  C  C50  1  0.47966000  0.27256000  0.25379000  1.0
  C  C51  1  0.52034000  0.72744000  0.74621000  1.0
  C  C52  1  0.48668000  0.38772000  0.38081000  1.0
  C  C53  1  0.51332000  0.61228000  0.61919000  1.0
  C  C54  1  0.61474000  0.43675000  0.51867000  1.0
  C  C55  1  0.38526000  0.56325000  0.48133000  1.0
  C  C56  1  0.06182000  0.11728000  0.76199000  1.0
  C  C57  1  0.93818000  0.88272000  0.23801000  1.0
  C  C58  1  0.96470000  0.39593000  0.36633000  1.0
  C  C59  1  0.03530000  0.60407000  0.63367000  1.0
  C  C60  1  0.00601000  0.36498000  0.48636000  1.0
  C  C61  1  0.99400000  0.63502000  0.51364000  1.0
  C  C62  1  0.95866000  0.12284000  0.63625000  1.0
  C  C63  1  0.04134000  0.87716000  0.36375000  1.0
  C  C64  1  0.00926000  0.21747000  0.46390000  1.0
  C  C65  1  0.99074000  0.78253000  0.53610000  1.0
  C  C66  1  0.99788000  0.04661000  0.83046000  1.0
  C  C67  1  0.00212000  0.95339000  0.16954000  1.0
  C  C68  1  0.79032000  0.06266000  0.57679000  1.0
  C  C69  1  0.20968000  0.93734000  0.42321000  1.0
  C  C70  1  0.35861000  0.32011000  0.68727000  1.0
  C  C71  1  0.64139000  0.67989000  0.31273000  1.0
  C  C72  1  0.83024000  0.98544000  0.77110000  1.0
  C  C73  1  0.16976000  0.01456000  0.22890000  1.0
  C  C74  1  0.72811000  0.99365000  0.64703000  1.0
  C  C75  1  0.27189000  0.00635000  0.35297000  1.0
  N  N76  1  0.06059000  0.19512000  0.59439000  1.0
  N  N77  1  0.93941000  0.80488000  0.40561000  1.0
  N  N78  1  0.22135000  0.18793000  0.79439000  1.0
  N  N79  1  0.77864000  0.81207000  0.20561000  1.0
  O  O80  1  0.76660000  0.17748000  0.01057000  1.0
  O  O81  1  0.23340000  0.82252000  0.98943000  1.0
  O  O82  1  0.60648000  0.30190000  0.96137000  1.0
  O  O83  1  0.39352000  0.69810000  0.03863000  1.0
  O  O84  1  0.34146000  0.96790000  0.86874000  1.0
  O  O85  1  0.65854000  0.03210000  0.13126000  1.0
  O  O86  1  0.39749000  0.26828000  0.12906000  1.0
  O  O87  1  0.60251000  0.73172000  0.87094000  1.0
  O  O88  1  0.55285000  0.19089000  0.27658000  1.0
  O  O89  1  0.44715000  0.80911000  0.72343000  1.0
