# generated using pymatgen
data_HgH9C8NO2
_symmetry_space_group_name_H-M   'P 1'
_cell_length_a   4.89488000
_cell_length_b   12.92850000
_cell_length_c   13.48010000
_cell_angle_alpha   90.00000000
_cell_angle_beta   93.16060000
_cell_angle_gamma   89.99990000
_symmetry_Int_Tables_number   1
_chemical_formula_structural   HgH9C8NO2
_chemical_formula_sum   'Hg4 H36 C32 N4 O8'
_cell_volume   851.76972782
_cell_formula_units_Z   4
loop_
 _symmetry_equiv_pos_site_id
 _symmetry_equiv_pos_as_xyz
  1  'x, y, z'
loop_
 _atom_site_type_symbol
 _atom_site_label
 _atom_site_symmetry_multiplicity
 _atom_site_fract_x
 _atom_site_fract_y
 _atom_site_fract_z
 _atom_site_occupancy
  Hg  Hg0  1  0.05489000  0.15048000  0.64586000  1.0
  Hg  Hg1  1  0.44511000  0.65048000  0.85414000  1.0
  Hg  Hg2  1  0.94512000  0.84952000  0.35414000  1.0
  Hg  Hg3  1  0.55488000  0.34952000  0.14586000  1.0
  H  H4  1  0.88345000  0.15602000  0.25935000  1.0
  H  H5  1  0.61655000  0.65602000  0.24065000  1.0
  H  H6  1  0.11655000  0.84398000  0.74065000  1.0
  H  H7  1  0.38346000  0.34399000  0.75935000  1.0
  H  H8  1  0.97903000  0.27390000  0.30429000  1.0
  H  H9  1  0.52097000  0.77390000  0.19571000  1.0
  H  H10  1  0.02097000  0.72610000  0.69571000  1.0
  H  H11  1  0.47903000  0.22610000  0.80429000  1.0
  H  H12  1  0.69540000  0.06117000  0.95044000  1.0
  H  H13  1  0.80460000  0.56117000  0.54956000  1.0
  H  H14  1  0.30460000  0.93883000  0.04956000  1.0
  H  H15  1  0.19540000  0.43883000  0.45044000  1.0
  H  H16  1  0.70414000  0.92829000  0.91499000  1.0
  H  H17  1  0.79586000  0.42829000  0.58501000  1.0
  H  H18  1  0.29586000  0.07171000  0.08501000  1.0
  H  H19  1  0.20414000  0.57171000  0.41499000  1.0
  H  H20  1  0.44090000  0.01125000  0.86336000  1.0
  H  H21  1  0.05910000  0.51125000  0.63664000  1.0
  H  H22  1  0.55910000  0.98875000  0.13664000  1.0
  H  H23  1  0.94090000  0.48875000  0.36336000  1.0
  H  H24  1  0.45112000  0.32385000  0.58279000  1.0
  H  H25  1  0.04888000  0.82385000  0.91721000  1.0
  H  H26  1  0.54888000  0.67615000  0.41721000  1.0
  H  H27  1  0.95112000  0.17615000  0.08279000  1.0
  H  H28  1  0.75670000  0.35073000  0.44508000  1.0
  H  H29  1  0.74331000  0.85073000  0.05492000  1.0
  H  H30  1  0.24330000  0.64927000  0.55492000  1.0
  H  H31  1  0.25669000  0.14927000  0.94508000  1.0
  H  H32  1  0.52065000  0.05510000  0.32178000  1.0
  H  H33  1  0.97935000  0.55510000  0.17822000  1.0
  H  H34  1  0.47935000  0.94489000  0.67822000  1.0
  H  H35  1  0.02065000  0.44490000  0.82178000  1.0
  H  H36  1  0.20729000  0.02872000  0.45570000  1.0
  H  H37  1  0.29271000  0.52872000  0.04430000  1.0
  H  H38  1  0.79271000  0.97128000  0.54430000  1.0
  H  H39  1  0.70729000  0.47128000  0.95570000  1.0
  C  C40  1  0.65725000  0.00655000  0.88876000  1.0
  C  C41  1  0.84275000  0.50654000  0.61124000  1.0
  C  C42  1  0.34276000  0.99346000  0.11124000  1.0
  C  C43  1  0.15725000  0.49346000  0.38876000  1.0
  C  C44  1  0.83817000  0.03548000  0.80644000  1.0
  C  C45  1  0.66183000  0.53548000  0.69356000  1.0
  C  C46  1  0.16183000  0.96452000  0.19356000  1.0
  C  C47  1  0.33817000  0.46453000  0.30644000  1.0
  C  C48  1  0.30457000  0.17429000  0.52958000  1.0
  C  C49  1  0.19543000  0.67429000  0.97042000  1.0
  C  C50  1  0.69543000  0.82571000  0.47042000  1.0
  C  C51  1  0.80457000  0.32571000  0.02958000  1.0
  C  C52  1  0.46248000  0.26456000  0.52540000  1.0
  C  C53  1  0.03752000  0.76456000  0.97460000  1.0
  C  C54  1  0.53752000  0.73544000  0.47460000  1.0
  C  C55  1  0.96248000  0.23544000  0.02540000  1.0
  C  C56  1  0.63577000  0.28008000  0.44795000  1.0
  C  C57  1  0.86423000  0.78008000  0.05205000  1.0
  C  C58  1  0.36423000  0.71991000  0.55205000  1.0
  C  C59  1  0.13577000  0.21992000  0.94795000  1.0
  C  C60  1  0.65890000  0.20547000  0.37299000  1.0
  C  C61  1  0.84110000  0.70547000  0.12701000  1.0
  C  C62  1  0.34109000  0.79453000  0.62701000  1.0
  C  C63  1  0.15890000  0.29453000  0.87299000  1.0
  C  C64  1  0.50165000  0.11479000  0.37808000  1.0
  C  C65  1  0.99835000  0.61479000  0.12192000  1.0
  C  C66  1  0.49835000  0.88521000  0.62193000  1.0
  C  C67  1  0.00165000  0.38521000  0.87807000  1.0
  C  C68  1  0.32592000  0.10007000  0.45466000  1.0
  C  C69  1  0.17407000  0.60007000  0.04534000  1.0
  C  C70  1  0.67408000  0.89992000  0.54534000  1.0
  C  C71  1  0.82592000  0.39992000  0.95466000  1.0
  N  N72  1  0.82167000  0.22241000  0.29313000  1.0
  N  N73  1  0.67833000  0.72241000  0.20687000  1.0
  N  N74  1  0.17833000  0.77759000  0.70687000  1.0
  N  N75  1  0.32167000  0.27759000  0.79313000  1.0
  O  O76  1  0.76599000  0.11923000  0.75727000  1.0
  O  O77  1  0.73401000  0.61923000  0.74273000  1.0
  O  O78  1  0.23402000  0.88078000  0.24273000  1.0
  O  O79  1  0.26598000  0.38078000  0.25727000  1.0
  O  O80  1  0.04406000  0.98305000  0.78771000  1.0
  O  O81  1  0.45594000  0.48305000  0.71229000  1.0
  O  O82  1  0.95594000  0.01695000  0.21229000  1.0
  O  O83  1  0.54406000  0.51695000  0.28771000  1.0
