# generated using pymatgen
data_AlH9C21N3(O2F)3
_symmetry_space_group_name_H-M   'P 1'
_cell_length_a   3.96659000
_cell_length_b   27.91595194
_cell_length_c   27.91850000
_cell_angle_alpha   119.99105614
_cell_angle_beta   89.99650000
_cell_angle_gamma   89.99419864
_symmetry_Int_Tables_number   1
_chemical_formula_structural   AlH9C21N3(O2F)3
_chemical_formula_sum   'Al2 H18 C42 N6 O12 F6'
_cell_volume   2677.51304084
_cell_formula_units_Z   2
loop_
 _symmetry_equiv_pos_site_id
 _symmetry_equiv_pos_as_xyz
  1  'x, y, z'
loop_
 _atom_site_type_symbol
 _atom_site_label
 _atom_site_symmetry_multiplicity
 _atom_site_fract_x
 _atom_site_fract_y
 _atom_site_fract_z
 _atom_site_occupancy
  Al  Al0  1  0.99295000  0.50000000  0.00005000  1.0
  Al  Al1  1  0.99317000  0.83333000  0.66663000  1.0
  H  H2  1  0.30978000  0.69500000  0.51112000  1.0
  H  H3  1  0.33420000  0.64462000  0.40726000  1.0
  H  H4  1  0.66863000  0.79487000  0.41398000  1.0
  H  H5  1  0.66862000  0.53844000  0.25267000  1.0
  H  H6  1  0.33431000  0.68873000  0.25942000  1.0
  H  H7  1  0.30974000  0.63835000  0.15556000  1.0
  H  H8  1  0.30991000  0.81615000  0.80498000  1.0
  H  H9  1  0.33443000  0.76258000  0.85535000  1.0
  H  H10  1  0.66865000  0.61912000  0.70515000  1.0
  H  H11  1  0.66871000  0.71420000  0.96151000  1.0
  H  H12  1  0.33414000  0.57076000  0.81133000  1.0
  H  H13  1  0.30944000  0.51722000  0.86174000  1.0
  H  H14  1  0.30975000  0.98889000  0.68388000  1.0
  H  H15  1  0.33446000  0.09281000  0.73742000  1.0
  H  H16  1  0.66860000  0.08595000  0.88085000  1.0
  H  H17  1  0.66866000  0.24740000  0.78581000  1.0
  H  H18  1  0.33441000  0.24052000  0.92922000  1.0
  H  H19  1  0.30965000  0.34444000  0.98278000  1.0
  C  C20  1  0.49345000  0.41541000  0.95030000  1.0
  C  C21  1  0.49337000  0.53485000  0.08463000  1.0
  C  C22  1  0.49336000  0.54974000  0.96518000  1.0
  C  C23  1  0.49367000  0.79847000  0.58204000  1.0
  C  C24  1  0.49365000  0.78361000  0.70152000  1.0
  C  C25  1  0.49349000  0.91792000  0.71636000  1.0
  C  C26  1  0.49569000  0.77143000  0.52068000  1.0
  C  C27  1  0.39445000  0.71577000  0.48901000  1.0
  C  C28  1  0.40671000  0.68790000  0.43178000  1.0
  C  C29  1  0.50953000  0.71646000  0.40462000  1.0
  C  C30  1  0.59803000  0.77251000  0.43515000  1.0
  C  C31  1  0.59753000  0.79863000  0.49240000  1.0
  C  C32  1  0.59800000  0.56082000  0.23152000  1.0
  C  C33  1  0.50957000  0.61688000  0.26206000  1.0
  C  C34  1  0.40675000  0.64544000  0.23490000  1.0
  C  C35  1  0.39438000  0.61757000  0.17767000  1.0
  C  C36  1  0.49550000  0.56190000  0.14599000  1.0
  C  C37  1  0.59736000  0.53469000  0.17427000  1.0
  C  C38  1  0.49570000  0.74928000  0.72856000  1.0
  C  C39  1  0.39450000  0.77326000  0.78422000  1.0
  C  C40  1  0.40678000  0.74387000  0.81208000  1.0
  C  C41  1  0.50959000  0.68816000  0.78353000  1.0
  C  C42  1  0.59809000  0.66265000  0.72748000  1.0
  C  C43  1  0.59756000  0.69379000  0.70135000  1.0
  C  C44  1  0.59799000  0.67068000  0.93919000  1.0
  C  C45  1  0.50946000  0.64517000  0.88314000  1.0
  C  C46  1  0.40650000  0.58947000  0.85461000  1.0
  C  C47  1  0.39413000  0.56010000  0.88247000  1.0
  C  C48  1  0.49541000  0.58407000  0.93813000  1.0
  C  C49  1  0.59735000  0.63955000  0.96533000  1.0
  C  C50  1  0.49546000  0.97928000  0.75071000  1.0
  C  C51  1  0.39436000  0.01099000  0.72675000  1.0
  C  C52  1  0.40675000  0.06823000  0.75614000  1.0
  C  C53  1  0.50952000  0.09537000  0.81184000  1.0
  C  C54  1  0.59796000  0.06480000  0.83734000  1.0
  C  C55  1  0.59740000  0.00753000  0.80618000  1.0
  C  C56  1  0.59795000  0.26854000  0.82931000  1.0
  C  C57  1  0.50947000  0.23796000  0.85479000  1.0
  C  C58  1  0.40668000  0.26510000  0.91051000  1.0
  C  C59  1  0.39429000  0.32234000  0.93990000  1.0
  C  C60  1  0.49544000  0.35405000  0.91595000  1.0
  C  C61  1  0.59738000  0.32580000  0.86047000  1.0
  N  N62  1  0.52043000  0.69287000  0.34661000  1.0
  N  N63  1  0.52050000  0.64046000  0.32006000  1.0
  N  N64  1  0.52054000  0.65375000  0.80713000  1.0
  N  N65  1  0.52056000  0.67958000  0.85954000  1.0
  N  N66  1  0.52043000  0.15338000  0.84624000  1.0
  N  N67  1  0.52048000  0.17995000  0.82039000  1.0
  O  O68  1  0.72913000  0.55695000  0.99910000  1.0
  O  O69  1  0.72926000  0.44212000  0.94310000  1.0
  O  O70  1  0.72912000  0.50092000  0.05793000  1.0
  O  O71  1  0.25769000  0.51410000  0.95112000  1.0
  O  O72  1  0.25762000  0.54891000  0.06306000  1.0
  O  O73  1  0.25781000  0.43698000  0.98595000  1.0
  O  O74  1  0.72932000  0.89121000  0.72357000  1.0
  O  O75  1  0.72940000  0.83239000  0.60873000  1.0
  O  O76  1  0.72947000  0.77639000  0.66759000  1.0
  O  O77  1  0.25790000  0.89635000  0.68071000  1.0
  O  O78  1  0.25793000  0.81925000  0.71557000  1.0
  O  O79  1  0.25799000  0.78441000  0.60363000  1.0
  F  F80  1  0.68720000  0.85276000  0.52103000  1.0
  F  F81  1  0.68691000  0.48055000  0.14563000  1.0
  F  F82  1  0.68719000  0.66833000  0.64722000  1.0
  F  F83  1  0.68703000  0.66501000  0.01945000  1.0
  F  F84  1  0.68703000  0.97883000  0.83162000  1.0
  F  F85  1  0.68706000  0.35451000  0.83504000  1.0
