# generated using pymatgen
data_CoH8(C3O2)2
_symmetry_space_group_name_H-M   'P 1'
_cell_length_a   4.57275000
_cell_length_b   8.89182000
_cell_length_c   8.89181000
_cell_angle_alpha   82.96470000
_cell_angle_beta   76.15780000
_cell_angle_gamma   76.15780000
_symmetry_Int_Tables_number   1
_chemical_formula_structural   CoH8(C3O2)2
_chemical_formula_sum   'Co2 H16 C12 O8'
_cell_volume   340.02987826
_cell_formula_units_Z   2
loop_
 _symmetry_equiv_pos_site_id
 _symmetry_equiv_pos_as_xyz
  1  'x, y, z'
loop_
 _atom_site_type_symbol
 _atom_site_label
 _atom_site_symmetry_multiplicity
 _atom_site_fract_x
 _atom_site_fract_y
 _atom_site_fract_z
 _atom_site_occupancy
  Co  Co0  1  0.25000000  0.05623000  0.94377000  1.0
  Co  Co1  1  0.75000000  0.94377000  0.05623000  1.0
  H  H2  1  0.69353000  0.50915000  0.72420000  1.0
  H  H3  1  0.80647000  0.27580000  0.49085000  1.0
  H  H4  1  0.30648000  0.49085000  0.27580000  1.0
  H  H5  1  0.19352000  0.72420000  0.50915000  1.0
  H  H6  1  0.30325000  0.61366000  0.77570000  1.0
  H  H7  1  0.19675000  0.22430000  0.38634000  1.0
  H  H8  1  0.69675000  0.38634000  0.22430000  1.0
  H  H9  1  0.80325000  0.77570000  0.61366000  1.0
  H  H10  1  0.38480000  0.41771000  0.72719000  1.0
  H  H11  1  0.11520000  0.27281000  0.58229000  1.0
  H  H12  1  0.61520000  0.58229000  0.27281000  1.0
  H  H13  1  0.88480000  0.72719000  0.41771000  1.0
  H  H14  1  0.21385000  0.43400000  0.01387000  1.0
  H  H15  1  0.28615000  0.98613000  0.56600000  1.0
  H  H16  1  0.78614000  0.56600000  0.98613000  1.0
  H  H17  1  0.71386000  0.01387000  0.43400000  1.0
  C  C18  1  0.65371000  0.28366000  0.96860000  1.0
  C  C19  1  0.84629000  0.03140000  0.71634000  1.0
  C  C20  1  0.34630000  0.71634000  0.03140000  1.0
  C  C21  1  0.15370000  0.96860000  0.28366000  1.0
  C  C22  1  0.45910000  0.49953000  0.78511000  1.0
  C  C23  1  0.04090000  0.21489000  0.50047000  1.0
  C  C24  1  0.54090000  0.50047000  0.21489000  1.0
  C  C25  1  0.95910000  0.78511000  0.49952000  1.0
  C  C26  1  0.44919000  0.44427000  0.95617000  1.0
  C  C27  1  0.05081000  0.04383000  0.55573000  1.0
  C  C28  1  0.55081000  0.55573000  0.04383000  1.0
  C  C29  1  0.94919000  0.95617000  0.44427000  1.0
  O  O30  1  0.51869000  0.17236000  0.03467000  1.0
  O  O31  1  0.98131000  0.96533000  0.82764000  1.0
  O  O32  1  0.48131000  0.82764000  0.96532000  1.0
  O  O33  1  0.01869000  0.03468000  0.17236000  1.0
  O  O34  1  0.94151000  0.26548000  0.91781000  1.0
  O  O35  1  0.55849000  0.08219000  0.73452000  1.0
  O  O36  1  0.05849000  0.73452000  0.08219000  1.0
  O  O37  1  0.44151000  0.91781000  0.26548000  1.0
