# generated using pymatgen
data_ZnH16C20(N3O2)2
_symmetry_space_group_name_H-M   'P 1'
_cell_length_a   6.54216000
_cell_length_b   10.01010000
_cell_length_c   15.59740000
_cell_angle_alpha   87.23660000
_cell_angle_beta   81.60370000
_cell_angle_gamma   70.94440000
_symmetry_Int_Tables_number   1
_chemical_formula_structural   ZnH16C20(N3O2)2
_chemical_formula_sum   'Zn2 H32 C40 N12 O8'
_cell_volume   955.11670733
_cell_formula_units_Z   2
loop_
 _symmetry_equiv_pos_site_id
 _symmetry_equiv_pos_as_xyz
  1  'x, y, z'
loop_
 _atom_site_type_symbol
 _atom_site_label
 _atom_site_symmetry_multiplicity
 _atom_site_fract_x
 _atom_site_fract_y
 _atom_site_fract_z
 _atom_site_occupancy
  Zn  Zn0  1  0.34795000  0.30437000  0.50012000  1.0
  Zn  Zn1  1  0.65263000  0.69562000  0.00011000  1.0
  H  H2  1  0.98373000  0.05537000  0.39655000  1.0
  H  H3  1  0.03987000  0.94471000  0.89642000  1.0
  H  H4  1  0.80847000  0.96653000  0.29116000  1.0
  H  H5  1  0.77546000  0.03357000  0.79110000  1.0
  H  H6  1  0.29347000  0.01498000  0.08378000  1.0
  H  H7  1  0.30840000  0.98452000  0.58350000  1.0
  H  H8  1  0.46041000  0.11205000  0.19068000  1.0
  H  H9  1  0.57266000  0.88746000  0.69036000  1.0
  H  H10  1  0.90742000  0.22998000  0.03452000  1.0
  H  H11  1  0.13649000  0.76990000  0.53457000  1.0
  H  H12  1  0.73616000  0.23918000  0.13491000  1.0
  H  H13  1  0.97426000  0.76074000  0.63494000  1.0
  H  H14  1  0.62499000  0.26061000  0.03606000  1.0
  H  H15  1  0.88445000  0.73953000  0.53606000  1.0
  H  H16  1  0.97420000  0.72773000  0.13728000  1.0
  H  H17  1  0.70241000  0.27224000  0.63706000  1.0
  H  H18  1  0.98793000  0.36052000  0.76189000  1.0
  H  H19  1  0.34873000  0.63930000  0.26167000  1.0
  H  H20  1  0.67553000  0.38045000  0.88014000  1.0
  H  H21  1  0.05604000  0.61977000  0.37999000  1.0
  H  H22  1  0.22668000  0.60518000  0.70531000  1.0
  H  H23  1  0.83091000  0.39522000  0.20548000  1.0
  H  H24  1  0.54044000  0.59740000  0.59085000  1.0
  H  H25  1  0.13702000  0.40270000  0.09093000  1.0
  H  H26  1  0.48874000  0.19319000  0.91698000  1.0
  H  H27  1  0.68186000  0.80706000  0.41691000  1.0
  H  H28  1  0.40033000  0.20583000  0.81334000  1.0
  H  H29  1  0.60578000  0.79460000  0.31331000  1.0
  H  H30  1  0.24731000  0.15592000  0.90573000  1.0
  H  H31  1  0.40314000  0.84419000  0.40577000  1.0
  H  H32  1  0.06329000  0.71198000  0.87021000  1.0
  H  H33  1  0.77510000  0.28823000  0.37042000  1.0
  C  C34  1  0.32665000  0.16251000  0.35868000  1.0
  C  C35  1  0.48956000  0.83746000  0.85855000  1.0
  C  C36  1  0.23194000  0.09121000  0.29931000  1.0
  C  C37  1  0.32359000  0.90858000  0.79911000  1.0
  C  C38  1  0.05297000  0.04538000  0.32834000  1.0
  C  C39  1  0.09889000  0.95452000  0.82818000  1.0
  C  C40  1  0.95665000  0.99265000  0.26976000  1.0
  C  C41  1  0.94971000  0.00725000  0.76961000  1.0
  C  C42  1  0.04160000  0.98551000  0.18209000  1.0
  C  C43  1  0.02733000  0.01428000  0.68192000  1.0
  C  C44  1  0.22648000  0.02407000  0.15229000  1.0
  C  C45  1  0.25070000  0.97554000  0.65205000  1.0
  C  C46  1  0.32057000  0.07659000  0.21155000  1.0
  C  C47  1  0.39741000  0.92300000  0.71130000  1.0
  C  C48  1  0.76680000  0.20196000  0.06761000  1.0
  C  C49  1  0.96785000  0.79803000  0.56761000  1.0
  C  C50  1  0.79859000  0.04897000  0.06681000  1.0
  C  C51  1  0.84718000  0.95109000  0.56675000  1.0
  C  C52  1  0.89742000  0.82616000  0.10527000  1.0
  C  C53  1  0.72377000  0.17387000  0.60512000  1.0
  C  C54  1  0.96640000  0.45225000  0.59502000  1.0
  C  C55  1  0.41866000  0.54738000  0.09497000  1.0
  C  C56  1  0.78357000  0.47811000  0.66951000  1.0
  C  C57  1  0.26139000  0.52179000  0.16943000  1.0
  C  C58  1  0.82085000  0.41691000  0.75099000  1.0
  C  C59  1  0.23774000  0.58304000  0.25086000  1.0
  C  C60  1  0.64727000  0.42408000  0.81599000  1.0
  C  C61  1  0.07128000  0.57606000  0.31589000  1.0
  C  C62  1  0.43444000  0.49078000  0.79785000  1.0
  C  C63  1  0.92484000  0.50951000  0.29785000  1.0
  C  C64  1  0.39428000  0.55610000  0.71804000  1.0
  C  C65  1  0.94974000  0.44412000  0.21813000  1.0
  C  C66  1  0.56921000  0.55134000  0.65445000  1.0
  C  C67  1  0.11991000  0.44874000  0.15449000  1.0
  C  C68  1  0.34462000  0.22443000  0.88299000  1.0
  C  C69  1  0.56890000  0.77581000  0.38297000  1.0
  C  C70  1  0.20708000  0.37344000  0.89924000  1.0
  C  C71  1  0.58033000  0.62677000  0.39924000  1.0
  C  C72  1  0.08012000  0.60390000  0.88915000  1.0
  C  C73  1  0.68381000  0.39630000  0.38927000  1.0
  N  N74  1  0.76692000  0.84454000  0.04557000  1.0
  N  N75  1  0.61142000  0.15559000  0.54547000  1.0
  N  N76  1  0.70313000  0.98477000  0.02104000  1.0
  N  N77  1  0.68751000  0.01540000  0.52100000  1.0
  N  N78  1  0.92400000  0.95168000  0.12028000  1.0
  N  N79  1  0.87572000  0.04825000  0.62015000  1.0
  N  N80  1  0.93817000  0.56098000  0.94257000  1.0
  N  N81  1  0.49898000  0.43914000  0.44265000  1.0
  N  N82  1  0.01636000  0.41582000  0.94915000  1.0
  N  N83  1  0.43205000  0.58429000  0.44917000  1.0
  N  N84  1  0.25223000  0.48960000  0.86016000  1.0
  N  N85  1  0.74161000  0.51066000  0.36021000  1.0
  O  O86  1  0.21325000  0.19812000  0.43467000  1.0
  O  O87  1  0.41180000  0.80176000  0.93454000  1.0
  O  O88  1  0.50122000  0.18629000  0.33224000  1.0
  O  O89  1  0.68786000  0.81394000  0.83216000  1.0
  O  O90  1  0.15436000  0.36661000  0.61107000  1.0
  O  O91  1  0.52094000  0.63312000  0.11090000  1.0
  O  O92  1  0.92940000  0.50623000  0.52253000  1.0
  O  O93  1  0.43595000  0.49314000  0.02257000  1.0
