# generated using pymatgen
data_CdH14C24(NO2)2
_symmetry_space_group_name_H-M   'P 1'
_cell_length_a   7.81586000
_cell_length_b   14.23760000
_cell_length_c   14.23760000
_cell_angle_alpha   65.91950000
_cell_angle_beta   77.24520000
_cell_angle_gamma   77.24480000
_symmetry_Int_Tables_number   1
_chemical_formula_structural   CdH14C24(NO2)2
_chemical_formula_sum   'Cd2 H28 C48 N4 O8'
_cell_volume   1395.49221041
_cell_formula_units_Z   2
loop_
 _symmetry_equiv_pos_site_id
 _symmetry_equiv_pos_as_xyz
  1  'x, y, z'
loop_
 _atom_site_type_symbol
 _atom_site_label
 _atom_site_symmetry_multiplicity
 _atom_site_fract_x
 _atom_site_fract_y
 _atom_site_fract_z
 _atom_site_occupancy
  Cd  Cd0  1  0.24920000  0.13394000  0.08204000  1.0
  Cd  Cd1  1  0.74920000  0.08204000  0.13395000  1.0
  H  H2  1  0.15489000  0.83819000  0.37735000  1.0
  H  H3  1  0.65491000  0.37735000  0.83819000  1.0
  H  H4  1  0.05414000  0.71643000  0.55369000  1.0
  H  H5  1  0.55414000  0.55369000  0.71643000  1.0
  H  H6  1  0.77489000  0.08621000  0.42924000  1.0
  H  H7  1  0.27489000  0.42924000  0.08620000  1.0
  H  H8  1  0.67861000  0.96501000  0.61102000  1.0
  H  H9  1  0.17860000  0.61101000  0.96500000  1.0
  H  H10  1  0.99316000  0.63019000  0.70249000  1.0
  H  H11  1  0.49315000  0.70249000  0.63019000  1.0
  H  H12  1  0.08148000  0.47812000  0.76335000  1.0
  H  H13  1  0.58148000  0.76335000  0.47812000  1.0
  H  H14  1  0.23048000  0.30070000  0.85690000  1.0
  H  H15  1  0.73048000  0.85691000  0.30070000  1.0
  H  H16  1  0.93993000  0.29264000  0.13948000  1.0
  H  H17  1  0.43993000  0.13948000  0.29265000  1.0
  H  H18  1  0.78584000  0.47197000  0.06068000  1.0
  H  H19  1  0.28585000  0.06068000  0.47198000  1.0
  H  H20  1  0.64925000  0.60467000  0.99003000  1.0
  H  H21  1  0.14925000  0.99003000  0.60467000  1.0
  H  H22  1  0.43003000  0.66337000  0.05711000  1.0
  H  H23  1  0.93003000  0.05710000  0.66337000  1.0
  H  H24  1  0.19157000  0.75434000  0.14905000  1.0
  H  H25  1  0.69157000  0.14905000  0.75433000  1.0
  H  H26  1  0.23046000  0.04150000  0.88551000  1.0
  H  H27  1  0.73046000  0.88551000  0.04150000  1.0
  H  H28  1  0.46958000  0.95026000  0.79109000  1.0
  H  H29  1  0.96959000  0.79109000  0.95026000  1.0
  C  C30  1  0.03237000  0.04209000  0.28459000  1.0
  C  C31  1  0.53237000  0.28459000  0.04209000  1.0
  C  C32  1  0.97251000  0.96984000  0.39273000  1.0
  C  C33  1  0.47252000  0.39273000  0.96984000  1.0
  C  C34  1  0.04953000  0.86508000  0.42891000  1.0
  C  C35  1  0.54954000  0.42891000  0.86508000  1.0
  C  C36  1  0.99155000  0.79741000  0.52832000  1.0
  C  C37  1  0.49156000  0.52832000  0.79740000  1.0
  C  C38  1  0.85824000  0.83271000  0.59577000  1.0
  C  C39  1  0.35825000  0.59577000  0.83270000  1.0
  C  C40  1  0.83712000  0.00523000  0.45857000  1.0
  C  C41  1  0.33713000  0.45856000  0.00523000  1.0
  C  C42  1  0.78228000  0.93800000  0.55885000  1.0
  C  C43  1  0.28228000  0.55885000  0.93800000  1.0
  C  C44  1  0.80025000  0.76400000  0.70447000  1.0
  C  C45  1  0.30025000  0.70446000  0.76401000  1.0
  C  C46  1  0.88380000  0.66135000  0.74853000  1.0
  C  C47  1  0.38380000  0.74853000  0.66135000  1.0
  C  C48  1  0.83193000  0.60126000  0.85302000  1.0
  C  C49  1  0.33194000  0.85301000  0.60127000  1.0
  C  C50  1  0.91956000  0.49351000  0.90349000  1.0
  C  C51  1  0.41957000  0.90349000  0.49351000  1.0
  C  C52  1  0.04526000  0.44158000  0.84713000  1.0
  C  C53  1  0.54527000  0.84713000  0.44158000  1.0
  C  C54  1  0.12902000  0.34191000  0.89818000  1.0
  C  C55  1  0.62902000  0.89818000  0.34191000  1.0
  C  C56  1  0.96914000  0.33824000  0.05656000  1.0
  C  C57  1  0.46915000  0.05657000  0.33824000  1.0
  C  C58  1  0.88249000  0.43827000  0.01097000  1.0
  C  C59  1  0.38250000  0.01097000  0.43828000  1.0
  C  C60  1  0.69510000  0.64774000  0.90877000  1.0
  C  C61  1  0.19510000  0.90877000  0.64774000  1.0
  C  C62  1  0.61458000  0.75005000  0.85991000  1.0
  C  C63  1  0.11459000  0.85991000  0.75006000  1.0
  C  C64  1  0.46910000  0.80127000  0.91705000  1.0
  C  C65  1  0.96911000  0.91705000  0.80127000  1.0
  C  C66  1  0.38949000  0.74666000  0.01859000  1.0
  C  C67  1  0.88949000  0.01859000  0.74666000  1.0
  C  C68  1  0.25540000  0.79709000  0.07117000  1.0
  C  C69  1  0.75540000  0.07117000  0.79708000  1.0
  C  C70  1  0.19886000  0.90396000  0.02392000  1.0
  C  C71  1  0.69887000  0.02392000  0.90395000  1.0
  C  C72  1  0.27613000  0.95872000  0.92239000  1.0
  C  C73  1  0.77614000  0.92239000  0.95871000  1.0
  C  C74  1  0.40858000  0.90790000  0.86968000  1.0
  C  C75  1  0.90859000  0.86968000  0.90790000  1.0
  C  C76  1  0.04989000  0.95834000  0.07716000  1.0
  C  C77  1  0.54989000  0.07716000  0.95833000  1.0
  N  N78  1  0.66748000  0.80646000  0.75955000  1.0
  N  N79  1  0.16748000  0.75955000  0.80646000  1.0
  N  N80  1  0.09217000  0.29099000  0.00148000  1.0
  N  N81  1  0.59218000  0.00149000  0.29099000  1.0
  O  O82  1  0.19187000  0.01953000  0.24473000  1.0
  O  O83  1  0.69186000  0.24472000  0.01954000  1.0
  O  O84  1  0.92422000  0.12049000  0.23851000  1.0
  O  O85  1  0.42420000  0.23853000  0.12049000  1.0
  O  O86  1  0.03258000  0.05930000  0.04184000  1.0
  O  O87  1  0.53258000  0.04184000  0.05930000  1.0
  O  O88  1  0.94096000  0.90809000  0.15044000  1.0
  O  O89  1  0.44097000  0.15044000  0.90809000  1.0
