# generated using pymatgen
data_Na2H22PdC20(NO4)2
_symmetry_space_group_name_H-M   'P 1'
_cell_length_a   10.70760000
_cell_length_b   10.73890000
_cell_length_c   12.67819258
_cell_angle_alpha   110.62740428
_cell_angle_beta   113.97668954
_cell_angle_gamma   95.56190000
_symmetry_Int_Tables_number   1
_chemical_formula_structural   Na2H22PdC20(NO4)2
_chemical_formula_sum   'Na4 H44 Pd2 C40 N4 O16'
_cell_volume   1196.50765952
_cell_formula_units_Z   2
loop_
 _symmetry_equiv_pos_site_id
 _symmetry_equiv_pos_as_xyz
  1  'x, y, z'
loop_
 _atom_site_type_symbol
 _atom_site_label
 _atom_site_symmetry_multiplicity
 _atom_site_fract_x
 _atom_site_fract_y
 _atom_site_fract_z
 _atom_site_occupancy
  Na  Na0  1  0.81558000  0.91993000  0.86558000  1.0
  Na  Na1  1  0.55462000  0.95191000  0.63625000  1.0
  Na  Na2  1  0.18443000  0.08007000  0.13441000  1.0
  Na  Na3  1  0.44540000  0.04806000  0.36374000  1.0
  H  H4  1  0.60935000  0.37002000  0.49314000  1.0
  H  H5  1  0.37642000  0.11562000  0.00644000  1.0
  H  H6  1  0.39062000  0.62995000  0.50685000  1.0
  H  H7  1  0.62358000  0.88439000  0.99354000  1.0
  H  H8  1  0.38867000  0.39457000  0.51058000  1.0
  H  H9  1  0.38466000  0.87853000  0.98943000  1.0
  H  H10  1  0.61132000  0.60543000  0.48942000  1.0
  H  H11  1  0.61537000  0.12149000  0.01056000  1.0
  H  H12  1  0.36931000  0.39044000  0.69873000  1.0
  H  H13  1  0.19297000  0.67218000  0.80208000  1.0
  H  H14  1  0.63069000  0.60960000  0.30129000  1.0
  H  H15  1  0.80704000  0.32781000  0.19792000  1.0
  H  H16  1  0.93928000  0.43077000  0.73479000  1.0
  H  H17  1  0.19547000  0.20343000  0.76480000  1.0
  H  H18  1  0.06071000  0.56922000  0.26522000  1.0
  H  H19  1  0.80453000  0.79658000  0.23520000  1.0
  H  H20  1  0.83351000  0.32928000  0.56587000  1.0
  H  H21  1  0.26138000  0.26633000  0.93377000  1.0
  H  H22  1  0.16648000  0.67070000  0.43414000  1.0
  H  H23  1  0.73859000  0.73366000  0.06623000  1.0
  H  H24  1  0.87834000  0.24920000  0.67233000  1.0
  H  H25  1  0.07511000  0.20463000  0.82685000  1.0
  H  H26  1  0.12164000  0.75078000  0.32768000  1.0
  H  H27  1  0.92485000  0.79535000  0.17311000  1.0
  H  H28  1  0.46748000  0.38225000  0.89865000  1.0
  H  H29  1  0.98517000  0.57136000  0.60250000  1.0
  H  H30  1  0.53249000  0.61773000  0.10134000  1.0
  H  H31  1  0.01483000  0.42864000  0.39749000  1.0
  H  H32  1  0.65710667  0.43569000  0.99044000  1.0
  H  H33  1  0.94711000  0.66952000  0.51073000  1.0
  H  H34  1  0.34281000  0.56435000  0.00957000  1.0
  H  H35  1  0.05290000  0.33049000  0.48927000  1.0
  H  H36  1  0.56497000  0.25706000  0.89914000  1.0
  H  H37  1  0.85880000  0.66777000  0.60200000  1.0
  H  H38  1  0.43507000  0.74296000  0.10088000  1.0
  H  H39  1  0.14119000  0.33220000  0.39798000  1.0
  H  H40  1  0.60662000  0.62240000  0.74835000  1.0
  H  H41  1  0.37246000  0.85796000  0.75149000  1.0
  H  H42  1  0.39340000  0.37759000  0.25167000  1.0
  H  H43  1  0.62756000  0.14204000  0.24853000  1.0
  H  H44  1  0.76544000  0.66459000  0.84978000  1.0
  H  H45  1  0.31399000  0.91584000  0.65015000  1.0
  H  H46  1  0.23457000  0.33542000  0.15024000  1.0
  H  H47  1  0.68604000  0.08416000  0.34987000  1.0
  Pd  Pd48  1  0.99999000  0.50001000  0.00002000  1.0
  Pd  Pd49  1  0.00001000  0.99999000  0.49999000  1.0
  C  C50  1  0.96319000  0.23871000  0.00198000  1.0
  C  C51  1  0.73589000  0.95982000  0.49756000  1.0
  C  C52  1  0.03681000  0.76130000  0.99802000  1.0
  C  C53  1  0.26412000  0.04016000  0.50242000  1.0
  C  C54  1  0.82052000  0.22710000  0.89469000  1.0
  C  C55  1  0.83169000  0.92541000  0.60567000  1.0
  C  C56  1  0.17948000  0.77292000  0.10532000  1.0
  C  C57  1  0.16832000  0.07461000  0.39433000  1.0
  C  C58  1  0.70231000  0.35097000  0.77625000  1.0
  C  C59  1  0.07445000  0.92670000  0.72455000  1.0
  C  C60  1  0.29768000  0.64905000  0.22377000  1.0
  C  C61  1  0.92556000  0.07329000  0.27544000  1.0
  C  C62  1  0.71535000  0.35410000  0.67066000  1.0
  C  C63  1  0.18280000  0.04459000  0.82965000  1.0
  C  C64  1  0.28465000  0.64590000  0.32935000  1.0
  C  C65  1  0.81719000  0.95540000  0.17033000  1.0
  C  C66  1  0.60106000  0.37053000  0.57623000  1.0
  C  C67  1  0.29398000  0.02474000  0.92385000  1.0
  C  C68  1  0.39893000  0.62946000  0.42377000  1.0
  C  C69  1  0.70603000  0.97527000  0.07614000  1.0
  C  C70  1  0.47743000  0.38442000  0.58620000  1.0
  C  C71  1  0.29852000  0.89172000  0.91412000  1.0
  C  C72  1  0.52257000  0.61559000  0.41381000  1.0
  C  C73  1  0.70149000  0.10828000  0.08587000  1.0
  C  C74  1  0.46640000  0.38110000  0.69126000  1.0
  C  C75  1  0.19051000  0.77631000  0.80953000  1.0
  C  C76  1  0.53359000  0.61891000  0.30875000  1.0
  C  C77  1  0.80950000  0.22369000  0.19047000  1.0
  C  C78  1  0.57791000  0.36402000  0.78746000  1.0
  C  C79  1  0.07700000  0.79170000  0.71356000  1.0
  C  C80  1  0.42209000  0.63600000  0.21255000  1.0
  C  C81  1  0.92300000  0.20828000  0.28643000  1.0
  C  C82  1  0.84832000  0.33996000  0.65976000  1.0
  C  C83  1  0.17890000  0.18763000  0.83996000  1.0
  C  C84  1  0.15167000  0.66003000  0.34025000  1.0
  C  C85  1  0.82108000  0.81236000  0.16002000  1.0
  C  C86  1  0.56569000  0.35990000  0.89999000  1.0
  C  C87  1  0.96110000  0.66783000  0.60112000  1.0
  C  C88  1  0.43429000  0.64011000  0.10001000  1.0
  C  C89  1  0.03891000  0.33217000  0.39888000  1.0
  N  N90  1  0.82067000  0.34112000  0.87494000  1.0
  N  N91  1  0.96582000  0.94620000  0.62579000  1.0
  N  N92  1  0.17933000  0.65890000  0.12508000  1.0
  N  N93  1  0.03418000  0.05378000  0.37419000  1.0
  O  O94  1  0.05936000  0.35838000  0.06669000  1.0
  O  O95  1  0.79157000  0.99218000  0.43314000  1.0
  O  O96  1  0.94064000  0.64165000  0.93335000  1.0
  O  O97  1  0.20844000  0.00780000  0.56684000  1.0
  O  O98  1  0.98425000  0.13508000  0.02102000  1.0
  O  O99  1  0.61244000  0.96020000  0.47754000  1.0
  O  O100  1  0.01576000  0.86492000  0.97896000  1.0
  O  O101  1  0.38755000  0.03976000  0.52242000  1.0
  O  O102  1  0.72210000  0.11551000  0.83432000  1.0
  O  O103  1  0.78008000  0.88713000  0.66616000  1.0
  O  O104  1  0.27788000  0.88450000  0.16568000  1.0
  O  O105  1  0.21994000  0.11292000  0.33386000  1.0
  O  O106  1  0.68505000  0.70300000  0.81773000  1.0
  O  O107  1  0.38448000  0.86756000  0.68225000  1.0
  O  O108  1  0.31496000  0.29700000  0.18227000  1.0
  O  O109  1  0.61555000  0.13245000  0.31778000  1.0
