# generated using pymatgen
data_Zr3H15(C13O14)2
_symmetry_space_group_name_H-M   'P 1'
_cell_length_a   14.79320000
_cell_length_b   14.82062917
_cell_length_c   14.83226798
_cell_angle_alpha   60.12463093
_cell_angle_beta   60.18735337
_cell_angle_gamma   60.11560863
_symmetry_Int_Tables_number   1
_chemical_formula_structural   Zr3H15(C13O14)2
_chemical_formula_sum   'Zr6 H30 C52 O56'
_cell_volume   2306.85790872
_cell_formula_units_Z   2
loop_
 _symmetry_equiv_pos_site_id
 _symmetry_equiv_pos_as_xyz
  1  'x, y, z'
loop_
 _atom_site_type_symbol
 _atom_site_label
 _atom_site_symmetry_multiplicity
 _atom_site_fract_x
 _atom_site_fract_y
 _atom_site_fract_z
 _atom_site_occupancy
  Zr  Zr0  1  0.38479000  0.37888000  0.11499000  1.0
  Zr  Zr1  1  0.62079000  0.61968000  0.87908000  1.0
  Zr  Zr2  1  0.62188000  0.38096000  0.87746000  1.0
  Zr  Zr3  1  0.38465000  0.61587000  0.11670000  1.0
  Zr  Zr4  1  0.38578000  0.61733000  0.87747000  1.0
  Zr  Zr5  1  0.62423000  0.38024000  0.11356000  1.0
  H  H6  1  0.40769000  0.40814000  0.90111000  1.0
  H  H7  1  0.40681000  0.78062000  0.90506000  1.0
  H  H8  1  0.78612000  0.40738000  0.90135000  1.0
  H  H9  1  0.41426000  0.40154000  0.27679000  1.0
  H  H10  1  0.28662000  0.25527000  0.03755000  1.0
  H  H11  1  0.27805000  0.89552000  0.10643000  1.0
  H  H12  1  0.86705000  0.63829000  0.82560000  1.0
  H  H13  1  0.10612000  0.40844000  0.18694000  1.0
  H  H14  1  0.17264000  0.63738000  0.82798000  1.0
  H  H15  1  0.80530000  0.40404000  0.18129000  1.0
  H  H16  1  0.64631000  0.85814000  0.66095000  1.0
  H  H17  1  0.37706000  0.12854000  0.31962000  1.0
  H  H18  1  0.65299000  0.15709000  0.34919000  1.0
  H  H19  1  0.36520000  0.83453000  0.63600000  1.0
  H  H20  1  0.81866000  0.12044000  0.17309000  1.0
  H  H21  1  0.16063000  0.84910000  0.83640000  1.0
  H  H22  1  0.12322000  0.81109000  0.17429000  1.0
  H  H23  1  0.86194000  0.16180000  0.82962000  1.0
  H  H24  1  0.37027000  0.66750000  0.62979000  1.0
  H  H25  1  0.64778000  0.33183000  0.35657000  1.0
  H  H26  1  0.37937000  0.66982000  0.31821000  1.0
  H  H27  1  0.64458000  0.33408000  0.66282000  1.0
  H  H28  1  0.84476000  0.35152000  0.64649000  1.0
  H  H29  1  0.16210000  0.64582000  0.34851000  1.0
  H  H30  1  0.16374000  0.33469000  0.35564000  1.0
  H  H31  1  0.84268000  0.66244000  0.63934000  1.0
  H  H32  1  0.67487000  0.80570000  0.90431000  1.0
  H  H33  1  0.68127000  0.11011000  0.89694000  1.0
  H  H34  1  0.03195000  0.21334000  0.15514000  1.0
  H  H35  1  0.07801000  0.97823000  0.18970000  1.0
  C  C36  1  0.18710000  0.51324000  0.00298000  1.0
  C  C37  1  0.50576000  0.80486000  0.68886000  1.0
  C  C38  1  0.80160000  0.51260000  0.00058000  1.0
  C  C39  1  0.51303000  0.18596000  0.29565000  1.0
  C  C40  1  0.50053000  0.19604000  0.99585000  1.0
  C  C41  1  0.19901000  0.49511000  0.30608000  1.0
  C  C42  1  0.49596000  0.80327000  0.00616000  1.0
  C  C43  1  0.80428000  0.50555000  0.68572000  1.0
  C  C44  1  0.50714000  0.50170000  0.68678000  1.0
  C  C45  1  0.80454000  0.18687000  0.99795000  1.0
  C  C46  1  0.51179000  0.49907000  0.29852000  1.0
  C  C47  1  0.18738000  0.79522000  0.00284000  1.0
  C  C48  1  0.89220000  0.52284000  0.00513000  1.0
  C  C49  1  0.08153000  0.52446000  0.00685000  1.0
  C  C50  1  0.95711000  0.58593000  0.90869000  1.0
  C  C51  1  0.01143000  0.46917000  0.10570000  1.0
  C  C52  1  0.05173000  0.58589000  0.90928000  1.0
  C  C53  1  0.91884000  0.46647000  0.10410000  1.0
  C  C54  1  0.50823000  0.90105000  0.58881000  1.0
  C  C55  1  0.51349000  0.08736000  0.39361000  1.0
  C  C56  1  0.58502000  0.95546000  0.54722000  1.0
  C  C57  1  0.43763000  0.03223000  0.43438000  1.0
  C  C58  1  0.58745000  0.04775000  0.45066000  1.0
  C  C59  1  0.43399000  0.94095000  0.53195000  1.0
  C  C60  1  0.89557000  0.08205000  0.00293000  1.0
  C  C61  1  0.08407000  0.88874000  0.00548000  1.0
  C  C62  1  0.92890000  0.01939000  0.09851000  1.0
  C  C63  1  0.04696000  0.94675000  0.91297000  1.0
  C  C64  1  0.02275000  0.92523000  0.09840000  1.0
  C  C65  1  0.95377000  0.04377000  0.91126000  1.0
  C  C66  1  0.50903000  0.50138000  0.58778000  1.0
  C  C67  1  0.51251000  0.50061000  0.39563000  1.0
  C  C68  1  0.43645000  0.59254000  0.52938000  1.0
  C  C69  1  0.58473000  0.40918000  0.45427000  1.0
  C  C70  1  0.43908000  0.59288000  0.43332000  1.0
  C  C71  1  0.58332000  0.40963000  0.54931000  1.0
  C  C72  1  0.49364000  0.10401000  0.98921000  1.0
  C  C73  1  0.38909000  0.08920000  0.02968000  1.0
  C  C74  1  0.59227000  0.02708000  0.94683000  1.0
  C  C75  1  0.28824000  0.17524000  0.05203000  1.0
  C  C76  1  0.18835000  0.16033000  0.09434000  1.0
  C  C77  1  0.49031000  0.90731000  0.00137000  1.0
  C  C78  1  0.59009000  0.92994000  0.95032000  1.0
  C  C79  1  0.38690000  0.98728000  0.04299000  1.0
  C  C80  1  0.28256000  0.97298000  0.09100000  1.0
  C  C81  1  0.18541000  0.05604000  0.11955000  1.0
  C  C82  1  0.90399000  0.50344000  0.58880000  1.0
  C  C83  1  0.10100000  0.49581000  0.40433000  1.0
  C  C84  1  0.95468000  0.41640000  0.54467000  1.0
  C  C85  1  0.05124000  0.58187000  0.44961000  1.0
  C  C86  1  0.05295000  0.41189000  0.45410000  1.0
  C  C87  1  0.95303000  0.58638000  0.54008000  1.0
  O  O88  1  0.22752000  0.43750000  0.08066000  1.0
  O  O89  1  0.57835000  0.76525000  0.73574000  1.0
  O  O90  1  0.76538000  0.58067000  0.91791000  1.0
  O  O91  1  0.43821000  0.22745000  0.25140000  1.0
  O  O92  1  0.58465000  0.23007000  0.92570000  1.0
  O  O93  1  0.24201000  0.57173000  0.26234000  1.0
  O  O94  1  0.42051000  0.75975000  0.07857000  1.0
  O  O95  1  0.76146000  0.42904000  0.72907000  1.0
  O  O96  1  0.43250000  0.57969000  0.72763000  1.0
  O  O97  1  0.76417000  0.22956000  0.07349000  1.0
  O  O98  1  0.58478000  0.41928000  0.25939000  1.0
  O  O99  1  0.23741000  0.75966000  0.92040000  1.0
  O  O100  1  0.76766000  0.23589000  0.91617000  1.0
  O  O101  1  0.43746000  0.57633000  0.25378000  1.0
  O  O102  1  0.22747000  0.75186000  0.08114000  1.0
  O  O103  1  0.57997000  0.42280000  0.73335000  1.0
  O  O104  1  0.42620000  0.23916000  0.07086000  1.0
  O  O105  1  0.76126000  0.58219000  0.72804000  1.0
  O  O106  1  0.57941000  0.75635000  0.93477000  1.0
  O  O107  1  0.24189000  0.41844000  0.26376000  1.0
  O  O108  1  0.58666000  0.23165000  0.25568000  1.0
  O  O109  1  0.24009000  0.57855000  0.91863000  1.0
  O  O110  1  0.43078000  0.76066000  0.73016000  1.0
  O  O111  1  0.76042000  0.43548000  0.07682000  1.0
  O  O112  1  0.43934000  0.42938000  0.19686000  1.0
  O  O113  1  0.70596000  0.43284000  0.92895000  1.0
  O  O114  1  0.43396000  0.70053000  0.93147000  1.0
  O  O115  1  0.43550000  0.43267000  0.92906000  1.0
  O  O116  1  0.55316000  0.54921000  0.84846000  1.0
  O  O117  1  0.35605000  0.54723000  0.04577000  1.0
  O  O118  1  0.55272000  0.54775000  0.04592000  1.0
  O  O119  1  0.55355000  0.35197000  0.04438000  1.0
  O  O120  1  0.93679000  0.64371000  0.81210000  1.0
  O  O121  1  0.02998000  0.41621000  0.20293000  1.0
  O  O122  1  0.11175000  0.64281000  0.81301000  1.0
  O  O123  1  0.85970000  0.40672000  0.19917000  1.0
  O  O124  1  0.65666000  0.92474000  0.59658000  1.0
  O  O125  1  0.36694000  0.06209000  0.38435000  1.0
  O  O126  1  0.66095000  0.09557000  0.41818000  1.0
  O  O127  1  0.35818000  0.89528000  0.56631000  1.0
  O  O128  1  0.87411000  0.04650000  0.19125000  1.0
  O  O129  1  0.09761000  0.91732000  0.82242000  1.0
  O  O130  1  0.05345000  0.87267000  0.19038000  1.0
  O  O131  1  0.92805000  0.09650000  0.81825000  1.0
  O  O132  1  0.36381000  0.68202000  0.56028000  1.0
  O  O133  1  0.65525000  0.31819000  0.42520000  1.0
  O  O134  1  0.37035000  0.68379000  0.38127000  1.0
  O  O135  1  0.65305000  0.31927000  0.60057000  1.0
  O  O136  1  0.91392000  0.33496000  0.58542000  1.0
  O  O137  1  0.09361000  0.66186000  0.41028000  1.0
  O  O138  1  0.09676000  0.32525000  0.41980000  1.0
  O  O139  1  0.91038000  0.67163000  0.57607000  1.0
  O  O140  1  0.68933000  0.86369000  0.90546000  1.0
  O  O141  1  0.69323000  0.03531000  0.90385000  1.0
  O  O142  1  0.09211000  0.24425000  0.11310000  1.0
  O  O143  1  0.08156000  0.05141000  0.16897000  1.0
