# generated using pymatgen
data_ZnH34C38(NO3)2
_symmetry_space_group_name_H-M   'P 1'
_cell_length_a   5.58598000
_cell_length_b   11.70320000
_cell_length_c   12.09650000
_cell_angle_alpha   99.90070000
_cell_angle_beta   101.49600000
_cell_angle_gamma   103.57200000
_symmetry_Int_Tables_number   1
_chemical_formula_structural   ZnH34C38(NO3)2
_chemical_formula_sum   'Zn1 H34 C38 N2 O6'
_cell_volume   733.16699676
_cell_formula_units_Z   1
loop_
 _symmetry_equiv_pos_site_id
 _symmetry_equiv_pos_as_xyz
  1  'x, y, z'
loop_
 _atom_site_type_symbol
 _atom_site_label
 _atom_site_symmetry_multiplicity
 _atom_site_fract_x
 _atom_site_fract_y
 _atom_site_fract_z
 _atom_site_occupancy
  Zn  Zn0  1  0.00000000  0.00000000  0.50000000  1.0
  H  H1  1  0.32851000  0.26282000  0.98203000  1.0
  H  H2  1  0.67151000  0.73719000  0.01797000  1.0
  H  H3  1  0.37493000  0.23834000  0.18366000  1.0
  H  H4  1  0.62509000  0.76167000  0.81634000  1.0
  H  H5  1  0.69301000  0.14055000  0.26922000  1.0
  H  H6  1  0.30698000  0.85944000  0.73077000  1.0
  H  H7  1  0.96392000  0.06516000  0.14978000  1.0
  H  H8  1  0.03606000  0.93483000  0.85022000  1.0
  H  H9  1  0.91269000  0.08647000  0.94667000  1.0
  H  H10  1  0.08731000  0.91351000  0.05333000  1.0
  H  H11  1  0.73252000  0.14596000  0.79428000  1.0
  H  H12  1  0.26747000  0.85403000  0.20572000  1.0
  H  H13  1  0.05948000  0.33632000  0.89201000  1.0
  H  H14  1  0.94052000  0.66369000  0.10799000  1.0
  H  H15  1  0.20239000  0.55428000  0.89347000  1.0
  H  H16  1  0.79759000  0.44573000  0.10653000  1.0
  H  H17  1  0.89174000  0.65976000  0.82013000  1.0
  H  H18  1  0.10823000  0.34024000  0.17987000  1.0
  H  H19  1  0.42923000  0.54539000  0.74417000  1.0
  H  H20  1  0.57074000  0.45460000  0.25584000  1.0
  H  H21  1  0.28769000  0.32895000  0.74368000  1.0
  H  H22  1  0.71230000  0.67105000  0.25633000  1.0
  H  H23  1  0.29549000  0.81092000  0.41415000  1.0
  H  H24  1  0.70451000  0.18908000  0.58584000  1.0
  H  H25  1  0.29802000  0.60159000  0.40693000  1.0
  H  H26  1  0.70197000  0.39841000  0.59306000  1.0
  H  H27  1  0.70091000  0.56980000  0.58953000  1.0
  H  H28  1  0.29912000  0.43021000  0.41049000  1.0
  H  H29  1  0.71923000  0.78245000  0.58477000  1.0
  H  H30  1  0.28080000  0.21756000  0.41524000  1.0
  H  H31  1  0.88772000  0.03647000  0.68578000  1.0
  H  H32  1  0.11229000  0.96352000  0.31422000  1.0
  H  H33  1  0.59622000  0.00892000  0.61434000  1.0
  H  H34  1  0.40380000  0.99108000  0.38566000  1.0
  C  C35  1  0.46705000  0.21887000  0.01818000  1.0
  C  C36  1  0.53296000  0.78113000  0.98182000  1.0
  C  C37  1  0.49504000  0.20601000  0.13217000  1.0
  C  C38  1  0.50497000  0.79399000  0.86783000  1.0
  C  C39  1  0.67339000  0.15091000  0.18038000  1.0
  C  C40  1  0.32659000  0.84909000  0.81962000  1.0
  C  C41  1  0.82429000  0.10841000  0.11327000  1.0
  C  C42  1  0.17569000  0.89158000  0.88672000  1.0
  C  C43  1  0.79401000  0.11961000  0.99870000  1.0
  C  C44  1  0.20598000  0.88038000  0.00130000  1.0
  C  C45  1  0.61446000  0.17423000  0.94966000  1.0
  C  C46  1  0.38554000  0.82576000  0.05034000  1.0
  C  C47  1  0.59159000  0.18556000  0.82497000  1.0
  C  C48  1  0.40842000  0.81443000  0.17503000  1.0
  C  C49  1  0.66466000  0.31772000  0.81811000  1.0
  C  C50  1  0.33533000  0.68228000  0.18189000  1.0
  C  C51  1  0.92210000  0.38255000  0.85903000  1.0
  C  C52  1  0.07789000  0.61746000  0.14097000  1.0
  C  C53  1  0.00253000  0.50454000  0.85944000  1.0
  C  C54  1  0.99746000  0.49546000  0.14056000  1.0
  C  C55  1  0.82605000  0.56402000  0.81834000  1.0
  C  C56  1  0.17393000  0.43598000  0.18165000  1.0
  C  C57  1  0.56948000  0.50004000  0.77616000  1.0
  C  C58  1  0.43050000  0.49995000  0.22384000  1.0
  C  C59  1  0.48878000  0.37742000  0.77584000  1.0
  C  C60  1  0.51120000  0.62258000  0.22416000  1.0
  C  C61  1  0.33142000  0.11799000  0.74265000  1.0
  C  C62  1  0.66858000  0.88201000  0.25735000  1.0
  C  C63  1  0.16411000  0.75493000  0.45188000  1.0
  C  C64  1  0.83589000  0.24508000  0.54811000  1.0
  C  C65  1  0.16638000  0.63581000  0.44941000  1.0
  C  C66  1  0.83362000  0.36419000  0.55059000  1.0
  C  C67  1  0.00044000  0.56346000  0.49941000  1.0
  C  C68  1  0.99958000  0.43655000  0.50059000  1.0
  C  C69  1  0.83510000  0.61830000  0.54809000  1.0
  C  C70  1  0.16493000  0.38171000  0.45192000  1.0
  C  C71  1  0.84369000  0.73777000  0.54639000  1.0
  C  C72  1  0.15633000  0.26224000  0.45363000  1.0
  N  N73  1  0.00610000  0.80677000  0.49946000  1.0
  N  N74  1  0.99391000  0.19323000  0.50054000  1.0
  O  O75  1  0.33218000  0.06328000  0.64037000  1.0
  O  O76  1  0.66781000  0.93672000  0.35963000  1.0
  O  O77  1  0.13330000  0.12213000  0.77593000  1.0
  O  O78  1  0.86670000  0.87786000  0.22408000  1.0
  O  O79  1  0.75239000  0.98194000  0.61512000  1.0
  O  O80  1  0.24762000  0.01806000  0.38488000  1.0
