# generated using pymatgen
data_CuH4C16(N2Cl)4
_symmetry_space_group_name_H-M   'P 1'
_cell_length_a   3.85817000
_cell_length_b   15.35169558
_cell_length_c   15.36360000
_cell_angle_alpha   89.11352396
_cell_angle_beta   82.78240000
_cell_angle_gamma   82.78721641
_symmetry_Int_Tables_number   1
_chemical_formula_structural   CuH4C16(N2Cl)4
_chemical_formula_sum   'Cu2 H8 C32 N16 Cl8'
_cell_volume   895.62317951
_cell_formula_units_Z   2
loop_
 _symmetry_equiv_pos_site_id
 _symmetry_equiv_pos_as_xyz
  1  'x, y, z'
loop_
 _atom_site_type_symbol
 _atom_site_label
 _atom_site_symmetry_multiplicity
 _atom_site_fract_x
 _atom_site_fract_y
 _atom_site_fract_z
 _atom_site_occupancy
  Cu  Cu0  1  0.12606000  0.75010000  0.74996000  1.0
  Cu  Cu1  1  0.87396000  0.24989000  0.25004000  1.0
  H  H2  1  0.85149000  0.85365000  0.55410000  1.0
  H  H3  1  0.70561000  0.05409000  0.14637000  1.0
  H  H4  1  0.75932000  0.64648000  0.94605000  1.0
  H  H5  1  0.40513000  0.44622000  0.35361000  1.0
  H  H6  1  0.14855000  0.14635000  0.44590000  1.0
  H  H7  1  0.29436000  0.94591000  0.85362000  1.0
  H  H8  1  0.24073000  0.35351000  0.05395000  1.0
  H  H9  1  0.59482000  0.55378000  0.64639000  1.0
  C  C10  1  0.75098000  0.99415000  0.57626000  1.0
  C  C11  1  0.74475000  0.07624000  0.00597000  1.0
  C  C12  1  0.82197000  0.50595000  0.92370000  1.0
  C  C13  1  0.32657000  0.42381000  0.49396000  1.0
  C  C14  1  0.24905000  0.00585000  0.42374000  1.0
  C  C15  1  0.25521000  0.92376000  0.99402000  1.0
  C  C16  1  0.17808000  0.49404000  0.07630000  1.0
  C  C17  1  0.67338000  0.57620000  0.50604000  1.0
  C  C18  1  0.91696000  0.91717000  0.52935000  1.0
  C  C19  1  0.83429000  0.02928000  0.08286000  1.0
  C  C20  1  0.86326000  0.58293000  0.97079000  1.0
  C  C21  1  0.44592000  0.47088000  0.41714000  1.0
  C  C22  1  0.08306000  0.08283000  0.47065000  1.0
  C  C23  1  0.16567000  0.97072000  0.91714000  1.0
  C  C24  1  0.13677000  0.41707000  0.02921000  1.0
  C  C25  1  0.55402000  0.52912000  0.58287000  1.0
  C  C26  1  0.84465000  0.07825000  0.54410000  1.0
  C  C27  1  0.92224000  0.04412000  0.92182000  1.0
  C  C28  1  0.96754000  0.42175000  0.95574000  1.0
  C  C29  1  0.38820000  0.45580000  0.57812000  1.0
  C  C30  1  0.15539000  0.92175000  0.45591000  1.0
  C  C31  1  0.07773000  0.95588000  0.07818000  1.0
  C  C32  1  0.03249000  0.57825000  0.04426000  1.0
  C  C33  1  0.61176000  0.54420000  0.42188000  1.0
  C  C34  1  0.41552000  0.92053000  0.68158000  1.0
  C  C35  1  0.33490000  0.18152000  0.07970000  1.0
  C  C36  1  0.51867000  0.57969000  0.81839000  1.0
  C  C37  1  0.09614000  0.31852000  0.42017000  1.0
  C  C38  1  0.58451000  0.07946000  0.31842000  1.0
  C  C39  1  0.66506000  0.81849000  0.92030000  1.0
  C  C40  1  0.48139000  0.42031000  0.18162000  1.0
  C  C41  1  0.90384000  0.68147000  0.57984000  1.0
  N  N42  1  0.31182000  0.86059000  0.72169000  1.0
  N  N43  1  0.16851000  0.22134000  0.13943000  1.0
  N  N44  1  0.39296000  0.63953000  0.77854000  1.0
  N  N45  1  0.02953000  0.27873000  0.36039000  1.0
  N  N46  1  0.68820000  0.13941000  0.27830000  1.0
  N  N47  1  0.83152000  0.77866000  0.86057000  1.0
  N  N48  1  0.60707000  0.36047000  0.22146000  1.0
  N  N49  1  0.97049000  0.72126000  0.63961000  1.0
  N  N50  1  0.51359000  0.99206000  0.64753000  1.0
  N  N51  1  0.50527000  0.14755000  0.00820000  1.0
  N  N52  1  0.65473000  0.50813000  0.85233000  1.0
  N  N53  1  0.16096000  0.35245000  0.49169000  1.0
  N  N54  1  0.48642000  0.00794000  0.35247000  1.0
  N  N55  1  0.49468000  0.85245000  0.99180000  1.0
  N  N56  1  0.34532000  0.49186000  0.14767000  1.0
  N  N57  1  0.83898000  0.64756000  0.50831000  1.0
  Cl  Cl58  1  0.65308000  0.17193000  0.59861000  1.0
  Cl  Cl59  1  0.82325000  0.09866000  0.82833000  1.0
  Cl  Cl60  1  0.92405000  0.32819000  0.90108000  1.0
  Cl  Cl61  1  0.25052000  0.40115000  0.67158000  1.0
  Cl  Cl62  1  0.34694000  0.82808000  0.40139000  1.0
  Cl  Cl63  1  0.17671000  0.90134000  0.17167000  1.0
  Cl  Cl64  1  0.07599000  0.67181000  0.09892000  1.0
  Cl  Cl65  1  0.74943000  0.59886000  0.32842000  1.0
