# generated using pymatgen
data_ZnH19C15N5O6
_symmetry_space_group_name_H-M   'P 1'
_cell_length_a   8.68953000
_cell_length_b   9.58603000
_cell_length_c   11.89980000
_cell_angle_alpha   110.85300000
_cell_angle_beta   90.00000000
_cell_angle_gamma   89.99990000
_symmetry_Int_Tables_number   1
_chemical_formula_structural   ZnH19C15N5O6
_chemical_formula_sum   'Zn2 H38 C30 N10 O12'
_cell_volume   926.30188686
_cell_formula_units_Z   2
loop_
 _symmetry_equiv_pos_site_id
 _symmetry_equiv_pos_as_xyz
  1  'x, y, z'
loop_
 _atom_site_type_symbol
 _atom_site_label
 _atom_site_symmetry_multiplicity
 _atom_site_fract_x
 _atom_site_fract_y
 _atom_site_fract_z
 _atom_site_occupancy
  Zn  Zn0  1  0.62117000  0.21405000  0.08237000  1.0
  Zn  Zn1  1  0.12117000  0.78595000  0.91763000  1.0
  H  H2  1  0.64117000  0.57892000  0.91318000  1.0
  H  H3  1  0.14117000  0.42108000  0.08682000  1.0
  H  H4  1  0.61226000  0.45956000  0.27309000  1.0
  H  H5  1  0.11226000  0.54044000  0.72691000  1.0
  H  H6  1  0.47755000  0.34638000  0.28285000  1.0
  H  H7  1  0.97755000  0.65362000  0.71715000  1.0
  H  H8  1  0.81240000  0.37570000  0.55549000  1.0
  H  H9  1  0.31240000  0.62431000  0.44451000  1.0
  H  H10  1  0.61239000  0.91995000  0.16960000  1.0
  H  H11  1  0.11239000  0.08005000  0.83040000  1.0
  H  H12  1  0.97705000  0.52936000  0.94126000  1.0
  H  H13  1  0.47705000  0.47064000  0.05874000  1.0
  H  H14  1  0.93268000  0.07441000  0.97514000  1.0
  H  H15  1  0.43268000  0.92559000  0.02486000  1.0
  H  H16  1  0.54669000  0.38537000  0.70072000  1.0
  H  H17  1  0.04669000  0.61463000  0.29928000  1.0
  H  H18  1  0.59401000  0.56771000  0.70884000  1.0
  H  H19  1  0.09401000  0.43229000  0.29116000  1.0
  H  H20  1  0.74133000  0.65713000  0.14325000  1.0
  H  H21  1  0.24134000  0.34287000  0.85675000  1.0
  H  H22  1  0.94384000  0.67445000  0.14939000  1.0
  H  H23  1  0.44384000  0.32555000  0.85061000  1.0
  H  H24  1  0.79992000  0.35158000  0.34889000  1.0
  H  H25  1  0.29992000  0.64842000  0.65111000  1.0
  H  H26  1  0.68946000  0.18704000  0.32032000  1.0
  H  H27  1  0.18946000  0.81296000  0.67968000  1.0
  H  H28  1  0.82686000  0.63411000  0.42745000  1.0
  H  H29  1  0.32686000  0.36589000  0.57255000  1.0
  H  H30  1  0.59365000  0.78316000  0.34311000  1.0
  H  H31  1  0.09365000  0.21684000  0.65689000  1.0
  H  H32  1  0.78804000  0.84848000  0.36085000  1.0
  H  H33  1  0.28804000  0.15152000  0.63915000  1.0
  H  H34  1  0.47542000  0.91698000  0.76044000  1.0
  H  H35  1  0.97542000  0.08302000  0.23957000  1.0
  H  H36  1  0.83705000  0.06828000  0.57774000  1.0
  H  H37  1  0.33705000  0.93172000  0.42226000  1.0
  H  H38  1  0.69210000  0.13914000  0.79642000  1.0
  H  H39  1  0.19210000  0.86086000  0.20358000  1.0
  C  C40  1  0.71262000  0.92130000  0.11544000  1.0
  C  C41  1  0.21262000  0.07870000  0.88456000  1.0
  C  C42  1  0.86061000  0.53207000  0.97756000  1.0
  C  C43  1  0.36061000  0.46793000  0.02244000  1.0
  C  C44  1  0.84153000  0.39523000  0.01504000  1.0
  C  C45  1  0.34153000  0.60477000  0.98497000  1.0
  C  C46  1  0.82564000  0.81437000  0.07211000  1.0
  C  C47  1  0.32564000  0.18563000  0.92789000  1.0
  C  C48  1  0.60583000  0.37180000  0.46954000  1.0
  C  C49  1  0.10583000  0.62820000  0.53046000  1.0
  C  C50  1  0.77437000  0.45488000  0.77070000  1.0
  C  C51  1  0.27437000  0.54512000  0.22930000  1.0
  C  C52  1  0.87528000  0.00129000  0.01350000  1.0
  C  C53  1  0.37528000  0.99871000  0.98650000  1.0
  C  C54  1  0.64105000  0.45444000  0.68702000  1.0
  C  C55  1  0.14105000  0.54556000  0.31298000  1.0
  C  C56  1  0.84270000  0.67099000  0.09292000  1.0
  C  C57  1  0.34270000  0.32901000  0.90708000  1.0
  C  C58  1  0.68230000  0.30916000  0.34650000  1.0
  C  C59  1  0.18230000  0.69084000  0.65350000  1.0
  C  C60  1  0.70008000  0.79008000  0.39485000  1.0
  C  C61  1  0.20008000  0.20992000  0.60515000  1.0
  C  C62  1  0.67542000  0.88042000  0.52391000  1.0
  C  C63  1  0.17542000  0.11958000  0.47609000  1.0
  C  C64  1  0.55866000  0.93791000  0.70044000  1.0
  C  C65  1  0.05866000  0.06209000  0.29956000  1.0
  C  C66  1  0.74385000  0.00755000  0.60046000  1.0
  C  C67  1  0.24385000  0.99245000  0.39954000  1.0
  C  C68  1  0.66806000  0.04515000  0.71453000  1.0
  C  C69  1  0.16806000  0.95485000  0.28547000  1.0
  N  N70  1  0.75007000  0.53420000  0.88716000  1.0
  N  N71  1  0.25007000  0.46580000  0.11284000  1.0
  N  N72  1  0.74533000  0.03942000  0.07843000  1.0
  N  N73  1  0.24533000  0.96058000  0.92157000  1.0
  N  N74  1  0.92806000  0.86648000  0.00686000  1.0
  N  N75  1  0.42806000  0.13352000  0.99314000  1.0
  N  N76  1  0.59060000  0.34833000  0.25791000  1.0
  N  N77  1  0.09060000  0.65168000  0.74209000  1.0
  N  N78  1  0.69659000  0.39538000  0.56471000  1.0
  N  N79  1  0.19659000  0.60462000  0.43529000  1.0
  O  O80  1  0.70659000  0.33530000  0.99468000  1.0
  O  O81  1  0.20659000  0.66470000  0.00532000  1.0
  O  O82  1  0.89595000  0.38599000  0.72951000  1.0
  O  O83  1  0.39595000  0.61401000  0.27049000  1.0
  O  O84  1  0.94919000  0.35547000  0.06674000  1.0
  O  O85  1  0.44919000  0.64453000  0.93326000  1.0
  O  O86  1  0.46333000  0.39492000  0.47627000  1.0
  O  O87  1  0.96333000  0.60508000  0.52373000  1.0
  O  O88  1  0.74323000  0.63776000  0.37165000  1.0
  O  O89  1  0.24323000  0.36224000  0.62835000  1.0
  O  O90  1  0.56021000  0.83652000  0.58454000  1.0
  O  O91  1  0.06021000  0.16348000  0.41546000  1.0
