# generated using pymatgen
data_Mn2H9C9NO12
_symmetry_space_group_name_H-M   'P 1'
_cell_length_a   6.55055000
_cell_length_b   8.83453000
_cell_length_c   11.15090000
_cell_angle_alpha   91.86300000
_cell_angle_beta   106.22000000
_cell_angle_gamma   92.30690000
_symmetry_Int_Tables_number   1
_chemical_formula_structural   Mn2H9C9NO12
_chemical_formula_sum   'Mn4 H18 C18 N2 O24'
_cell_volume   618.48183452
_cell_formula_units_Z   2
loop_
 _symmetry_equiv_pos_site_id
 _symmetry_equiv_pos_as_xyz
  1  'x, y, z'
loop_
 _atom_site_type_symbol
 _atom_site_label
 _atom_site_symmetry_multiplicity
 _atom_site_fract_x
 _atom_site_fract_y
 _atom_site_fract_z
 _atom_site_occupancy
  Mn  Mn0  1  0.63244000  0.27341000  0.16678000  1.0
  Mn  Mn1  1  0.36756000  0.72658000  0.83322000  1.0
  Mn  Mn2  1  0.19585000  0.78583000  0.27305000  1.0
  Mn  Mn3  1  0.80415000  0.21417000  0.72695000  1.0
  H  H4  1  0.77000000  0.97935000  0.14488000  1.0
  H  H5  1  0.23000000  0.02065000  0.85512000  1.0
  H  H6  1  0.75311000  0.04946000  0.01167000  1.0
  H  H7  1  0.24689000  0.95055000  0.98833000  1.0
  H  H8  1  0.74565000  0.35979000  0.97103000  1.0
  H  H9  1  0.25435000  0.64021000  0.02897000  1.0
  H  H10  1  0.51621000  0.29563000  0.90711000  1.0
  H  H11  1  0.48379000  0.70437000  0.09289000  1.0
  H  H12  1  0.65457000  0.36636000  0.39884000  1.0
  H  H13  1  0.34542000  0.63364000  0.60117000  1.0
  H  H14  1  0.49000000  0.47838000  0.31805000  1.0
  H  H15  1  0.51000000  0.52161000  0.68195000  1.0
  H  H16  1  0.91574000  0.71302000  0.01932000  1.0
  H  H17  1  0.08426000  0.28698000  0.98068000  1.0
  H  H18  1  0.96758000  0.57103000  0.10664000  1.0
  H  H19  1  0.03242000  0.42898000  0.89336000  1.0
  H  H20  1  0.82201000  0.59473000  0.47843000  1.0
  H  H21  1  0.17799000  0.40528000  0.52157000  1.0
  C  C22  1  0.72026000  0.11644000  0.44185000  1.0
  C  C23  1  0.27974000  0.88356000  0.55815000  1.0
  C  C24  1  0.75193000  0.97021000  0.50826000  1.0
  C  C25  1  0.24807000  0.02979000  0.49174000  1.0
  C  C26  1  0.76082000  0.82990000  0.44808000  1.0
  C  C27  1  0.23918000  0.17010000  0.55192000  1.0
  C  C28  1  0.80733000  0.70436000  0.52202000  1.0
  C  C29  1  0.19267000  0.29564000  0.47798000  1.0
  C  C30  1  0.82849000  0.71837000  0.64996000  1.0
  C  C31  1  0.17150000  0.28163000  0.35004000  1.0
  C  C32  1  0.79759000  0.86064000  0.70056000  1.0
  C  C33  1  0.20240000  0.13936000  0.29944000  1.0
  C  C34  1  0.77599000  0.88954000  0.82995000  1.0
  C  C35  1  0.22401000  0.11046000  0.17006000  1.0
  C  C36  1  0.88687000  0.58132000  0.72604000  1.0
  C  C37  1  0.11313000  0.41868000  0.27396000  1.0
  C  C38  1  0.71081000  0.80814000  0.30844000  1.0
  C  C39  1  0.28919000  0.19186000  0.69156000  1.0
  N  N40  1  0.76839000  0.98240000  0.63068000  1.0
  N  N41  1  0.23161000  0.01759000  0.36932000  1.0
  O  O42  1  0.69817000  0.10966000  0.32554000  1.0
  O  O43  1  0.30184000  0.89034000  0.67447000  1.0
  O  O44  1  0.71903000  0.23647000  0.50878000  1.0
  O  O45  1  0.28097000  0.76353000  0.49123000  1.0
  O  O46  1  0.80615000  0.02538000  0.87303000  1.0
  O  O47  1  0.19385000  0.97462000  0.12697000  1.0
  O  O48  1  0.71638000  0.77716000  0.88422000  1.0
  O  O49  1  0.28362000  0.22284000  0.11578000  1.0
  O  O50  1  0.06187000  0.58728000  0.81152000  1.0
  O  O51  1  0.93812000  0.41272000  0.18848000  1.0
  O  O52  1  0.75982000  0.46449000  0.69538000  1.0
  O  O53  1  0.24018000  0.53551000  0.30462000  1.0
  O  O54  1  0.85862000  0.81290000  0.25561000  1.0
  O  O55  1  0.14138000  0.18710000  0.74439000  1.0
  O  O56  1  0.51673000  0.77791000  0.24969000  1.0
  O  O57  1  0.48327000  0.22209000  0.75031000  1.0
  O  O58  1  0.73200000  0.06951000  0.09600000  1.0
  O  O59  1  0.26800000  0.93049000  0.90400000  1.0
  O  O60  1  0.60148000  0.35158000  0.98450000  1.0
  O  O61  1  0.39852000  0.64841000  0.01550000  1.0
  O  O62  1  0.62479000  0.42773000  0.32213000  1.0
  O  O63  1  0.37521000  0.57227000  0.67787000  1.0
  O  O64  1  0.03136000  0.66479000  0.08092000  1.0
  O  O65  1  0.96864000  0.33521000  0.91908000  1.0
