# generated using pymatgen
data_CoH23C25N4O5
_symmetry_space_group_name_H-M   'P 1'
_cell_length_a   9.71778000
_cell_length_b   16.24620000
_cell_length_c   16.63540000
_cell_angle_alpha   89.99880000
_cell_angle_beta   89.99890000
_cell_angle_gamma   93.62170000
_symmetry_Int_Tables_number   1
_chemical_formula_structural   CoH23C25N4O5
_chemical_formula_sum   'Co4 H92 C100 N16 O20'
_cell_volume   2621.10186084
_cell_formula_units_Z   4
loop_
 _symmetry_equiv_pos_site_id
 _symmetry_equiv_pos_as_xyz
  1  'x, y, z'
loop_
 _atom_site_type_symbol
 _atom_site_label
 _atom_site_symmetry_multiplicity
 _atom_site_fract_x
 _atom_site_fract_y
 _atom_site_fract_z
 _atom_site_occupancy
  Co  Co0  1  0.86834000  0.29037000  0.29691000  1.0
  Co  Co1  1  0.63167000  0.20962000  0.79690000  1.0
  Co  Co2  1  0.13165000  0.70963000  0.70310000  1.0
  Co  Co3  1  0.36832000  0.79037000  0.20309000  1.0
  H  H4  1  0.12683000  0.51746000  0.27256000  1.0
  H  H5  1  0.37317000  0.98254000  0.77255000  1.0
  H  H6  1  0.87317000  0.48254000  0.72745000  1.0
  H  H7  1  0.62682000  0.01746000  0.22745000  1.0
  H  H8  1  0.52792000  0.60111000  0.35799000  1.0
  H  H9  1  0.97208000  0.89890000  0.85798000  1.0
  H  H10  1  0.47208000  0.39890000  0.64202000  1.0
  H  H11  1  0.02792000  0.10112000  0.14202000  1.0
  H  H12  1  0.36968000  0.35012000  0.40360000  1.0
  H  H13  1  0.13033000  0.14988000  0.90361000  1.0
  H  H14  1  0.63032000  0.64988000  0.59640000  1.0
  H  H15  1  0.86967000  0.85013000  0.09641000  1.0
  H  H16  1  0.66898000  0.56433000  0.46305000  1.0
  H  H17  1  0.83103000  0.93567000  0.96305000  1.0
  H  H18  1  0.33103000  0.43567000  0.53695000  1.0
  H  H19  1  0.16896000  0.06434000  0.03696000  1.0
  H  H20  1  0.72527000  0.52978000  0.36709000  1.0
  H  H21  1  0.77473000  0.97022000  0.86709000  1.0
  H  H22  1  0.27473000  0.47022000  0.63292000  1.0
  H  H23  1  0.22526000  0.02979000  0.13291000  1.0
  H  H24  1  0.83339000  0.41234000  0.43310000  1.0
  H  H25  1  0.66666667  0.08766000  0.93310000  1.0
  H  H26  1  0.16662000  0.58766000  0.56689000  1.0
  H  H27  1  0.33337000  0.91235000  0.06689000  1.0
  H  H28  1  0.77604000  0.44481000  0.52818000  1.0
  H  H29  1  0.72396000  0.05518000  0.02818000  1.0
  H  H30  1  0.22397000  0.55518000  0.47182000  1.0
  H  H31  1  0.27603000  0.94483000  0.97183000  1.0
  H  H32  1  0.92252000  0.57868000  0.51105000  1.0
  H  H33  1  0.57746000  0.92133000  0.01106000  1.0
  H  H34  1  0.07748000  0.42132000  0.48895000  1.0
  H  H35  1  0.42253000  0.07868000  0.98895000  1.0
  H  H36  1  0.98283000  0.54194000  0.41831000  1.0
  H  H37  1  0.51718000  0.95806000  0.91832000  1.0
  H  H38  1  0.01718000  0.45806000  0.58169000  1.0
  H  H39  1  0.48282000  0.04194000  0.08169000  1.0
  H  H40  1  0.54355000  0.26741000  0.24622000  1.0
  H  H41  1  0.95645000  0.23258000  0.74620000  1.0
  H  H42  1  0.45644000  0.73260000  0.75379000  1.0
  H  H43  1  0.04354000  0.76741000  0.25380000  1.0
  H  H44  1  0.83319000  0.47102000  0.23171000  1.0
  H  H45  1  0.66680000  0.02899000  0.73171000  1.0
  H  H46  1  0.16681000  0.52899000  0.76829000  1.0
  H  H47  1  0.33318000  0.97100000  0.26827000  1.0
  H  H48  1  0.41364000  0.40188000  0.18325000  1.0
  H  H49  1  0.08636000  0.09810000  0.68326000  1.0
  H  H50  1  0.58638000  0.59812000  0.81673000  1.0
  H  H51  1  0.91363000  0.90188000  0.31675000  1.0
  H  H52  1  0.69981000  0.57528000  0.16139000  1.0
  H  H53  1  0.80019000  0.92471000  0.66139000  1.0
  H  H54  1  0.30019000  0.42472000  0.83860000  1.0
  H  H55  1  0.19983000  0.07528000  0.33860000  1.0
  H  H56  1  0.52728000  0.57498000  0.19631000  1.0
  H  H57  1  0.97272000  0.92501000  0.69632000  1.0
  H  H58  1  0.47272000  0.42502000  0.80368000  1.0
  H  H59  1  0.02729000  0.07498000  0.30368000  1.0
  H  H60  1  0.75015000  0.50172000  0.03073000  1.0
  H  H61  1  0.74986000  0.99829000  0.53074000  1.0
  H  H62  1  0.24984000  0.49828000  0.96925000  1.0
  H  H63  1  0.25016000  0.00171000  0.46925000  1.0
  H  H64  1  0.33478000  0.54140000  0.10466000  1.0
  H  H65  1  0.16522000  0.95859000  0.60467000  1.0
  H  H66  1  0.66520000  0.45860000  0.89533000  1.0
  H  H67  1  0.83480000  0.04141000  0.39533000  1.0
  H  H68  1  0.58964000  0.25313000  0.38838000  1.0
  H  H69  1  0.91037000  0.24687000  0.88838000  1.0
  H  H70  1  0.41035000  0.74685000  0.61163000  1.0
  H  H71  1  0.08964000  0.75314000  0.11163000  1.0
  H  H72  1  0.99715000  0.24811000  0.47346000  1.0
  H  H73  1  0.50286000  0.25189000  0.97345000  1.0
  H  H74  1  0.00284000  0.75188000  0.52654000  1.0
  H  H75  1  0.49712000  0.74812000  0.02654000  1.0
  H  H76  1  0.81537000  0.18987000  0.59455000  1.0
  H  H77  1  0.68463000  0.31014000  0.09454000  1.0
  H  H78  1  0.18463000  0.81011000  0.40545000  1.0
  H  H79  1  0.31536000  0.68991000  0.90544000  1.0
  H  H80  1  0.45235000  0.20980000  0.51415000  1.0
  H  H81  1  0.04765000  0.29019000  0.01414000  1.0
  H  H82  1  0.54765000  0.79017000  0.48586000  1.0
  H  H83  1  0.95233000  0.70983000  0.98585000  1.0
  H  H84  1  0.54167000  0.18613000  0.60308000  1.0
  H  H85  1  0.95833000  0.31386000  0.10308000  1.0
  H  H86  1  0.45833000  0.81384000  0.39693000  1.0
  H  H87  1  0.04167000  0.68617000  0.89692000  1.0
  H  H88  1  0.57405000  0.09808000  0.39118000  1.0
  H  H89  1  0.92595000  0.40192000  0.89117000  1.0
  H  H90  1  0.42593000  0.90189000  0.60883000  1.0
  H  H91  1  0.07408000  0.59810000  0.10882000  1.0
  H  H92  1  0.46118000  0.05009000  0.63884000  1.0
  H  H93  1  0.03886000  0.44990000  0.13882000  1.0
  H  H94  1  0.53881000  0.94988000  0.36118000  1.0
  H  H95  1  0.96118000  0.55012000  0.86116000  1.0
  C  C96  1  0.12387000  0.35927000  0.33086000  1.0
  C  C97  1  0.37613000  0.14072000  0.83085000  1.0
  C  C98  1  0.87612000  0.64072000  0.66916000  1.0
  C  C99  1  0.62386000  0.85928000  0.16915000  1.0
  C  C100  1  0.23628000  0.42655000  0.33790000  1.0
  C  C101  1  0.26372000  0.07344000  0.83788000  1.0
  C  C102  1  0.76373000  0.57344000  0.66211000  1.0
  C  C103  1  0.73627000  0.92656000  0.16211000  1.0
  C  C104  1  0.22063000  0.50443000  0.30442000  1.0
  C  C105  1  0.27937000  0.99556000  0.80440000  1.0
  C  C106  1  0.77937000  0.49557000  0.69560000  1.0
  C  C107  1  0.72063000  0.00444000  0.19559000  1.0
  C  C108  1  0.32608000  0.56627000  0.31204000  1.0
  C  C109  1  0.17391000  0.93373000  0.81203000  1.0
  C  C110  1  0.67392000  0.43373000  0.68797000  1.0
  C  C111  1  0.82607000  0.06628000  0.18797000  1.0
  C  C112  1  0.44810000  0.55135000  0.35328000  1.0
  C  C113  1  0.05192000  0.94865000  0.85329000  1.0
  C  C114  1  0.55191000  0.44865000  0.64672000  1.0
  C  C115  1  0.94808000  0.05136000  0.14672000  1.0
  C  C116  1  0.46422000  0.47312000  0.38585000  1.0
  C  C117  1  0.03580000  0.02688000  0.88587000  1.0
  C  C118  1  0.53580000  0.52687000  0.61414000  1.0
  C  C119  1  0.96420000  0.97313000  0.11414000  1.0
  C  C120  1  0.35764000  0.41118000  0.37844000  1.0
  C  C121  1  0.14237000  0.08882000  0.87845000  1.0
  C  C122  1  0.64238000  0.58882000  0.62156000  1.0
  C  C123  1  0.85763000  0.91119000  0.12156000  1.0
  C  C124  1  0.30942000  0.64764000  0.27258000  1.0
  C  C125  1  0.19057000  0.85236000  0.77258000  1.0
  C  C126  1  0.69058000  0.35236000  0.72742000  1.0
  C  C127  1  0.80941000  0.14764000  0.22743000  1.0
  C  C128  1  0.69648000  0.50971000  0.42862000  1.0
  C  C129  1  0.80353000  0.99029000  0.92862000  1.0
  C  C130  1  0.30353000  0.49029000  0.57138000  1.0
  C  C131  1  0.19648000  0.00972000  0.07138000  1.0
  C  C132  1  0.81200000  0.46695000  0.46880000  1.0
  C  C133  1  0.68800000  0.03304000  0.96880000  1.0
  C  C134  1  0.18801000  0.53304000  0.53120000  1.0
  C  C135  1  0.31199000  0.96697000  0.03120000  1.0
  C  C136  1  0.94393000  0.52206000  0.47800000  1.0
  C  C137  1  0.55608000  0.97794000  0.97800000  1.0
  C  C138  1  0.05610000  0.47793000  0.52200000  1.0
  C  C139  1  0.44391000  0.02207000  0.02200000  1.0
  C  C140  1  0.58280000  0.33023000  0.23494000  1.0
  C  C141  1  0.91720000  0.16977000  0.73493000  1.0
  C  C142  1  0.41720000  0.66978000  0.76507000  1.0
  C  C143  1  0.08278000  0.83023000  0.26506000  1.0
  C  C144  1  0.73707000  0.43356000  0.22787000  1.0
  C  C145  1  0.76292000  0.06645000  0.72787000  1.0
  C  C146  1  0.26293000  0.56645000  0.77212000  1.0
  C  C147  1  0.23707000  0.93355000  0.27212000  1.0
  C  C148  1  0.51864000  0.39558000  0.20293000  1.0
  C  C149  1  0.98137000  0.10441000  0.70293000  1.0
  C  C150  1  0.48136000  0.60443000  0.79706000  1.0
  C  C151  1  0.01863000  0.89557000  0.29706000  1.0
  C  C152  1  0.59921000  0.54056000  0.16060000  1.0
  C  C153  1  0.90079000  0.95944000  0.66061000  1.0
  C  C154  1  0.40079000  0.45945000  0.83938000  1.0
  C  C155  1  0.09922000  0.04055000  0.33938000  1.0
  C  C156  1  0.54817000  0.52455000  0.07621000  1.0
  C  C157  1  0.95184000  0.97545000  0.57621000  1.0
  C  C158  1  0.45182000  0.47546000  0.92379000  1.0
  C  C159  1  0.04819000  0.02454000  0.42378000  1.0
  C  C160  1  0.64045000  0.50165000  0.01692000  1.0
  C  C161  1  0.85957000  0.99835000  0.51692000  1.0
  C  C162  1  0.35955000  0.49835000  0.98308000  1.0
  C  C163  1  0.14046000  0.00165000  0.48308000  1.0
  C  C164  1  0.40718000  0.52296000  0.05885000  1.0
  C  C165  1  0.09283000  0.97704000  0.55885000  1.0
  C  C166  1  0.59282000  0.47705000  0.94114000  1.0
  C  C167  1  0.90719000  0.02295000  0.44114000  1.0
  C  C168  1  0.67697000  0.24428000  0.42713000  1.0
  C  C169  1  0.82304000  0.25572000  0.92712000  1.0
  C  C170  1  0.32302000  0.75571000  0.57288000  1.0
  C  C171  1  0.17696000  0.74429000  0.07287000  1.0
  C  C172  1  0.88561000  0.24025000  0.47468000  1.0
  C  C173  1  0.61441000  0.25975000  0.97468000  1.0
  C  C174  1  0.11439000  0.75973000  0.52533000  1.0
  C  C175  1  0.38558000  0.74027000  0.02532000  1.0
  C  C176  1  0.79718000  0.21141000  0.53412000  1.0
  C  C177  1  0.70282000  0.28858000  0.03411000  1.0
  C  C178  1  0.20282000  0.78857000  0.46588000  1.0
  C  C179  1  0.29717000  0.71144000  0.96589000  1.0
  C  C180  1  0.53870000  0.17638000  0.53776000  1.0
  C  C181  1  0.96130000  0.32362000  0.03775000  1.0
  C  C182  1  0.46130000  0.82360000  0.46225000  1.0
  C  C183  1  0.03869000  0.67641000  0.96224000  1.0
  C  C184  1  0.51924000  0.08515000  0.51760000  1.0
  C  C185  1  0.98077000  0.41485000  0.01758000  1.0
  C  C186  1  0.48076000  0.91483000  0.48243000  1.0
  C  C187  1  0.01924000  0.58518000  0.98241000  1.0
  C  C188  1  0.54003000  0.05589000  0.43943000  1.0
  C  C189  1  0.95999000  0.44412000  0.93941000  1.0
  C  C190  1  0.45997000  0.94409000  0.56059000  1.0
  C  C191  1  0.04005000  0.55591000  0.06057000  1.0
  C  C192  1  0.47880000  0.02828000  0.57774000  1.0
  C  C193  1  0.02122000  0.47172000  0.07773000  1.0
  C  C194  1  0.52120000  0.97170000  0.42227000  1.0
  C  C195  1  0.97882000  0.52831000  0.92226000  1.0
  N  N196  1  0.80913000  0.26005000  0.40798000  1.0
  N  N197  1  0.69088000  0.23996000  0.90798000  1.0
  N  N198  1  0.19086000  0.73995000  0.59202000  1.0
  N  N199  1  0.30911000  0.76004000  0.09202000  1.0
  N  N200  1  0.66531000  0.21442000  0.50300000  1.0
  N  N201  1  0.83470000  0.28558000  0.00299000  1.0
  N  N202  1  0.33469000  0.78556000  0.49701000  1.0
  N  N203  1  0.16530000  0.71444000  0.99700000  1.0
  N  N204  1  0.71931000  0.35467000  0.25026000  1.0
  N  N205  1  0.78069000  0.14532000  0.75026000  1.0
  N  N206  1  0.28070000  0.64534000  0.74974000  1.0
  N  N207  1  0.21929000  0.85466000  0.24974000  1.0
  N  N208  1  0.61731000  0.46050000  0.19922000  1.0
  N  N209  1  0.88269000  0.03949000  0.69923000  1.0
  N  N210  1  0.38270000  0.53951000  0.80077000  1.0
  N  N211  1  0.11730000  0.96049000  0.30077000  1.0
  O  O212  1  0.13591000  0.29020000  0.36232000  1.0
  O  O213  1  0.36410000  0.20978000  0.86231000  1.0
  O  O214  1  0.86408000  0.70980000  0.63771000  1.0
  O  O215  1  0.63590000  0.79020000  0.13770000  1.0
  O  O216  1  0.01444000  0.37892000  0.29133000  1.0
  O  O217  1  0.48555000  0.12107000  0.79131000  1.0
  O  O218  1  0.98554000  0.62107000  0.70868000  1.0
  O  O219  1  0.51443000  0.87893000  0.20867000  1.0
  O  O220  1  0.20025000  0.66159000  0.23575000  1.0
  O  O221  1  0.29975000  0.83841000  0.73576000  1.0
  O  O222  1  0.79975000  0.33840000  0.76423000  1.0
  O  O223  1  0.70023000  0.16159000  0.26424000  1.0
  O  O224  1  0.41487000  0.70105000  0.27543000  1.0
  O  O225  1  0.08512000  0.79895000  0.77543000  1.0
  O  O226  1  0.58512000  0.29895000  0.72457000  1.0
  O  O227  1  0.91486000  0.20105000  0.22458000  1.0
  O  O228  1  0.57945000  0.45081000  0.42478000  1.0
  O  O229  1  0.92056000  0.04919000  0.92478000  1.0
  O  O230  1  0.42057000  0.54919000  0.57523000  1.0
  O  O231  1  0.07943000  0.95083000  0.07523000  1.0
