# generated using pymatgen
data_AlH7C15ClO5F
_symmetry_space_group_name_H-M   'P 1'
_cell_length_a   6.64453000
_cell_length_b   15.37780000
_cell_length_c   17.75960000
_cell_angle_alpha   84.94720000
_cell_angle_beta   79.67680000
_cell_angle_gamma   77.65620000
_symmetry_Int_Tables_number   1
_chemical_formula_structural   AlH7C15ClO5F
_chemical_formula_sum   'Al2 H14 C30 Cl2 O10 F2'
_cell_volume   1741.65974697
_cell_formula_units_Z   2
loop_
 _symmetry_equiv_pos_site_id
 _symmetry_equiv_pos_as_xyz
  1  'x, y, z'
loop_
 _atom_site_type_symbol
 _atom_site_label
 _atom_site_symmetry_multiplicity
 _atom_site_fract_x
 _atom_site_fract_y
 _atom_site_fract_z
 _atom_site_occupancy
  Al  Al0  1  0.49766000  0.50030000  0.49926000  1.0
  Al  Al1  1  0.99847000  0.49959000  0.49908000  1.0
  H  H2  1  0.24111000  0.43361000  0.58561000  1.0
  H  H3  1  0.73344000  0.59447000  0.43295000  1.0
  H  H4  1  0.63445000  0.54937000  0.26921000  1.0
  H  H5  1  0.71141000  0.55106000  0.12599000  1.0
  H  H6  1  0.09570000  0.43650000  0.26774000  1.0
  H  H7  1  0.90302000  0.56548000  0.72837000  1.0
  H  H8  1  0.37507000  0.44271000  0.73465000  1.0
  H  H9  1  0.31338000  0.43948000  0.87777000  1.0
  H  H10  1  0.81235000  0.77095000  0.47616000  1.0
  H  H11  1  0.17011000  0.23071000  0.53023000  1.0
  H  H12  1  0.59243000  0.22904000  0.45362000  1.0
  H  H13  1  0.67784000  0.06639000  0.45701000  1.0
  H  H14  1  0.40890000  0.77264000  0.53762000  1.0
  H  H15  1  0.32499000  0.93516000  0.53339000  1.0
  C  C16  1  0.82050000  0.34081000  0.49307000  1.0
  C  C17  1  0.68836000  0.50190000  0.63772000  1.0
  C  C18  1  0.17336000  0.66051000  0.50464000  1.0
  C  C19  1  0.30873000  0.49673000  0.36188000  1.0
  C  C20  1  0.35943000  0.49391000  0.27677000  1.0
  C  C21  1  0.53463000  0.52516000  0.23693000  1.0
  C  C22  1  0.57775000  0.52575000  0.15762000  1.0
  C  C23  1  0.45049000  0.49302000  0.11564000  1.0
  C  C24  1  0.27779000  0.45930000  0.15708000  1.0
  C  C25  1  0.23099000  0.46095000  0.23651000  1.0
  C  C26  1  0.49430000  0.49511000  0.03497000  1.0
  C  C27  1  0.53261000  0.49926000  0.96508000  1.0
  C  C28  1  0.57024000  0.50188000  0.88437000  1.0
  C  C29  1  0.73580000  0.53858000  0.84080000  1.0
  C  C30  1  0.77366000  0.53830000  0.76128000  1.0
  C  C31  1  0.64378000  0.50349000  0.72299000  1.0
  C  C32  1  0.47587000  0.46896000  0.76503000  1.0
  C  C33  1  0.44131000  0.46727000  0.84442000  1.0
  C  C34  1  0.11891000  0.75952000  0.50639000  1.0
  C  C35  1  0.87396000  0.24182000  0.49177000  1.0
  C  C36  1  0.92694000  0.80623000  0.48892000  1.0
  C  C37  1  0.88155000  0.89843000  0.48684000  1.0
  C  C38  1  0.06017000  0.19519000  0.51412000  1.0
  C  C39  1  0.10411000  0.10295000  0.51747000  1.0
  C  C40  1  0.73818000  0.19340000  0.47118000  1.0
  C  C41  1  0.78776000  0.10090000  0.47353000  1.0
  C  C42  1  0.25948000  0.80816000  0.52304000  1.0
  C  C43  1  0.21011000  0.90064000  0.52079000  1.0
  C  C44  1  0.01910000  0.95129000  0.50175000  1.0
  C  C45  1  0.97235000  0.05022000  0.49777000  1.0
  Cl  Cl46  1  0.12199000  0.41625000  0.10804000  1.0
  Cl  Cl47  1  0.89352000  0.58394000  0.88713000  1.0
  O  O48  1  0.63849000  0.37942000  0.48132000  1.0
  O  O49  1  0.86678000  0.51528000  0.60474000  1.0
  O  O50  1  0.03408000  0.62159000  0.49013000  1.0
  O  O51  1  0.44681000  0.51500000  0.39591000  1.0
  O  O52  1  0.35652000  0.62248000  0.51594000  1.0
  O  O53  1  0.13117000  0.48226000  0.39446000  1.0
  O  O54  1  0.95970000  0.37935000  0.50794000  1.0
  O  O55  1  0.54654000  0.48577000  0.60425000  1.0
  O  O56  1  0.25138000  0.45995000  0.53384000  1.0
  O  O57  1  0.74410000  0.54069000  0.46587000  1.0
  F  F58  1  0.68888000  0.93617000  0.46861000  1.0
  F  F59  1  0.28785000  0.06513000  0.54278000  1.0
