# generated using pymatgen
data_CuH8C4N2(ClO2)2
_symmetry_space_group_name_H-M   'P 1'
_cell_length_a   5.50935000
_cell_length_b   8.97952497
_cell_length_c   10.55010000
_cell_angle_alpha   65.69838796
_cell_angle_beta   90.00020000
_cell_angle_gamma   72.13038908
_symmetry_Int_Tables_number   1
_chemical_formula_structural   CuH8C4N2(ClO2)2
_chemical_formula_sum   'Cu2 H16 C8 N4 Cl4 O8'
_cell_volume   447.90877076
_cell_formula_units_Z   2
loop_
 _symmetry_equiv_pos_site_id
 _symmetry_equiv_pos_as_xyz
  1  'x, y, z'
loop_
 _atom_site_type_symbol
 _atom_site_label
 _atom_site_symmetry_multiplicity
 _atom_site_fract_x
 _atom_site_fract_y
 _atom_site_fract_z
 _atom_site_occupancy
  Cu  Cu0  1  0.00000000  0.50000000  1.00000000  1.0
  Cu  Cu1  1  0.50000000  0.50000000  0.50000000  1.0
  H  H2  1  0.17635000  0.53997000  0.76422000  1.0
  H  H3  1  0.71634000  0.46004000  0.73575000  1.0
  H  H4  1  0.82364000  0.46003000  0.23578000  1.0
  H  H5  1  0.28365000  0.53997000  0.26425000  1.0
  H  H6  1  0.41070000  0.40382000  0.89233000  1.0
  H  H7  1  0.81438000  0.59625000  0.60762000  1.0
  H  H8  1  0.58930000  0.59618000  0.10768000  1.0
  H  H9  1  0.18561000  0.40376000  0.39238000  1.0
  H  H10  1  0.60790000  0.10025000  0.09461000  1.0
  H  H11  1  0.70808000  0.89994000  0.40526000  1.0
  H  H12  1  0.39211000  0.89975000  0.90539000  1.0
  H  H13  1  0.29191000  0.10006000  0.59474000  1.0
  H  H14  1  0.14168000  0.22135000  0.82153000  1.0
  H  H15  1  0.36296000  0.77851000  0.67848000  1.0
  H  H16  1  0.85832000  0.77865000  0.17847000  1.0
  H  H17  1  0.63705000  0.22148000  0.32152000  1.0
  C  C18  1  0.78352000  0.05224000  0.05433000  1.0
  C  C19  1  0.83573000  0.94789000  0.44557000  1.0
  C  C20  1  0.21650000  0.94778000  0.94567000  1.0
  C  C21  1  0.16427000  0.05211000  0.55443000  1.0
  C  C22  1  0.07976000  0.12117000  0.89958000  1.0
  C  C23  1  0.20086000  0.87873000  0.60043000  1.0
  C  C24  1  0.92025000  0.87883000  0.10042000  1.0
  C  C25  1  0.79913000  0.12127000  0.39958000  1.0
  N  N26  1  0.86336000  0.17367000  0.95395000  1.0
  N  N27  1  0.03693000  0.82633000  0.54598000  1.0
  N  N28  1  0.13665000  0.82632000  0.04605000  1.0
  N  N29  1  0.96307000  0.17367000  0.45403000  1.0
  Cl  Cl30  1  0.76431000  0.76450000  0.83014000  1.0
  Cl  Cl31  1  0.52877000  0.23555000  0.66988000  1.0
  Cl  Cl32  1  0.23571000  0.23549000  0.16987000  1.0
  Cl  Cl33  1  0.47121000  0.76445000  0.33012000  1.0
  O  O34  1  0.21938000  0.45114000  0.86446000  1.0
  O  O35  1  0.67037000  0.54897000  0.63553000  1.0
  O  O36  1  0.78062000  0.54886000  0.13554000  1.0
  O  O37  1  0.32963000  0.45103000  0.36447000  1.0
  O  O38  1  0.73482000  0.33965000  0.91066000  1.0
  O  O39  1  0.07415000  0.66038000  0.58927000  1.0
  O  O40  1  0.26519000  0.66032000  0.08936000  1.0
  O  O41  1  0.92586000  0.33961000  0.41073000  1.0
