# generated using pymatgen
data_LiH10C5NO5
_symmetry_space_group_name_H-M   'P 1'
_cell_length_a   7.31244000
_cell_length_b   9.70302000
_cell_length_c   10.26220000
_cell_angle_alpha   89.99990000
_cell_angle_beta   90.00000000
_cell_angle_gamma   97.58540000
_symmetry_Int_Tables_number   1
_chemical_formula_structural   LiH10C5NO5
_chemical_formula_sum   'Li4 H40 C20 N4 O20'
_cell_volume   721.75960237
_cell_formula_units_Z   4
loop_
 _symmetry_equiv_pos_site_id
 _symmetry_equiv_pos_as_xyz
  1  'x, y, z'
loop_
 _atom_site_type_symbol
 _atom_site_label
 _atom_site_symmetry_multiplicity
 _atom_site_fract_x
 _atom_site_fract_y
 _atom_site_fract_z
 _atom_site_occupancy
  Li  Li0  1  0.54103000  0.85746000  0.36232000  1.0
  Li  Li1  1  0.54103000  0.35746000  0.13768000  1.0
  Li  Li2  1  0.45897000  0.14254000  0.63768000  1.0
  Li  Li3  1  0.45897000  0.64254000  0.86232000  1.0
  H  H4  1  0.97855000  0.68391000  0.01055000  1.0
  H  H5  1  0.97855000  0.18391000  0.48946000  1.0
  H  H6  1  0.02145000  0.31609000  0.98946000  1.0
  H  H7  1  0.02145000  0.81609000  0.51054000  1.0
  H  H8  1  0.13454000  0.61074000  0.27667000  1.0
  H  H9  1  0.13454000  0.11074000  0.22333000  1.0
  H  H10  1  0.86546000  0.38926000  0.72333000  1.0
  H  H11  1  0.86546000  0.88926000  0.77667000  1.0
  H  H12  1  0.75249000  0.66278000  0.18953000  1.0
  H  H13  1  0.75250000  0.16278000  0.31047000  1.0
  H  H14  1  0.24750000  0.33721000  0.81047000  1.0
  H  H15  1  0.24750000  0.83721000  0.68953000  1.0
  H  H16  1  0.96890000  0.50358000  0.18505000  1.0
  H  H17  1  0.96890000  0.00358000  0.31495000  1.0
  H  H18  1  0.03110000  0.49642000  0.81495000  1.0
  H  H19  1  0.03110000  0.99642000  0.68505000  1.0
  H  H20  1  0.28543000  0.79323000  0.04773000  1.0
  H  H21  1  0.28543000  0.29323000  0.45227000  1.0
  H  H22  1  0.71457000  0.20677000  0.95227000  1.0
  H  H23  1  0.71457000  0.70677000  0.54773000  1.0
  H  H24  1  0.14203000  0.91203000  0.05122000  1.0
  H  H25  1  0.14203000  0.41203000  0.44878000  1.0
  H  H26  1  0.85797000  0.08797000  0.94878000  1.0
  H  H27  1  0.85797000  0.58797000  0.55122000  1.0
  H  H28  1  0.89719000  0.77766000  0.28799000  1.0
  H  H29  1  0.89719000  0.27766000  0.21201000  1.0
  H  H30  1  0.10281000  0.22235000  0.71201000  1.0
  H  H31  1  0.10281000  0.72234000  0.78799000  1.0
  H  H32  1  0.22656000  0.86053000  0.19491000  1.0
  H  H33  1  0.22656000  0.36053000  0.30509000  1.0
  H  H34  1  0.77344000  0.13947000  0.80509000  1.0
  H  H35  1  0.77344000  0.63947000  0.69491000  1.0
  H  H36  1  0.39718000  0.62175000  0.43112000  1.0
  H  H37  1  0.39718000  0.12175000  0.06888000  1.0
  H  H38  1  0.60282000  0.37825000  0.56888000  1.0
  H  H39  1  0.60282000  0.87825000  0.93112000  1.0
  H  H40  1  0.56809000  0.56989000  0.35940000  1.0
  H  H41  1  0.56810000  0.06989000  0.14060000  1.0
  H  H42  1  0.43190000  0.43011000  0.64060000  1.0
  H  H43  1  0.43190000  0.93011000  0.85940000  1.0
  C  C44  1  0.86027000  0.75330000  0.18589000  1.0
  C  C45  1  0.86027000  0.25330000  0.31411000  1.0
  C  C46  1  0.13973000  0.24670000  0.81411000  1.0
  C  C47  1  0.13973000  0.74670000  0.68589000  1.0
  C  C48  1  0.77091000  0.87175000  0.12677000  1.0
  C  C49  1  0.77091000  0.37175000  0.37323000  1.0
  C  C50  1  0.22909000  0.12825000  0.87323000  1.0
  C  C51  1  0.22909000  0.62826000  0.62677000  1.0
  C  C52  1  0.08859000  0.58429000  0.17646000  1.0
  C  C53  1  0.08859000  0.08429000  0.32354000  1.0
  C  C54  1  0.91141000  0.41571000  0.82354000  1.0
  C  C55  1  0.91141000  0.91571000  0.67646000  1.0
  C  C56  1  0.02251000  0.70948000  0.11077000  1.0
  C  C57  1  0.02251000  0.20949000  0.38923000  1.0
  C  C58  1  0.97748000  0.29051000  0.88923000  1.0
  C  C59  1  0.97749000  0.79051000  0.61077000  1.0
  C  C60  1  0.24061000  0.52154000  0.10498000  1.0
  C  C61  1  0.24061000  0.02154000  0.39503000  1.0
  C  C62  1  0.75940000  0.47847000  0.89502000  1.0
  C  C63  1  0.75940000  0.97847000  0.60498000  1.0
  N  N64  1  0.17810000  0.82573000  0.10088000  1.0
  N  N65  1  0.17810000  0.32573000  0.39912000  1.0
  N  N66  1  0.82190000  0.17427000  0.89912000  1.0
  N  N67  1  0.82190000  0.67428000  0.60087000  1.0
  O  O68  1  0.65335000  0.92393000  0.19669000  1.0
  O  O69  1  0.65335000  0.42393000  0.30331000  1.0
  O  O70  1  0.34665000  0.07607000  0.80331000  1.0
  O  O71  1  0.34665000  0.57607000  0.69669000  1.0
  O  O72  1  0.29726000  0.41505000  0.15732000  1.0
  O  O73  1  0.29726000  0.91504000  0.34268000  1.0
  O  O74  1  0.70274000  0.58495000  0.84268000  1.0
  O  O75  1  0.70274000  0.08495000  0.65732000  1.0
  O  O76  1  0.29969000  0.57601000  0.99910000  1.0
  O  O77  1  0.29969000  0.07601000  0.50090000  1.0
  O  O78  1  0.70031000  0.42399000  0.00090000  1.0
  O  O79  1  0.70031000  0.92399000  0.49909000  1.0
  O  O80  1  0.81449000  0.90913000  0.01089000  1.0
  O  O81  1  0.81449000  0.40913000  0.48911000  1.0
  O  O82  1  0.18551000  0.09087000  0.98911000  1.0
  O  O83  1  0.18551000  0.59087000  0.51089000  1.0
  O  O84  1  0.51853000  0.65503000  0.39130000  1.0
  O  O85  1  0.51853000  0.15503000  0.10870000  1.0
  O  O86  1  0.48147000  0.34498000  0.60871000  1.0
  O  O87  1  0.48147000  0.84498000  0.89130000  1.0
