# generated using pymatgen
data_Zn2H38C45(N3O4)2
_symmetry_space_group_name_H-M   'P 1'
_cell_length_a   9.86087000
_cell_length_b   10.92500000
_cell_length_c   18.93840000
_cell_angle_alpha   88.06160000
_cell_angle_beta   89.53450000
_cell_angle_gamma   89.20380000
_symmetry_Int_Tables_number   1
_chemical_formula_structural   Zn2H38C45(N3O4)2
_chemical_formula_sum   'Zn2 H38 C45 N6 O8'
_cell_volume   2038.80975473
_cell_formula_units_Z   1
loop_
 _symmetry_equiv_pos_site_id
 _symmetry_equiv_pos_as_xyz
  1  'x, y, z'
loop_
 _atom_site_type_symbol
 _atom_site_label
 _atom_site_symmetry_multiplicity
 _atom_site_fract_x
 _atom_site_fract_y
 _atom_site_fract_z
 _atom_site_occupancy
  Zn  Zn0  1  0.65548000  0.51118000  0.49740000  1.0
  Zn  Zn1  1  0.36275000  0.50650000  0.50057000  1.0
  H  H2  1  0.72575000  0.43818000  0.72557000  1.0
  H  H3  1  0.27972000  0.42672000  0.85042000  1.0
  H  H4  1  0.29190000  0.47181000  0.71967000  1.0
  H  H5  1  0.67291000  0.48531000  0.13355000  1.0
  H  H6  1  0.69136000  0.55073000  0.25796000  1.0
  H  H7  1  0.29234000  0.41419000  0.30108000  1.0
  H  H8  1  0.29919000  0.12833000  0.48829000  1.0
  H  H9  1  0.63441000  0.75867000  0.63490000  1.0
  H  H10  1  0.77938000  0.69148000  0.59687000  1.0
  H  H11  1  0.79758000  0.79830000  0.66438000  1.0
  H  H12  1  0.32888000  0.07565000  0.78635000  1.0
  H  H13  1  0.77770000  0.20264000  0.46682000  1.0
  H  H14  1  0.32808000  0.96279000  0.72091000  1.0
  H  H15  1  0.47198000  0.05636000  0.73021000  1.0
  H  H16  1  0.33779000  0.13026000  0.62558000  1.0
  H  H17  1  0.33822000  0.24180000  0.69055000  1.0
  H  H18  1  0.11058000  0.16470000  0.73522000  1.0
  H  H19  1  0.10868000  0.06041000  0.66744000  1.0
  H  H20  1  0.73969000  0.19370000  0.67785000  1.0
  H  H21  1  0.86660000  0.07731000  0.67222000  1.0
  H  H22  1  0.87547000  0.18551000  0.73932000  1.0
  H  H23  1  0.81628000  0.74349000  0.44686000  1.0
  H  H24  1  0.98429000  0.08350000  0.49977000  1.0
  H  H25  1  0.95055000  0.73002000  0.38358000  1.0
  H  H26  1  0.80233000  0.63714000  0.37959000  1.0
  H  H27  1  0.01961000  0.26529000  0.08927000  1.0
  H  H28  1  0.96209000  0.26306000  0.17838000  1.0
  H  H29  1  0.90718000  0.38133000  0.11835000  1.0
  H  H30  1  0.08951000  0.46168000  0.19633000  1.0
  H  H31  1  0.14838000  0.45761000  0.10799000  1.0
  H  H32  1  0.25957000  0.25267000  0.13590000  1.0
  H  H33  1  0.20739000  0.26472000  0.22514000  1.0
  H  H34  1  0.96179000  0.89394000  0.57624000  1.0
  H  H35  1  0.29169000  0.89757000  0.50091000  1.0
  H  H36  1  0.14637000  0.63875000  0.43011000  1.0
  H  H37  1  0.25715000  0.31958000  0.58571000  1.0
  H  H38  1  0.75448000  0.34540000  0.59186000  1.0
  H  H39  1  0.71431000  0.38732000  0.85584000  1.0
  C  C40  1  0.50953000  0.27116000  0.48779000  1.0
  C  C41  1  0.47263000  0.41127000  0.14716000  1.0
  C  C42  1  0.76948000  0.11259000  0.49226000  1.0
  C  C43  1  0.51430000  0.47858000  0.63674000  1.0
  C  C44  1  0.88413000  0.04668000  0.51176000  1.0
  C  C45  1  0.87162000  0.93719000  0.55256000  1.0
  C  C46  1  0.74657000  0.88377000  0.56501000  1.0
  C  C47  1  0.62890000  0.93990000  0.53281000  1.0
  C  C48  1  0.63838000  0.06457000  0.50616000  1.0
  C  C49  1  0.51458000  0.13355000  0.49431000  1.0
  C  C50  1  0.39140000  0.07398000  0.49679000  1.0
  C  C51  1  0.50927000  0.45654000  0.71520000  1.0
  C  C52  1  0.38614000  0.94636000  0.50753000  1.0
  C  C53  1  0.50181000  0.87895000  0.52486000  1.0
  C  C54  1  0.14724000  0.32406000  0.58803000  1.0
  C  C55  1  0.49446000  0.74246000  0.51808000  1.0
  C  C56  1  0.07558000  0.24634000  0.63319000  1.0
  C  C57  1  0.93026000  0.25641000  0.63520000  1.0
  C  C58  1  0.86426000  0.34108000  0.59138000  1.0
  C  C59  1  0.93552000  0.42170000  0.54524000  1.0
  C  C60  1  0.08073000  0.41380000  0.54483000  1.0
  C  C61  1  0.08591000  0.57600000  0.46300000  1.0
  C  C62  1  0.47505000  0.37696000  0.07304000  1.0
  C  C63  1  0.94234000  0.58361000  0.46130000  1.0
  C  C64  1  0.50174000  0.51948000  0.36266000  1.0
  C  C65  1  0.62873000  0.43455000  0.75349000  1.0
  C  C66  1  0.62252000  0.40701000  0.82565000  1.0
  C  C67  1  0.49629000  0.40330000  0.86072000  1.0
  C  C68  1  0.37677000  0.42850000  0.82256000  1.0
  C  C69  1  0.38350000  0.45387000  0.75031000  1.0
  C  C70  1  0.73847000  0.77715000  0.61737000  1.0
  C  C71  1  0.14608000  0.15190000  0.68043000  1.0
  C  C72  1  0.30099000  0.15022000  0.67901000  1.0
  C  C73  1  0.48848000  0.37551000  0.93684000  1.0
  C  C74  1  0.36059000  0.05609000  0.73200000  1.0
  C  C75  1  0.84842000  0.17427000  0.68365000  1.0
  C  C76  1  0.87498000  0.67898000  0.41493000  1.0
  C  C77  1  0.23751000  0.31822000  0.17730000  1.0
  C  C78  1  0.11665000  0.39958000  0.15360000  1.0
  C  C79  1  0.99466000  0.32352000  0.13395000  1.0
  C  C80  1  0.58944000  0.47052000  0.17076000  1.0
  C  C81  1  0.59968000  0.50777000  0.23964000  1.0
  C  C82  1  0.49065000  0.48887000  0.28643000  1.0
  C  C83  1  0.37450000  0.43101000  0.26320000  1.0
  C  C84  1  0.36285000  0.38866000  0.19456000  1.0
  N  N85  1  0.36523000  0.35956000  0.96760000  1.0
  N  N86  1  0.35871000  0.36307000  0.03703000  1.0
  N  N87  1  0.59773000  0.35175000  0.04281000  1.0
  N  N88  1  0.60416000  0.35414000  0.97341000  1.0
  N  N89  1  0.15285000  0.49429000  0.50300000  1.0
  N  N90  1  0.86909000  0.50636000  0.50204000  1.0
  O  O91  1  0.61857000  0.32860000  0.49942000  1.0
  O  O92  1  0.39525000  0.32256000  0.47543000  1.0
  O  O93  1  0.62701000  0.50758000  0.60853000  1.0
  O  O94  1  0.40357000  0.46384000  0.60402000  1.0
  O  O95  1  0.60421000  0.69041000  0.49825000  1.0
  O  O96  1  0.38061000  0.69022000  0.52666000  1.0
  O  O97  1  0.62011000  0.51189000  0.38909000  1.0
  O  O98  1  0.39237000  0.54598000  0.39557000  1.0
