# generated using pymatgen
data_CdH3C6NO3
_symmetry_space_group_name_H-M   'P 1'
_cell_length_a   8.68084000
_cell_length_b   9.02689000
_cell_length_c   10.13960000
_cell_angle_alpha   112.70300000
_cell_angle_beta   90.00390000
_cell_angle_gamma   118.73300000
_symmetry_Int_Tables_number   1
_chemical_formula_structural   CdH3C6NO3
_chemical_formula_sum   'Cd4 H12 C24 N4 O12'
_cell_volume   625.58516074
_cell_formula_units_Z   4
loop_
 _symmetry_equiv_pos_site_id
 _symmetry_equiv_pos_as_xyz
  1  'x, y, z'
loop_
 _atom_site_type_symbol
 _atom_site_label
 _atom_site_symmetry_multiplicity
 _atom_site_fract_x
 _atom_site_fract_y
 _atom_site_fract_z
 _atom_site_occupancy
  Cd  Cd0  1  0.27578000  0.99996000  0.75003000  1.0
  Cd  Cd1  1  0.72422000  0.00004000  0.24997000  1.0
  Cd  Cd2  1  0.00000000  0.00000000  0.00000000  1.0
  Cd  Cd3  1  0.00000000  0.00000000  0.50000000  1.0
  H  H4  1  0.98876000  0.51329000  0.21777000  1.0
  H  H5  1  0.47538000  0.48680000  0.28200000  1.0
  H  H6  1  0.01124000  0.48671000  0.78222000  1.0
  H  H7  1  0.52462000  0.51320000  0.71800000  1.0
  H  H8  1  0.58360000  0.97464000  0.87435000  1.0
  H  H9  1  0.60897000  0.02546000  0.62559000  1.0
  H  H10  1  0.41640000  0.02536000  0.12565000  1.0
  H  H11  1  0.39103000  0.97454000  0.37441000  1.0
  H  H12  1  0.58620000  0.45511000  0.92087000  1.0
  H  H13  1  0.13104000  0.54497000  0.57888000  1.0
  H  H14  1  0.41380000  0.54488000  0.07913000  1.0
  H  H15  1  0.86896000  0.45503000  0.42112000  1.0
  C  C16  1  0.88069000  0.71832000  0.15585000  1.0
  C  C17  1  0.16249000  0.28166000  0.34404000  1.0
  C  C18  1  0.11931000  0.28168000  0.84415000  1.0
  C  C19  1  0.83751000  0.71835000  0.65596000  1.0
  C  C20  1  0.80006000  0.50916000  0.07667000  1.0
  C  C21  1  0.29079000  0.49087000  0.42306000  1.0
  C  C22  1  0.19994000  0.49084000  0.92333000  1.0
  C  C23  1  0.70921000  0.50913000  0.57694000  1.0
  C  C24  1  0.87187000  0.42536000  0.12539000  1.0
  C  C25  1  0.44639000  0.57474000  0.37435000  1.0
  C  C26  1  0.12813000  0.57465000  0.87461000  1.0
  C  C27  1  0.55361000  0.42526000  0.62565000  1.0
  C  C28  1  0.79321000  0.22918000  0.05557000  1.0
  C  C29  1  0.56397000  0.77091000  0.44422000  1.0
  C  C30  1  0.20679000  0.77082000  0.94443000  1.0
  C  C31  1  0.43603000  0.22909000  0.55578000  1.0
  C  C32  1  0.64481000  0.12662000  0.93507000  1.0
  C  C33  1  0.51814000  0.87351000  0.56474000  1.0
  C  C34  1  0.35519000  0.87337000  0.06493000  1.0
  C  C35  1  0.48186000  0.12649000  0.43526000  1.0
  C  C36  1  0.64846000  0.39510000  0.95944000  1.0
  C  C37  1  0.25327000  0.60498000  0.54025000  1.0
  C  C38  1  0.35154000  0.60490000  0.04056000  1.0
  C  C39  1  0.74673000  0.39502000  0.45976000  1.0
  N  N40  1  0.57277000  0.20710000  0.89110000  1.0
  N  N41  1  0.36557000  0.79298000  0.60864000  1.0
  N  N42  1  0.42722000  0.79290000  0.10890000  1.0
  N  N43  1  0.63443000  0.20702000  0.39136000  1.0
  O  O44  1  0.81614000  0.78922000  0.09975000  1.0
  O  O45  1  0.02712000  0.21079000  0.40022000  1.0
  O  O46  1  0.18387000  0.21078000  0.90025000  1.0
  O  O47  1  0.97288000  0.78921000  0.59978000  1.0
  O  O48  1  0.00297000  0.80731000  0.27096000  1.0
  O  O49  1  0.19583000  0.19255000  0.22905000  1.0
  O  O50  1  0.99703000  0.19269000  0.72904000  1.0
  O  O51  1  0.80417000  0.80746000  0.77095000  1.0
  O  O52  1  0.85217000  0.14299000  0.10280000  1.0
  O  O53  1  0.70918000  0.85702000  0.39708000  1.0
  O  O54  1  0.14783000  0.85701000  0.89720000  1.0
  O  O55  1  0.29082000  0.14298000  0.60291000  1.0
