# generated using pymatgen
data_Mn3H20C34O11F12
_symmetry_space_group_name_H-M   'P 1'
_cell_length_a   7.25431000
_cell_length_b   16.35800000
_cell_length_c   31.87990000
_cell_angle_alpha   90.00000000
_cell_angle_beta   90.00000000
_cell_angle_gamma   99.62930000
_symmetry_Int_Tables_number   1
_chemical_formula_structural   Mn3H20C34O11F12
_chemical_formula_sum   'Mn12 H80 C136 O44 F48'
_cell_volume   3729.75935573
_cell_formula_units_Z   4
loop_
 _symmetry_equiv_pos_site_id
 _symmetry_equiv_pos_as_xyz
  1  'x, y, z'
loop_
 _atom_site_type_symbol
 _atom_site_label
 _atom_site_symmetry_multiplicity
 _atom_site_fract_x
 _atom_site_fract_y
 _atom_site_fract_z
 _atom_site_occupancy
  Mn  Mn0  1  0.74573000  0.60247000  0.07027000  1.0
  Mn  Mn1  1  0.25425000  0.89752000  0.57027000  1.0
  Mn  Mn2  1  0.25424000  0.39754000  0.92973000  1.0
  Mn  Mn3  1  0.74575000  0.10246000  0.42973000  1.0
  Mn  Mn4  1  0.72973000  0.37452000  0.92659000  1.0
  Mn  Mn5  1  0.27026000  0.12548000  0.42659000  1.0
  Mn  Mn6  1  0.27027000  0.62549000  0.07340000  1.0
  Mn  Mn7  1  0.72974000  0.87451000  0.57341000  1.0
  Mn  Mn8  1  0.00001000  0.50000000  0.00000000  1.0
  Mn  Mn9  1  0.00000000  0.00002000  0.50001000  1.0
  Mn  Mn10  1  0.50000000  0.50000000  0.00000000  1.0
  Mn  Mn11  1  0.49999000  0.00000000  0.50000000  1.0
  H  H12  1  0.84917000  0.23195000  0.99169000  1.0
  H  H13  1  0.15084000  0.26805000  0.49169000  1.0
  H  H14  1  0.15084000  0.76805000  0.00830000  1.0
  H  H15  1  0.84917000  0.73195000  0.50830000  1.0
  H  H16  1  0.86093000  0.19254000  0.28707000  1.0
  H  H17  1  0.13908000  0.30746000  0.78707000  1.0
  H  H18  1  0.13907000  0.80746000  0.71293000  1.0
  H  H19  1  0.86093000  0.69254000  0.21293000  1.0
  H  H20  1  0.95817000  0.11784000  0.03007000  1.0
  H  H21  1  0.04184000  0.38216000  0.53007000  1.0
  H  H22  1  0.04184000  0.88217000  0.96993000  1.0
  H  H23  1  0.95816000  0.61783000  0.46993000  1.0
  H  H24  1  0.79352000  0.21925000  0.14691000  1.0
  H  H25  1  0.20648000  0.28074000  0.64691000  1.0
  H  H26  1  0.20649000  0.78075000  0.85309000  1.0
  H  H27  1  0.79351000  0.71926000  0.35309000  1.0
  H  H28  1  0.66652000  0.32642000  0.10748000  1.0
  H  H29  1  0.33348000  0.17358000  0.60748000  1.0
  H  H30  1  0.33348000  0.67358000  0.89252000  1.0
  H  H31  1  0.66652000  0.82642000  0.39252000  1.0
  H  H32  1  0.12865000  0.94831000  0.09315000  1.0
  H  H33  1  0.87134000  0.55169000  0.59315000  1.0
  H  H34  1  0.87135000  0.05169000  0.90685000  1.0
  H  H35  1  0.12865000  0.44831000  0.40685000  1.0
  H  H36  1  0.96103000  0.81351000  0.06782000  1.0
  H  H37  1  0.03897000  0.68649000  0.56782000  1.0
  H  H38  1  0.03897000  0.18649000  0.93218000  1.0
  H  H39  1  0.96103000  0.31351000  0.43218000  1.0
  H  H40  1  0.60803000  0.04327000  0.09370000  1.0
  H  H41  1  0.39197000  0.45673000  0.59370000  1.0
  H  H42  1  0.39198000  0.95673000  0.90630000  1.0
  H  H43  1  0.60802000  0.54327000  0.40630000  1.0
  H  H44  1  0.23220000  0.38700000  0.09362000  1.0
  H  H45  1  0.76780000  0.11300000  0.59362000  1.0
  H  H46  1  0.76780000  0.61300000  0.90638000  1.0
  H  H47  1  0.23221000  0.88700000  0.40638000  1.0
  H  H48  1  0.41894000  0.33897000  0.14938000  1.0
  H  H49  1  0.58106000  0.16102000  0.64938000  1.0
  H  H50  1  0.58106000  0.66102000  0.85062000  1.0
  H  H51  1  0.41894000  0.83897000  0.35062000  1.0
  H  H52  1  0.09727000  0.44703000  0.24210000  1.0
  H  H53  1  0.90273000  0.05297000  0.74210000  1.0
  H  H54  1  0.90273000  0.55297000  0.75790000  1.0
  H  H55  1  0.09727000  0.94703000  0.25790000  1.0
  H  H56  1  0.26838000  0.29645000  0.37909000  1.0
  H  H57  1  0.73162000  0.20355000  0.87909000  1.0
  H  H58  1  0.73162000  0.70355000  0.62091000  1.0
  H  H59  1  0.26838000  0.79645000  0.12091000  1.0
  H  H60  1  0.90824000  0.49439000  0.18513000  1.0
  H  H61  1  0.09176000  0.00561000  0.68513000  1.0
  H  H62  1  0.09176000  0.50561000  0.81487000  1.0
  H  H63  1  0.90824000  0.99439000  0.31487000  1.0
  H  H64  1  0.45926000  0.37415000  0.32395000  1.0
  H  H65  1  0.54074000  0.12586000  0.82395000  1.0
  H  H66  1  0.54074000  0.62586000  0.67605000  1.0
  H  H67  1  0.45926000  0.87414000  0.17605000  1.0
  H  H68  1  0.05465000  0.26886000  0.23106000  1.0
  H  H69  1  0.94535000  0.23114000  0.73106000  1.0
  H  H70  1  0.94535000  0.73114000  0.76894000  1.0
  H  H71  1  0.05465000  0.76886000  0.26894000  1.0
  H  H72  1  0.44060000  0.90537000  0.07174000  1.0
  H  H73  1  0.55940000  0.59463000  0.57174000  1.0
  H  H74  1  0.55941000  0.09464000  0.92826000  1.0
  H  H75  1  0.44059000  0.40536000  0.42826000  1.0
  H  H76  1  0.79274000  0.61784000  0.99072000  1.0
  H  H77  1  0.20726000  0.88217000  0.49072000  1.0
  H  H78  1  0.20725000  0.38216000  0.00928000  1.0
  H  H79  1  0.79275000  0.11784000  0.50928000  1.0
  H  H80  1  0.44021000  0.49748000  0.08294000  1.0
  H  H81  1  0.55979000  0.00252000  0.58294000  1.0
  H  H82  1  0.55977000  0.50252000  0.91706000  1.0
  H  H83  1  0.44022000  0.99748000  0.41706000  1.0
  H  H84  1  0.48821000  0.36117000  0.85679000  1.0
  H  H85  1  0.51179000  0.13883000  0.35679000  1.0
  H  H86  1  0.51179000  0.63883000  0.14321000  1.0
  H  H87  1  0.48821000  0.86117000  0.64321000  1.0
  H  H88  1  0.67192000  0.33309000  0.84126000  1.0
  H  H89  1  0.32809000  0.16691000  0.34126000  1.0
  H  H90  1  0.32808000  0.66691000  0.15874000  1.0
  H  H91  1  0.67191000  0.83309000  0.65874000  1.0
  C  C92  1  0.69151000  0.35626000  0.02410000  1.0
  C  C93  1  0.30850000  0.14374000  0.52410000  1.0
  C  C94  1  0.30850000  0.64374000  0.97590000  1.0
  C  C95  1  0.69151000  0.85626000  0.47590000  1.0
  C  C96  1  0.75043000  0.28623000  0.04729000  1.0
  C  C97  1  0.24957000  0.21377000  0.54729000  1.0
  C  C98  1  0.24957000  0.71377000  0.95271000  1.0
  C  C99  1  0.75043000  0.78623000  0.45271000  1.0
  C  C100  1  0.83556000  0.22782000  0.02568000  1.0
  C  C101  1  0.16444000  0.27219000  0.52568000  1.0
  C  C102  1  0.16444000  0.77219000  0.97432000  1.0
  C  C103  1  0.83556000  0.72781000  0.47432000  1.0
  C  C104  1  0.89835000  0.16438000  0.04746000  1.0
  C  C105  1  0.10166000  0.33562000  0.54746000  1.0
  C  C106  1  0.10166000  0.83562000  0.95254000  1.0
  C  C107  1  0.89834000  0.66438000  0.45254000  1.0
  C  C108  1  0.88766000  0.16050000  0.09148000  1.0
  C  C109  1  0.11234000  0.33949000  0.59148000  1.0
  C  C110  1  0.11234000  0.83950000  0.90852000  1.0
  C  C111  1  0.88765000  0.66050000  0.40852000  1.0
  C  C112  1  0.80408000  0.21949000  0.11293000  1.0
  C  C113  1  0.19592000  0.28051000  0.61293000  1.0
  C  C114  1  0.19592000  0.78052000  0.88707000  1.0
  C  C115  1  0.80408000  0.71949000  0.38707000  1.0
  C  C116  1  0.73158000  0.28052000  0.09085000  1.0
  C  C117  1  0.26842000  0.21948000  0.59085000  1.0
  C  C118  1  0.26843000  0.71948000  0.90915000  1.0
  C  C119  1  0.73158000  0.78052000  0.40915000  1.0
  C  C120  1  0.97107000  0.09067000  0.11305000  1.0
  C  C121  1  0.02893000  0.40933000  0.61305000  1.0
  C  C122  1  0.02894000  0.90933000  0.88695000  1.0
  C  C123  1  0.97106000  0.59067000  0.38695000  1.0
  C  C124  1  0.93421000  0.08617000  0.16130000  1.0
  C  C125  1  0.06579000  0.41383000  0.66130000  1.0
  C  C126  1  0.06581000  0.91383000  0.83870000  1.0
  C  C127  1  0.93419000  0.58617000  0.33870000  1.0
  C  C128  1  0.18784000  0.11048000  0.10608000  1.0
  C  C129  1  0.81216000  0.38951000  0.60608000  1.0
  C  C130  1  0.81218000  0.88952000  0.89392000  1.0
  C  C131  1  0.18782000  0.61048000  0.39392000  1.0
  C  C132  1  0.88023000  0.00601000  0.09527000  1.0
  C  C133  1  0.11977000  0.49399000  0.59527000  1.0
  C  C134  1  0.11978000  0.99399000  0.90473000  1.0
  C  C135  1  0.88022000  0.50601000  0.40473000  1.0
  C  C136  1  0.97866000  0.94073000  0.08779000  1.0
  C  C137  1  0.02134000  0.55927000  0.58779000  1.0
  C  C138  1  0.02135000  0.05927000  0.91221000  1.0
  C  C139  1  0.97865000  0.44073000  0.41221000  1.0
  C  C140  1  0.88473000  0.86426000  0.07390000  1.0
  C  C141  1  0.11528000  0.63574000  0.57390000  1.0
  C  C142  1  0.11528000  0.13574000  0.92610000  1.0
  C  C143  1  0.88472000  0.36426000  0.42610000  1.0
  C  C144  1  0.69018000  0.85025000  0.06879000  1.0
  C  C145  1  0.30982000  0.64975000  0.56880000  1.0
  C  C146  1  0.30982000  0.14975000  0.93121000  1.0
  C  C147  1  0.69018000  0.35025000  0.43121000  1.0
  C  C148  1  0.59175000  0.91560000  0.07607000  1.0
  C  C149  1  0.40825000  0.58440000  0.57607000  1.0
  C  C150  1  0.40825000  0.08440000  0.92393000  1.0
  C  C151  1  0.59175000  0.41560000  0.42393000  1.0
  C  C152  1  0.68611000  0.99283000  0.08854000  1.0
  C  C153  1  0.31389000  0.50717000  0.58854000  1.0
  C  C154  1  0.31390000  0.00717000  0.91146000  1.0
  C  C155  1  0.68611000  0.49283000  0.41146000  1.0
  C  C156  1  0.59152000  0.76520000  0.05801000  1.0
  C  C157  1  0.40848000  0.73481000  0.55801000  1.0
  C  C158  1  0.40849000  0.23481000  0.94199000  1.0
  C  C159  1  0.59151000  0.26519000  0.44199000  1.0
  C  C160  1  0.95928000  0.48199000  0.10185000  1.0
  C  C161  1  0.04072000  0.01801000  0.60185000  1.0
  C  C162  1  0.04072000  0.51801000  0.89815000  1.0
  C  C163  1  0.95929000  0.98199000  0.39815000  1.0
  C  C164  1  0.05980000  0.44519000  0.13576000  1.0
  C  C165  1  0.94021000  0.05481000  0.63576000  1.0
  C  C166  1  0.94020000  0.55481000  0.86424000  1.0
  C  C167  1  0.05980000  0.94519000  0.36424000  1.0
  C  C168  1  0.20337000  0.40075000  0.12620000  1.0
  C  C169  1  0.79663000  0.09925000  0.62620000  1.0
  C  C170  1  0.79662000  0.59925000  0.87380000  1.0
  C  C171  1  0.20338000  0.90075000  0.37380000  1.0
  C  C172  1  0.30886000  0.37322000  0.15805000  1.0
  C  C173  1  0.69114000  0.12678000  0.65805000  1.0
  C  C174  1  0.69114000  0.62678000  0.84195000  1.0
  C  C175  1  0.30886000  0.87322000  0.34195000  1.0
  C  C176  1  0.27347000  0.38993000  0.20011000  1.0
  C  C177  1  0.72653000  0.11006000  0.70011000  1.0
  C  C178  1  0.72653000  0.61006000  0.79989000  1.0
  C  C179  1  0.27347000  0.88994000  0.29989000  1.0
  C  C180  1  0.12781000  0.43368000  0.20959000  1.0
  C  C181  1  0.87219000  0.06632000  0.70959000  1.0
  C  C182  1  0.87219000  0.56632000  0.79041000  1.0
  C  C183  1  0.12781000  0.93368000  0.29041000  1.0
  C  C184  1  0.02100000  0.46040000  0.17778000  1.0
  C  C185  1  0.97900000  0.03960000  0.67778000  1.0
  C  C186  1  0.97900000  0.53960000  0.82222000  1.0
  C  C187  1  0.02100000  0.96040000  0.32222000  1.0
  C  C188  1  0.39279000  0.36621000  0.23662000  1.0
  C  C189  1  0.60721000  0.13379000  0.73662000  1.0
  C  C190  1  0.60721000  0.63379000  0.76338000  1.0
  C  C191  1  0.39279000  0.86621000  0.26338000  1.0
  C  C192  1  0.51516000  0.30010000  0.22387000  1.0
  C  C193  1  0.48484000  0.19990000  0.72387000  1.0
  C  C194  1  0.48483000  0.69990000  0.77613000  1.0
  C  C195  1  0.51516000  0.80009000  0.27613000  1.0
  C  C196  1  0.52483000  0.44780000  0.24979000  1.0
  C  C197  1  0.47517000  0.05221000  0.74979000  1.0
  C  C198  1  0.47517000  0.55220000  0.75021000  1.0
  C  C199  1  0.52483000  0.94779000  0.25021000  1.0
  C  C200  1  0.27040000  0.32703000  0.27320000  1.0
  C  C201  1  0.72960000  0.17297000  0.77320000  1.0
  C  C202  1  0.72960000  0.67297000  0.72680000  1.0
  C  C203  1  0.27040000  0.82703000  0.22680000  1.0
  C  C204  1  0.32839000  0.33513000  0.31519000  1.0
  C  C205  1  0.67160000  0.16487000  0.81519000  1.0
  C  C206  1  0.67160000  0.66487000  0.68482000  1.0
  C  C207  1  0.32839000  0.83513000  0.18481000  1.0
  C  C208  1  0.22033000  0.29150000  0.34662000  1.0
  C  C209  1  0.77967000  0.20850000  0.84662000  1.0
  C  C210  1  0.77967000  0.70850000  0.65338000  1.0
  C  C211  1  0.22033000  0.79150000  0.15338000  1.0
  C  C212  1  0.05217000  0.23945000  0.33654000  1.0
  C  C213  1  0.94783000  0.26055000  0.83654000  1.0
  C  C214  1  0.94782000  0.76055000  0.66346000  1.0
  C  C215  1  0.05217000  0.73945000  0.16346000  1.0
  C  C216  1  0.99199000  0.23262000  0.29478000  1.0
  C  C217  1  0.00801000  0.26738000  0.79478000  1.0
  C  C218  1  0.00801000  0.76738000  0.70522000  1.0
  C  C219  1  0.99199000  0.73262000  0.20522000  1.0
  C  C220  1  0.10110000  0.27559000  0.26348000  1.0
  C  C221  1  0.89890000  0.22441000  0.76348000  1.0
  C  C222  1  0.89890000  0.72440000  0.73652000  1.0
  C  C223  1  0.10110000  0.77560000  0.23652000  1.0
  C  C224  1  0.93915000  0.19023000  0.36947000  1.0
  C  C225  1  0.06084000  0.30977000  0.86947000  1.0
  C  C226  1  0.06085000  0.80977000  0.63053000  1.0
  C  C227  1  0.93916000  0.69023000  0.13053000  1.0
  O  O228  1  0.79792000  0.38458000  0.99254000  1.0
  O  O229  1  0.20209000  0.11542000  0.49254000  1.0
  O  O230  1  0.20208000  0.61542000  0.00746000  1.0
  O  O231  1  0.79793000  0.88458000  0.50746000  1.0
  O  O232  1  0.55238000  0.38740000  0.03561000  1.0
  O  O233  1  0.44762000  0.11261000  0.53561000  1.0
  O  O234  1  0.44762000  0.61261000  0.96439000  1.0
  O  O235  1  0.55238000  0.88739000  0.46439000  1.0
  O  O236  1  0.68953000  0.71352000  0.04402000  1.0
  O  O237  1  0.31047000  0.78648000  0.54402000  1.0
  O  O238  1  0.31047000  0.28648000  0.95598000  1.0
  O  O239  1  0.68953000  0.21352000  0.45598000  1.0
  O  O240  1  0.41492000  0.74834000  0.06465000  1.0
  O  O241  1  0.58508000  0.75167000  0.56466000  1.0
  O  O242  1  0.58509000  0.25167000  0.93535000  1.0
  O  O243  1  0.41491000  0.24833000  0.43535000  1.0
  O  O244  1  0.05424000  0.50323000  0.06793000  1.0
  O  O245  1  0.94576000  0.99677000  0.56793000  1.0
  O  O246  1  0.94577000  0.49677000  0.93207000  1.0
  O  O247  1  0.05423000  0.00323000  0.43207000  1.0
  O  O248  1  0.79511000  0.49602000  0.10763000  1.0
  O  O249  1  0.20489000  0.00398000  0.60763000  1.0
  O  O250  1  0.20489000  0.50398000  0.89237000  1.0
  O  O251  1  0.79511000  0.99602000  0.39237000  1.0
  O  O252  1  0.02123000  0.16960000  0.40305000  1.0
  O  O253  1  0.97876000  0.33040000  0.90305000  1.0
  O  O254  1  0.97877000  0.83040000  0.59695000  1.0
  O  O255  1  0.02123000  0.66960000  0.09695000  1.0
  O  O256  1  0.76452000  0.16869000  0.36484000  1.0
  O  O257  1  0.23548000  0.33130000  0.86484000  1.0
  O  O258  1  0.23548000  0.83130000  0.63516000  1.0
  O  O259  1  0.76452000  0.66870000  0.13516000  1.0
  O  O260  1  0.78223000  0.56723000  0.00731000  1.0
  O  O261  1  0.21776000  0.93277000  0.50732000  1.0
  O  O262  1  0.21778000  0.43277000  0.99268000  1.0
  O  O263  1  0.78222000  0.06723000  0.49269000  1.0
  O  O264  1  0.46551000  0.54591000  0.06471000  1.0
  O  O265  1  0.53448000  0.95409000  0.56472000  1.0
  O  O266  1  0.53447000  0.45409000  0.93529000  1.0
  O  O267  1  0.46552000  0.04591000  0.43529000  1.0
  O  O268  1  0.62566000  0.37410000  0.85887000  1.0
  O  O269  1  0.37433000  0.12590000  0.35887000  1.0
  O  O270  1  0.37433000  0.62590000  0.14113000  1.0
  O  O271  1  0.62567000  0.87410000  0.64113000  1.0
  F  F272  1  0.25548000  0.19148000  0.11410000  1.0
  F  F273  1  0.74451000  0.30852000  0.61410000  1.0
  F  F274  1  0.74453000  0.80853000  0.88590000  1.0
  F  F275  1  0.25547000  0.69148000  0.38590000  1.0
  F  F276  1  0.23485000  0.09563000  0.06570000  1.0
  F  F277  1  0.76515000  0.40437000  0.56570000  1.0
  F  F278  1  0.76516000  0.90437000  0.93430000  1.0
  F  F279  1  0.23485000  0.59562000  0.43430000  1.0
  F  F280  1  0.28542000  0.06478000  0.13098000  1.0
  F  F281  1  0.71458000  0.43522000  0.63098000  1.0
  F  F282  1  0.71459000  0.93523000  0.86902000  1.0
  F  F283  1  0.28541000  0.56478000  0.36902000  1.0
  F  F284  1  0.99146000  0.01897000  0.17890000  1.0
  F  F285  1  0.00854000  0.48103000  0.67890000  1.0
  F  F286  1  0.00856000  0.98104000  0.82109000  1.0
  F  F287  1  0.99144000  0.51897000  0.32110000  1.0
  F  F288  1  0.02399000  0.15423000  0.18220000  1.0
  F  F289  1  0.97600000  0.34577000  0.68220000  1.0
  F  F290  1  0.97602000  0.84577000  0.81780000  1.0
  F  F291  1  0.02397000  0.65423000  0.31780000  1.0
  F  F292  1  0.74861000  0.08002000  0.16993000  1.0
  F  F293  1  0.25138000  0.41997000  0.66993000  1.0
  F  F294  1  0.25140000  0.91998000  0.83007000  1.0
  F  F295  1  0.74860000  0.58002000  0.33007000  1.0
  F  F296  1  0.59874000  0.49185000  0.21580000  1.0
  F  F297  1  0.40126000  0.00815000  0.71580000  1.0
  F  F298  1  0.40126000  0.50815000  0.78420000  1.0
  F  F299  1  0.59874000  0.99185000  0.28420000  1.0
  F  F300  1  0.42985000  0.49807000  0.27217000  1.0
  F  F301  1  0.57015000  0.00194000  0.77217000  1.0
  F  F302  1  0.57015000  0.50193000  0.72783000  1.0
  F  F303  1  0.42985000  0.99807000  0.22783000  1.0
  F  F304  1  0.67215000  0.43365000  0.27376000  1.0
  F  F305  1  0.32785000  0.06635000  0.77376000  1.0
  F  F306  1  0.32785000  0.56635000  0.72624000  1.0
  F  F307  1  0.67215000  0.93365000  0.22624000  1.0
  F  F308  1  0.40962000  0.23356000  0.20521000  1.0
  F  F309  1  0.59038000  0.26644000  0.70521000  1.0
  F  F310  1  0.59039000  0.76644000  0.79479000  1.0
  F  F311  1  0.40961000  0.73356000  0.29479000  1.0
  F  F312  1  0.65617000  0.33018000  0.19675000  1.0
  F  F313  1  0.34383000  0.16982000  0.69675000  1.0
  F  F314  1  0.34383000  0.66982000  0.80325000  1.0
  F  F315  1  0.65617000  0.83018000  0.30325000  1.0
  F  F316  1  0.59773000  0.27053000  0.25776000  1.0
  F  F317  1  0.40227000  0.22947000  0.75776000  1.0
  F  F318  1  0.40227000  0.72947000  0.74224000  1.0
  F  F319  1  0.59773000  0.77053000  0.24224000  1.0
