# generated using pymatgen
data_FeH26C34S2(N2O)4
_symmetry_space_group_name_H-M   'P 1'
_cell_length_a   11.51300000
_cell_length_b   12.22070000
_cell_length_c   13.19310000
_cell_angle_alpha   78.32700000
_cell_angle_beta   89.96030000
_cell_angle_gamma   61.95100000
_symmetry_Int_Tables_number   1
_chemical_formula_structural   FeH26C34S2(N2O)4
_chemical_formula_sum   'Fe2 H52 C68 S4 N16 O8'
_cell_volume   1594.71817633
_cell_formula_units_Z   2
loop_
 _symmetry_equiv_pos_site_id
 _symmetry_equiv_pos_as_xyz
  1  'x, y, z'
loop_
 _atom_site_type_symbol
 _atom_site_label
 _atom_site_symmetry_multiplicity
 _atom_site_fract_x
 _atom_site_fract_y
 _atom_site_fract_z
 _atom_site_occupancy
  Fe  Fe0  1  0.26235000  0.00005000  0.25008000  1.0
  Fe  Fe1  1  0.73765000  0.99996000  0.74991000  1.0
  H  H2  1  0.31964000  0.15077000  0.06080000  1.0
  H  H3  1  0.47033000  0.84955000  0.43906000  1.0
  H  H4  1  0.68036000  0.84923000  0.93920000  1.0
  H  H5  1  0.52967000  0.15045000  0.56094000  1.0
  H  H6  1  0.21163000  0.36555000  0.94943000  1.0
  H  H7  1  0.57728000  0.63471000  0.55029000  1.0
  H  H8  1  0.78838000  0.63444000  0.05057000  1.0
  H  H9  1  0.42272000  0.36529000  0.44971000  1.0
  H  H10  1  0.88828000  0.45745000  0.14298000  1.0
  H  H11  1  0.34566000  0.54238000  0.35749000  1.0
  H  H12  1  0.11172000  0.54255000  0.85702000  1.0
  H  H13  1  0.65433000  0.45763000  0.64251000  1.0
  H  H14  1  0.01306000  0.23943000  0.24791000  1.0
  H  H15  1  0.25210000  0.76055000  0.25272000  1.0
  H  H16  1  0.98694000  0.76057000  0.75209000  1.0
  H  H17  1  0.74790000  0.23945000  0.74728000  1.0
  H  H18  1  0.05586000  0.05429000  0.08857000  1.0
  H  H19  1  0.10967000  0.94582000  0.41139000  1.0
  H  H20  1  0.94414000  0.94571000  0.91142000  1.0
  H  H21  1  0.89033000  0.05418000  0.58860000  1.0
  H  H22  1  0.83806000  0.05934000  0.08201000  1.0
  H  H23  1  0.89681000  0.94102000  0.41792000  1.0
  H  H24  1  0.16194000  0.94067000  0.91799000  1.0
  H  H25  1  0.10318000  0.05898000  0.58208000  1.0
  H  H26  1  0.45191000  0.06556000  0.38564000  1.0
  H  H27  1  0.51750000  0.93453000  0.11437000  1.0
  H  H28  1  0.54810000  0.93443000  0.61437000  1.0
  H  H29  1  0.48249000  0.06548000  0.88563000  1.0
  H  H30  1  0.66702000  0.06775000  0.39181000  1.0
  H  H31  1  0.73481000  0.93238000  0.10818000  1.0
  H  H32  1  0.33298000  0.93225000  0.60819000  1.0
  H  H33  1  0.26518000  0.06762000  0.89182000  1.0
  H  H34  1  0.69245000  0.70345000  0.68700000  1.0
  H  H35  1  0.39627000  0.29597000  0.81259000  1.0
  H  H36  1  0.30756000  0.29654000  0.31301000  1.0
  H  H37  1  0.60373000  0.70403000  0.18741000  1.0
  H  H38  1  0.50918000  0.71778000  0.79475000  1.0
  H  H39  1  0.22694000  0.28170000  0.70543000  1.0
  H  H40  1  0.49083000  0.28221000  0.20526000  1.0
  H  H41  1  0.77306000  0.71829000  0.29457000  1.0
  H  H42  1  0.53713000  0.52843000  0.92707000  1.0
  H  H43  1  0.06572000  0.47109000  0.57325000  1.0
  H  H44  1  0.46289000  0.47157000  0.07294000  1.0
  H  H45  1  0.93427000  0.52891000  0.42675000  1.0
  H  H46  1  0.75180000  0.32688000  0.95853000  1.0
  H  H47  1  0.07889000  0.67279000  0.54183000  1.0
  H  H48  1  0.24821000  0.67311000  0.04147000  1.0
  H  H49  1  0.92111000  0.32721000  0.45817000  1.0
  H  H50  1  0.90430000  0.50087000  0.71511000  1.0
  H  H51  1  0.40548000  0.49876000  0.78457000  1.0
  H  H52  1  0.09571000  0.49912000  0.28489000  1.0
  H  H53  1  0.59452000  0.50124000  0.21543000  1.0
  C  C54  1  0.36471000  0.85370000  0.07860000  1.0
  C  C55  1  0.21813000  0.14633000  0.42153000  1.0
  C  C56  1  0.63528000  0.14631000  0.92139000  1.0
  C  C57  1  0.78187000  0.85367000  0.57847000  1.0
  C  C58  1  0.22331000  0.22124000  0.07606000  1.0
  C  C59  1  0.44445000  0.77899000  0.42394000  1.0
  C  C60  1  0.77670000  0.77876000  0.92393000  1.0
  C  C61  1  0.55555000  0.22102000  0.57606000  1.0
  C  C62  1  0.16051000  0.34360000  0.01333000  1.0
  C  C63  1  0.50418000  0.65657000  0.48655000  1.0
  C  C64  1  0.83949000  0.65641000  0.98667000  1.0
  C  C65  1  0.49581000  0.34344000  0.51345000  1.0
  C  C66  1  0.03564000  0.43478000  0.03288000  1.0
  C  C67  1  0.47047000  0.56525000  0.46719000  1.0
  C  C68  1  0.96436000  0.56522000  0.96712000  1.0
  C  C69  1  0.52953000  0.43475000  0.53281000  1.0
  C  C70  1  0.98321000  0.39406000  0.11994000  1.0
  C  C71  1  0.37717000  0.60590000  0.38041000  1.0
  C  C72  1  0.01679000  0.60594000  0.88006000  1.0
  C  C73  1  0.62282000  0.39410000  0.61959000  1.0
  C  C74  1  0.05235000  0.27083000  0.17982000  1.0
  C  C75  1  0.32287000  0.72921000  0.32063000  1.0
  C  C76  1  0.94765000  0.72917000  0.82018000  1.0
  C  C77  1  0.67712000  0.27079000  0.67937000  1.0
  C  C78  1  0.01648000  0.03042000  0.15944000  1.0
  C  C79  1  0.04658000  0.96977000  0.34048000  1.0
  C  C80  1  0.98352000  0.96958000  0.84056000  1.0
  C  C81  1  0.95342000  0.03024000  0.65951000  1.0
  C  C82  1  0.89562000  0.03161000  0.15687000  1.0
  C  C83  1  0.92685000  0.96868000  0.34303000  1.0
  C  C84  1  0.10438000  0.96839000  0.84312000  1.0
  C  C85  1  0.07315000  0.03132000  0.65696000  1.0
  C  C86  1  0.84762000  0.00015000  0.24995000  1.0
  C  C87  1  0.15237000  0.99986000  0.75004000  1.0
  C  C88  1  0.51802000  0.03595000  0.32585000  1.0
  C  C89  1  0.55399000  0.96412000  0.17414000  1.0
  C  C90  1  0.48199000  0.96405000  0.67416000  1.0
  C  C91  1  0.44601000  0.03588000  0.82586000  1.0
  C  C92  1  0.63850000  0.03620000  0.32931000  1.0
  C  C93  1  0.67471000  0.96393000  0.17068000  1.0
  C  C94  1  0.36150000  0.96380000  0.67069000  1.0
  C  C95  1  0.32529000  0.03607000  0.82931000  1.0
  C  C96  1  0.71995000  0.00012000  0.24998000  1.0
  C  C97  1  0.28005000  0.99988000  0.75002000  1.0
  C  C98  1  0.70435000  0.62172000  0.74646000  1.0
  C  C99  1  0.32638000  0.37776000  0.75333000  1.0
  C  C100  1  0.29565000  0.37827000  0.25354000  1.0
  C  C101  1  0.67362000  0.62224000  0.24667000  1.0
  C  C102  1  0.60208000  0.62924000  0.80675000  1.0
  C  C103  1  0.23152000  0.37021000  0.69330000  1.0
  C  C104  1  0.39793000  0.37075000  0.19325000  1.0
  C  C105  1  0.76847000  0.62979000  0.30670000  1.0
  C  C106  1  0.61818000  0.52309000  0.88201000  1.0
  C  C107  1  0.14146000  0.47641000  0.61824000  1.0
  C  C108  1  0.38183000  0.47690000  0.11800000  1.0
  C  C109  1  0.85853000  0.52360000  0.38176000  1.0
  C  C110  1  0.73755000  0.41017000  0.90000000  1.0
  C  C111  1  0.14791000  0.58946000  0.60025000  1.0
  C  C112  1  0.26245000  0.58983000  0.10000000  1.0
  C  C113  1  0.85209000  0.41054000  0.39975000  1.0
  C  C114  1  0.83845000  0.40526000  0.83918000  1.0
  C  C115  1  0.24394000  0.59444000  0.66086000  1.0
  C  C116  1  0.16155000  0.59473000  0.16082000  1.0
  C  C117  1  0.75605000  0.40556000  0.33914000  1.0
  C  C118  1  0.82359000  0.50876000  0.76139000  1.0
  C  C119  1  0.33262000  0.49085000  0.73843000  1.0
  C  C120  1  0.17641000  0.49123000  0.23860000  1.0
  C  C121  1  0.66737000  0.50915000  0.26158000  1.0
  S  S122  1  0.44595000  0.75606000  0.00637000  1.0
  S  S123  1  0.20197000  0.24392000  0.49376000  1.0
  S  S124  1  0.55404000  0.24395000  0.99362000  1.0
  S  S125  1  0.79803000  0.75608000  0.50625000  1.0
  N  N126  1  0.30829000  0.92674000  0.13179000  1.0
  N  N127  1  0.23480000  0.07330000  0.36831000  1.0
  N  N128  1  0.69171000  0.07327000  0.86821000  1.0
  N  N129  1  0.76520000  0.92670000  0.63168000  1.0
  N  N130  1  0.17088000  0.18296000  0.15865000  1.0
  N  N131  1  0.35360000  0.81720000  0.34159000  1.0
  N  N132  1  0.82913000  0.81704000  0.84135000  1.0
  N  N133  1  0.64639000  0.18281000  0.65840000  1.0
  N  N134  1  0.09238000  0.00004000  0.24997000  1.0
  N  N135  1  0.90763000  0.99996000  0.75002000  1.0
  N  N136  1  0.47588000  0.00006000  0.24998000  1.0
  N  N137  1  0.52411000  0.99994000  0.75002000  1.0
  N  N138  1  0.96471000  0.28782000  0.85822000  1.0
  N  N139  1  0.25274000  0.71204000  0.64188000  1.0
  N  N140  1  0.03530000  0.71217000  0.14178000  1.0
  N  N141  1  0.74726000  0.28797000  0.35813000  1.0
  O  O142  1  0.04772000  0.27881000  0.79560000  1.0
  O  O143  1  0.32697000  0.72094000  0.70432000  1.0
  O  O144  1  0.95229000  0.72119000  0.20440000  1.0
  O  O145  1  0.67303000  0.27907000  0.29570000  1.0
  O  O146  1  0.98353000  0.20277000  0.93654000  1.0
  O  O147  1  0.18630000  0.79726000  0.56376000  1.0
  O  O148  1  0.01648000  0.79722000  0.06345000  1.0
  O  O149  1  0.81371000  0.20273000  0.43624000  1.0
