# generated using pymatgen
data_CuHgH11C17N5Cl2
_symmetry_space_group_name_H-M   'P 1'
_cell_length_a   7.23111000
_cell_length_b   9.53061000
_cell_length_c   13.15330000
_cell_angle_alpha   85.44790000
_cell_angle_beta   83.98210000
_cell_angle_gamma   86.55890000
_symmetry_Int_Tables_number   1
_chemical_formula_structural   CuHgH11C17N5Cl2
_chemical_formula_sum   'Cu2 Hg2 H22 C34 N10 Cl4'
_cell_volume   897.42242679
_cell_formula_units_Z   2
loop_
 _symmetry_equiv_pos_site_id
 _symmetry_equiv_pos_as_xyz
  1  'x, y, z'
loop_
 _atom_site_type_symbol
 _atom_site_label
 _atom_site_symmetry_multiplicity
 _atom_site_fract_x
 _atom_site_fract_y
 _atom_site_fract_z
 _atom_site_occupancy
  Cu  Cu0  1  0.08900000  0.22518000  0.70245000  1.0
  Cu  Cu1  1  0.91101000  0.77482000  0.29755000  1.0
  Hg  Hg2  1  0.54815000  0.11938000  0.83083000  1.0
  Hg  Hg3  1  0.45184000  0.88063000  0.16917000  1.0
  H  H4  1  0.98555000  0.07447000  0.91482000  1.0
  H  H5  1  0.01446000  0.92553000  0.08518000  1.0
  H  H6  1  0.80583000  0.14732000  0.07919000  1.0
  H  H7  1  0.19418000  0.85268000  0.92081000  1.0
  H  H8  1  0.69401000  0.40194000  0.08893000  1.0
  H  H9  1  0.30598000  0.59805000  0.91107000  1.0
  H  H10  1  0.77480000  0.57309000  0.93981000  1.0
  H  H11  1  0.22518000  0.42690000  0.06019000  1.0
  H  H12  1  0.90639000  0.71204000  0.80859000  1.0
  H  H13  1  0.09360000  0.28796000  0.19141000  1.0
  H  H14  1  0.04462000  0.83274000  0.64578000  1.0
  H  H15  1  0.95538000  0.16726000  0.35422000  1.0
  H  H16  1  0.20513000  0.69200000  0.50751000  1.0
  H  H17  1  0.79487000  0.30799000  0.49249000  1.0
  H  H18  1  0.34891000  0.53646000  0.40114000  1.0
  H  H19  1  0.65110000  0.46353000  0.59887000  1.0
  H  H20  1  0.49278000  0.34649000  0.29571000  1.0
  H  H21  1  0.50723000  0.65351000  0.70429000  1.0
  H  H22  1  0.45707000  0.09215000  0.36280000  1.0
  H  H23  1  0.54294000  0.90784000  0.63720000  1.0
  H  H24  1  0.28495000  0.04259000  0.53617000  1.0
  H  H25  1  0.71506000  0.95741000  0.46384000  1.0
  C  C26  1  0.46682000  0.32863000  0.81101000  1.0
  C  C27  1  0.53315000  0.67138000  0.18898000  1.0
  C  C28  1  0.63032000  0.92139000  0.88822000  1.0
  C  C29  1  0.36968000  0.07863000  0.11177000  1.0
  C  C30  1  0.93650000  0.18328000  0.92498000  1.0
  C  C31  1  0.06350000  0.81672000  0.07502000  1.0
  C  C32  1  0.83628000  0.22475000  0.01495000  1.0
  C  C33  1  0.16372000  0.77524000  0.98505000  1.0
  C  C34  1  0.77534000  0.36576000  0.02045000  1.0
  C  C35  1  0.22466000  0.63423000  0.97955000  1.0
  C  C36  1  0.82044000  0.46206000  0.93732000  1.0
  C  C37  1  0.17955000  0.53793000  0.06268000  1.0
  C  C38  1  0.92399000  0.41383000  0.85019000  1.0
  C  C39  1  0.07600000  0.58616000  0.14981000  1.0
  C  C40  1  0.98750000  0.50396000  0.75878000  1.0
  C  C41  1  0.01249000  0.49604000  0.24123000  1.0
  C  C42  1  0.97568000  0.65118000  0.74757000  1.0
  C  C43  1  0.02431000  0.34882000  0.25243000  1.0
  C  C44  1  0.05373000  0.71801000  0.65613000  1.0
  C  C45  1  0.94626000  0.28199000  0.34388000  1.0
  C  C46  1  0.14468000  0.63920000  0.57893000  1.0
  C  C47  1  0.85532000  0.36080000  0.42107000  1.0
  C  C48  1  0.15251000  0.49218000  0.59497000  1.0
  C  C49  1  0.84750000  0.50782000  0.40503000  1.0
  C  C50  1  0.24439000  0.39025000  0.52517000  1.0
  C  C51  1  0.75562000  0.60975000  0.47484000  1.0
  C  C52  1  0.33925000  0.42625000  0.42965000  1.0
  C  C53  1  0.66077000  0.57375000  0.57036000  1.0
  C  C54  1  0.41873000  0.31884000  0.37041000  1.0
  C  C55  1  0.58128000  0.68116000  0.62959000  1.0
  C  C56  1  0.39974000  0.17886000  0.40743000  1.0
  C  C57  1  0.60027000  0.82115000  0.59258000  1.0
  C  C58  1  0.30410000  0.15004000  0.50369000  1.0
  C  C59  1  0.69591000  0.84995000  0.49631000  1.0
  N  N60  1  0.42463000  0.44836000  0.79754000  1.0
  N  N61  1  0.57533000  0.55165000  0.20245000  1.0
  N  N62  1  0.67851000  0.80979000  0.92231000  1.0
  N  N63  1  0.32150000  0.19022000  0.07767000  1.0
  N  N64  1  0.97763000  0.27509000  0.84446000  1.0
  N  N65  1  0.02237000  0.72491000  0.15554000  1.0
  N  N66  1  0.07142000  0.43042000  0.68228000  1.0
  N  N67  1  0.92858000  0.56957000  0.31772000  1.0
  N  N68  1  0.23046000  0.25287000  0.56136000  1.0
  N  N69  1  0.76955000  0.74713000  0.43864000  1.0
  Cl  Cl70  1  0.23061000  0.01291000  0.74969000  1.0
  Cl  Cl71  1  0.76939000  0.98708000  0.25031000  1.0
  Cl  Cl72  1  0.79617000  0.14046000  0.64827000  1.0
  Cl  Cl73  1  0.20383000  0.85956000  0.35173000  1.0
