# generated using pymatgen
data_CdH20C18(N3O2)2
_symmetry_space_group_name_H-M   'P 1'
_cell_length_a   9.68946000
_cell_length_b   9.94631000
_cell_length_c   11.30330000
_cell_angle_alpha   66.37870000
_cell_angle_beta   88.64890000
_cell_angle_gamma   70.00670000
_symmetry_Int_Tables_number   1
_chemical_formula_structural   CdH20C18(N3O2)2
_chemical_formula_sum   'Cd2 H40 C36 N12 O8'
_cell_volume   929.75097531
_cell_formula_units_Z   2
loop_
 _symmetry_equiv_pos_site_id
 _symmetry_equiv_pos_as_xyz
  1  'x, y, z'
loop_
 _atom_site_type_symbol
 _atom_site_label
 _atom_site_symmetry_multiplicity
 _atom_site_fract_x
 _atom_site_fract_y
 _atom_site_fract_z
 _atom_site_occupancy
  Cd  Cd0  1  0.13737000  0.33735000  0.65382000  1.0
  Cd  Cd1  1  0.86263000  0.66265000  0.34618000  1.0
  H  H2  1  0.49382000  0.10624000  0.04095000  1.0
  H  H3  1  0.50618000  0.89376000  0.95905000  1.0
  H  H4  1  0.44533000  0.31409000  0.98889000  1.0
  H  H5  1  0.55467000  0.68591000  0.01112000  1.0
  H  H6  1  0.37183000  0.96754000  0.20396000  1.0
  H  H7  1  0.62817000  0.03246000  0.79604000  1.0
  H  H8  1  0.18546000  0.96365000  0.35931000  1.0
  H  H9  1  0.81453000  0.03635000  0.64068000  1.0
  H  H10  1  0.99419000  0.46931000  0.17331000  1.0
  H  H11  1  0.00581000  0.53069000  0.82669000  1.0
  H  H12  1  0.18389000  0.47247000  0.02137000  1.0
  H  H13  1  0.81612000  0.52753000  0.97863000  1.0
  H  H14  1  0.94483000  0.10594000  0.40841000  1.0
  H  H15  1  0.05517000  0.89407000  0.59158000  1.0
  H  H16  1  0.86050000  0.31659000  0.32357000  1.0
  H  H17  1  0.13950000  0.68341000  0.67643000  1.0
  H  H18  1  0.78248000  0.32137000  0.65408000  1.0
  H  H19  1  0.21751000  0.67863000  0.34592000  1.0
  H  H20  1  0.06380000  0.19905000  0.98854000  1.0
  H  H21  1  0.93619000  0.80096000  0.01145000  1.0
  H  H22  1  0.90768000  0.07053000  0.16019000  1.0
  H  H23  1  0.09232000  0.92947000  0.83981000  1.0
  H  H24  1  0.74856000  0.05819000  0.09712000  1.0
  H  H25  1  0.25144000  0.94181000  0.90288000  1.0
  H  H26  1  0.62008000  0.35605000  0.03720000  1.0
  H  H27  1  0.37992000  0.64395000  0.96280000  1.0
  H  H28  1  0.77334000  0.34363000  0.12787000  1.0
  H  H29  1  0.22666000  0.65637000  0.87213000  1.0
  H  H30  1  0.56993000  0.15604000  0.24047000  1.0
  H  H31  1  0.43007000  0.84396000  0.75953000  1.0
  H  H32  1  0.72262000  0.14638000  0.32948000  1.0
  H  H33  1  0.27738000  0.85362000  0.67052000  1.0
  H  H34  1  0.60116000  0.44933000  0.25051000  1.0
  H  H35  1  0.39884000  0.55067000  0.74949000  1.0
  H  H36  1  0.44098000  0.43745000  0.18824000  1.0
  H  H37  1  0.55902000  0.56255000  0.81176000  1.0
  H  H38  1  0.26347000  0.35297000  0.35075000  1.0
  H  H39  1  0.73653000  0.64703000  0.64925000  1.0
  H  H40  1  0.51105000  0.29140000  0.68139000  1.0
  H  H41  1  0.48895000  0.70860000  0.31861000  1.0
  C  C42  1  0.32175000  0.25438000  0.87711000  1.0
  C  C43  1  0.67825000  0.74562000  0.12289000  1.0
  C  C44  1  0.40195000  0.22042000  0.00598000  1.0
  C  C45  1  0.59805000  0.77958000  0.99403000  1.0
  C  C46  1  0.29256000  0.21976000  0.10350000  1.0
  C  C47  1  0.70744000  0.78024000  0.89650000  1.0
  C  C48  1  0.29005000  0.07753000  0.19872000  1.0
  C  C49  1  0.70995000  0.92247000  0.80128000  1.0
  C  C50  1  0.18438000  0.07573000  0.28498000  1.0
  C  C51  1  0.81561000  0.92427000  0.71502000  1.0
  C  C52  1  0.07678000  0.21674000  0.27696000  1.0
  C  C53  1  0.92322000  0.78327000  0.72304000  1.0
  C  C54  1  0.07873000  0.35936000  0.18124000  1.0
  C  C55  1  0.92127000  0.64064000  0.81876000  1.0
  C  C56  1  0.18548000  0.36075000  0.09640000  1.0
  C  C57  1  0.81452000  0.63924000  0.90361000  1.0
  C  C58  1  0.96433000  0.21714000  0.37176000  1.0
  C  C59  1  0.03567000  0.78286000  0.62824000  1.0
  C  C60  1  0.02190000  0.23895000  0.48432000  1.0
  C  C61  1  0.97810000  0.76105000  0.51568000  1.0
  C  C62  1  0.82541000  0.28356000  0.75472000  1.0
  C  C63  1  0.17459000  0.71644000  0.24528000  1.0
  C  C64  1  0.97114000  0.22182000  0.92191000  1.0
  C  C65  1  0.02886000  0.77818000  0.07809000  1.0
  C  C66  1  0.80520000  0.13871000  0.09134000  1.0
  C  C67  1  0.19480000  0.86129000  0.90866000  1.0
  C  C68  1  0.70745000  0.27580000  0.12054000  1.0
  C  C69  1  0.29255000  0.72420000  0.87946000  1.0
  C  C70  1  0.63671000  0.22408000  0.24528000  1.0
  C  C71  1  0.36329000  0.77592000  0.75472000  1.0
  C  C72  1  0.53963000  0.37110000  0.26188000  1.0
  C  C73  1  0.46037000  0.62891000  0.73812000  1.0
  C  C74  1  0.35087000  0.33856000  0.41828000  1.0
  C  C75  1  0.64913000  0.66144000  0.58172000  1.0
  C  C76  1  0.47983000  0.30656000  0.58404000  1.0
  C  C77  1  0.52017000  0.69345000  0.41596000  1.0
  N  N78  1  0.96094000  0.27825000  0.79183000  1.0
  N  N79  1  0.03905000  0.72176000  0.20817000  1.0
  N  N80  1  0.75153000  0.23506000  0.85395000  1.0
  N  N81  1  0.24847000  0.76494000  0.14605000  1.0
  N  N82  1  0.84682000  0.19506000  0.95992000  1.0
  N  N83  1  0.15318000  0.80494000  0.04008000  1.0
  N  N84  1  0.48569000  0.33968000  0.38809000  1.0
  N  N85  1  0.51431000  0.66032000  0.61192000  1.0
  N  N86  1  0.57034000  0.31855000  0.49345000  1.0
  N  N87  1  0.42966000  0.68145000  0.50655000  1.0
  N  N88  1  0.34353000  0.31822000  0.54225000  1.0
  N  N89  1  0.65647000  0.68178000  0.45775000  1.0
  O  O90  1  0.25241000  0.39888000  0.79928000  1.0
  O  O91  1  0.74758000  0.60111000  0.20072000  1.0
  O  O92  1  0.31996000  0.14055000  0.85339000  1.0
  O  O93  1  0.68005000  0.85945000  0.14661000  1.0
  O  O94  1  0.00030000  0.38220000  0.46658000  1.0
  O  O95  1  0.99970000  0.61781000  0.53342000  1.0
  O  O96  1  0.09253000  0.12280000  0.58727000  1.0
  O  O97  1  0.90746000  0.87721000  0.41273000  1.0
