# generated using pymatgen
data_ZnH10C8SO9
_symmetry_space_group_name_H-M   'P 1'
_cell_length_a   7.63723000
_cell_length_b   8.25767000
_cell_length_c   10.19520000
_cell_angle_alpha   106.96000000
_cell_angle_beta   111.98100000
_cell_angle_gamma   90.62370000
_symmetry_Int_Tables_number   1
_chemical_formula_structural   ZnH10C8SO9
_chemical_formula_sum   'Zn2 H20 C16 S2 O18'
_cell_volume   565.04877071
_cell_formula_units_Z   2
loop_
 _symmetry_equiv_pos_site_id
 _symmetry_equiv_pos_as_xyz
  1  'x, y, z'
loop_
 _atom_site_type_symbol
 _atom_site_label
 _atom_site_symmetry_multiplicity
 _atom_site_fract_x
 _atom_site_fract_y
 _atom_site_fract_z
 _atom_site_occupancy
  Zn  Zn0  1  0.66451000  0.75856000  0.93865000  1.0
  Zn  Zn1  1  0.33549000  0.24144000  0.06134000  1.0
  H  H2  1  0.01331000  0.44710000  0.67470000  1.0
  H  H3  1  0.98669000  0.55289000  0.32531000  1.0
  H  H4  1  0.82152000  0.56164000  0.69476000  1.0
  H  H5  1  0.17850000  0.43837000  0.30525000  1.0
  H  H6  1  0.60023000  0.38433000  0.43630000  1.0
  H  H7  1  0.39977000  0.61568000  0.56371000  1.0
  H  H8  1  0.80402000  0.48302000  0.42937000  1.0
  H  H9  1  0.19598000  0.51699000  0.57063000  1.0
  H  H10  1  0.32294000  0.85495000  0.84125000  1.0
  H  H11  1  0.67706000  0.14505000  0.15875000  1.0
  H  H12  1  0.34723000  0.82168000  0.98970000  1.0
  H  H13  1  0.65278000  0.17832000  0.01029000  1.0
  H  H14  1  0.65006000  0.42095000  0.79731000  1.0
  H  H15  1  0.34993000  0.57905000  0.20269000  1.0
  H  H16  1  0.45089000  0.44409000  0.81462000  1.0
  H  H17  1  0.54910000  0.55591000  0.18537000  1.0
  H  H18  1  0.05532000  0.74870000  0.03831000  1.0
  H  H19  1  0.94468000  0.25129000  0.96169000  1.0
  H  H20  1  0.94119000  0.61041000  0.06329000  1.0
  H  H21  1  0.05881000  0.38959000  0.93671000  1.0
  C  C22  1  0.74192000  0.83890000  0.23861000  1.0
  C  C23  1  0.25808000  0.16113000  0.76139000  1.0
  C  C24  1  0.75036000  0.93198000  0.38804000  1.0
  C  C25  1  0.24964000  0.06801000  0.61196000  1.0
  C  C26  1  0.77502000  0.10717000  0.45929000  1.0
  C  C27  1  0.22497000  0.89283000  0.54071000  1.0
  C  C28  1  0.77280000  0.14874000  0.60453000  1.0
  C  C29  1  0.22721000  0.85126000  0.39548000  1.0
  C  C30  1  0.74187000  0.00390000  0.64091000  1.0
  C  C31  1  0.25813000  0.99610000  0.35909000  1.0
  C  C32  1  0.72238000  0.98930000  0.77531000  1.0
  C  C33  1  0.27761000  0.01070000  0.22469000  1.0
  C  C34  1  0.85778000  0.43998000  0.63887000  1.0
  C  C35  1  0.14222000  0.56002000  0.36114000  1.0
  C  C36  1  0.75583000  0.39169000  0.47191000  1.0
  C  C37  1  0.24417000  0.60831000  0.52810000  1.0
  S  S38  1  0.72142000  0.82010000  0.49889000  1.0
  S  S39  1  0.27858000  0.17990000  0.50111000  1.0
  O  O40  1  0.74660000  0.92613000  0.15337000  1.0
  O  O41  1  0.25339000  0.07387000  0.84664000  1.0
  O  O42  1  0.72839000  0.67662000  0.19719000  1.0
  O  O43  1  0.27159000  0.32336000  0.80280000  1.0
  O  O44  1  0.68420000  0.83722000  0.77445000  1.0
  O  O45  1  0.31580000  0.16276000  0.22555000  1.0
  O  O46  1  0.74266000  0.12542000  0.88153000  1.0
  O  O47  1  0.25736000  0.87456000  0.11848000  1.0
  O  O48  1  0.79781000  0.31336000  0.69432000  1.0
  O  O49  1  0.20219000  0.68664000  0.30568000  1.0
  O  O50  1  0.79891000  0.22739000  0.39905000  1.0
  O  O51  1  0.20108000  0.77261000  0.60095000  1.0
  O  O52  1  0.37949000  0.77880000  0.90030000  1.0
  O  O53  1  0.62051000  0.22121000  0.09969000  1.0
  O  O54  1  0.56600000  0.50542000  0.81648000  1.0
  O  O55  1  0.43401000  0.49458000  0.18352000  1.0
  O  O56  1  0.93508000  0.66524000  0.98889000  1.0
  O  O57  1  0.06493000  0.33476000  0.01111000  1.0
