# generated using pymatgen
data_Zn3H7C43N13O12
_symmetry_space_group_name_H-M   'P 1'
_cell_length_a   21.69480000
_cell_length_b   21.83670000
_cell_length_c   22.05694423
_cell_angle_alpha   60.34714531
_cell_angle_beta   61.03046214
_cell_angle_gamma   90.03300000
_symmetry_Int_Tables_number   1
_chemical_formula_structural   Zn3H7C43N13O12
_chemical_formula_sum   'Zn6 H14 C86 N26 O24'
_cell_volume   7537.73815840
_cell_formula_units_Z   2
loop_
 _symmetry_equiv_pos_site_id
 _symmetry_equiv_pos_as_xyz
  1  'x, y, z'
loop_
 _atom_site_type_symbol
 _atom_site_label
 _atom_site_symmetry_multiplicity
 _atom_site_fract_x
 _atom_site_fract_y
 _atom_site_fract_z
 _atom_site_occupancy
  Zn  Zn0  1  0.00005000  0.93992000  0.00002000  1.0
  Zn  Zn1  1  0.45852000  0.95428000  0.08288000  1.0
  Zn  Zn2  1  0.54148000  0.03722000  0.91710000  1.0
  Zn  Zn3  1  0.00010000  0.06820000  0.99991000  1.0
  Zn  Zn4  1  0.43908000  0.49534000  0.00084000  1.0
  Zn  Zn5  1  0.56090000  0.49620000  0.99917000  1.0
  H  H6  1  0.77465000  0.79643000  0.56653000  1.0
  H  H7  1  0.11836000  0.21179000  0.57131000  1.0
  H  H8  1  0.88165000  0.78361000  0.42859000  1.0
  H  H9  1  0.74799000  0.62448000  0.57884000  1.0
  H  H10  1  0.25249000  0.20339000  0.42104000  1.0
  H  H11  1  0.83295000  0.13777000  0.93838000  1.0
  H  H12  1  0.16715000  0.07662000  0.06143000  1.0
  H  H13  1  0.22503000  0.36277000  0.43354000  1.0
  H  H14  1  0.73916000  0.69104000  0.43073000  1.0
  H  H15  1  0.26128000  0.12216000  0.56918000  1.0
  H  H16  1  0.58089000  0.87067000  0.86590000  1.0
  H  H17  1  0.41936000  0.73707000  0.13331000  1.0
  H  H18  1  0.56404000  0.27640000  0.05398000  1.0
  H  H19  1  0.43548000  0.33028000  0.94593000  1.0
  C  C20  1  0.88257000  0.02575000  0.00467000  1.0
  C  C21  1  0.16609000  0.25135000  0.55233000  1.0
  C  C22  1  0.28359000  0.25059000  0.55814000  1.0
  C  C23  1  0.66911000  0.76952000  0.54281000  1.0
  C  C24  1  0.33068000  0.31271000  0.45737000  1.0
  C  C25  1  0.62266000  0.62848000  0.74794000  1.0
  C  C26  1  0.37779000  0.37684000  0.25202000  1.0
  C  C27  1  0.79120000  0.78756000  0.41421000  1.0
  C  C28  1  0.83376000  0.80392000  0.44767000  1.0
  C  C29  1  0.20876000  0.20182000  0.58580000  1.0
  C  C30  1  0.71843000  0.65751000  0.55254000  1.0
  C  C31  1  0.28197000  0.21029000  0.44737000  1.0
  C  C32  1  0.70584000  0.71176000  0.58114000  1.0
  C  C33  1  0.29425000  0.29309000  0.41885000  1.0
  C  C34  1  0.65028000  0.60501000  0.58715000  1.0
  C  C35  1  0.35023000  0.19260000  0.41277000  1.0
  C  C36  1  0.83608000  0.68013000  0.42676000  1.0
  C  C37  1  0.16448000  0.10679000  0.57301000  1.0
  C  C38  1  0.72470000  0.14750000  0.91301000  1.0
  C  C39  1  0.65979000  0.66858000  0.67190000  1.0
  C  C40  1  0.27510000  0.06066000  0.08749000  1.0
  C  C41  1  0.65675000  0.87425000  0.07669000  1.0
  C  C42  1  0.34305000  0.95069000  0.92424000  1.0
  C  C43  1  0.77709000  0.88179000  0.09087000  1.0
  C  C44  1  0.22297000  0.97253000  0.90953000  1.0
  C  C45  1  0.34038000  0.34076000  0.32808000  1.0
  C  C46  1  0.56988000  0.14896000  0.06615000  1.0
  C  C47  1  0.43015000  0.21520000  0.93323000  1.0
  C  C48  1  0.59381000  0.75719000  0.84780000  1.0
  C  C49  1  0.40613000  0.60541000  0.15169000  1.0
  C  C50  1  0.73102000  0.88896000  0.39596000  1.0
  C  C51  1  0.26827000  0.28524000  0.60430000  1.0
  C  C52  1  0.67417000  0.78062000  0.41971000  1.0
  C  C53  1  0.32567000  0.20096000  0.58053000  1.0
  C  C54  1  0.59076000  0.73333000  0.58260000  1.0
  C  C55  1  0.40907000  0.31657000  0.41772000  1.0
  C  C56  1  0.67121000  0.82574000  0.56069000  1.0
  C  C57  1  0.32827000  0.38672000  0.43952000  1.0
  C  C58  1  0.86418000  0.88253000  0.40956000  1.0
  C  C59  1  0.13540000  0.29179000  0.59044000  1.0
  C  C60  1  0.82002000  0.71011000  0.58221000  1.0
  C  C61  1  0.83783000  0.82765000  0.32357000  1.0
  C  C62  1  0.18018000  0.29195000  0.41765000  1.0
  C  C63  1  0.16217000  0.15117000  0.67641000  1.0
  C  C64  1  0.11758000  0.03056000  0.99528000  1.0
  C  C65  1  0.87730000  0.85874000  0.24807000  1.0
  C  C66  1  0.12277000  0.10666000  0.75190000  1.0
  C  C67  1  0.79666000  0.08398000  0.96668000  1.0
  C  C68  1  0.20332000  0.05089000  0.03348000  1.0
  C  C69  1  0.73620000  0.07990000  0.95942000  1.0
  C  C70  1  0.26354000  0.03935000  0.04117000  1.0
  C  C71  1  0.68839000  0.01025000  0.99758000  1.0
  C  C72  1  0.31118000  0.00754000  0.00344000  1.0
  C  C73  1  0.70267000  0.94514000  0.04113000  1.0
  C  C74  1  0.29711000  0.98605000  0.95968000  1.0
  C  C75  1  0.76528000  0.94954000  0.04563000  1.0
  C  C76  1  0.23470000  0.99509000  0.95483000  1.0
  C  C77  1  0.92382000  0.90318000  0.15722000  1.0
  C  C78  1  0.07627000  0.06020000  0.84276000  1.0
  C  C79  1  0.81230000  0.01989000  0.00765000  1.0
  C  C80  1  0.78391000  0.75829000  0.54639000  1.0
  C  C81  1  0.18776000  0.02766000  0.99251000  1.0
  C  C82  1  0.49989000  0.68200000  0.99970000  1.0
  C  C83  1  0.49970000  0.37828000  0.00000000  1.0
  C  C84  1  0.57814000  0.57970000  0.83867000  1.0
  C  C85  1  0.42251000  0.41868000  0.16128000  1.0
  C  C86  1  0.21602000  0.30451000  0.45361000  1.0
  C  C87  1  0.49974000  0.61329000  0.99979000  1.0
  C  C88  1  0.50016000  0.87879000  0.99946000  1.0
  C  C89  1  0.62159000  0.00438000  0.99370000  1.0
  C  C90  1  0.37773000  0.99752000  0.00774000  1.0
  C  C91  1  0.50042000  0.11337000  0.99918000  1.0
  C  C92  1  0.53574000  0.26275000  0.03071000  1.0
  C  C93  1  0.46400000  0.29355000  0.96892000  1.0
  C  C94  1  0.53445000  0.19767000  0.03256000  1.0
  C  C95  1  0.46563000  0.23052000  0.96670000  1.0
  C  C96  1  0.76944000  0.70199000  0.45426000  1.0
  C  C97  1  0.23091000  0.15642000  0.54563000  1.0
  C  C98  1  0.50020000  0.18174000  0.99945000  1.0
  C  C99  1  0.49983000  0.30988000  0.99986000  1.0
  C  C100  1  0.54657000  0.75206000  0.92425000  1.0
  C  C101  1  0.45337000  0.67669000  0.07511000  1.0
  C  C102  1  0.54587000  0.81621000  0.92425000  1.0
  C  C103  1  0.45426000  0.74094000  0.07496000  1.0
  C  C104  1  0.50009000  0.81032000  0.99956000  1.0
  C  C105  1  0.71613000  0.80823000  0.44200000  1.0
  N  N106  1  0.59784000  0.56119000  0.61345000  1.0
  N  N107  1  0.28246000  0.07895000  0.12578000  1.0
  N  N108  1  0.71755000  0.20412000  0.87451000  1.0
  N  N109  1  0.62127000  0.81675000  0.10237000  1.0
  N  N110  1  0.37852000  0.91894000  0.89847000  1.0
  N  N111  1  0.78178000  0.82415000  0.13112000  1.0
  N  N112  1  0.21830000  0.95516000  0.86925000  1.0
  N  N113  1  0.40274000  0.17519000  0.38653000  1.0
  N  N114  1  0.59997000  0.11025000  0.09261000  1.0
  N  N115  1  0.39986000  0.20271000  0.90705000  1.0
  N  N116  1  0.63208000  0.76028000  0.78603000  1.0
  N  N117  1  0.36797000  0.54673000  0.21355000  1.0
  N  N118  1  0.74089000  0.95269000  0.35820000  1.0
  N  N119  1  0.25811000  0.31117000  0.64216000  1.0
  N  N120  1  0.64319000  0.75887000  0.39990000  1.0
  N  N121  1  0.35672000  0.15957000  0.60041000  1.0
  N  N122  1  0.52792000  0.70699000  0.61430000  1.0
  N  N123  1  0.47192000  0.32202000  0.38608000  1.0
  N  N124  1  0.67368000  0.86940000  0.57587000  1.0
  N  N125  1  0.32559000  0.44551000  0.42437000  1.0
  N  N126  1  0.89056000  0.94451000  0.38061000  1.0
  N  N127  1  0.10877000  0.32478000  0.61933000  1.0
  N  N128  1  0.84981000  0.67110000  0.60866000  1.0
  N  N129  1  0.88992000  0.66328000  0.40619000  1.0
  N  N130  1  0.15056000  0.27924000  0.39110000  1.0
  N  N131  1  0.11079000  0.06910000  0.59357000  1.0
  O  O132  1  0.91133000  0.97574000  0.00305000  1.0
  O  O133  1  0.43878000  0.02286000  0.93787000  1.0
  O  O134  1  0.56060000  0.95980000  0.06365000  1.0
  O  O135  1  0.52902000  0.12343000  0.92794000  1.0
  O  O136  1  0.47190000  0.05211000  0.07031000  1.0
  O  O137  1  0.90931000  0.08021000  0.00187000  1.0
  O  O138  1  0.09097000  0.08233000  0.99779000  1.0
  O  O139  1  0.08873000  0.97880000  0.99709000  1.0
  O  O140  1  0.94283000  0.86849000  0.12143000  1.0
  O  O141  1  0.05724000  0.98971000  0.87862000  1.0
  O  O142  1  0.94077000  0.97279000  0.12229000  1.0
  O  O143  1  0.05935000  0.09494000  0.87763000  1.0
  O  O144  1  0.45399000  0.41078000  0.98774000  1.0
  O  O145  1  0.54532000  0.39854000  0.01238000  1.0
  O  O146  1  0.50852000  0.56906000  0.87465000  1.0
  O  O147  1  0.49215000  0.44396000  0.12538000  1.0
  O  O148  1  0.61324000  0.55187000  0.87297000  1.0
  O  O149  1  0.38747000  0.42507000  0.12693000  1.0
  O  O150  1  0.44175000  0.58158000  0.01222000  1.0
  O  O151  1  0.55766000  0.59393000  0.98742000  1.0
  O  O152  1  0.54307000  0.94066000  0.92871000  1.0
  O  O153  1  0.45729000  0.86997000  0.07017000  1.0
  O  O154  1  0.63252000  0.04434000  0.92149000  1.0
  O  O155  1  0.36670000  0.96515000  0.08001000  1.0
