# generated using pymatgen
data_ZnH4C4(IN)2
_symmetry_space_group_name_H-M   'P 1'
_cell_length_a   6.29762000
_cell_length_b   7.37910000
_cell_length_c   9.83617000
_cell_angle_alpha   90.00040000
_cell_angle_beta   90.00050000
_cell_angle_gamma   69.14500000
_symmetry_Int_Tables_number   1
_chemical_formula_structural   ZnH4C4(IN)2
_chemical_formula_sum   'Zn2 H8 C8 I4 N4'
_cell_volume   427.14754467
_cell_formula_units_Z   2
loop_
 _symmetry_equiv_pos_site_id
 _symmetry_equiv_pos_as_xyz
  1  'x, y, z'
loop_
 _atom_site_type_symbol
 _atom_site_label
 _atom_site_symmetry_multiplicity
 _atom_site_fract_x
 _atom_site_fract_y
 _atom_site_fract_z
 _atom_site_occupancy
  Zn  Zn0  1  0.37656000  0.52983000  0.25000000  1.0
  Zn  Zn1  1  0.62345000  0.47016000  0.74999000  1.0
  H  H2  1  0.94614000  0.80299000  0.11904000  1.0
  H  H3  1  0.05383000  0.19700000  0.61902000  1.0
  H  H4  1  0.05385000  0.19706000  0.88097000  1.0
  H  H5  1  0.94619000  0.80294000  0.38099000  1.0
  H  H6  1  0.34197000  0.22246000  0.05146000  1.0
  H  H7  1  0.65804000  0.77755000  0.55147000  1.0
  H  H8  1  0.65803000  0.77755000  0.94853000  1.0
  H  H9  1  0.34195000  0.22244000  0.44852000  1.0
  C  C10  1  0.96904000  0.66702000  0.06649000  1.0
  C  C11  1  0.03095000  0.33298000  0.56648000  1.0
  C  C12  1  0.03095000  0.33304000  0.93352000  1.0
  C  C13  1  0.96906000  0.66697000  0.43354000  1.0
  C  C14  1  0.18881000  0.34620000  0.02830000  1.0
  C  C15  1  0.81120000  0.65381000  0.52832000  1.0
  C  C16  1  0.81118000  0.65384000  0.97169000  1.0
  C  C17  1  0.18880000  0.34617000  0.47169000  1.0
  I  I18  1  0.74283000  0.23867000  0.24999000  1.0
  I  I19  1  0.25717000  0.76132000  0.74999000  1.0
  I  I20  1  0.38735000  0.87157000  0.25000000  1.0
  I  I21  1  0.61265000  0.12842000  0.75000000  1.0
  N  N22  1  0.15640000  0.51308000  0.09456000  1.0
  N  N23  1  0.84359000  0.48692000  0.59456000  1.0
  N  N24  1  0.84360000  0.48696000  0.90543000  1.0
  N  N25  1  0.15640000  0.51305000  0.40544000  1.0
