# generated using pymatgen
data_LaH15C12S2O15
_symmetry_space_group_name_H-M   'P 1'
_cell_length_a   7.00273000
_cell_length_b   10.87210000
_cell_length_c   12.35500000
_cell_angle_alpha   83.85040000
_cell_angle_beta   77.12250000
_cell_angle_gamma   89.15280000
_symmetry_Int_Tables_number   1
_chemical_formula_structural   LaH15C12S2O15
_chemical_formula_sum   'La2 H30 C24 S4 O30'
_cell_volume   911.66524934
_cell_formula_units_Z   2
loop_
 _symmetry_equiv_pos_site_id
 _symmetry_equiv_pos_as_xyz
  1  'x, y, z'
loop_
 _atom_site_type_symbol
 _atom_site_label
 _atom_site_symmetry_multiplicity
 _atom_site_fract_x
 _atom_site_fract_y
 _atom_site_fract_z
 _atom_site_occupancy
  La  La0  1  0.21014000  0.59828000  0.21343000  1.0
  La  La1  1  0.78985000  0.40172000  0.78657000  1.0
  H  H2  1  0.97158000  0.22322000  0.26450000  1.0
  H  H3  1  0.02842000  0.77677000  0.73550000  1.0
  H  H4  1  0.77134000  0.58632000  0.16601000  1.0
  H  H5  1  0.22866000  0.41368000  0.83399000  1.0
  H  H6  1  0.86047000  0.44868000  0.17047000  1.0
  H  H7  1  0.13953000  0.55132000  0.82954000  1.0
  H  H8  1  0.35688000  0.35031000  0.09828000  1.0
  H  H9  1  0.64311000  0.64970000  0.90173000  1.0
  H  H10  1  0.27496000  0.43373000  0.00840000  1.0
  H  H11  1  0.72504000  0.56627000  0.99160000  1.0
  H  H12  1  0.86771000  0.44034000  0.39576000  1.0
  H  H13  1  0.13229000  0.55966000  0.60424000  1.0
  H  H14  1  0.06338000  0.43606000  0.43960000  1.0
  H  H15  1  0.93663000  0.56393000  0.56040000  1.0
  H  H16  1  0.44098000  0.35017000  0.24535000  1.0
  H  H17  1  0.55901000  0.64983000  0.75465000  1.0
  H  H18  1  0.49334000  0.41978000  0.33940000  1.0
  H  H19  1  0.50666000  0.58022000  0.66060000  1.0
  H  H20  1  0.83485000  0.73274000  0.32995000  1.0
  H  H21  1  0.16515000  0.26726000  0.67005000  1.0
  H  H22  1  0.97271000  0.84950000  0.27437000  1.0
  H  H23  1  0.02730000  0.15050000  0.72563000  1.0
  H  H24  1  0.09822000  0.24997000  0.98698000  1.0
  H  H25  1  0.90177000  0.75003000  0.01301000  1.0
  H  H26  1  0.49928000  0.97790000  0.84536000  1.0
  H  H27  1  0.50072000  0.02210000  0.15464000  1.0
  H  H28  1  0.31905000  0.21170000  0.42116000  1.0
  H  H29  1  0.68096000  0.78830000  0.57884000  1.0
  H  H30  1  0.17790000  0.84322000  0.36887000  1.0
  H  H31  1  0.82211000  0.15678000  0.63113000  1.0
  C  C32  1  0.12778000  0.15436000  0.97112000  1.0
  C  C33  1  0.87221000  0.84565000  0.02888000  1.0
  C  C34  1  0.31023000  0.12387000  0.91147000  1.0
  C  C35  1  0.68976000  0.87613000  0.08853000  1.0
  C  C36  1  0.35371000  0.00008000  0.89100000  1.0
  C  C37  1  0.64629000  0.99992000  0.10900000  1.0
  C  C38  1  0.21274000  0.90957000  0.92909000  1.0
  C  C39  1  0.78725000  0.09043000  0.07091000  1.0
  C  C40  1  0.02057000  0.93682000  0.98928000  1.0
  C  C41  1  0.97943000  0.06318000  0.01071000  1.0
  C  C42  1  0.46629000  0.21967000  0.86776000  1.0
  C  C43  1  0.53371000  0.78034000  0.13224000  1.0
  C  C44  1  0.34220000  0.11258000  0.43322000  1.0
  C  C45  1  0.65780000  0.88742000  0.56678000  1.0
  C  C46  1  0.23270000  0.03329000  0.39011000  1.0
  C  C47  1  0.76731000  0.96671000  0.60989000  1.0
  C  C48  1  0.26288000  0.90444000  0.40406000  1.0
  C  C49  1  0.73713000  0.09556000  0.59594000  1.0
  C  C50  1  0.40220000  0.85629000  0.45876000  1.0
  C  C51  1  0.59781000  0.14371000  0.54123000  1.0
  C  C52  1  0.51677000  0.93416000  0.50680000  1.0
  C  C53  1  0.48324000  0.06584000  0.49320000  1.0
  C  C54  1  0.08473000  0.07802000  0.32523000  1.0
  C  C55  1  0.91526000  0.92197000  0.67478000  1.0
  S  S56  1  0.27946000  0.75583000  0.90152000  1.0
  S  S57  1  0.72053000  0.24417000  0.09848000  1.0
  S  S58  1  0.43411000  0.69211000  0.46362000  1.0
  S  S59  1  0.56589000  0.30789000  0.53638000  1.0
  O  O60  1  0.64002000  0.18494000  0.83078000  1.0
  O  O61  1  0.35998000  0.81507000  0.16922000  1.0
  O  O62  1  0.42438000  0.33573000  0.86849000  1.0
  O  O63  1  0.57562000  0.66427000  0.13151000  1.0
  O  O64  1  0.23193000  0.67615000  0.00787000  1.0
  O  O65  1  0.76807000  0.32386000  0.99214000  1.0
  O  O66  1  0.16484000  0.71730000  0.82396000  1.0
  O  O67  1  0.83516000  0.28269000  0.17604000  1.0
  O  O68  1  0.49182000  0.76112000  0.85179000  1.0
  O  O69  1  0.50818000  0.23888000  0.14821000  1.0
  O  O70  1  0.06770000  0.20058000  0.31269000  1.0
  O  O71  1  0.93229000  0.79941000  0.68732000  1.0
  O  O72  1  0.98637000  0.00803000  0.28610000  1.0
  O  O73  1  0.01365000  0.99196000  0.71390000  1.0
  O  O74  1  0.32069000  0.65068000  0.38740000  1.0
  O  O75  1  0.67931000  0.34932000  0.61259000  1.0
  O  O76  1  0.34985000  0.64080000  0.58013000  1.0
  O  O77  1  0.65015000  0.35921000  0.41987000  1.0
  O  O78  1  0.64437000  0.66933000  0.43115000  1.0
  O  O79  1  0.35563000  0.33067000  0.56885000  1.0
  O  O80  1  0.89082000  0.53705000  0.17008000  1.0
  O  O81  1  0.10918000  0.46295000  0.82992000  1.0
  O  O82  1  0.27193000  0.42216000  0.08814000  1.0
  O  O83  1  0.72807000  0.57785000  0.91186000  1.0
  O  O84  1  0.99740000  0.48111000  0.38611000  1.0
  O  O85  1  0.00261000  0.51889000  0.61389000  1.0
  O  O86  1  0.40993000  0.42518000  0.28402000  1.0
  O  O87  1  0.59006000  0.57482000  0.71599000  1.0
  O  O88  1  0.95757000  0.75877000  0.27524000  1.0
  O  O89  1  0.04243000  0.24122000  0.72476000  1.0
