# generated using pymatgen
data_CaP2H12(C2O)6
_symmetry_space_group_name_H-M   'P 1'
_cell_length_a   5.57800000
_cell_length_b   7.68261000
_cell_length_c   15.79477692
_cell_angle_alpha   78.60841173
_cell_angle_beta   79.86317306
_cell_angle_gamma   89.99380000
_symmetry_Int_Tables_number   1
_chemical_formula_structural   CaP2H12(C2O)6
_chemical_formula_sum   'Ca2 P4 H24 C24 O12'
_cell_volume   652.75013596
_cell_formula_units_Z   2
loop_
 _symmetry_equiv_pos_site_id
 _symmetry_equiv_pos_as_xyz
  1  'x, y, z'
loop_
 _atom_site_type_symbol
 _atom_site_label
 _atom_site_symmetry_multiplicity
 _atom_site_fract_x
 _atom_site_fract_y
 _atom_site_fract_z
 _atom_site_occupancy
  Ca  Ca0  1  0.10310000  0.25005000  0.00000000  1.0
  Ca  Ca1  1  0.89690000  0.74995000  0.00000000  1.0
  P  P2  1  0.71915000  0.41742000  0.87560000  1.0
  P  P3  1  0.59517000  0.08252000  0.12436000  1.0
  P  P4  1  0.28086000  0.58258000  0.12440000  1.0
  P  P5  1  0.40484000  0.91748000  0.87564000  1.0
  H  H6  1  0.74159000  0.10241000  0.89258000  1.0
  H  H7  1  0.63453000  0.39741000  0.10740000  1.0
  H  H8  1  0.25843000  0.89759000  0.10741000  1.0
  H  H9  1  0.36547000  0.60259000  0.89260000  1.0
  H  H10  1  0.51013000  0.39717000  0.71903000  1.0
  H  H11  1  0.22991000  0.10295000  0.28096000  1.0
  H  H12  1  0.48986000  0.60283000  0.28097000  1.0
  H  H13  1  0.77011000  0.89706000  0.71903000  1.0
  H  H14  1  0.65739000  0.51515000  0.56079000  1.0
  H  H15  1  0.21940000  0.98476000  0.43918000  1.0
  H  H16  1  0.34260000  0.48486000  0.43921000  1.0
  H  H17  1  0.78060000  0.01524000  0.56082000  1.0
  H  H18  1  0.04668000  0.69610000  0.51133000  1.0
  H  H19  1  0.55914000  0.80370000  0.48867000  1.0
  H  H20  1  0.95330000  0.30391000  0.48868000  1.0
  H  H21  1  0.44086000  0.19630000  0.51133000  1.0
  H  H22  1  0.28754000  0.75676000  0.62208000  1.0
  H  H23  1  0.91052000  0.74283000  0.37790000  1.0
  H  H24  1  0.71246000  0.24324000  0.37792000  1.0
  H  H25  1  0.08948000  0.25717000  0.62210000  1.0
  H  H26  1  0.14264000  0.63460000  0.78007000  1.0
  H  H27  1  0.92307000  0.86510000  0.21992000  1.0
  H  H28  1  0.85737000  0.36540000  0.21993000  1.0
  H  H29  1  0.07693000  0.13490000  0.78008000  1.0
  C  C30  1  0.81887000  0.50620000  0.75995000  1.0
  C  C31  1  0.57936000  0.99367000  0.24003000  1.0
  C  C32  1  0.18112000  0.49381000  0.24005000  1.0
  C  C33  1  0.42065000  0.00633000  0.75997000  1.0
  C  C34  1  0.68173000  0.47420000  0.69777000  1.0
  C  C35  1  0.38022000  0.02572000  0.30218000  1.0
  C  C36  1  0.31827000  0.52580000  0.30223000  1.0
  C  C37  1  0.61978000  0.97427000  0.69782000  1.0
  C  C38  1  0.76424000  0.54211000  0.60865000  1.0
  C  C39  1  0.37393000  0.95774000  0.39130000  1.0
  C  C40  1  0.23576000  0.45789000  0.39135000  1.0
  C  C41  1  0.62608000  0.04226000  0.60869000  1.0
  C  C42  1  0.98256000  0.64314000  0.58097000  1.0
  C  C43  1  0.56459000  0.85661000  0.41899000  1.0
  C  C44  1  0.01743000  0.35686000  0.41902000  1.0
  C  C45  1  0.43542000  0.14339000  0.58100000  1.0
  C  C46  1  0.11869000  0.67624000  0.64270000  1.0
  C  C47  1  0.76229000  0.82347000  0.35730000  1.0
  C  C48  1  0.88130000  0.32376000  0.35730000  1.0
  C  C49  1  0.23771000  0.17653000  0.64270000  1.0
  C  C50  1  0.03820000  0.60727000  0.73183000  1.0
  C  C51  1  0.77061000  0.89251000  0.26817000  1.0
  C  C52  1  0.96180000  0.39273000  0.26817000  1.0
  C  C53  1  0.22939000  0.10749000  0.73183000  1.0
  O  O54  1  0.44015000  0.41469000  0.89561000  1.0
  O  O55  1  0.33610000  0.08546000  0.10434000  1.0
  O  O56  1  0.55985000  0.58531000  0.10439000  1.0
  O  O57  1  0.66390000  0.91454000  0.89566000  1.0
  O  O58  1  0.85312000  0.51583000  0.92831000  1.0
  O  O59  1  0.78159000  0.98405000  0.07166000  1.0
  O  O60  1  0.14688000  0.48417000  0.07169000  1.0
  O  O61  1  0.21841000  0.01594000  0.92834000  1.0
  O  O62  1  0.82041000  0.22352000  0.89505000  1.0
  O  O63  1  0.71592000  0.27636000  0.10490000  1.0
  O  O64  1  0.17960000  0.77648000  0.10495000  1.0
  O  O65  1  0.28407000  0.72364000  0.89510000  1.0
