# generated using pymatgen
data_CdH13C18N11
_symmetry_space_group_name_H-M   'P 1'
_cell_length_a   6.54968000
_cell_length_b   11.95000000
_cell_length_c   11.94990000
_cell_angle_alpha   100.51500000
_cell_angle_beta   91.34590000
_cell_angle_gamma   91.34570000
_symmetry_Int_Tables_number   1
_chemical_formula_structural   CdH13C18N11
_chemical_formula_sum   'Cd2 H26 C36 N22'
_cell_volume   918.97575526
_cell_formula_units_Z   2
loop_
 _symmetry_equiv_pos_site_id
 _symmetry_equiv_pos_as_xyz
  1  'x, y, z'
loop_
 _atom_site_type_symbol
 _atom_site_label
 _atom_site_symmetry_multiplicity
 _atom_site_fract_x
 _atom_site_fract_y
 _atom_site_fract_z
 _atom_site_occupancy
  Cd  Cd0  1  0.28970000  0.03320000  0.14018000  1.0
  Cd  Cd1  1  0.78969000  0.14018000  0.03320000  1.0
  H  H2  1  0.04976000  0.69503000  0.31936000  1.0
  H  H3  1  0.54976000  0.31936000  0.69502000  1.0
  H  H4  1  0.05898000  0.57965000  0.47405000  1.0
  H  H5  1  0.55899000  0.47405000  0.57965000  1.0
  H  H6  1  0.87935000  0.38638000  0.43838000  1.0
  H  H7  1  0.37935000  0.43838000  0.38637000  1.0
  H  H8  1  0.69480000  0.32176000  0.25023000  1.0
  H  H9  1  0.19480000  0.25024000  0.32175000  1.0
  H  H10  1  0.80925000  0.69189000  0.02543000  1.0
  H  H11  1  0.30924000  0.02544000  0.69189000  1.0
  H  H12  1  0.69283000  0.89127000  0.08751000  1.0
  H  H13  1  0.19282000  0.08751000  0.89128000  1.0
  H  H14  1  0.11263000  0.77865000  0.15404000  1.0
  H  H15  1  0.61262000  0.15404000  0.77865000  1.0
  H  H16  1  0.20769000  0.57356000  0.09907000  1.0
  H  H17  1  0.70768000  0.09906000  0.57355000  1.0
  H  H18  1  0.14479000  0.31105000  0.84439000  1.0
  H  H19  1  0.64476000  0.84439000  0.31106000  1.0
  H  H20  1  0.88197000  0.36045000  0.70943000  1.0
  H  H21  1  0.38196000  0.70942000  0.36047000  1.0
  H  H22  1  0.90817000  0.54704000  0.64424000  1.0
  H  H23  1  0.40821000  0.64424000  0.54707000  1.0
  H  H24  1  0.20182000  0.68132000  0.71243000  1.0
  H  H25  1  0.70189000  0.71243000  0.68133000  1.0
  H  H26  1  0.46906000  0.62874000  0.83839000  1.0
  H  H27  1  0.96912000  0.83839000  0.62873000  1.0
  C  C28  1  0.78880000  0.47209000  0.18684000  1.0
  C  C29  1  0.28879000  0.18684000  0.47208000  1.0
  C  C30  1  0.97623000  0.61060000  0.30665000  1.0
  C  C31  1  0.47623000  0.30664000  0.61059000  1.0
  C  C32  1  0.98074000  0.54622000  0.39304000  1.0
  C  C33  1  0.48075000  0.39304000  0.54622000  1.0
  C  C34  1  0.88141000  0.43976000  0.37352000  1.0
  C  C35  1  0.38141000  0.37352000  0.43976000  1.0
  C  C36  1  0.78109000  0.40214000  0.26883000  1.0
  C  C37  1  0.28109000  0.26883000  0.40214000  1.0
  C  C38  1  0.68329000  0.43446000  0.07631000  1.0
  C  C39  1  0.18328000  0.07632000  0.43445000  1.0
  C  C40  1  0.47527000  0.43107000  0.92833000  1.0
  C  C41  1  0.97528000  0.92834000  0.43107000  1.0
  C  C42  1  0.51584000  0.61905000  0.05855000  1.0
  C  C43  1  0.01582000  0.05854000  0.61905000  1.0
  C  C44  1  0.65525000  0.70789000  0.05495000  1.0
  C  C45  1  0.15524000  0.05495000  0.70789000  1.0
  C  C46  1  0.58922000  0.81859000  0.08794000  1.0
  C  C47  1  0.08921000  0.08794000  0.81859000  1.0
  C  C48  1  0.26487000  0.75533000  0.12475000  1.0
  C  C49  1  0.76486000  0.12475000  0.75532000  1.0
  C  C50  1  0.31780000  0.64197000  0.09446000  1.0
  C  C51  1  0.81779000  0.09446000  0.64197000  1.0
  C  C52  1  0.32454000  0.46535000  0.84978000  1.0
  C  C53  1  0.82455000  0.84978000  0.46536000  1.0
  C  C54  1  0.15724000  0.39084000  0.81313000  1.0
  C  C55  1  0.65726000  0.81313000  0.39085000  1.0
  C  C56  1  0.00972000  0.41951000  0.73823000  1.0
  C  C57  1  0.50972000  0.73823000  0.41953000  1.0
  C  C58  1  0.02574000  0.52349000  0.70098000  1.0
  C  C59  1  0.52577000  0.70099000  0.52351000  1.0
  C  C60  1  0.19076000  0.59840000  0.73783000  1.0
  C  C61  1  0.69082000  0.73783000  0.59841000  1.0
  C  C62  1  0.34094000  0.56939000  0.81117000  1.0
  C  C63  1  0.84098000  0.81117000  0.56939000  1.0
  N  N64  1  0.88420000  0.57508000  0.20487000  1.0
  N  N65  1  0.38419000  0.20487000  0.57508000  1.0
  N  N66  1  0.66552000  0.32808000  0.01880000  1.0
  N  N67  1  0.16552000  0.01881000  0.32808000  1.0
  N  N68  1  0.53704000  0.32579000  0.92606000  1.0
  N  N69  1  0.03705000  0.92607000  0.32579000  1.0
  N  N70  1  0.56884000  0.50305000  0.01987000  1.0
  N  N71  1  0.06883000  0.01986000  0.50305000  1.0
  N  N72  1  0.39784000  0.84208000  0.12148000  1.0
  N  N73  1  0.89783000  0.12148000  0.84209000  1.0
  N  N74  1  0.60660000  0.12290000  0.20049000  1.0
  N  N75  1  0.10660000  0.20050000  0.12289000  1.0
  N  N76  1  0.68231000  0.13648000  0.29534000  1.0
  N  N77  1  0.18230000  0.29533000  0.13648000  1.0
  N  N78  1  0.75512000  0.15276000  0.38691000  1.0
  N  N79  1  0.25512000  0.38691000  0.15276000  1.0
  N  N80  1  0.99004000  0.96629000  0.03583000  1.0
  N  N81  1  0.49004000  0.03583000  0.96629000  1.0
  N  N82  1  0.98675000  0.88870000  0.95480000  1.0
  N  N83  1  0.48674000  0.95480000  0.88869000  1.0
  N  N84  1  0.97835000  0.81320000  0.87768000  1.0
  N  N85  1  0.47835000  0.87768000  0.81319000  1.0
