# generated using pymatgen
data_CdH6C3(NO)4
_symmetry_space_group_name_H-M   'P 1'
_cell_length_a   7.94028000
_cell_length_b   8.69679000
_cell_length_c   10.68710000
_cell_angle_alpha   89.99930000
_cell_angle_beta   87.32150000
_cell_angle_gamma   89.99850000
_symmetry_Int_Tables_number   1
_chemical_formula_structural   CdH6C3(NO)4
_chemical_formula_sum   'Cd4 H24 C12 N16 O16'
_cell_volume   737.19085549
_cell_formula_units_Z   4
loop_
 _symmetry_equiv_pos_site_id
 _symmetry_equiv_pos_as_xyz
  1  'x, y, z'
loop_
 _atom_site_type_symbol
 _atom_site_label
 _atom_site_symmetry_multiplicity
 _atom_site_fract_x
 _atom_site_fract_y
 _atom_site_fract_z
 _atom_site_occupancy
  Cd  Cd0  1  0.23319000  0.47474000  0.70548000  1.0
  Cd  Cd1  1  0.26679000  0.97472000  0.79452000  1.0
  Cd  Cd2  1  0.76680000  0.52527000  0.29452000  1.0
  Cd  Cd3  1  0.73318000  0.02528000  0.20549000  1.0
  H  H4  1  0.92931000  0.59978000  0.62533000  1.0
  H  H5  1  0.57068000  0.09979000  0.87466000  1.0
  H  H6  1  0.07069000  0.40022000  0.37467000  1.0
  H  H7  1  0.42932000  0.90021000  0.12533000  1.0
  H  H8  1  0.89095000  0.42735000  0.63528000  1.0
  H  H9  1  0.60905000  0.92736000  0.86474000  1.0
  H  H10  1  0.10905000  0.57265000  0.36472000  1.0
  H  H11  1  0.39094000  0.07265000  0.13527000  1.0
  H  H12  1  0.58702000  0.45785000  0.62503000  1.0
  H  H13  1  0.91298000  0.95786000  0.87496000  1.0
  H  H14  1  0.41299000  0.54216000  0.37497000  1.0
  H  H15  1  0.08702000  0.04216000  0.12505000  1.0
  H  H16  1  0.57027000  0.44331000  0.77407000  1.0
  H  H17  1  0.92973000  0.94331000  0.72593000  1.0
  H  H18  1  0.42974000  0.55670000  0.22593000  1.0
  H  H19  1  0.07025000  0.05670000  0.27408000  1.0
  H  H20  1  0.43350000  0.87132000  0.41986000  1.0
  H  H21  1  0.06648000  0.37130000  0.08016000  1.0
  H  H22  1  0.56644000  0.12869000  0.58014000  1.0
  H  H23  1  0.93355000  0.62870000  0.91984000  1.0
  H  H24  1  0.23699000  0.84005000  0.35801000  1.0
  H  H25  1  0.26302000  0.34005000  0.14198000  1.0
  H  H26  1  0.76298000  0.15995000  0.64198000  1.0
  H  H27  1  0.73702000  0.65996000  0.85801000  1.0
  C  C28  1  0.24098000  0.02630000  0.48330000  1.0
  C  C29  1  0.25903000  0.52630000  0.01670000  1.0
  C  C30  1  0.75900000  0.97370000  0.51670000  1.0
  C  C31  1  0.74100000  0.47370000  0.98330000  1.0
  C  C32  1  0.29708000  0.86953000  0.44525000  1.0
  C  C33  1  0.20291000  0.36953000  0.05475000  1.0
  C  C34  1  0.70287000  0.13046000  0.55475000  1.0
  C  C35  1  0.79712000  0.63046000  0.94524000  1.0
  C  C36  1  0.26921000  0.73994000  0.53875000  1.0
  C  C37  1  0.23080000  0.23994000  0.96124000  1.0
  C  C38  1  0.73077000  0.26006000  0.46125000  1.0
  C  C39  1  0.76924000  0.76004000  0.03874000  1.0
  N  N40  1  0.15753000  0.11791000  0.40628000  1.0
  N  N41  1  0.34248000  0.61790000  0.09373000  1.0
  N  N42  1  0.84246000  0.88210000  0.59373000  1.0
  N  N43  1  0.65754000  0.38211000  0.90627000  1.0
  N  N44  1  0.13619000  0.25161000  0.46652000  1.0
  N  N45  1  0.36382000  0.75160000  0.03349000  1.0
  N  N46  1  0.86381000  0.74840000  0.53349000  1.0
  N  N47  1  0.63620000  0.24840000  0.96650000  1.0
  N  N48  1  0.20331000  0.24290000  0.57650000  1.0
  N  N49  1  0.29671000  0.74290000  0.92351000  1.0
  N  N50  1  0.79669000  0.75710000  0.42351000  1.0
  N  N51  1  0.70331000  0.25710000  0.07648000  1.0
  N  N52  1  0.27016000  0.10139000  0.59049000  1.0
  N  N53  1  0.22986000  0.60139000  0.90952000  1.0
  N  N54  1  0.72983000  0.89861000  0.40952000  1.0
  N  N55  1  0.77016000  0.39860000  0.09049000  1.0
  O  O56  1  0.24684000  0.76396000  0.65515000  1.0
  O  O57  1  0.25317000  0.26398000  0.84485000  1.0
  O  O58  1  0.75313000  0.23603000  0.34485000  1.0
  O  O59  1  0.74687000  0.73600000  0.15514000  1.0
  O  O60  1  0.95085000  0.50788000  0.67984000  1.0
  O  O61  1  0.54915000  0.00789000  0.82016000  1.0
  O  O62  1  0.04916000  0.49211000  0.32015000  1.0
  O  O63  1  0.45085000  0.99211000  0.17984000  1.0
  O  O64  1  0.27219000  0.60339000  0.49411000  1.0
  O  O65  1  0.22782000  0.10339000  0.00589000  1.0
  O  O66  1  0.72781000  0.39661000  0.50589000  1.0
  O  O67  1  0.77220000  0.89660000  0.99409000  1.0
  O  O68  1  0.51877000  0.49333000  0.69961000  1.0
  O  O69  1  0.98123000  0.99333000  0.80038000  1.0
  O  O70  1  0.48124000  0.50668000  0.30039000  1.0
  O  O71  1  0.01877000  0.00667000  0.19962000  1.0
