# generated using pymatgen
data_ZnH5C4N3O2
_symmetry_space_group_name_H-M   'P 1'
_cell_length_a   8.19533000
_cell_length_b   8.43677000
_cell_length_c   9.27456000
_cell_angle_alpha   90.00000000
_cell_angle_beta   90.00000000
_cell_angle_gamma   89.99990000
_symmetry_Int_Tables_number   1
_chemical_formula_structural   ZnH5C4N3O2
_chemical_formula_sum   'Zn4 H20 C16 N12 O8'
_cell_volume   641.26268745
_cell_formula_units_Z   4
loop_
 _symmetry_equiv_pos_site_id
 _symmetry_equiv_pos_as_xyz
  1  'x, y, z'
loop_
 _atom_site_type_symbol
 _atom_site_label
 _atom_site_symmetry_multiplicity
 _atom_site_fract_x
 _atom_site_fract_y
 _atom_site_fract_z
 _atom_site_occupancy
  Zn  Zn0  1  0.26878000  0.11238000  0.00000000  1.0
  Zn  Zn1  1  0.76878000  0.88762000  0.50000000  1.0
  Zn  Zn2  1  0.92583000  0.48431000  0.50000000  1.0
  Zn  Zn3  1  0.42583000  0.51569000  0.00000000  1.0
  H  H4  1  0.03802000  0.55327000  0.00000000  1.0
  H  H5  1  0.53802000  0.44673000  0.50000000  1.0
  H  H6  1  0.92759000  0.70332000  0.90494000  1.0
  H  H7  1  0.42759000  0.29668000  0.59506000  1.0
  H  H8  1  0.92759000  0.70332000  0.09506000  1.0
  H  H9  1  0.42759000  0.29668000  0.40494000  1.0
  H  H10  1  0.86916000  0.19250000  0.00000000  1.0
  H  H11  1  0.36916000  0.80750000  0.50000000  1.0
  H  H12  1  0.80595000  0.01823000  0.90561000  1.0
  H  H13  1  0.30595000  0.98177000  0.59439000  1.0
  H  H14  1  0.80595000  0.01823000  0.09439000  1.0
  H  H15  1  0.30595000  0.98177000  0.40561000  1.0
  H  H16  1  0.03211000  0.15011000  0.69623000  1.0
  H  H17  1  0.53211000  0.84989000  0.80377000  1.0
  H  H18  1  0.03211000  0.15011000  0.30377000  1.0
  H  H19  1  0.53211000  0.84989000  0.19623000  1.0
  H  H20  1  0.21716000  0.61270000  0.70923000  1.0
  H  H21  1  0.71716000  0.38730000  0.79077000  1.0
  H  H22  1  0.21716000  0.61270000  0.29077000  1.0
  H  H23  1  0.71716000  0.38730000  0.20923000  1.0
  C  C24  1  0.00291000  0.67818000  0.00000000  1.0
  C  C25  1  0.50291000  0.32183000  0.50000000  1.0
  C  C26  1  0.14927000  0.78746000  0.00000000  1.0
  C  C27  1  0.64927000  0.21254000  0.50000000  1.0
  C  C28  1  0.78306000  0.09338000  0.00000000  1.0
  C  C29  1  0.28306000  0.90662000  0.50000000  1.0
  C  C30  1  0.60910000  0.15145000  0.00000000  1.0
  C  C31  1  0.10910000  0.84855000  0.50000000  1.0
  C  C32  1  0.09975000  0.25500000  0.72850000  1.0
  C  C33  1  0.59975000  0.74500000  0.77150000  1.0
  C  C34  1  0.09975000  0.25500000  0.27150000  1.0
  C  C35  1  0.59975000  0.74500000  0.22850000  1.0
  C  C36  1  0.19498000  0.48931000  0.73432000  1.0
  C  C37  1  0.69498000  0.51069000  0.76568000  1.0
  C  C38  1  0.19498000  0.48931000  0.26568000  1.0
  C  C39  1  0.69498000  0.51069000  0.23432000  1.0
  N  N40  1  0.27210000  0.41044000  0.83790000  1.0
  N  N41  1  0.77210000  0.58956000  0.66210000  1.0
  N  N42  1  0.27210000  0.41044000  0.16210000  1.0
  N  N43  1  0.77210000  0.58956000  0.33790000  1.0
  N  N44  1  0.21096000  0.25880000  0.83449000  1.0
  N  N45  1  0.71096000  0.74120000  0.66551000  1.0
  N  N46  1  0.21096000  0.25880000  0.16551000  1.0
  N  N47  1  0.71096000  0.74120000  0.33449000  1.0
  N  N48  1  0.08593000  0.39754000  0.66338000  1.0
  N  N49  1  0.58593000  0.60246000  0.83662000  1.0
  N  N50  1  0.08593000  0.39754000  0.33662000  1.0
  N  N51  1  0.58593000  0.60246000  0.16338000  1.0
  O  O52  1  0.11335000  0.93645000  0.00000000  1.0
  O  O53  1  0.61335000  0.06355000  0.50000000  1.0
  O  O54  1  0.29407000  0.73679000  0.00000000  1.0
  O  O55  1  0.79407000  0.26321000  0.50000000  1.0
  O  O56  1  0.58179000  0.29813000  0.00000000  1.0
  O  O57  1  0.08179000  0.70187000  0.50000000  1.0
  O  O58  1  0.49771000  0.04305000  0.00000000  1.0
  O  O59  1  0.99771000  0.95695000  0.50000000  1.0
