# generated using pymatgen
data_ZnH14C22S2N4O5
_symmetry_space_group_name_H-M   'P 1'
_cell_length_a   9.14720000
_cell_length_b   9.90004000
_cell_length_c   12.02930000
_cell_angle_alpha   82.55880000
_cell_angle_beta   81.61120000
_cell_angle_gamma   72.61390000
_symmetry_Int_Tables_number   1
_chemical_formula_structural   ZnH14C22S2N4O5
_chemical_formula_sum   'Zn2 H28 C44 S4 N8 O10'
_cell_volume   1024.18607902
_cell_formula_units_Z   2
loop_
 _symmetry_equiv_pos_site_id
 _symmetry_equiv_pos_as_xyz
  1  'x, y, z'
loop_
 _atom_site_type_symbol
 _atom_site_label
 _atom_site_symmetry_multiplicity
 _atom_site_fract_x
 _atom_site_fract_y
 _atom_site_fract_z
 _atom_site_occupancy
  Zn  Zn0  1  0.49372000  0.18446000  0.40232000  1.0
  Zn  Zn1  1  0.50628000  0.81554000  0.59768000  1.0
  H  H2  1  0.59106000  0.34669000  0.61168000  1.0
  H  H3  1  0.40894000  0.65331000  0.38832000  1.0
  H  H4  1  0.48664000  0.43144000  0.96116000  1.0
  H  H5  1  0.51336000  0.56856000  0.03884000  1.0
  H  H6  1  0.57494000  0.00588000  0.87257000  1.0
  H  H7  1  0.42505000  0.99413000  0.12744000  1.0
  H  H8  1  0.32889000  0.42978000  0.57797000  1.0
  H  H9  1  0.67111000  0.57022000  0.42203000  1.0
  H  H10  1  0.15602000  0.11513000  0.48556000  1.0
  H  H11  1  0.84398000  0.88487000  0.51445000  1.0
  H  H12  1  0.93286000  0.28101000  0.63582000  1.0
  H  H13  1  0.06713000  0.71899000  0.36418000  1.0
  H  H14  1  0.80716000  0.57263000  0.66218000  1.0
  H  H15  1  0.19284000  0.42738000  0.33782000  1.0
  H  H16  1  0.74814000  0.73509000  0.82860000  1.0
  H  H17  1  0.25187000  0.26491000  0.17140000  1.0
  H  H18  1  0.23498000  0.60842000  0.99907000  1.0
  H  H19  1  0.76502000  0.39159000  0.00092000  1.0
  H  H20  1  0.18090000  0.77348000  0.16359000  1.0
  H  H21  1  0.81910000  0.22652000  0.83641000  1.0
  H  H22  1  0.64470000  0.97840000  0.20017000  1.0
  H  H23  1  0.35530000  0.02159000  0.79983000  1.0
  H  H24  1  0.08457000  0.01932000  0.23205000  1.0
  H  H25  1  0.91543000  0.98068000  0.76795000  1.0
  H  H26  1  0.86197000  0.18618000  0.38077000  1.0
  H  H27  1  0.13803000  0.81382000  0.61923000  1.0
  H  H28  1  0.51332000  0.23646000  0.09121000  1.0
  H  H29  1  0.48668000  0.76354000  0.90879000  1.0
  C  C30  1  0.60095000  0.06764000  0.64375000  1.0
  C  C31  1  0.39904000  0.93237000  0.35624000  1.0
  C  C32  1  0.58491000  0.16617000  0.73282000  1.0
  C  C33  1  0.41508000  0.83383000  0.26718000  1.0
  C  C34  1  0.57497000  0.30981000  0.70059000  1.0
  C  C35  1  0.42503000  0.69019000  0.29941000  1.0
  C  C36  1  0.53889000  0.40546000  0.78323000  1.0
  C  C37  1  0.46111000  0.59455000  0.21677000  1.0
  C  C38  1  0.51970000  0.56182000  0.75316000  1.0
  C  C39  1  0.48030000  0.43818000  0.24684000  1.0
  C  C40  1  0.51726000  0.35676000  0.89711000  1.0
  C  C41  1  0.48274000  0.64325000  0.10290000  1.0
  C  C42  1  0.53575000  0.21240000  0.93007000  1.0
  C  C43  1  0.46425000  0.78761000  0.06993000  1.0
  C  C44  1  0.56726000  0.11714000  0.84708000  1.0
  C  C45  1  0.43273000  0.88286000  0.15292000  1.0
  C  C46  1  0.25475000  0.36396000  0.57280000  1.0
  C  C47  1  0.74524000  0.63603000  0.42720000  1.0
  C  C48  1  0.15780000  0.20576000  0.52639000  1.0
  C  C49  1  0.84220000  0.79423000  0.47361000  1.0
  C  C50  1  0.04700000  0.28591000  0.60004000  1.0
  C  C51  1  0.95299000  0.71409000  0.39997000  1.0
  C  C52  1  0.04049000  0.48708000  0.70813000  1.0
  C  C53  1  0.95950000  0.51292000  0.29187000  1.0
  C  C54  1  0.89055000  0.57195000  0.71815000  1.0
  C  C55  1  0.10945000  0.42805000  0.28185000  1.0
  C  C56  1  0.85964000  0.65904000  0.80816000  1.0
  C  C57  1  0.14037000  0.34096000  0.19184000  1.0
  C  C58  1  0.98590000  0.63943000  0.86612000  1.0
  C  C59  1  0.01411000  0.36057000  0.13388000  1.0
  C  C60  1  0.00004000  0.71110000  0.95930000  1.0
  C  C61  1  0.99997000  0.28890000  0.04070000  1.0
  C  C62  1  0.12582000  0.68828000  0.01827000  1.0
  C  C63  1  0.87419000  0.31172000  0.98173000  1.0
  C  C64  1  0.09774000  0.77748000  0.10648000  1.0
  C  C65  1  0.90227000  0.22251000  0.89352000  1.0
  C  C66  1  0.95099000  0.86917000  0.11298000  1.0
  C  C67  1  0.04902000  0.13083000  0.88702000  1.0
  C  C68  1  0.73166000  0.01341000  0.23062000  1.0
  C  C69  1  0.26834000  0.98658000  0.76938000  1.0
  C  C70  1  0.96140000  0.03540000  0.24943000  1.0
  C  C71  1  0.03860000  0.96459000  0.75057000  1.0
  C  C72  1  0.84990000  0.11769000  0.32143000  1.0
  C  C73  1  0.15010000  0.88231000  0.67857000  1.0
  S  S74  1  0.14396000  0.51034000  0.80986000  1.0
  S  S75  1  0.85604000  0.48966000  0.19014000  1.0
  S  S76  1  0.84597000  0.84762000  0.01152000  1.0
  S  S77  1  0.15403000  0.15237000  0.98848000  1.0
  N  N78  1  0.28641000  0.25493000  0.51054000  1.0
  N  N79  1  0.71358000  0.74506000  0.48946000  1.0
  N  N80  1  0.11012000  0.38605000  0.62972000  1.0
  N  N81  1  0.88987000  0.61395000  0.37028000  1.0
  N  N82  1  0.88455000  0.96953000  0.19164000  1.0
  N  N83  1  0.11545000  0.03046000  0.80836000  1.0
  N  N84  1  0.70784000  0.10280000  0.30872000  1.0
  N  N85  1  0.29216000  0.89719000  0.69128000  1.0
  O  O86  1  0.61775000  0.11586000  0.54114000  1.0
  O  O87  1  0.38225000  0.88415000  0.45886000  1.0
  O  O88  1  0.59392000  0.94157000  0.67781000  1.0
  O  O89  1  0.40608000  0.05843000  0.32219000  1.0
  O  O90  1  0.52410000  0.60547000  0.64747000  1.0
  O  O91  1  0.47590000  0.39453000  0.35253000  1.0
  O  O92  1  0.50237000  0.63813000  0.83272000  1.0
  O  O93  1  0.49763000  0.36187000  0.16727000  1.0
  O  O94  1  0.52337000  0.16092000  0.03992000  1.0
  O  O95  1  0.47662000  0.83909000  0.96008000  1.0
