# generated using pymatgen
data_CoH4C12(NO2)4
_symmetry_space_group_name_H-M   'P 1'
_cell_length_a   7.90795000
_cell_length_b   7.91294000
_cell_length_c   12.77652007
_cell_angle_alpha   72.00937510
_cell_angle_beta   71.99681787
_cell_angle_gamma   61.65900000
_symmetry_Int_Tables_number   1
_chemical_formula_structural   CoH4C12(NO2)4
_chemical_formula_sum   'Co2 H8 C24 N8 O16'
_cell_volume   656.53671657
_cell_formula_units_Z   2
loop_
 _symmetry_equiv_pos_site_id
 _symmetry_equiv_pos_as_xyz
  1  'x, y, z'
loop_
 _atom_site_type_symbol
 _atom_site_label
 _atom_site_symmetry_multiplicity
 _atom_site_fract_x
 _atom_site_fract_y
 _atom_site_fract_z
 _atom_site_occupancy
  Co  Co0  1  0.49836000  0.50136000  0.75001000  1.0
  Co  Co1  1  0.50160000  0.49868000  0.24999000  1.0
  H  H2  1  0.07773000  0.47476000  0.86144000  1.0
  H  H3  1  0.52585000  0.92198000  0.63844000  1.0
  H  H4  1  0.92225000  0.52526000  0.13856000  1.0
  H  H5  1  0.47415000  0.07803000  0.36157000  1.0
  H  H6  1  0.88027000  0.54692000  0.71869000  1.0
  H  H7  1  0.45376000  0.11911000  0.78133000  1.0
  H  H8  1  0.11971000  0.45310000  0.28131000  1.0
  H  H9  1  0.54625000  0.88088000  0.21869000  1.0
  C  C10  1  0.96045000  0.42686000  0.88437000  1.0
  C  C11  1  0.57367000  0.03922000  0.61558000  1.0
  C  C12  1  0.03954000  0.57314000  0.11563000  1.0
  C  C13  1  0.42633000  0.96077000  0.38442000  1.0
  C  C14  1  0.85201000  0.46782000  0.80362000  1.0
  C  C15  1  0.53280000  0.14752000  0.69637000  1.0
  C  C16  1  0.14799000  0.53218000  0.19638000  1.0
  C  C17  1  0.46719000  0.85247000  0.30364000  1.0
  C  C18  1  0.66826000  0.31505000  0.93863000  1.0
  C  C19  1  0.68541000  0.33145000  0.56139000  1.0
  C  C20  1  0.33174000  0.68494000  0.06138000  1.0
  C  C21  1  0.31458000  0.66856000  0.43861000  1.0
  C  C22  1  0.78031000  0.27527000  0.01642000  1.0
  C  C23  1  0.72517000  0.21950000  0.48359000  1.0
  C  C24  1  0.21971000  0.72472000  0.98358000  1.0
  C  C25  1  0.27482000  0.78050000  0.51642000  1.0
  C  C26  1  0.74191000  0.16090000  0.13370000  1.0
  C  C27  1  0.83941000  0.25810000  0.36622000  1.0
  C  C28  1  0.25808000  0.83913000  0.86628000  1.0
  C  C29  1  0.16059000  0.74189000  0.63380000  1.0
  C  C30  1  0.49410000  0.27288000  0.96242000  1.0
  C  C31  1  0.72734000  0.50566000  0.53763000  1.0
  C  C32  1  0.50586000  0.72711000  0.03758000  1.0
  C  C33  1  0.27268000  0.49437000  0.46236000  1.0
  N  N34  1  0.70655000  0.41171000  0.83342000  1.0
  N  N35  1  0.58880000  0.29297000  0.66661000  1.0
  N  N36  1  0.29344000  0.58827000  0.16658000  1.0
  N  N37  1  0.41126667  0.70703000  0.33333333  1.0
  N  N38  1  0.92438000  0.33358000  0.98903000  1.0
  N  N39  1  0.66686000  0.07556000  0.51090000  1.0
  N  N40  1  0.07562000  0.66641000  0.01097000  1.0
  N  N41  1  0.33313000  0.92446000  0.48910000  1.0
  O  O42  1  0.40393000  0.35051000  0.87571000  1.0
  O  O43  1  0.64921000  0.59597000  0.62432000  1.0
  O  O44  1  0.59609000  0.64950000  0.12429000  1.0
  O  O45  1  0.35079000  0.40402000  0.37568000  1.0
  O  O46  1  0.43587000  0.18204000  0.05103000  1.0
  O  O47  1  0.81849000  0.56383000  0.44911000  1.0
  O  O48  1  0.56412000  0.81795000  0.94898000  1.0
  O  O49  1  0.18154000  0.43617000  0.55087000  1.0
  O  O50  1  0.60065000  0.25370000  0.20888000  1.0
  O  O51  1  0.74607000  0.40038000  0.29161000  1.0
  O  O52  1  0.39934000  0.74629000  0.79111000  1.0
  O  O53  1  0.25399000  0.59959000  0.70838000  1.0
  O  O54  1  0.83882000  0.98265000  0.15210000  1.0
  O  O55  1  0.01758000  0.16068000  0.34738000  1.0
  O  O56  1  0.16117000  0.01735000  0.84791000  1.0
  O  O57  1  0.98243000  0.83931000  0.65262000  1.0
