# generated using pymatgen
data_GdH22(C3O)11
_symmetry_space_group_name_H-M   'P 1'
_cell_length_a   10.31960000
_cell_length_b   11.38290000
_cell_length_c   13.85540000
_cell_angle_alpha   102.56100000
_cell_angle_beta   111.21600000
_cell_angle_gamma   99.90110000
_symmetry_Int_Tables_number   1
_chemical_formula_structural   GdH22(C3O)11
_chemical_formula_sum   'Gd2 H44 C66 O22'
_cell_volume   1423.62953686
_cell_formula_units_Z   2
loop_
 _symmetry_equiv_pos_site_id
 _symmetry_equiv_pos_as_xyz
  1  'x, y, z'
loop_
 _atom_site_type_symbol
 _atom_site_label
 _atom_site_symmetry_multiplicity
 _atom_site_fract_x
 _atom_site_fract_y
 _atom_site_fract_z
 _atom_site_occupancy
  Gd  Gd0  1  0.61775000  0.56498000  0.66202000  1.0
  Gd  Gd1  1  0.38225000  0.43502000  0.33798000  1.0
  H  H2  1  0.19422000  0.14316000  0.98239000  1.0
  H  H3  1  0.80577000  0.85685000  0.01761000  1.0
  H  H4  1  0.26761000  0.93969000  0.94306000  1.0
  H  H5  1  0.73239000  0.06032000  0.05694000  1.0
  H  H6  1  0.46811000  0.87159000  0.90769000  1.0
  H  H7  1  0.53188000  0.12841000  0.09231000  1.0
  H  H8  1  0.44795000  0.80343000  0.71923000  1.0
  H  H9  1  0.55204000  0.19657000  0.28077000  1.0
  H  H10  1  0.22654000  0.80228000  0.56394000  1.0
  H  H11  1  0.77345000  0.19772000  0.43605000  1.0
  H  H12  1  0.03090000  0.87716000  0.60147000  1.0
  H  H13  1  0.96909000  0.12285000  0.39853000  1.0
  H  H14  1  0.69613000  0.94589000  0.63510000  1.0
  H  H15  1  0.30387000  0.05411000  0.36490000  1.0
  H  H16  1  0.98605000  0.67625000  0.17462000  1.0
  H  H17  1  0.01396000  0.32374000  0.82538000  1.0
  H  H18  1  0.93268000  0.62225000  0.97677000  1.0
  H  H19  1  0.06733000  0.37776000  0.02324000  1.0
  H  H20  1  0.12582000  0.69780000  0.91925000  1.0
  H  H21  1  0.87419000  0.30221000  0.08075000  1.0
  H  H22  1  0.36935000  0.82567000  0.05713000  1.0
  H  H23  1  0.63065000  0.17434000  0.94287000  1.0
  H  H24  1  0.42076000  0.88121000  0.25347000  1.0
  H  H25  1  0.57924000  0.11879000  0.74653000  1.0
  H  H26  1  0.86439000  0.46218000  0.60966000  1.0
  H  H27  1  0.13561000  0.53782000  0.39034000  1.0
  H  H28  1  0.86702000  0.73341000  0.44838000  1.0
  H  H29  1  0.13299000  0.26659000  0.55163000  1.0
  H  H30  1  0.75737000  0.90753000  0.41987000  1.0
  H  H31  1  0.24264000  0.09247000  0.58013000  1.0
  H  H32  1  0.62724000  0.91541000  0.23248000  1.0
  H  H33  1  0.37277000  0.08459000  0.76752000  1.0
  H  H34  1  0.59992000  0.74585000  0.07277000  1.0
  H  H35  1  0.40009000  0.25414000  0.92723000  1.0
  H  H36  1  0.71172000  0.57121000  0.10188000  1.0
  H  H37  1  0.28829000  0.42879000  0.89812000  1.0
  H  H38  1  0.93803000  0.54347000  0.77340000  1.0
  H  H39  1  0.06197000  0.45653000  0.22660000  1.0
  H  H40  1  0.83181000  0.44199000  0.78941000  1.0
  H  H41  1  0.16819000  0.55801000  0.21059000  1.0
  H  H42  1  0.56044000  0.36480000  0.75536000  1.0
  H  H43  1  0.43956000  0.63520000  0.24464000  1.0
  H  H44  1  0.49868000  0.46691000  0.80211000  1.0
  H  H45  1  0.50132000  0.53309000  0.19789000  1.0
  C  C46  1  0.79850000  0.78530000  0.82026000  1.0
  C  C47  1  0.20150000  0.21470000  0.17974000  1.0
  C  C48  1  0.90109000  0.89869000  0.91112000  1.0
  C  C49  1  0.09891000  0.10131000  0.08888000  1.0
  C  C50  1  0.10906000  0.07830000  0.98886000  1.0
  C  C51  1  0.89093000  0.92171000  0.01114000  1.0
  C  C52  1  0.01111000  0.97784000  0.89925000  1.0
  C  C53  1  0.98889000  0.02217000  0.10074000  1.0
  C  C54  1  0.02034000  0.96218000  0.79113000  1.0
  C  C55  1  0.97966000  0.03782000  0.20887000  1.0
  C  C56  1  0.13670000  0.91230000  0.77375000  1.0
  C  C57  1  0.86329000  0.08770000  0.22624000  1.0
  C  C58  1  0.25938000  0.90979000  0.86033000  1.0
  C  C59  1  0.74062000  0.09022000  0.13967000  1.0
  C  C60  1  0.37146000  0.87184000  0.84054000  1.0
  C  C61  1  0.62854000  0.12816000  0.15946000  1.0
  C  C62  1  0.36054000  0.83342000  0.73432000  1.0
  C  C63  1  0.63945000  0.16658000  0.26568000  1.0
  C  C64  1  0.23662000  0.83262000  0.64728000  1.0
  C  C65  1  0.76337000  0.16738000  0.35271000  1.0
  C  C66  1  0.12627000  0.87286000  0.66721000  1.0
  C  C67  1  0.87372000  0.12714000  0.33279000  1.0
  C  C68  1  0.48301000  0.74103000  0.49636000  1.0
  C  C69  1  0.51699000  0.25898000  0.50365000  1.0
  C  C70  1  0.48746000  0.87455000  0.49895000  1.0
  C  C71  1  0.51254000  0.12545000  0.50105000  1.0
  C  C72  1  0.60919000  0.96967000  0.57657000  1.0
  C  C73  1  0.39081000  0.03032000  0.42343000  1.0
  C  C74  1  0.37686000  0.90565000  0.42246000  1.0
  C  C75  1  0.62314000  0.09435000  0.57754000  1.0
  C  C76  1  0.23839000  0.80894000  0.34302000  1.0
  C  C77  1  0.76161000  0.19106000  0.65698000  1.0
  C  C78  1  0.20692000  0.78080000  0.22603000  1.0
  C  C79  1  0.79309000  0.21920000  0.77397000  1.0
  C  C80  1  0.06914000  0.70749000  0.14767000  1.0
  C  C81  1  0.93086000  0.29252000  0.85233000  1.0
  C  C82  1  0.03991000  0.67778000  0.03772000  1.0
  C  C83  1  0.96009000  0.32223000  0.96228000  1.0
  C  C84  1  0.14796000  0.72070000  0.00509000  1.0
  C  C85  1  0.85205000  0.27931000  0.99491000  1.0
  C  C86  1  0.28504000  0.79313000  0.08262000  1.0
  C  C87  1  0.71497000  0.20687000  0.91738000  1.0
  C  C88  1  0.31443000  0.82393000  0.19265000  1.0
  C  C89  1  0.68557000  0.17607000  0.80735000  1.0
  C  C90  1  0.69805000  0.49398000  0.42766000  1.0
  C  C91  1  0.30195000  0.50602000  0.57234000  1.0
  C  C92  1  0.85488000  0.50216000  0.46380000  1.0
  C  C93  1  0.14512000  0.49784000  0.53620000  1.0
  C  C94  1  0.92558000  0.48228000  0.56304000  1.0
  C  C95  1  0.07442000  0.51772000  0.43696000  1.0
  C  C96  1  0.93031000  0.52016000  0.39921000  1.0
  C  C97  1  0.06969000  0.47983000  0.60079000  1.0
  C  C98  1  0.86782000  0.54090000  0.29087000  1.0
  C  C99  1  0.13218000  0.45910000  0.70913000  1.0
  C  C100  1  0.79442000  0.64054000  0.27660000  1.0
  C  C101  1  0.20559000  0.35946000  0.72340000  1.0
  C  C102  1  0.80673000  0.73517000  0.36616000  1.0
  C  C103  1  0.19327000  0.26483000  0.63384000  1.0
  C  C104  1  0.74561000  0.83314000  0.35020000  1.0
  C  C105  1  0.25439000  0.16686000  0.64980000  1.0
  C  C106  1  0.67184000  0.83710000  0.24472000  1.0
  C  C107  1  0.32816000  0.16289000  0.75528000  1.0
  C  C108  1  0.65803000  0.74268000  0.15501000  1.0
  C  C109  1  0.34197000  0.25731000  0.84499000  1.0
  C  C110  1  0.71948000  0.64488000  0.17058000  1.0
  C  C111  1  0.28052000  0.35512000  0.82942000  1.0
  O  O112  1  0.68575000  0.72770000  0.82735000  1.0
  O  O113  1  0.31425000  0.27230000  0.17265000  1.0
  O  O114  1  0.82757000  0.74594000  0.73887000  1.0
  O  O115  1  0.17243000  0.25406000  0.26113000  1.0
  O  O116  1  0.93777000  0.99878000  0.72197000  1.0
  O  O117  1  0.06223000  0.00122000  0.27802000  1.0
  O  O118  1  0.42636000  0.65866000  0.40284000  1.0
  O  O119  1  0.57364000  0.34134000  0.59716000  1.0
  O  O120  1  0.53831000  0.72084000  0.58685000  1.0
  O  O121  1  0.46169000  0.27916000  0.41315000  1.0
  O  O122  1  0.15474000  0.75727000  0.37592000  1.0
  O  O123  1  0.84527000  0.24273000  0.62408000  1.0
  O  O124  1  0.61445000  0.44950000  0.32747000  1.0
  O  O125  1  0.38555000  0.55050000  0.67253000  1.0
  O  O126  1  0.64993000  0.52857000  0.49941000  1.0
  O  O127  1  0.35007000  0.47143000  0.50059000  1.0
  O  O128  1  0.88824000  0.47849000  0.21482000  1.0
  O  O129  1  0.11177000  0.52151000  0.78518000  1.0
  O  O130  1  0.83937000  0.51978000  0.77016000  1.0
  O  O131  1  0.16063000  0.48022000  0.22984000  1.0
  O  O132  1  0.58653000  0.45363000  0.79555000  1.0
  O  O133  1  0.41347000  0.54637000  0.20445000  1.0
