# generated using pymatgen
data_Na2H13C15NO5
_symmetry_space_group_name_H-M   'P 1'
_cell_length_a   8.45468000
_cell_length_b   18.26030000
_cell_length_c   18.25791800
_cell_angle_alpha   60.00105398
_cell_angle_beta   89.99979999
_cell_angle_gamma   90.00010000
_symmetry_Int_Tables_number   1
_chemical_formula_structural   Na2H13C15NO5
_chemical_formula_sum   'Na12 H78 C90 N6 O30'
_cell_volume   2441.13377360
_cell_formula_units_Z   6
loop_
 _symmetry_equiv_pos_site_id
 _symmetry_equiv_pos_as_xyz
  1  'x, y, z'
loop_
 _atom_site_type_symbol
 _atom_site_label
 _atom_site_symmetry_multiplicity
 _atom_site_fract_x
 _atom_site_fract_y
 _atom_site_fract_z
 _atom_site_occupancy
  Na  Na0  1  0.82519000  0.63712000  0.63930000  1.0
  Na  Na1  1  0.15879000  0.63929000  0.72363000  1.0
  Na  Na2  1  0.49206000  0.72378000  0.63693000  1.0
  Na  Na3  1  0.32519000  0.36287000  0.36071000  1.0
  Na  Na4  1  0.65879000  0.36072000  0.27637000  1.0
  Na  Na5  1  0.99206000  0.27623000  0.36307000  1.0
  Na  Na6  1  0.82373000  0.74380000  0.74839000  1.0
  Na  Na7  1  0.15678000  0.74843000  0.50781000  1.0
  Na  Na8  1  0.49015000  0.50802000  0.74358000  1.0
  Na  Na9  1  0.32372000  0.25620000  0.25161000  1.0
  Na  Na10  1  0.65677000  0.25157000  0.49219000  1.0
  Na  Na11  1  0.99015000  0.49198000  0.25642000  1.0
  H  H12  1  0.89459000  0.93643000  0.57456000  1.0
  H  H13  1  0.22812000  0.57427000  0.48911000  1.0
  H  H14  1  0.56172000  0.48892000  0.93635000  1.0
  H  H15  1  0.39459000  0.06356000  0.42544000  1.0
  H  H16  1  0.72810000  0.42572000  0.51090000  1.0
  H  H17  1  0.06169000  0.51108000  0.06365000  1.0
  H  H18  1  0.54674000  0.13440000  0.24851000  1.0
  H  H19  1  0.87939000  0.24850000  0.61738000  1.0
  H  H20  1  0.21362000  0.61702000  0.13422000  1.0
  H  H21  1  0.04675000  0.86561000  0.75149000  1.0
  H  H22  1  0.37940000  0.75150000  0.38262000  1.0
  H  H23  1  0.71362000  0.38298000  0.86578000  1.0
  H  H24  1  0.66080000  0.82612000  0.41215000  1.0
  H  H25  1  0.99437000  0.41220000  0.76191000  1.0
  H  H26  1  0.32831000  0.76171000  0.82598000  1.0
  H  H27  1  0.16079000  0.17389000  0.58784000  1.0
  H  H28  1  0.49439000  0.58779000  0.23809000  1.0
  H  H29  1  0.82831000  0.23829000  0.17401000  1.0
  H  H30  1  0.45457000  0.04141000  0.19625000  1.0
  H  H31  1  0.78702000  0.19654000  0.76254000  1.0
  H  H32  1  0.12151000  0.76226000  0.04116000  1.0
  H  H33  1  0.95457000  0.95859000  0.80375000  1.0
  H  H34  1  0.28704000  0.80346000  0.23746000  1.0
  H  H35  1  0.62149000  0.23774000  0.95883000  1.0
  H  H36  1  0.50870000  0.88521000  0.27919000  1.0
  H  H37  1  0.84181000  0.27938000  0.83581000  1.0
  H  H38  1  0.17597000  0.83556000  0.88500000  1.0
  H  H39  1  0.00869000  0.11479000  0.72080000  1.0
  H  H40  1  0.34184000  0.72061000  0.16420000  1.0
  H  H41  1  0.67595000  0.16443000  0.11500000  1.0
  H  H42  1  0.84659000  0.09109000  0.49200000  1.0
  H  H43  1  0.18010000  0.49155000  0.41719000  1.0
  H  H44  1  0.51349000  0.41679000  0.09101000  1.0
  H  H45  1  0.34658000  0.90891000  0.50800000  1.0
  H  H46  1  0.68008000  0.50845000  0.58281000  1.0
  H  H47  1  0.01348000  0.58320000  0.90899000  1.0
  H  H48  1  0.80214000  0.64122000  0.94645000  1.0
  H  H49  1  0.13547000  0.94647000  0.41247000  1.0
  H  H50  1  0.46889000  0.41257000  0.64095000  1.0
  H  H51  1  0.30214000  0.35878000  0.05355000  1.0
  H  H52  1  0.63547000  0.05353000  0.58753000  1.0
  H  H53  1  0.96891000  0.58743000  0.35904000  1.0
  H  H54  1  0.60598000  0.63197000  0.10598000  1.0
  H  H55  1  0.93827000  0.10541000  0.26220000  1.0
  H  H56  1  0.27326000  0.26196000  0.63216000  1.0
  H  H57  1  0.10599000  0.36803000  0.89402000  1.0
  H  H58  1  0.43828000  0.89459000  0.73780000  1.0
  H  H59  1  0.77327000  0.73804000  0.36784000  1.0
  H  H60  1  0.80819000  0.63696000  0.13135000  1.0
  H  H61  1  0.14036000  0.13142000  0.23187000  1.0
  H  H62  1  0.47548000  0.23173000  0.63693000  1.0
  H  H63  1  0.30819000  0.36304000  0.86866000  1.0
  H  H64  1  0.64037000  0.86858000  0.76813000  1.0
  H  H65  1  0.97549000  0.76827000  0.36307000  1.0
  H  H66  1  0.75342000  0.57963000  0.07916000  1.0
  H  H67  1  0.08553000  0.07902000  0.34139000  1.0
  H  H68  1  0.42040000  0.34123000  0.57954000  1.0
  H  H69  1  0.25341000  0.42037000  0.92084000  1.0
  H  H70  1  0.58553000  0.92098000  0.65861000  1.0
  H  H71  1  0.92042000  0.65877000  0.42046000  1.0
  H  H72  1  0.62668000  0.78931000  0.03600000  1.0
  H  H73  1  0.96081000  0.03570000  0.17473000  1.0
  H  H74  1  0.29489000  0.17473000  0.78952000  1.0
  H  H75  1  0.12668000  0.21069000  0.96401000  1.0
  H  H76  1  0.46082000  0.96431000  0.82527000  1.0
  H  H77  1  0.79489000  0.82527000  0.21049000  1.0
  H  H78  1  0.70516000  0.84036000  0.93040000  1.0
  H  H79  1  0.03974000  0.93018000  0.22938000  1.0
  H  H80  1  0.37360000  0.22946000  0.84034000  1.0
  H  H81  1  0.20517000  0.15963000  0.06961000  1.0
  H  H82  1  0.53975000  0.06982000  0.77062000  1.0
  H  H83  1  0.87360000  0.77055000  0.15965000  1.0
  H  H84  1  0.83371000  0.81164000  0.01826000  1.0
  H  H85  1  0.16805000  0.01820000  0.17037000  1.0
  H  H86  1  0.50210000  0.17044000  0.81141000  1.0
  H  H87  1  0.33371000  0.18837000  0.98174000  1.0
  H  H88  1  0.66806000  0.98180000  0.82963000  1.0
  H  H89  1  0.00210000  0.82957000  0.18859000  1.0
  C  C90  1  0.80558000  0.81694000  0.53905000  1.0
  C  C91  1  0.13876000  0.53910000  0.64399000  1.0
  C  C92  1  0.47261000  0.64394000  0.81677000  1.0
  C  C93  1  0.30558000  0.18306000  0.46095000  1.0
  C  C94  1  0.63877000  0.46089000  0.35602000  1.0
  C  C95  1  0.97260000  0.35606000  0.18323000  1.0
  C  C96  1  0.77653000  0.91077000  0.48580000  1.0
  C  C97  1  0.10977000  0.48571000  0.60352000  1.0
  C  C98  1  0.44374000  0.60334000  0.91065000  1.0
  C  C99  1  0.27653000  0.08923000  0.51420000  1.0
  C  C100  1  0.60977000  0.51429000  0.39648000  1.0
  C  C101  1  0.94372000  0.39665000  0.08936000  1.0
  C  C102  1  0.65850000  0.03543000  0.36131000  1.0
  C  C103  1  0.99167000  0.36116000  0.60354000  1.0
  C  C104  1  0.32549000  0.60317000  0.03528000  1.0
  C  C105  1  0.15850000  0.96456000  0.63869000  1.0
  C  C106  1  0.49167000  0.63883000  0.39647000  1.0
  C  C107  1  0.82548000  0.39682000  0.96472000  1.0
  C  C108  1  0.69211000  0.94589000  0.40768000  1.0
  C  C109  1  0.02535000  0.40763000  0.64662000  1.0
  C  C110  1  0.35938000  0.64636000  0.94575000  1.0
  C  C111  1  0.19213000  0.05411000  0.59232000  1.0
  C  C112  1  0.52535000  0.59237000  0.35338000  1.0
  C  C113  1  0.85935000  0.35363000  0.05425000  1.0
  C  C114  1  0.83055000  0.96317000  0.51485000  1.0
  C  C115  1  0.16389000  0.51466000  0.52211000  1.0
  C  C116  1  0.49758000  0.52186000  0.96306000  1.0
  C  C117  1  0.33055000  0.03684000  0.48514000  1.0
  C  C118  1  0.66388000  0.48534000  0.47789000  1.0
  C  C119  1  0.99757000  0.47813000  0.03695000  1.0
  C  C120  1  0.57244000  0.06721000  0.28429000  1.0
  C  C121  1  0.90526000  0.28429000  0.64877000  1.0
  C  C122  1  0.23940000  0.64842000  0.06703000  1.0
  C  C123  1  0.07243000  0.93279000  0.71571000  1.0
  C  C124  1  0.40528000  0.71572000  0.35123000  1.0
  C  C125  1  0.73940000  0.35157000  0.93297000  1.0
  C  C126  1  0.63624000  0.89361000  0.37603000  1.0
  C  C127  1  0.96951000  0.37611000  0.73053000  1.0
  C  C128  1  0.30356000  0.73030000  0.89347000  1.0
  C  C129  1  0.13625000  0.10640000  0.62396000  1.0
  C  C130  1  0.46953000  0.62390000  0.26946000  1.0
  C  C131  1  0.80354000  0.26970000  0.10652000  1.0
  C  C132  1  0.52121000  0.01443000  0.25534000  1.0
  C  C133  1  0.85395000  0.25549000  0.73046000  1.0
  C  C134  1  0.18823000  0.73015000  0.01423000  1.0
  C  C135  1  0.02120000  0.98559000  0.74465000  1.0
  C  C136  1  0.35397000  0.74451000  0.26954000  1.0
  C  C137  1  0.68822000  0.26984000  0.98577000  1.0
  C  C138  1  0.55237000  0.92683000  0.30147000  1.0
  C  C139  1  0.88542000  0.30162000  0.77191000  1.0
  C  C140  1  0.21956000  0.77165000  0.92663000  1.0
  C  C141  1  0.05237000  0.07318000  0.69852000  1.0
  C  C142  1  0.38544000  0.69838000  0.22810000  1.0
  C  C143  1  0.71955000  0.22834000  0.07336000  1.0
  C  C144  1  0.80191000  0.05055000  0.46864000  1.0
  C  C145  1  0.13521000  0.46834000  0.48104000  1.0
  C  C146  1  0.46880000  0.48069000  0.05045000  1.0
  C  C147  1  0.30190000  0.94944000  0.53136000  1.0
  C  C148  1  0.63521000  0.53166000  0.51896000  1.0
  C  C149  1  0.96878000  0.51930000  0.94956000  1.0
  C  C150  1  0.71379000  0.08761000  0.39451000  1.0
  C  C151  1  0.04703000  0.39424000  0.51817000  1.0
  C  C152  1  0.38066000  0.51778000  0.08749000  1.0
  C  C153  1  0.21379000  0.91240000  0.60548000  1.0
  C  C154  1  0.54704000  0.60576000  0.48183000  1.0
  C  C155  1  0.88064000  0.48222000  0.91251000  1.0
  C  C156  1  0.67657000  0.18063000  0.35635000  1.0
  C  C157  1  0.00978000  0.35606000  0.46333000  1.0
  C  C158  1  0.34315000  0.46296000  0.18050000  1.0
  C  C159  1  0.17656000  0.81938000  0.64365000  1.0
  C  C160  1  0.50977000  0.64393000  0.53667000  1.0
  C  C161  1  0.84316000  0.53704000  0.81951000  1.0
  C  C162  1  0.79451000  0.70706000  0.93380000  1.0
  C  C163  1  0.12828000  0.93383000  0.35926000  1.0
  C  C164  1  0.46162000  0.35939000  0.70682000  1.0
  C  C165  1  0.29451000  0.29295000  0.06619000  1.0
  C  C166  1  0.62828000  0.06618000  0.64073000  1.0
  C  C167  1  0.96164000  0.64061000  0.29318000  1.0
  C  C168  1  0.72852000  0.63582000  0.08434000  1.0
  C  C169  1  0.06101000  0.08416000  0.27999000  1.0
  C  C170  1  0.39583000  0.27987000  0.63581000  1.0
  C  C171  1  0.22852000  0.36418000  0.91566000  1.0
  C  C172  1  0.56102000  0.91584000  0.72001000  1.0
  C  C173  1  0.89584000  0.72013000  0.36419000  1.0
  C  C174  1  0.72765000  0.79286000  0.99650000  1.0
  C  C175  1  0.06182000  0.99632000  0.21077000  1.0
  C  C176  1  0.39584000  0.21081000  0.79284000  1.0
  C  C177  1  0.22766000  0.20714000  0.00351000  1.0
  C  C178  1  0.56183000  0.00368000  0.78923000  1.0
  C  C179  1  0.89585000  0.78919000  0.20716000  1.0
  N  N180  1  0.74995000  0.71145000  0.00218000  1.0
  N  N181  1  0.08347000  0.00210000  0.28649000  1.0
  N  N182  1  0.41749000  0.28652000  0.71134000  1.0
  N  N183  1  0.24995000  0.28856000  0.99781000  1.0
  N  N184  1  0.58347000  0.99790000  0.71351000  1.0
  N  N185  1  0.91751000  0.71348000  0.28866000  1.0
  O  O186  1  0.73964000  0.77991000  0.61193000  1.0
  O  O187  1  0.07262000  0.61193000  0.60804000  1.0
  O  O188  1  0.40622000  0.60817000  0.77980000  1.0
  O  O189  1  0.23964000  0.22009000  0.38807000  1.0
  O  O190  1  0.57262000  0.38808000  0.39196000  1.0
  O  O191  1  0.90622000  0.39183000  0.22020000  1.0
  O  O192  1  0.89072000  0.77997000  0.51072000  1.0
  O  O193  1  0.22394000  0.51092000  0.70927000  1.0
  O  O194  1  0.55784000  0.70919000  0.77976000  1.0
  O  O195  1  0.39072000  0.22004000  0.48928000  1.0
  O  O196  1  0.72394000  0.48908000  0.29074000  1.0
  O  O197  1  0.05782000  0.29080000  0.22025000  1.0
  O  O198  1  0.74742000  0.22038000  0.38833000  1.0
  O  O199  1  0.08059000  0.38803000  0.39157000  1.0
  O  O200  1  0.41435000  0.39135000  0.22043000  1.0
  O  O201  1  0.24742000  0.77962000  0.61167000  1.0
  O  O202  1  0.58060000  0.61198000  0.60843000  1.0
  O  O203  1  0.91435000  0.60866000  0.77957000  1.0
  O  O204  1  0.57802000  0.21667000  0.29654000  1.0
  O  O205  1  0.91104000  0.29635000  0.48709000  1.0
  O  O206  1  0.24391000  0.48661000  0.21632000  1.0
  O  O207  1  0.07803000  0.78334000  0.70346000  1.0
  O  O208  1  0.41105000  0.70366000  0.51291000  1.0
  O  O209  1  0.74391000  0.51339000  0.78368000  1.0
  O  O210  1  0.82406000  0.76914000  0.86293000  1.0
  O  O211  1  0.15848000  0.86303000  0.36804000  1.0
  O  O212  1  0.49118000  0.36831000  0.76883000  1.0
  O  O213  1  0.32406000  0.23087000  0.13707000  1.0
  O  O214  1  0.65848000  0.13698000  0.63195000  1.0
  O  O215  1  0.99120000  0.63169000  0.23117000  1.0
