# generated using pymatgen
data_Zr6H32C57(NO21)2
_symmetry_space_group_name_H-M   'P 1'
_cell_length_a   14.73771632
_cell_length_b   14.75304888
_cell_length_c   14.76040000
_cell_angle_alpha   60.19455687
_cell_angle_beta   60.25013923
_cell_angle_gamma   60.19588083
_symmetry_Int_Tables_number   1
_chemical_formula_structural   Zr6H32C57(NO21)2
_chemical_formula_sum   'Zr6 H32 C57 N2 O42'
_cell_volume   2280.28652048
_cell_formula_units_Z   1
loop_
 _symmetry_equiv_pos_site_id
 _symmetry_equiv_pos_as_xyz
  1  'x, y, z'
loop_
 _atom_site_type_symbol
 _atom_site_label
 _atom_site_symmetry_multiplicity
 _atom_site_fract_x
 _atom_site_fract_y
 _atom_site_fract_z
 _atom_site_occupancy
  Zr  Zr0  1  0.62281000  0.88397000  0.61845000  1.0
  Zr  Zr1  1  0.38220000  0.12028000  0.38003000  1.0
  Zr  Zr2  1  0.62249000  0.88299000  0.38021000  1.0
  Zr  Zr3  1  0.38143000  0.12234000  0.61934000  1.0
  Zr  Zr4  1  0.38286000  0.88203000  0.61960000  1.0
  Zr  Zr5  1  0.62008000  0.12444000  0.38038000  1.0
  H  H6  1  0.59681000  0.72029000  0.59276000  1.0
  H  H7  1  0.21991000  0.09302000  0.59385000  1.0
  H  H8  1  0.59618000  0.09678000  0.21732000  1.0
  H  H9  1  0.59502000  0.09949000  0.59326000  1.0
  H  H10  1  0.62576000  0.60750000  0.94045000  1.0
  H  H11  1  0.36659000  0.58587000  0.90300000  1.0
  H  H12  1  0.62128000  0.43711000  0.10908000  1.0
  H  H13  1  0.92215000  0.85240000  0.63909000  1.0
  H  H14  1  0.92541000  0.13887000  0.34446000  1.0
  H  H15  1  0.09429000  0.85091000  0.63643000  1.0
  H  H16  1  0.09247000  0.84854000  0.92668000  1.0
  H  H17  1  0.09888000  0.14135000  0.91643000  1.0
  H  H18  1  0.92223000  0.85490000  0.09504000  1.0
  H  H19  1  0.62777000  0.43534000  0.33949000  1.0
  H  H20  1  0.34588000  0.42557000  0.63772000  1.0
  H  H21  1  0.62670000  0.60529000  0.34013000  1.0
  H  H22  1  0.73269000  0.57150000  0.69702000  1.0
  H  H23  1  0.72465000  0.40121000  0.85683000  1.0
  H  H24  1  0.06411000  0.23196000  0.69754000  1.0
  H  H25  1  0.89138000  0.22675000  0.85358000  1.0
  H  H26  1  0.34634000  0.13544000  0.92846000  1.0
  H  H27  1  0.64132000  0.84958000  0.91834000  1.0
  H  H28  1  0.34785000  0.12951000  0.09995000  1.0
  H  H29  1  0.46666000  0.28782000  0.01341000  1.0
  H  H30  1  0.02678000  0.25981000  0.39551000  1.0
  H  H31  1  0.87528000  0.27863000  0.96860000  1.0
  H  H32  1  0.41905000  0.51458000  0.74844000  1.0
  H  H33  1  0.75304000  0.90926000  0.03373000  1.0
  H  H34  1  0.22819000  0.41214000  0.30121000  1.0
  H  H35  1  0.14781000  0.52737000  0.23328000  1.0
  H  H36  1  0.92332000  0.73968000  0.29732000  1.0
  H  H37  1  0.06568000  0.68135000  0.24764000  1.0
  C  C38  1  0.49950000  0.70472000  0.80839000  1.0
  C  C39  1  0.20296000  0.99589000  0.49551000  1.0
  C  C40  1  0.49602000  0.31162000  0.19808000  1.0
  C  C41  1  0.80919000  0.00011000  0.49526000  1.0
  C  C42  1  0.80704000  0.69884000  0.49888000  1.0
  C  C43  1  0.49796000  0.99895000  0.80740000  1.0
  C  C44  1  0.19567000  0.30479000  0.50059000  1.0
  C  C45  1  0.49995000  0.99427000  0.20039000  1.0
  C  C46  1  0.49607000  0.70385000  0.49465000  1.0
  C  C47  1  0.81042000  0.00340000  0.19846000  1.0
  C  C48  1  0.49219000  0.31455000  0.49376000  1.0
  C  C49  1  0.20366000  0.99598000  0.80881000  1.0
  C  C50  1  0.49510000  0.41356000  0.09776000  1.0
  C  C51  1  0.49703000  0.60569000  0.91141000  1.0
  C  C52  1  0.42282000  0.45506000  0.03939000  1.0
  C  C53  1  0.56890000  0.56472000  0.96926000  1.0
  C  C54  1  0.42325000  0.55193000  0.94780000  1.0
  C  C55  1  0.56681000  0.46992000  0.06231000  1.0
  C  C56  1  0.10319000  0.99666000  0.49216000  1.0
  C  C57  1  0.91208000  0.99806000  0.49394000  1.0
  C  C58  1  0.05673000  0.07809000  0.40815000  1.0
  C  C59  1  0.95984000  0.91567000  0.57581000  1.0
  C  C60  1  0.96089000  0.07838000  0.41002000  1.0
  C  C61  1  0.05481000  0.91525000  0.57476000  1.0
  C  C62  1  0.91462000  0.00164000  0.10033000  1.0
  C  C63  1  0.10473000  0.99529000  0.91187000  1.0
  C  C64  1  0.96447000  0.08331000  0.05053000  1.0
  C  C65  1  0.05621000  0.91345000  0.96207000  1.0
  C  C66  1  0.05913000  0.07905000  0.95657000  1.0
  C  C67  1  0.96189000  0.91719000  0.05548000  1.0
  C  C68  1  0.48932000  0.60756000  0.49202000  1.0
  C  C69  1  0.48849000  0.41931000  0.49018000  1.0
  C  C70  1  0.40766000  0.55869000  0.57562000  1.0
  C  C71  1  0.56686000  0.47041000  0.40512000  1.0
  C  C72  1  0.40793000  0.46480000  0.57383000  1.0
  C  C73  1  0.56687000  0.56413000  0.40610000  1.0
  C  C74  1  0.90170000  0.59385000  0.49956000  1.0
  C  C75  1  0.90064000  0.49958000  0.59922000  1.0
  C  C76  1  0.98974000  0.58766000  0.40079000  1.0
  C  C77  1  0.80481000  0.49667000  0.69494000  1.0
  C  C78  1  0.80064000  0.40109000  0.78566000  1.0
  C  C79  1  0.09182000  0.40150000  0.50062000  1.0
  C  C80  1  0.08620000  0.48844000  0.40096000  1.0
  C  C81  1  0.99722000  0.40230000  0.59994000  1.0
  C  C82  1  0.99139000  0.30639000  0.69539000  1.0
  C  C83  1  0.89459000  0.30462000  0.78513000  1.0
  C  C84  1  0.49849000  0.98996000  0.10225000  1.0
  C  C85  1  0.49575000  0.99461000  0.91183000  1.0
  C  C86  1  0.58100000  0.90834000  0.05291000  1.0
  C  C87  1  0.41191000  0.07291000  0.96334000  1.0
  C  C88  1  0.57862000  0.91165000  0.95786000  1.0
  C  C89  1  0.41330000  0.07017000  0.05813000  1.0
  C  C90  1  0.34205000  0.40422000  0.06577000  1.0
  C  C91  1  0.10828000  0.16224000  0.30964000  1.0
  C  C92  1  0.92561000  0.17383000  0.09496000  1.0
  C  C93  1  0.31638000  0.60255000  0.66788000  1.0
  C  C94  1  0.67029000  0.81179000  0.09853000  1.0
  N  N95  1  0.17093000  0.48841000  0.30173000  1.0
  N  N96  1  0.99157000  0.67076000  0.30048000  1.0
  O  O97  1  0.57773000  0.74264000  0.76815000  1.0
  O  O98  1  0.24246000  0.07341000  0.41986000  1.0
  O  O99  1  0.41989000  0.27110000  0.23588000  1.0
  O  O100  1  0.76908000  0.92361000  0.57257000  1.0
  O  O101  1  0.76951000  0.74542000  0.41808000  1.0
  O  O102  1  0.42219000  0.07728000  0.76696000  1.0
  O  O103  1  0.23417000  0.26548000  0.57825000  1.0
  O  O104  1  0.57980000  0.92048000  0.23748000  1.0
  O  O105  1  0.42284000  0.74021000  0.57478000  1.0
  O  O106  1  0.76556000  0.08418000  0.23386000  1.0
  O  O107  1  0.57127000  0.27325000  0.41901000  1.0
  O  O108  1  0.24089000  0.92024000  0.76869000  1.0
  O  O109  1  0.77302000  0.92475000  0.23778000  1.0
  O  O110  1  0.41789000  0.27235000  0.57254000  1.0
  O  O111  1  0.24173000  0.07441000  0.76759000  1.0
  O  O112  1  0.57471000  0.74102000  0.41995000  1.0
  O  O113  1  0.76803000  0.73782000  0.57594000  1.0
  O  O114  1  0.42459000  0.07237000  0.23802000  1.0
  O  O115  1  0.24148000  0.26604000  0.42101000  1.0
  O  O116  1  0.57701000  0.92469000  0.76531000  1.0
  O  O117  1  0.76717000  0.07846000  0.42063000  1.0
  O  O118  1  0.42455000  0.74162000  0.76705000  1.0
  O  O119  1  0.24064000  0.92094000  0.57397000  1.0
  O  O120  1  0.57296000  0.27222000  0.23722000  1.0
  O  O121  1  0.56826000  0.07224000  0.56665000  1.0
  O  O122  1  0.56894000  0.07036000  0.29744000  1.0
  O  O123  1  0.30021000  0.06734000  0.56767000  1.0
  O  O124  1  0.57000000  0.80057000  0.56691000  1.0
  O  O125  1  0.45315000  0.95168000  0.45004000  1.0
  O  O126  1  0.45317000  0.95317000  0.64794000  1.0
  O  O127  1  0.45123000  0.15130000  0.45007000  1.0
  O  O128  1  0.65061000  0.95490000  0.44948000  1.0
  O  O129  1  0.38609000  0.31398000  0.03460000  1.0
  O  O130  1  0.24224000  0.44686000  0.10038000  1.0
  O  O131  1  0.07326000  0.26259000  0.31928000  1.0
  O  O132  1  0.17045000  0.14637000  0.22222000  1.0
  O  O133  1  0.87439000  0.27789000  0.03595000  1.0
  O  O134  1  0.94476000  0.15843000  0.17336000  1.0
  O  O135  1  0.34076000  0.55980000  0.76253000  1.0
  O  O136  1  0.22359000  0.66272000  0.66547000  1.0
  O  O137  1  0.76535000  0.82979000  0.06833000  1.0
  O  O138  1  0.66450000  0.71906000  0.15017000  1.0
