# generated using pymatgen
data_CuH9C9BrN5
_symmetry_space_group_name_H-M   'P 1'
_cell_length_a   10.45570000
_cell_length_b   10.45900000
_cell_length_c   12.03240000
_cell_angle_alpha   106.47700000
_cell_angle_beta   106.93600000
_cell_angle_gamma   109.77400000
_symmetry_Int_Tables_number   1
_chemical_formula_structural   CuH9C9BrN5
_chemical_formula_sum   'Cu4 H36 C36 Br4 N20'
_cell_volume   1072.48193390
_cell_formula_units_Z   4
loop_
 _symmetry_equiv_pos_site_id
 _symmetry_equiv_pos_as_xyz
  1  'x, y, z'
loop_
 _atom_site_type_symbol
 _atom_site_label
 _atom_site_symmetry_multiplicity
 _atom_site_fract_x
 _atom_site_fract_y
 _atom_site_fract_z
 _atom_site_occupancy
  Cu  Cu0  1  0.80872000  0.61551000  0.41057000  1.0
  Cu  Cu1  1  0.70492000  0.39808000  0.08940000  1.0
  Cu  Cu2  1  0.19128000  0.38449000  0.58943000  1.0
  Cu  Cu3  1  0.29508000  0.60192000  0.91060000  1.0
  H  H4  1  0.86948000  0.64185000  0.64010000  1.0
  H  H5  1  0.50172000  0.22942000  0.85984000  1.0
  H  H6  1  0.13052000  0.35815000  0.35990000  1.0
  H  H7  1  0.49828000  0.77058000  0.14016000  1.0
  H  H8  1  0.73823000  0.71961000  0.59001000  1.0
  H  H9  1  0.62958000  0.14826000  0.90991000  1.0
  H  H10  1  0.26177000  0.28039000  0.40999000  1.0
  H  H11  1  0.37041000  0.85174000  0.09009000  1.0
  H  H12  1  0.55254000  0.46888000  0.40964000  1.0
  H  H13  1  0.55923000  0.14294000  0.09030000  1.0
  H  H14  1  0.44746000  0.53112000  0.59036000  1.0
  H  H15  1  0.44077000  0.85706000  0.90970000  1.0
  H  H16  1  0.64840000  0.27302000  0.36165000  1.0
  H  H17  1  0.41127000  0.28669000  0.13835000  1.0
  H  H18  1  0.35160000  0.72698000  0.63835000  1.0
  H  H19  1  0.58873000  0.71331000  0.86165000  1.0
  H  H20  1  0.80265000  0.38097000  0.51714000  1.0
  H  H21  1  0.36363000  0.28535000  0.98282000  1.0
  H  H22  1  0.19735000  0.61903000  0.48286000  1.0
  H  H23  1  0.63637000  0.71465000  0.01718000  1.0
  H  H24  1  0.34849000  0.99777000  0.69141000  1.0
  H  H25  1  0.80663000  0.65700000  0.80864000  1.0
  H  H26  1  0.65151000  0.00223000  0.30858000  1.0
  H  H27  1  0.19337000  0.34300000  0.19136000  1.0
  H  H28  1  0.90576000  0.82463000  0.29350000  1.0
  H  H29  1  0.03118000  0.61186000  0.20640000  1.0
  H  H30  1  0.09423000  0.17537000  0.70650000  1.0
  H  H31  1  0.96883000  0.38814000  0.79360000  1.0
  H  H32  1  0.09607000  0.80083000  0.63687000  1.0
  H  H33  1  0.66412000  0.45905000  0.86304000  1.0
  H  H34  1  0.90393000  0.19917000  0.36312000  1.0
  H  H35  1  0.33588000  0.54094000  0.13697000  1.0
  H  H36  1  0.15066000  0.02043000  0.33241000  1.0
  H  H37  1  0.18823000  0.81781000  0.16757000  1.0
  H  H38  1  0.84933000  0.97958000  0.66759000  1.0
  H  H39  1  0.81177000  0.18220000  0.83243000  1.0
  C  C40  1  0.76804000  0.62818000  0.56768000  1.0
  C  C41  1  0.56046000  0.20039000  0.93225000  1.0
  C  C42  1  0.23196000  0.37182000  0.43232000  1.0
  C  C43  1  0.43954000  0.79961000  0.06775000  1.0
  C  C44  1  0.66522000  0.48857000  0.46793000  1.0
  C  C45  1  0.52062000  0.19732000  0.03203000  1.0
  C  C46  1  0.33478000  0.51143000  0.53207000  1.0
  C  C47  1  0.47938000  0.80268000  0.96797000  1.0
  C  C48  1  0.68496000  0.35062000  0.46066000  1.0
  C  C49  1  0.38985000  0.22422000  0.03934000  1.0
  C  C50  1  0.31504000  0.64938000  0.53934000  1.0
  C  C51  1  0.61015000  0.77578000  0.96066000  1.0
  C  C52  1  0.25323000  0.96244000  0.60216000  1.0
  C  C53  1  0.86052000  0.65083000  0.89782000  1.0
  C  C54  1  0.74677000  0.03756000  0.39784000  1.0
  C  C55  1  0.13948000  0.34917000  0.10218000  1.0
  C  C56  1  0.27186000  0.02344000  0.51483000  1.0
  C  C57  1  0.00887000  0.75678000  0.98521000  1.0
  C  C58  1  0.72814000  0.97656000  0.48517000  1.0
  C  C59  1  0.99113000  0.24322000  0.01479000  1.0
  C  C60  1  0.00698000  0.86579000  0.38028000  1.0
  C  C61  1  0.98566000  0.62631000  0.11962000  1.0
  C  C62  1  0.99301000  0.13421000  0.61972000  1.0
  C  C63  1  0.01434000  0.37369000  0.88038000  1.0
  C  C64  1  0.11256000  0.85322000  0.57244000  1.0
  C  C65  1  0.78097000  0.53989000  0.92747000  1.0
  C  C66  1  0.88744000  0.14678000  0.42756000  1.0
  C  C67  1  0.21903000  0.46011000  0.07254000  1.0
  C  C68  1  0.14401000  0.97546000  0.40296000  1.0
  C  C69  1  0.07271000  0.74064000  0.09698000  1.0
  C  C70  1  0.85598000  0.02454000  0.59704000  1.0
  C  C71  1  0.92730000  0.25936000  0.90302000  1.0
  C  C72  1  0.42076000  0.12860000  0.53813000  1.0
  C  C73  1  0.09061000  0.88241000  0.96193000  1.0
  C  C74  1  0.57924000  0.87140000  0.46187000  1.0
  C  C75  1  0.90939000  0.11759000  0.03807000  1.0
  Br  Br76  1  0.62938000  0.59125000  0.20332000  1.0
  Br  Br77  1  0.88792000  0.42608000  0.29678000  1.0
  Br  Br78  1  0.37063000  0.40876000  0.79668000  1.0
  Br  Br79  1  0.11208000  0.57392000  0.70322000  1.0
  N  N80  1  0.44898000  0.18518000  0.45568000  1.0
  N  N81  1  0.22960000  0.99318000  0.04437000  1.0
  N  N82  1  0.55102000  0.81482000  0.54432000  1.0
  N  N83  1  0.77040000  0.00682000  0.95563000  1.0
  N  N84  1  0.55000000  0.17588000  0.64306000  1.0
  N  N85  1  0.03281000  0.90672000  0.85704000  1.0
  N  N86  1  0.45000000  0.82412000  0.35694000  1.0
  N  N87  1  0.96719000  0.09328000  0.14296000  1.0
  N  N88  1  0.66099000  0.26358000  0.62716000  1.0
  N  N89  1  0.13624000  0.03367000  0.87293000  1.0
  N  N90  1  0.33901000  0.73642000  0.37284000  1.0
  N  N91  1  0.86376000  0.96634000  0.12707000  1.0
  N  N92  1  0.59741000  0.26693000  0.51462000  1.0
  N  N93  1  0.25224000  0.08269000  0.98546000  1.0
  N  N94  1  0.40258000  0.73307000  0.48538000  1.0
  N  N95  1  0.74776000  0.91731000  0.01454000  1.0
  N  N96  1  0.99100000  0.80199000  0.46168000  1.0
  N  N97  1  0.84041000  0.52902000  0.03821000  1.0
  N  N98  1  0.00900000  0.19801000  0.53832000  1.0
  N  N99  1  0.15960000  0.47099000  0.96179000  1.0
