# generated using pymatgen
data_CuH6C7(NO)3
_symmetry_space_group_name_H-M   'P 1'
_cell_length_a   10.04200000
_cell_length_b   10.04200000
_cell_length_c   16.43660000
_cell_angle_alpha   89.99990000
_cell_angle_beta   90.00000000
_cell_angle_gamma   60.00000000
_symmetry_Int_Tables_number   1
_chemical_formula_structural   CuH6C7(NO)3
_chemical_formula_sum   'Cu6 H36 C42 N18 O18'
_cell_volume   1435.43341591
_cell_formula_units_Z   6
loop_
 _symmetry_equiv_pos_site_id
 _symmetry_equiv_pos_as_xyz
  1  'x, y, z'
loop_
 _atom_site_type_symbol
 _atom_site_label
 _atom_site_symmetry_multiplicity
 _atom_site_fract_x
 _atom_site_fract_y
 _atom_site_fract_z
 _atom_site_occupancy
  Cu  Cu0  1  0.75379000  0.39738000  0.97346000  1.0
  Cu  Cu1  1  0.39738000  0.84883000  0.64012000  1.0
  Cu  Cu2  1  0.84883000  0.75379000  0.30679000  1.0
  Cu  Cu3  1  0.24621000  0.15117000  0.35988000  1.0
  Cu  Cu4  1  0.60262000  0.24621000  0.69321000  1.0
  Cu  Cu5  1  0.15118000  0.60261000  0.02654000  1.0
  H  H6  1  0.66651000  0.47666000  0.27278000  1.0
  H  H7  1  0.47667000  0.85682000  0.93944000  1.0
  H  H8  1  0.85683000  0.66651000  0.60611000  1.0
  H  H9  1  0.33349000  0.14317000  0.06056000  1.0
  H  H10  1  0.52334000  0.33349000  0.39389000  1.0
  H  H11  1  0.14317000  0.52334000  0.72722000  1.0
  H  H12  1  0.76606000  0.53684000  0.14948000  1.0
  H  H13  1  0.53683000  0.69711000  0.81615000  1.0
  H  H14  1  0.69710000  0.76607000  0.48282000  1.0
  H  H15  1  0.23394000  0.30289000  0.18385000  1.0
  H  H16  1  0.46317000  0.23393000  0.51718000  1.0
  H  H17  1  0.30290000  0.46317000  0.85052000  1.0
  H  H18  1  0.58878000  0.26473000  0.24369000  1.0
  H  H19  1  0.26472000  0.14650000  0.91036000  1.0
  H  H20  1  0.14649000  0.58879000  0.57702000  1.0
  H  H21  1  0.41121000  0.85351000  0.08965000  1.0
  H  H22  1  0.73528000  0.41121000  0.42298000  1.0
  H  H23  1  0.85350000  0.73528000  0.75631000  1.0
  H  H24  1  0.60335000  0.10958000  0.10168000  1.0
  H  H25  1  0.10959000  0.28706000  0.76834000  1.0
  H  H26  1  0.28707000  0.60335000  0.43501000  1.0
  H  H27  1  0.39665000  0.71294000  0.23166000  1.0
  H  H28  1  0.89042000  0.39665000  0.56499000  1.0
  H  H29  1  0.71293000  0.89042000  0.89832000  1.0
  H  H30  1  0.77900000  0.06387000  0.05417000  1.0
  H  H31  1  0.06387000  0.15713000  0.72084000  1.0
  H  H32  1  0.15712000  0.77900000  0.38751000  1.0
  H  H33  1  0.22100000  0.84287000  0.27916000  1.0
  H  H34  1  0.93612000  0.22100000  0.61250000  1.0
  H  H35  1  0.84287000  0.93613000  0.94583000  1.0
  H  H36  1  0.57883000  0.12421000  0.95223000  1.0
  H  H37  1  0.12421000  0.29696000  0.61890000  1.0
  H  H38  1  0.29696000  0.57883000  0.28556000  1.0
  H  H39  1  0.42117000  0.70304000  0.38110000  1.0
  H  H40  1  0.87579000  0.42117000  0.71444000  1.0
  H  H41  1  0.70304000  0.87579000  0.04777000  1.0
  C  C42  1  0.72999000  0.45178000  0.15106000  1.0
  C  C43  1  0.45177000  0.81824000  0.81773000  1.0
  C  C44  1  0.81823000  0.72999000  0.48439000  1.0
  C  C45  1  0.27000000  0.18177000  0.18227000  1.0
  C  C46  1  0.54822000  0.27001000  0.51561000  1.0
  C  C47  1  0.18177000  0.54823000  0.84894000  1.0
  C  C48  1  0.63851000  0.30791000  0.19971000  1.0
  C  C49  1  0.30792000  0.05357000  0.86638000  1.0
  C  C50  1  0.05357000  0.63852000  0.53304000  1.0
  C  C51  1  0.36149000  0.94643000  0.13362000  1.0
  C  C52  1  0.69209000  0.36148000  0.46695000  1.0
  C  C53  1  0.94643000  0.69208000  0.80029000  1.0
  C  C54  1  0.67230000  0.27517000  0.11844000  1.0
  C  C55  1  0.27517000  0.05253000  0.78511000  1.0
  C  C56  1  0.05253000  0.67230000  0.45177000  1.0
  C  C57  1  0.32770000  0.94747000  0.21489000  1.0
  C  C58  1  0.72483000  0.32770000  0.54823000  1.0
  C  C59  1  0.94747000  0.72483000  0.88155000  1.0
  C  C60  1  0.66198000  0.15881000  0.06705000  1.0
  C  C61  1  0.15880000  0.17922000  0.73372000  1.0
  C  C62  1  0.17922000  0.66197000  0.40038000  1.0
  C  C63  1  0.33802000  0.82079000  0.26628000  1.0
  C  C64  1  0.84120000  0.33802000  0.59962000  1.0
  C  C65  1  0.82079000  0.84119000  0.93295000  1.0
  C  C66  1  0.58020000  0.21932000  0.98468000  1.0
  C  C67  1  0.21932000  0.20048000  0.65134000  1.0
  C  C68  1  0.20049000  0.58019000  0.31801000  1.0
  C  C69  1  0.41980000  0.79952000  0.34866000  1.0
  C  C70  1  0.78068000  0.41981000  0.68199000  1.0
  C  C71  1  0.79952000  0.78067000  0.01532000  1.0
  C  C72  1  0.64847000  0.27571000  0.85549000  1.0
  C  C73  1  0.27571000  0.07582000  0.52215000  1.0
  C  C74  1  0.07582000  0.64847000  0.18882000  1.0
  C  C75  1  0.35153000  0.92418000  0.47785000  1.0
  C  C76  1  0.72429000  0.35153000  0.81118000  1.0
  C  C77  1  0.92418000  0.72429000  0.14451000  1.0
  C  C78  1  0.40973000  0.33923000  0.99820000  1.0
  C  C79  1  0.33923000  0.25104000  0.66487000  1.0
  C  C80  1  0.25104000  0.40973000  0.33154000  1.0
  C  C81  1  0.59027000  0.74896000  0.33513000  1.0
  C  C82  1  0.66077000  0.59027000  0.66846000  1.0
  C  C83  1  0.74896000  0.66077000  0.00180000  1.0
  N  N84  1  0.72955000  0.36612000  0.08902000  1.0
  N  N85  1  0.36613000  0.90433000  0.75569000  1.0
  N  N86  1  0.90433000  0.72954000  0.42235000  1.0
  N  N87  1  0.27045000  0.09568000  0.24431000  1.0
  N  N88  1  0.63387000  0.27046000  0.57765000  1.0
  N  N89  1  0.09567000  0.63388000  0.91098000  1.0
  N  N90  1  0.67626000  0.41870000  0.21857000  1.0
  N  N91  1  0.41870000  0.90504000  0.88523000  1.0
  N  N92  1  0.90504000  0.67626000  0.55190000  1.0
  N  N93  1  0.32374000  0.09496000  0.11477000  1.0
  N  N94  1  0.58130000  0.32374000  0.44810000  1.0
  N  N95  1  0.09496000  0.58130000  0.78143000  1.0
  N  N96  1  0.65957000  0.27784000  0.93530000  1.0
  N  N97  1  0.27784000  0.06259000  0.60196000  1.0
  N  N98  1  0.06259000  0.65957000  0.26863000  1.0
  N  N99  1  0.34043000  0.93741000  0.39804000  1.0
  N  N100  1  0.72216000  0.34043000  0.73137000  1.0
  N  N101  1  0.93741000  0.72216000  0.06470000  1.0
  O  O102  1  0.37350000  0.48072000  0.00149000  1.0
  O  O103  1  0.48072000  0.14578000  0.66816000  1.0
  O  O104  1  0.14578000  0.37350000  0.33483000  1.0
  O  O105  1  0.62650000  0.85422000  0.33184000  1.0
  O  O106  1  0.51928000  0.62650000  0.66517000  1.0
  O  O107  1  0.85422000  0.51928000  0.99851000  1.0
  O  O108  1  0.31482000  0.29254000  0.00584000  1.0
  O  O109  1  0.29254000  0.39264000  0.67251000  1.0
  O  O110  1  0.39264000  0.31482000  0.33917000  1.0
  O  O111  1  0.68518000  0.60736000  0.32749000  1.0
  O  O112  1  0.70746000  0.68518000  0.66083000  1.0
  O  O113  1  0.60736000  0.70746000  0.99416000  1.0
  O  O114  1  0.57813000  0.22155000  0.81366000  1.0
  O  O115  1  0.22154000  0.20032000  0.48032000  1.0
  O  O116  1  0.20032000  0.57814000  0.14699000  1.0
  O  O117  1  0.42186000  0.79968000  0.51968000  1.0
  O  O118  1  0.77846000  0.42186000  0.85301000  1.0
  O  O119  1  0.79968000  0.77845000  0.18634000  1.0
