# generated using pymatgen
data_ZnH11C14N2O7
_symmetry_space_group_name_H-M   'P 1'
_cell_length_a   8.14136000
_cell_length_b   12.43450000
_cell_length_c   14.58670000
_cell_angle_alpha   90.00000000
_cell_angle_beta   90.00010000
_cell_angle_gamma   107.28500000
_symmetry_Int_Tables_number   1
_chemical_formula_structural   ZnH11C14N2O7
_chemical_formula_sum   'Zn4 H44 C56 N8 O28'
_cell_volume   1409.97792392
_cell_formula_units_Z   4
loop_
 _symmetry_equiv_pos_site_id
 _symmetry_equiv_pos_as_xyz
  1  'x, y, z'
loop_
 _atom_site_type_symbol
 _atom_site_label
 _atom_site_symmetry_multiplicity
 _atom_site_fract_x
 _atom_site_fract_y
 _atom_site_fract_z
 _atom_site_occupancy
  Zn  Zn0  1  0.81913000  0.35034000  0.66883000  1.0
  Zn  Zn1  1  0.68087000  0.64967000  0.16883000  1.0
  Zn  Zn2  1  0.18087000  0.64967000  0.33117000  1.0
  Zn  Zn3  1  0.31913000  0.35033000  0.83117000  1.0
  H  H4  1  0.15089000  0.38164000  0.65642000  1.0
  H  H5  1  0.34912000  0.61836000  0.15642000  1.0
  H  H6  1  0.84911000  0.61835000  0.34358000  1.0
  H  H7  1  0.65089000  0.38165000  0.84358000  1.0
  H  H8  1  0.14018000  0.49750000  0.68805000  1.0
  H  H9  1  0.35982000  0.50250000  0.18805000  1.0
  H  H10  1  0.85982000  0.50250000  0.31195000  1.0
  H  H11  1  0.64018000  0.49750000  0.81195000  1.0
  H  H12  1  0.30889000  0.43096000  0.53328000  1.0
  H  H13  1  0.19112000  0.56904000  0.03328000  1.0
  H  H14  1  0.69112000  0.56904000  0.46672000  1.0
  H  H15  1  0.80888000  0.43096000  0.96672000  1.0
  H  H16  1  0.37286000  0.27033000  0.28081000  1.0
  H  H17  1  0.12714000  0.72967000  0.78081000  1.0
  H  H18  1  0.62713000  0.72967000  0.71919000  1.0
  H  H19  1  0.87287000  0.27033000  0.21919000  1.0
  H  H20  1  0.49670000  0.14050000  0.53795000  1.0
  H  H21  1  0.00330000  0.85950000  0.03795000  1.0
  H  H22  1  0.50330000  0.85950000  0.46205000  1.0
  H  H23  1  0.99670000  0.14050000  0.96204000  1.0
  H  H24  1  0.80896000  0.12214000  0.71665000  1.0
  H  H25  1  0.69104000  0.87787000  0.21665000  1.0
  H  H26  1  0.19104000  0.87786000  0.28335000  1.0
  H  H27  1  0.30896000  0.12214000  0.78335000  1.0
  H  H28  1  0.91555000  0.97159000  0.65762000  1.0
  H  H29  1  0.58444000  0.02841000  0.15762000  1.0
  H  H30  1  0.08445000  0.02841000  0.34238000  1.0
  H  H31  1  0.41556000  0.97159000  0.84238000  1.0
  H  H32  1  0.99209000  0.14528000  0.39599000  1.0
  H  H33  1  0.50791000  0.85472000  0.89599000  1.0
  H  H34  1  0.00791000  0.85472000  0.60400000  1.0
  H  H35  1  0.49209000  0.14528000  0.10401000  1.0
  H  H36  1  0.76724000  0.33873000  0.46226000  1.0
  H  H37  1  0.73276000  0.66128000  0.96226000  1.0
  H  H38  1  0.23276000  0.66128000  0.53774000  1.0
  H  H39  1  0.26724000  0.33873000  0.03774000  1.0
  H  H40  1  0.91071000  0.31049000  0.37994000  1.0
  H  H41  1  0.58929000  0.68951000  0.87994000  1.0
  H  H42  1  0.08929000  0.68951000  0.62006000  1.0
  H  H43  1  0.41071000  0.31049000  0.12006000  1.0
  H  H44  1  0.99048000  0.39796000  0.47640000  1.0
  H  H45  1  0.50952000  0.60204000  0.97640000  1.0
  H  H46  1  0.00952000  0.60204000  0.52360000  1.0
  H  H47  1  0.49048000  0.39796000  0.02360000  1.0
  C  C48  1  0.41846000  0.29061000  0.64946000  1.0
  C  C49  1  0.08154000  0.70939000  0.14946000  1.0
  C  C50  1  0.58154000  0.70939000  0.35054000  1.0
  C  C51  1  0.91846000  0.29061000  0.85054000  1.0
  C  C52  1  0.40165000  0.28530000  0.54691000  1.0
  C  C53  1  0.09835000  0.71471000  0.04691000  1.0
  C  C54  1  0.59835000  0.71471000  0.45309000  1.0
  C  C55  1  0.90165000  0.28529000  0.95308000  1.0
  C  C56  1  0.34473000  0.36427000  0.49765000  1.0
  C  C57  1  0.15527000  0.63573000  0.99765000  1.0
  C  C58  1  0.65527000  0.63574000  0.50235000  1.0
  C  C59  1  0.84473000  0.36426000  0.00235000  1.0
  C  C60  1  0.33404000  0.35907000  0.40192000  1.0
  C  C61  1  0.16596000  0.64093000  0.90192000  1.0
  C  C62  1  0.66596000  0.64093000  0.59808000  1.0
  C  C63  1  0.83404000  0.35907000  0.09808000  1.0
  C  C64  1  0.38064000  0.27470000  0.35507000  1.0
  C  C65  1  0.11936000  0.72530000  0.85507000  1.0
  C  C66  1  0.61935000  0.72530000  0.64493000  1.0
  C  C67  1  0.88065000  0.27470000  0.14493000  1.0
  C  C68  1  0.43926000  0.19818000  0.40502000  1.0
  C  C69  1  0.06073000  0.80182000  0.90502000  1.0
  C  C70  1  0.56073000  0.80182000  0.59499000  1.0
  C  C71  1  0.93927000  0.19818000  0.09498000  1.0
  C  C72  1  0.45080000  0.20152000  0.50041000  1.0
  C  C73  1  0.04920000  0.79848000  0.00041000  1.0
  C  C74  1  0.54920000  0.79848000  0.49959000  1.0
  C  C75  1  0.95080000  0.20152000  0.99959000  1.0
  C  C76  1  0.27219000  0.44168000  0.34657000  1.0
  C  C77  1  0.22781000  0.55832000  0.84657000  1.0
  C  C78  1  0.72780000  0.55832000  0.65343000  1.0
  C  C79  1  0.77219000  0.44167000  0.15343000  1.0
  C  C80  1  0.85266000  0.12472000  0.64602000  1.0
  C  C81  1  0.64734000  0.87528000  0.14602000  1.0
  C  C82  1  0.14734000  0.87528000  0.35398000  1.0
  C  C83  1  0.35266000  0.12472000  0.85398000  1.0
  C  C84  1  0.91123000  0.03920000  0.61140000  1.0
  C  C85  1  0.58876000  0.96080000  0.11140000  1.0
  C  C86  1  0.08876000  0.96080000  0.38860000  1.0
  C  C87  1  0.41124000  0.03920000  0.88860000  1.0
  C  C88  1  0.96678000  0.04426000  0.51993000  1.0
  C  C89  1  0.53322000  0.95574000  0.01993000  1.0
  C  C90  1  0.03322000  0.95574000  0.48007000  1.0
  C  C91  1  0.46678000  0.04426000  0.98007000  1.0
  C  C92  1  0.95582000  0.13672000  0.46799000  1.0
  C  C93  1  0.54418000  0.86328000  0.96799000  1.0
  C  C94  1  0.04417000  0.86328000  0.53201000  1.0
  C  C95  1  0.45582000  0.13672000  0.03201000  1.0
  C  C96  1  0.89847000  0.22159000  0.50714000  1.0
  C  C97  1  0.60154000  0.77842000  0.00714000  1.0
  C  C98  1  0.10153000  0.77841000  0.49286000  1.0
  C  C99  1  0.39847000  0.22159000  0.99286000  1.0
  C  C100  1  0.89114000  0.32210000  0.45311000  1.0
  C  C101  1  0.60886000  0.67791000  0.95311000  1.0
  C  C102  1  0.10886000  0.67790000  0.54689000  1.0
  C  C103  1  0.39114000  0.32210000  0.04689000  1.0
  N  N104  1  0.49474000  0.11294000  0.35462000  1.0
  N  N105  1  0.00526000  0.88706000  0.85462000  1.0
  N  N106  1  0.50525000  0.88706000  0.64538000  1.0
  N  N107  1  0.99474000  0.11294000  0.14538000  1.0
  N  N108  1  0.84945000  0.21546000  0.59631000  1.0
  N  N109  1  0.65055000  0.78454000  0.09631000  1.0
  N  N110  1  0.15055000  0.78454000  0.40369000  1.0
  N  N111  1  0.34946000  0.21546000  0.90369000  1.0
  O  O112  1  0.53133000  0.25592000  0.68744000  1.0
  O  O113  1  0.96867000  0.74408000  0.18744000  1.0
  O  O114  1  0.46867000  0.74408000  0.31256000  1.0
  O  O115  1  0.03133000  0.25592000  0.81255000  1.0
  O  O116  1  0.31153000  0.33062000  0.69336000  1.0
  O  O117  1  0.18847000  0.66938000  0.19336000  1.0
  O  O118  1  0.68847000  0.66938000  0.30664000  1.0
  O  O119  1  0.81153000  0.33062000  0.80664000  1.0
  O  O120  1  0.26182000  0.52967000  0.38982000  1.0
  O  O121  1  0.23818000  0.47033000  0.88982000  1.0
  O  O122  1  0.73818000  0.47033000  0.61018000  1.0
  O  O123  1  0.76182000  0.52967000  0.11018000  1.0
  O  O124  1  0.23530000  0.41928000  0.26356000  1.0
  O  O125  1  0.26470000  0.58072000  0.76356000  1.0
  O  O126  1  0.76469000  0.58072000  0.73644000  1.0
  O  O127  1  0.73530000  0.41928000  0.23644000  1.0
  O  O128  1  0.46777000  0.10544000  0.27051000  1.0
  O  O129  1  0.03223000  0.89456000  0.77052000  1.0
  O  O130  1  0.53223000  0.89456000  0.72949000  1.0
  O  O131  1  0.96777000  0.10544000  0.22948000  1.0
  O  O132  1  0.56520000  0.05306000  0.39798000  1.0
  O  O133  1  0.93479000  0.94693000  0.89798000  1.0
  O  O134  1  0.43478000  0.94693000  0.60203000  1.0
  O  O135  1  0.06521000  0.05306000  0.10202000  1.0
  O  O136  1  0.08013000  0.43377000  0.64647000  1.0
  O  O137  1  0.41987000  0.56623000  0.14647000  1.0
  O  O138  1  0.91987000  0.56623000  0.35353000  1.0
  O  O139  1  0.58013000  0.43377000  0.85353000  1.0
