# generated using pymatgen
data_Zr6H22C52S10N2O37
_symmetry_space_group_name_H-M   'P 1'
_cell_length_a   16.44960000
_cell_length_b   16.44915681
_cell_length_c   16.45610000
_cell_angle_alpha   119.72004471
_cell_angle_beta   119.69670000
_cell_angle_gamma   88.85691797
_symmetry_Int_Tables_number   1
_chemical_formula_structural   Zr6H22C52S10N2O37
_chemical_formula_sum   'Zr6 H22 C52 S10 N2 O37'
_cell_volume   3205.31613550
_cell_formula_units_Z   1
loop_
 _symmetry_equiv_pos_site_id
 _symmetry_equiv_pos_as_xyz
  1  'x, y, z'
loop_
 _atom_site_type_symbol
 _atom_site_label
 _atom_site_symmetry_multiplicity
 _atom_site_fract_x
 _atom_site_fract_y
 _atom_site_fract_z
 _atom_site_occupancy
  Zr  Zr0  1  0.90315000  0.40255000  0.51414000  1.0
  Zr  Zr1  1  0.10267000  0.60211000  0.48957000  1.0
  Zr  Zr2  1  0.89354000  0.39238000  0.28972000  1.0
  Zr  Zr3  1  0.11179000  0.61084000  0.71251000  1.0
  Zr  Zr4  1  0.89325000  0.61066000  0.50084000  1.0
  Zr  Zr5  1  0.11152000  0.39248000  0.50116000  1.0
  H  H6  1  0.75277000  0.42210000  0.34439000  1.0
  H  H7  1  0.08202000  0.75190000  0.65847000  1.0
  H  H8  1  0.08160000  0.40999000  0.32628000  1.0
  H  H9  1  0.09454000  0.42291000  0.67759000  1.0
  H  H10  1  0.61200000  0.63836000  0.51274000  1.0
  H  H11  1  0.12720000  0.10048000  0.48951000  1.0
  H  H12  1  0.12523000  0.88266000  0.01470000  1.0
  H  H13  1  0.39700000  0.63715000  0.01432000  1.0
  H  H14  1  0.64370000  0.12749000  0.03226000  1.0
  H  H15  1  0.65488000  0.15009000  0.30768000  1.0
  H  H16  1  0.37717000  0.86229000  0.97374000  1.0
  H  H17  1  0.35480000  0.85053000  0.69812000  1.0
  H  H18  1  0.87547000  0.39033000  0.76789000  1.0
  H  H19  1  0.44961000  0.32355000  0.51264000  1.0
  H  H20  1  0.81394000  0.93941000  0.49278000  1.0
  H  H21  1  0.81360000  0.06467000  0.89369000  1.0
  H  H22  1  0.57770000  0.32531000  0.89166000  1.0
  H  H23  1  0.17355000  0.67993000  0.24742000  1.0
  H  H24  1  0.54947000  0.07568000  0.87143000  1.0
  H  H25  1  0.46234000  0.98080000  0.73891000  1.0
  H  H26  1  0.42906000  0.95722000  0.13501000  1.0
  H  H27  1  0.52475000  0.04291000  0.26715000  1.0
  C  C28  1  0.73910000  0.51550000  0.52080000  1.0
  C  C29  1  0.98819000  0.76504000  0.48280000  1.0
  C  C30  1  0.27267000  0.49504000  0.49720000  1.0
  C  C31  1  0.00910000  0.23168000  0.50711000  1.0
  C  C32  1  0.74196000  0.23338000  0.25450000  1.0
  C  C33  1  0.00671000  0.51397000  0.78234000  1.0
  C  C34  1  0.27132000  0.76353000  0.75111000  1.0
  C  C35  1  0.99159000  0.49875000  0.22248000  1.0
  C  C36  1  0.72991000  0.50230000  0.22984000  1.0
  C  C37  1  0.99694000  0.22205000  0.23114000  1.0
  C  C38  1  0.28183000  0.50684000  0.77271000  1.0
  C  C39  1  0.00032000  0.77351000  0.77308000  1.0
  C  C40  1  0.42190000  0.43541000  0.50913000  1.0
  C  C41  1  0.59267000  0.57669000  0.51453000  1.0
  C  C42  1  0.36418000  0.49821000  0.50337000  1.0
  C  C43  1  0.64929000  0.51399000  0.51972000  1.0
  C  C44  1  0.50991000  0.54875000  0.51126000  1.0
  C  C45  1  0.50535000  0.46473000  0.51379000  1.0
  C  C46  1  0.92523000  0.91120000  0.48792000  1.0
  C  C47  1  0.06557000  0.08103000  0.49130000  1.0
  C  C48  1  0.98797000  0.85340000  0.48221000  1.0
  C  C49  1  0.00410000  0.13876000  0.49914000  1.0
  C  C50  1  0.03700000  0.99768000  0.48676000  1.0
  C  C51  1  0.95372000  0.99381000  0.49073000  1.0
  C  C52  1  0.92803000  0.08295000  0.02475000  1.0
  C  C53  1  0.06316000  0.90722000  0.97824000  1.0
  C  C54  1  0.99482000  0.13261000  0.14150000  1.0
  C  C55  1  0.99763000  0.85955000  0.86274000  1.0
  C  C56  1  0.03804000  0.98845000  0.03782000  1.0
  C  C57  1  0.95319000  0.00075000  0.96591000  1.0
  C  C58  1  0.59434000  0.43717000  0.02330000  1.0
  C  C59  1  0.42090000  0.57455000  0.97758000  1.0
  C  C60  1  0.64399000  0.50360000  0.14007000  1.0
  C  C61  1  0.37160000  0.50768000  0.86211000  1.0
  C  C62  1  0.50244000  0.54961000  0.03692000  1.0
  C  C63  1  0.51349000  0.46373000  0.96477000  1.0
  C  C64  1  0.61057000  0.09833000  0.05922000  1.0
  C  C65  1  0.61815000  0.11063000  0.21651000  1.0
  C  C66  1  0.53630000  0.02929000  0.14362000  1.0
  C  C67  1  0.48886000  0.97890000  0.02364000  1.0
  C  C68  1  0.40639000  0.89514000  0.94661000  1.0
  C  C69  1  0.39424000  0.88727000  0.78928000  1.0
  C  C70  1  0.47590000  0.96891000  0.86223000  1.0
  C  C71  1  0.52646000  0.01623000  0.98223000  1.0
  C  C72  1  0.65534000  0.14467000  0.17436000  1.0
  C  C73  1  0.36001000  0.85029000  0.83144000  1.0
  C  C74  1  0.05977000  0.57053000  0.15385000  1.0
  C  C75  1  0.93496000  0.44909000  0.85231000  1.0
  C  C76  1  0.99216000  0.50368000  0.13664000  1.0
  C  C77  1  0.00296000  0.51473000  0.87006000  1.0
  C  C78  1  0.95486000  0.46919000  0.95535000  1.0
  C  C79  1  0.03801000  0.55041000  0.04980000  1.0
  S  S80  1  0.41188000  0.59220000  0.50353000  1.0
  S  S81  1  0.60292000  0.42044000  0.52079000  1.0
  S  S82  1  0.08051000  0.89968000  0.47932000  1.0
  S  S83  1  0.91061000  0.09240000  0.50016000  1.0
  S  S84  1  0.08733000  0.07809000  0.17810000  1.0
  S  S85  1  0.90435000  0.91251000  0.82531000  1.0
  S  S86  1  0.59172000  0.59817000  0.17704000  1.0
  S  S87  1  0.42396000  0.41385000  0.82428000  1.0
  S  S88  1  0.90279000  0.41738000  0.99403000  1.0
  S  S89  1  0.09147000  0.60200000  0.01200000  1.0
  N  N90  1  0.51086000  0.00362000  0.82035000  1.0
  N  N91  1  0.50149000  0.99436000  0.18553000  1.0
  O  O92  1  0.77703000  0.44784000  0.52482000  1.0
  O  O93  1  0.05702000  0.72819000  0.48036000  1.0
  O  O94  1  0.23394000  0.56179000  0.49070000  1.0
  O  O95  1  0.94342000  0.27138000  0.51495000  1.0
  O  O96  1  0.77233000  0.26468000  0.21423000  1.0
  O  O97  1  0.07517000  0.57995000  0.81355000  1.0
  O  O98  1  0.23974000  0.73299000  0.79132000  1.0
  O  O99  1  0.92505000  0.43000000  0.19041000  1.0
  O  O100  1  0.76244000  0.57190000  0.33199000  1.0
  O  O101  1  0.06790000  0.25619000  0.33327000  1.0
  O  O102  1  0.24722000  0.43597000  0.67093000  1.0
  O  O103  1  0.93126000  0.74071000  0.67119000  1.0
  O  O104  1  0.92849000  0.26014000  0.20033000  1.0
  O  O105  1  0.24553000  0.57645000  0.80543000  1.0
  O  O106  1  0.07266000  0.74015000  0.80569000  1.0
  O  O107  1  0.76520000  0.43107000  0.19930000  1.0
  O  O108  1  0.77909000  0.27368000  0.35982000  1.0
  O  O109  1  0.06037000  0.56451000  0.32473000  1.0
  O  O110  1  0.23141000  0.72633000  0.64608000  1.0
  O  O111  1  0.94029000  0.44456000  0.68097000  1.0
  O  O112  1  0.07835000  0.26501000  0.50677000  1.0
  O  O113  1  0.77006000  0.58209000  0.51537000  1.0
  O  O114  1  0.92199000  0.73250000  0.48801000  1.0
  O  O115  1  0.23805000  0.42642000  0.49779000  1.0
  O  O116  1  0.06941000  0.44583000  0.62816000  1.0
  O  O117  1  0.05884000  0.43522000  0.37591000  1.0
  O  O118  1  0.05867000  0.68087000  0.61401000  1.0
  O  O119  1  0.82382000  0.44581000  0.39028000  1.0
  O  O120  1  0.95355000  0.54310000  0.40930000  1.0
  O  O121  1  0.96117000  0.55161000  0.59517000  1.0
  O  O122  1  0.13439000  0.54286000  0.58428000  1.0
  O  O123  1  0.96174000  0.37020000  0.41975000  1.0
  O  O124  1  0.39941000  0.35664000  0.50957000  1.0
  O  O125  1  0.84807000  0.89014000  0.49141000  1.0
  O  O126  1  0.84992000  0.11118000  0.97526000  1.0
  O  O127  1  0.62035000  0.35705000  0.97307000  1.0
  O  O128  1  0.13639000  0.64421000  0.25715000  1.0
