# generated using pymatgen
data_FeH21C31S2N11O2
_symmetry_space_group_name_H-M   'P 1'
_cell_length_a   11.98680000
_cell_length_b   12.78960000
_cell_length_c   13.16800000
_cell_angle_alpha   83.94330000
_cell_angle_beta   65.72260000
_cell_angle_gamma   86.82900000
_symmetry_Int_Tables_number   1
_chemical_formula_structural   FeH21C31S2N11O2
_chemical_formula_sum   'Fe2 H42 C62 S4 N22 O4'
_cell_volume   1829.78158558
_cell_formula_units_Z   2
loop_
 _symmetry_equiv_pos_site_id
 _symmetry_equiv_pos_as_xyz
  1  'x, y, z'
loop_
 _atom_site_type_symbol
 _atom_site_label
 _atom_site_symmetry_multiplicity
 _atom_site_fract_x
 _atom_site_fract_y
 _atom_site_fract_z
 _atom_site_occupancy
  Fe  Fe0  1  0.00009000  0.99947000  0.00000000  1.0
  Fe  Fe1  1  0.48302000  0.50421000  0.50984000  1.0
  H  H2  1  0.24242000  0.80751000  0.19401000  1.0
  H  H3  1  0.75709000  0.19231000  0.80563000  1.0
  H  H4  1  0.97910000  0.78364000  0.95430000  1.0
  H  H5  1  0.02065000  0.21538000  0.04587000  1.0
  H  H6  1  0.14469000  0.03573000  0.12509000  1.0
  H  H7  1  0.85568000  0.96357000  0.87477000  1.0
  H  H8  1  0.98906000  0.06451000  0.39995000  1.0
  H  H9  1  0.01083000  0.93446000  0.60069000  1.0
  H  H10  1  0.40965000  0.66924000  0.37445000  1.0
  H  H11  1  0.59914000  0.32857000  0.63435000  1.0
  H  H12  1  0.48468000  0.16941000  0.88326000  1.0
  H  H13  1  0.51502000  0.83079000  0.11623000  1.0
  H  H14  1  0.28626000  0.94285000  0.60108000  1.0
  H  H15  1  0.71402000  0.05562000  0.39899000  1.0
  H  H16  1  0.22777000  0.75693000  0.60963000  1.0
  H  H17  1  0.77146000  0.24164000  0.39056000  1.0
  H  H18  1  0.34692000  0.10940000  0.08472000  1.0
  H  H19  1  0.65323000  0.89063000  0.91485000  1.0
  H  H20  1  0.01709000  0.64680000  0.49254000  1.0
  H  H21  1  0.99294000  0.35505000  0.49277000  1.0
  H  H22  1  0.40783000  0.14863000  0.73437000  1.0
  H  H23  1  0.59177000  0.85106000  0.26528000  1.0
  H  H24  1  0.06922000  0.91377000  0.28543000  1.0
  H  H25  1  0.93046000  0.08535000  0.71505000  1.0
  H  H26  1  0.06942000  0.67466000  0.79221000  1.0
  H  H27  1  0.92998000  0.32423000  0.20802000  1.0
  H  H28  1  0.52608000  0.55289000  0.70142000  1.0
  H  H29  1  0.47007000  0.45661000  0.28807000  1.0
  H  H30  1  0.42566000  0.95509000  0.28184000  1.0
  H  H31  1  0.57441000  0.04426000  0.71770000  1.0
  H  H32  1  0.02767000  0.49249000  0.62537000  1.0
  H  H33  1  0.97061000  0.50960000  0.36576000  1.0
  H  H34  1  0.21236000  0.43849000  0.99540000  1.0
  H  H35  1  0.80058000  0.55731000  0.00437000  1.0
  H  H36  1  0.12259000  0.38624000  0.86452000  1.0
  H  H37  1  0.88058000  0.60870000  0.14214000  1.0
  H  H38  1  0.21640000  0.73508000  0.36407000  1.0
  H  H39  1  0.80112000  0.26251000  0.62857000  1.0
  H  H40  1  0.34559000  0.10493000  0.39713000  1.0
  H  H41  1  0.65449000  0.89408000  0.60312000  1.0
  H  H42  1  0.41893000  0.52467000  0.90977000  1.0
  H  H43  1  0.59131000  0.47782000  0.07987000  1.0
  C  C44  1  0.18969000  0.14438000  0.69344000  1.0
  C  C45  1  0.80859000  0.85465000  0.30755000  1.0
  C  C46  1  0.92582000  0.19423000  0.88294000  1.0
  C  C47  1  0.07324000  0.80484000  0.11808000  1.0
  C  C48  1  0.16029000  0.96068000  0.77084000  1.0
  C  C49  1  0.83995000  0.03800000  0.22915000  1.0
  C  C50  1  0.14862000  0.20128000  0.54559000  1.0
  C  C51  1  0.84947000  0.79789000  0.45557000  1.0
  C  C52  1  0.19854000  0.31608000  0.63604000  1.0
  C  C53  1  0.79417000  0.68353000  0.36825000  1.0
  C  C54  1  0.22209000  0.50097000  0.56623000  1.0
  C  C55  1  0.77453000  0.49874000  0.43727000  1.0
  C  C56  1  0.04545000  0.81606000  0.87364000  1.0
  C  C57  1  0.95438000  0.18283000  0.12652000  1.0
  C  C58  1  0.16282000  0.09446000  0.40352000  1.0
  C  C59  1  0.83728000  0.90460000  0.59672000  1.0
  C  C60  1  0.23738000  0.08468000  0.85329000  1.0
  C  C61  1  0.76257000  0.91442000  0.14661000  1.0
  C  C62  1  0.20522000  0.06374000  0.04030000  1.0
  C  C63  1  0.79501000  0.93561000  0.95952000  1.0
  C  C64  1  0.08499000  0.04126000  0.37292000  1.0
  C  C65  1  0.91494000  0.95781000  0.62749000  1.0
  C  C66  1  0.32320000  0.63139000  0.42691000  1.0
  C  C67  1  0.68387000  0.36719000  0.57766000  1.0
  C  C68  1  0.39354000  0.13899000  0.90575000  1.0
  C  C69  1  0.60627000  0.86088000  0.09386000  1.0
  C  C70  1  0.21616000  0.90534000  0.67648000  1.0
  C  C71  1  0.78388000  0.09326000  0.32357000  1.0
  C  C72  1  0.18357000  0.80157000  0.68226000  1.0
  C  C73  1  0.81610000  0.19711000  0.31791000  1.0
  C  C74  1  0.31840000  0.10540000  0.01660000  1.0
  C  C75  1  0.68167000  0.89438000  0.98306000  1.0
  C  C76  1  0.25407000  0.92619000  0.27306000  1.0
  C  C77  1  0.74584000  0.07334000  0.72666000  1.0
  C  C78  1  0.10428000  0.61893000  0.49341000  1.0
  C  C79  1  0.90303000  0.38181000  0.49774000  1.0
  C  C80  1  0.35244000  0.12754000  0.82295000  1.0
  C  C81  1  0.64732000  0.87204000  0.17676000  1.0
  C  C82  1  0.27886000  0.43943000  0.71854000  1.0
  C  C83  1  0.71562000  0.56119000  0.28376000  1.0
  C  C84  1  0.13067000  0.95640000  0.30800000  1.0
  C  C85  1  0.86913000  0.04279000  0.69224000  1.0
  C  C86  1  0.09669000  0.75619000  0.78308000  1.0
  C  C87  1  0.90292000  0.24264000  0.21713000  1.0
  C  C88  1  0.43787000  0.51439000  0.74226000  1.0
  C  C89  1  0.56058000  0.49155000  0.25080000  1.0
  C  C90  1  0.33053000  0.97972000  0.30647000  1.0
  C  C91  1  0.66949000  0.01956000  0.69332000  1.0
  C  C92  1  0.10923000  0.53427000  0.56690000  1.0
  C  C93  1  0.89158000  0.46683000  0.42747000  1.0
  C  C94  1  0.26252000  0.45065000  0.90494000  1.0
  C  C95  1  0.74486000  0.54744000  0.09418000  1.0
  C  C96  1  0.21241000  0.42173000  0.83388000  1.0
  C  C97  1  0.78978000  0.57590000  0.16924000  1.0
  C  C98  1  0.51094000  0.74157000  0.50674000  1.0
  C  C99  1  0.47851000  0.26548000  0.50069000  1.0
  C  C100  1  0.21402000  0.66793000  0.42259000  1.0
  C  C101  1  0.79697000  0.33052000  0.57343000  1.0
  C  C102  1  0.28534000  0.06408000  0.37121000  1.0
  C  C103  1  0.71475000  0.93501000  0.62896000  1.0
  C  C104  1  0.37715000  0.49839000  0.85765000  1.0
  C  C105  1  0.62851000  0.50348000  0.13578000  1.0
  S  S106  1  0.87889000  0.29991000  0.83055000  1.0
  S  S107  1  0.11886000  0.69919000  0.17173000  1.0
  S  S108  1  0.51416000  0.86862000  0.48768000  1.0
  S  S109  1  0.48765000  0.13830000  0.51240000  1.0
  N  N110  1  0.19667000  0.06455000  0.77003000  1.0
  N  N111  1  0.80337000  0.93422000  0.22992000  1.0
  N  N112  1  0.96065000  0.11610000  0.91810000  1.0
  N  N113  1  0.03936000  0.88293000  0.08201000  1.0
  N  N114  1  0.07451000  0.91816000  0.86829000  1.0
  N  N115  1  0.92561000  0.08067000  0.13175000  1.0
  N  N116  1  0.22727000  0.41735000  0.64389000  1.0
  N  N117  1  0.76172000  0.58314000  0.36295000  1.0
  N  N118  1  0.16483000  0.30213000  0.55289000  1.0
  N  N119  1  0.82934000  0.69744000  0.45062000  1.0
  N  N120  1  0.21226000  0.24137000  0.70884000  1.0
  N  N121  1  0.78231000  0.75811000  0.29431000  1.0
  N  N122  1  0.16302000  0.05497000  0.96053000  1.0
  N  N123  1  0.83713000  0.94408000  0.03941000  1.0
  N  N124  1  0.15713000  0.11885000  0.61311000  1.0
  N  N125  1  0.84316000  0.88001000  0.38670000  1.0
  N  N126  1  0.51083000  0.64811000  0.51839000  1.0
  N  N127  1  0.47039000  0.35868000  0.49366000  1.0
  N  N128  1  0.32933000  0.54756000  0.49746000  1.0
  N  N129  1  0.67245000  0.45140000  0.51169000  1.0
  N  N130  1  0.39139000  0.48352000  0.67185000  1.0
  N  N131  1  0.60234000  0.52196000  0.32372000  1.0
  O  O132  1  0.11819000  0.18533000  0.46005000  1.0
  O  O133  1  0.88186000  0.81391000  0.53998000  1.0
  O  O134  1  0.30518000  0.84552000  0.20690000  1.0
  O  O135  1  0.69466000  0.15444000  0.79209000  1.0
