# generated using pymatgen
data_CsH4C8N2(ClO2)2
_symmetry_space_group_name_H-M   'P 1'
_cell_length_a   6.57888000
_cell_length_b   9.79241000
_cell_length_c   18.18240000
_cell_angle_alpha   89.99910000
_cell_angle_beta   90.00010000
_cell_angle_gamma   89.99940000
_symmetry_Int_Tables_number   1
_chemical_formula_structural   CsH4C8N2(ClO2)2
_chemical_formula_sum   'Cs4 H16 C32 N8 Cl8 O16'
_cell_volume   1171.36639687
_cell_formula_units_Z   4
loop_
 _symmetry_equiv_pos_site_id
 _symmetry_equiv_pos_as_xyz
  1  'x, y, z'
loop_
 _atom_site_type_symbol
 _atom_site_label
 _atom_site_symmetry_multiplicity
 _atom_site_fract_x
 _atom_site_fract_y
 _atom_site_fract_z
 _atom_site_occupancy
  Cs  Cs0  1  0.40431000  0.46029000  0.65735000  1.0
  Cs  Cs1  1  0.59570000  0.46029000  0.34266000  1.0
  Cs  Cs2  1  0.90430000  0.53971000  0.84266000  1.0
  Cs  Cs3  1  0.09570000  0.53971000  0.15734000  1.0
  H  H4  1  0.79613000  0.38065000  0.51688000  1.0
  H  H5  1  0.20388000  0.38065000  0.48312000  1.0
  H  H6  1  0.29613000  0.61934000  0.98312000  1.0
  H  H7  1  0.70387000  0.61934000  0.01688000  1.0
  H  H8  1  0.79648000  0.54308000  0.51824000  1.0
  H  H9  1  0.20352000  0.54308000  0.48176000  1.0
  H  H10  1  0.29648000  0.45692000  0.98176000  1.0
  H  H11  1  0.70352000  0.45691000  0.01824000  1.0
  H  H12  1  0.38355000  0.55159000  0.86660000  1.0
  H  H13  1  0.61646000  0.55157000  0.13340000  1.0
  H  H14  1  0.88354000  0.44842000  0.63340000  1.0
  H  H15  1  0.11647000  0.44843000  0.36660000  1.0
  H  H16  1  0.41953000  0.67249000  0.81401000  1.0
  H  H17  1  0.58048000  0.67247000  0.18599000  1.0
  H  H18  1  0.91953000  0.32752000  0.68599000  1.0
  H  H19  1  0.08048000  0.32753000  0.31401000  1.0
  C  C20  1  0.20156000  0.80798000  0.54780000  1.0
  C  C21  1  0.79842000  0.80799000  0.45219000  1.0
  C  C22  1  0.70158000  0.19201000  0.95220000  1.0
  C  C23  1  0.29843000  0.19203000  0.04780000  1.0
  C  C24  1  0.23538000  0.88876000  0.48152000  1.0
  C  C25  1  0.76461000  0.88873000  0.51848000  1.0
  C  C26  1  0.73538000  0.11126000  0.01849000  1.0
  C  C27  1  0.26463000  0.11125000  0.98151000  1.0
  C  C28  1  0.23459000  0.03182000  0.48316000  1.0
  C  C29  1  0.76540000  0.03181000  0.51684000  1.0
  C  C30  1  0.73458000  0.96819000  0.01684000  1.0
  C  C31  1  0.26543000  0.96819000  0.98316000  1.0
  C  C32  1  0.20196000  0.10924000  0.55091000  1.0
  C  C33  1  0.79804000  0.10923000  0.44909000  1.0
  C  C34  1  0.70195000  0.89076000  0.94909000  1.0
  C  C35  1  0.29805000  0.89077000  0.05091000  1.0
  C  C36  1  0.18082000  0.02685000  0.61811000  1.0
  C  C37  1  0.81917000  0.02685000  0.38189000  1.0
  C  C38  1  0.68082000  0.97315000  0.88189000  1.0
  C  C39  1  0.31917000  0.97315000  0.11811000  1.0
  C  C40  1  0.17905000  0.88645000  0.61641000  1.0
  C  C41  1  0.82094000  0.88646000  0.38359000  1.0
  C  C42  1  0.67905000  0.11354000  0.88359000  1.0
  C  C43  1  0.32094000  0.11355000  0.11641000  1.0
  C  C44  1  0.28535000  0.81688000  0.41635000  1.0
  C  C45  1  0.71465000  0.81686000  0.58365000  1.0
  C  C46  1  0.78535000  0.18312000  0.08365000  1.0
  C  C47  1  0.21466000  0.18313000  0.91634000  1.0
  C  C48  1  0.28200000  0.10905000  0.41979000  1.0
  C  C49  1  0.71800000  0.10904000  0.58022000  1.0
  C  C50  1  0.78198000  0.89094000  0.08022000  1.0
  C  C51  1  0.21802000  0.89096000  0.91978000  1.0
  N  N52  1  0.33104000  0.75660000  0.36331000  1.0
  N  N53  1  0.66897000  0.75658000  0.63669000  1.0
  N  N54  1  0.83104000  0.24340000  0.13669000  1.0
  N  N55  1  0.16896000  0.24341000  0.86331000  1.0
  N  N56  1  0.32482000  0.17596000  0.36882000  1.0
  N  N57  1  0.67519000  0.17595000  0.63118000  1.0
  N  N58  1  0.82481000  0.82404000  0.13118000  1.0
  N  N59  1  0.17518000  0.82404000  0.86882000  1.0
  Cl  Cl60  1  0.16342000  0.11284000  0.69944000  1.0
  Cl  Cl61  1  0.83658000  0.11285000  0.30056000  1.0
  Cl  Cl62  1  0.66342000  0.88715000  0.80056000  1.0
  Cl  Cl63  1  0.33657000  0.88715000  0.19944000  1.0
  Cl  Cl64  1  0.15682000  0.79474000  0.69533000  1.0
  Cl  Cl65  1  0.84317000  0.79475000  0.30466000  1.0
  Cl  Cl66  1  0.65682000  0.20525000  0.80466000  1.0
  Cl  Cl67  1  0.34316000  0.20526000  0.19534000  1.0
  O  O68  1  0.20048000  0.67985000  0.54753000  1.0
  O  O69  1  0.79951000  0.67985000  0.45246000  1.0
  O  O70  1  0.70049000  0.32015000  0.95246000  1.0
  O  O71  1  0.29952000  0.32015000  0.04753000  1.0
  O  O72  1  0.20014000  0.23734000  0.55208000  1.0
  O  O73  1  0.79986000  0.23734000  0.44792000  1.0
  O  O74  1  0.70014000  0.76265000  0.94793000  1.0
  O  O75  1  0.29986000  0.76266000  0.05208000  1.0
  O  O76  1  0.77345000  0.46086000  0.54851000  1.0
  O  O77  1  0.22655000  0.46086000  0.45149000  1.0
  O  O78  1  0.27346000  0.53914000  0.95149000  1.0
  O  O79  1  0.72655000  0.53914000  0.04851000  1.0
  O  O80  1  0.42629000  0.57296000  0.81507000  1.0
  O  O81  1  0.57371000  0.57293000  0.18492000  1.0
  O  O82  1  0.92629000  0.42706000  0.68492000  1.0
  O  O83  1  0.07371000  0.42706000  0.31508000  1.0
