# generated using pymatgen
data_ZnH7C5N3O2
_symmetry_space_group_name_H-M   'P 1'
_cell_length_a   11.24290000
_cell_length_b   12.25080000
_cell_length_c   12.25160000
_cell_angle_alpha   111.08200000
_cell_angle_beta   107.82900000
_cell_angle_gamma   107.79800000
_symmetry_Int_Tables_number   1
_chemical_formula_structural   ZnH7C5N3O2
_chemical_formula_sum   'Zn6 H42 C30 N18 O12'
_cell_volume   1324.54162699
_cell_formula_units_Z   6
loop_
 _symmetry_equiv_pos_site_id
 _symmetry_equiv_pos_as_xyz
  1  'x, y, z'
loop_
 _atom_site_type_symbol
 _atom_site_label
 _atom_site_symmetry_multiplicity
 _atom_site_fract_x
 _atom_site_fract_y
 _atom_site_fract_z
 _atom_site_occupancy
  Zn  Zn0  1  0.36891000  0.05781000  0.52248000  1.0
  Zn  Zn1  1  0.84639000  0.47733000  0.53526000  1.0
  Zn  Zn2  1  0.31118000  0.46472000  0.94216000  1.0
  Zn  Zn3  1  0.63108000  0.94219000  0.47752000  1.0
  Zn  Zn4  1  0.15361000  0.52267000  0.46474000  1.0
  Zn  Zn5  1  0.68882000  0.53528000  0.05784000  1.0
  H  H6  1  0.80869000  0.06916000  0.39968000  1.0
  H  H7  1  0.81862000  0.18401000  0.34203000  1.0
  H  H8  1  0.93008000  0.24008000  0.50760000  1.0
  H  H9  1  0.42587000  0.31223000  0.55637000  1.0
  H  H10  1  0.59305000  0.45613000  0.63275000  1.0
  H  H11  1  0.47716000  0.37958000  0.46255000  1.0
  H  H12  1  0.03908000  0.93483000  0.21170000  1.0
  H  H13  1  0.40906000  0.60007000  0.66938000  1.0
  H  H14  1  0.47678000  0.65774000  0.84191000  1.0
  H  H15  1  0.42247000  0.49214000  0.73238000  1.0
  H  H16  1  0.86960000  0.44358000  0.75565000  1.0
  H  H17  1  0.96039000  0.36720000  0.82323000  1.0
  H  H18  1  0.01469000  0.53737000  0.91690000  1.0
  H  H19  1  0.82754000  0.78808000  0.72303000  1.0
  H  H20  1  0.73961000  0.33051000  0.93066000  1.0
  H  H21  1  0.63478000  0.15802000  0.81579000  1.0
  H  H22  1  0.69006000  0.26752000  0.75974000  1.0
  H  H23  1  0.11376000  0.24433000  0.68791000  1.0
  H  H24  1  0.13682000  0.17672000  0.54390000  1.0
  H  H25  1  0.09753000  0.08307000  0.62044000  1.0
  H  H26  1  0.10428000  0.27673000  0.06480000  1.0
  H  H27  1  0.19132000  0.93084000  0.60032000  1.0
  H  H28  1  0.18138000  0.81599000  0.65797000  1.0
  H  H29  1  0.06992000  0.75992000  0.49241000  1.0
  H  H30  1  0.57413000  0.68777000  0.44364000  1.0
  H  H31  1  0.40695000  0.54387000  0.36725000  1.0
  H  H32  1  0.52284000  0.62042000  0.53745000  1.0
  H  H33  1  0.96091000  0.06517000  0.78830000  1.0
  H  H34  1  0.59094000  0.39993000  0.33062000  1.0
  H  H35  1  0.52323000  0.34226000  0.15809000  1.0
  H  H36  1  0.57753000  0.50786000  0.26762000  1.0
  H  H37  1  0.13040000  0.55642000  0.24435000  1.0
  H  H38  1  0.03961000  0.63280000  0.17677000  1.0
  H  H39  1  0.98531000  0.46263000  0.08310000  1.0
  H  H40  1  0.17245000  0.21193000  0.27696000  1.0
  H  H41  1  0.26039000  0.66949000  0.06934000  1.0
  H  H42  1  0.36522000  0.84198000  0.18422000  1.0
  H  H43  1  0.30994000  0.73248000  0.24027000  1.0
  H  H44  1  0.88624000  0.75567000  0.31209000  1.0
  H  H45  1  0.86318000  0.82329000  0.45610000  1.0
  H  H46  1  0.90247000  0.91693000  0.37955000  1.0
  H  H47  1  0.89572000  0.72326000  0.93519000  1.0
  C  C48  1  0.82307000  0.16928000  0.42602000  1.0
  C  C49  1  0.71467000  0.18963000  0.46251000  1.0
  C  C50  1  0.58202000  0.27247000  0.51298000  1.0
  C  C51  1  0.51616000  0.35982000  0.54350000  1.0
  C  C52  1  0.14627000  0.95699000  0.27906000  1.0
  C  C53  1  0.39714000  0.57378000  0.74319000  1.0
  C  C54  1  0.25228000  0.53740000  0.72710000  1.0
  C  C55  1  0.06914000  0.48698000  0.75941000  1.0
  C  C56  1  0.97277000  0.45645000  0.81621000  1.0
  C  C57  1  0.86720000  0.72060000  0.67778000  1.0
  C  C58  1  0.65386000  0.25673000  0.83053000  1.0
  C  C59  1  0.52510000  0.27285000  0.81021000  1.0
  C  C60  1  0.30957000  0.24052000  0.72749000  1.0
  C  C61  1  0.15636000  0.18375000  0.64021000  1.0
  C  C62  1  0.18929000  0.32196000  0.04270000  1.0
  C  C63  1  0.17693000  0.83072000  0.57398000  1.0
  C  C64  1  0.28533000  0.81037000  0.53749000  1.0
  C  C65  1  0.41798000  0.72754000  0.48702000  1.0
  C  C66  1  0.48385000  0.64018000  0.45651000  1.0
  C  C67  1  0.85373000  0.04301000  0.72094000  1.0
  C  C68  1  0.60287000  0.42622000  0.25681000  1.0
  C  C69  1  0.74772000  0.46260000  0.27290000  1.0
  C  C70  1  0.93086000  0.51302000  0.24059000  1.0
  C  C71  1  0.02723000  0.54355000  0.18379000  1.0
  C  C72  1  0.13280000  0.27940000  0.32221000  1.0
  C  C73  1  0.34614000  0.74327000  0.16947000  1.0
  C  C74  1  0.47490000  0.72715000  0.18979000  1.0
  C  C75  1  0.69043000  0.75948000  0.27251000  1.0
  C  C76  1  0.84364000  0.81625000  0.35979000  1.0
  C  C77  1  0.81071000  0.67804000  0.95730000  1.0
  N  N78  1  0.53491000  0.15330000  0.50283000  1.0
  N  N79  1  0.61948000  0.10075000  0.47101000  1.0
  N  N80  1  0.69577000  0.29923000  0.48957000  1.0
  N  N81  1  0.03219000  0.49714000  0.65043000  1.0
  N  N82  1  0.14855000  0.52894000  0.62969000  1.0
  N  N83  1  0.20636000  0.51039000  0.80964000  1.0
  N  N84  1  0.38168000  0.34951000  0.84666000  1.0
  N  N85  1  0.51881000  0.37025000  0.89915000  1.0
  N  N86  1  0.39655000  0.19030000  0.70065000  1.0
  N  N87  1  0.46509000  0.84670000  0.49718000  1.0
  N  N88  1  0.38052000  0.89925000  0.52899000  1.0
  N  N89  1  0.30423000  0.70077000  0.51043000  1.0
  N  N90  1  0.96782000  0.50286000  0.34958000  1.0
  N  N91  1  0.85145000  0.47106000  0.37031000  1.0
  N  N92  1  0.79364000  0.48961000  0.19036000  1.0
  N  N93  1  0.61832000  0.65049000  0.15334000  1.0
  N  N94  1  0.48119000  0.62975000  0.10085000  1.0
  N  N95  1  0.60345000  0.80969000  0.29935000  1.0
  O  O96  1  0.17823000  0.01597000  0.40395000  1.0
  O  O97  1  0.22331000  0.92635000  0.23446000  1.0
  O  O98  1  0.77422000  0.59577000  0.61211000  1.0
  O  O99  1  0.98873000  0.76500000  0.69146000  1.0
  O  O100  1  0.16231000  0.38801000  0.98389000  1.0
  O  O101  1  0.29695000  0.30790000  0.07322000  1.0
  O  O102  1  0.82177000  0.98403000  0.59605000  1.0
  O  O103  1  0.77669000  0.07366000  0.76553000  1.0
  O  O104  1  0.22579000  0.40423000  0.38789000  1.0
  O  O105  1  0.01127000  0.23501000  0.30855000  1.0
  O  O106  1  0.83768000  0.61198000  0.01610000  1.0
  O  O107  1  0.70306000  0.69211000  0.92680000  1.0
