# generated using pymatgen
data_CuH8C7NClO
_symmetry_space_group_name_H-M   'P 1'
_cell_length_a   6.16288000
_cell_length_b   7.88159000
_cell_length_c   8.45628000
_cell_angle_alpha   88.22650000
_cell_angle_beta   78.80220000
_cell_angle_gamma   68.70780000
_symmetry_Int_Tables_number   1
_chemical_formula_structural   CuH8C7NClO
_chemical_formula_sum   'Cu2 H16 C14 N2 Cl2 O2'
_cell_volume   375.07408067
_cell_formula_units_Z   2
loop_
 _symmetry_equiv_pos_site_id
 _symmetry_equiv_pos_as_xyz
  1  'x, y, z'
loop_
 _atom_site_type_symbol
 _atom_site_label
 _atom_site_symmetry_multiplicity
 _atom_site_fract_x
 _atom_site_fract_y
 _atom_site_fract_z
 _atom_site_occupancy
  Cu  Cu0  1  0.67512000  0.10641000  0.50011000  1.0
  Cu  Cu1  1  0.32488000  0.89358000  0.49990000  1.0
  H  H2  1  0.78201000  0.42617000  0.54536000  1.0
  H  H3  1  0.21799000  0.57383000  0.45464000  1.0
  H  H4  1  0.80104000  0.01927000  0.13689000  1.0
  H  H5  1  0.19896000  0.98074000  0.86311000  1.0
  H  H6  1  0.64513000  0.17299000  0.00357000  1.0
  H  H7  1  0.35487000  0.82701000  0.99643000  1.0
  H  H8  1  0.72445000  0.43715000  0.97508000  1.0
  H  H9  1  0.27556000  0.56285000  0.02492000  1.0
  H  H10  1  0.78982000  0.69832000  0.09526000  1.0
  H  H11  1  0.21019000  0.30169000  0.90473000  1.0
  H  H12  1  0.27834000  0.27224000  0.23780000  1.0
  H  H13  1  0.72166000  0.72776000  0.76220000  1.0
  H  H14  1  0.37182000  0.04526000  0.15857000  1.0
  H  H15  1  0.62817000  0.95474000  0.84142000  1.0
  H  H16  1  0.82274000  0.69145000  0.38701000  1.0
  H  H17  1  0.17726000  0.30855000  0.61298000  1.0
  C  C18  1  0.71042000  0.30001000  0.19785000  1.0
  C  C19  1  0.28957000  0.69999000  0.80215000  1.0
  C  C20  1  0.76902000  0.43660000  0.41864000  1.0
  C  C21  1  0.23097000  0.56341000  0.58135000  1.0
  C  C22  1  0.65517000  0.15024000  0.13123000  1.0
  C  C23  1  0.34483000  0.84976000  0.86877000  1.0
  C  C24  1  0.73634000  0.44187000  0.10168000  1.0
  C  C25  1  0.26365000  0.55812000  0.89831000  1.0
  C  C26  1  0.77431000  0.58538000  0.16825000  1.0
  C  C27  1  0.22569000  0.41463000  0.83175000  1.0
  C  C28  1  0.42362000  0.13684000  0.22598000  1.0
  C  C29  1  0.57639000  0.86314000  0.77403000  1.0
  C  C30  1  0.79196000  0.58252000  0.33013000  1.0
  C  C31  1  0.20804000  0.41748000  0.66988000  1.0
  N  N32  1  0.72676000  0.29921000  0.35551000  1.0
  N  N33  1  0.27323000  0.70081000  0.64449000  1.0
  Cl  Cl34  1  0.13300000  0.86025000  0.30986000  1.0
  Cl  Cl35  1  0.86700000  0.13976000  0.69016000  1.0
  O  O36  1  0.45387000  0.06588000  0.37921000  1.0
  O  O37  1  0.54613000  0.93412000  0.62080000  1.0
