# generated using pymatgen
data_CuH15C16(NO)5
_symmetry_space_group_name_H-M   'P 1'
_cell_length_a   6.19908000
_cell_length_b   11.64420000
_cell_length_c   23.56960000
_cell_angle_alpha   83.42690000
_cell_angle_beta   89.98900000
_cell_angle_gamma   89.97950000
_symmetry_Int_Tables_number   1
_chemical_formula_structural   CuH15C16(NO)5
_chemical_formula_sum   'Cu4 H60 C64 N20 O20'
_cell_volume   1690.14851875
_cell_formula_units_Z   4
loop_
 _symmetry_equiv_pos_site_id
 _symmetry_equiv_pos_as_xyz
  1  'x, y, z'
loop_
 _atom_site_type_symbol
 _atom_site_label
 _atom_site_symmetry_multiplicity
 _atom_site_fract_x
 _atom_site_fract_y
 _atom_site_fract_z
 _atom_site_occupancy
  Cu  Cu0  1  0.24117000  0.23591000  0.84948000  1.0
  Cu  Cu1  1  0.74129000  0.26407000  0.65060000  1.0
  Cu  Cu2  1  0.75885000  0.76410000  0.15052000  1.0
  Cu  Cu3  1  0.25861000  0.73592000  0.34938000  1.0
  H  H4  1  0.19323000  0.73269000  0.02340000  1.0
  H  H5  1  0.69289000  0.76718000  0.47662000  1.0
  H  H6  1  0.80681000  0.26730000  0.97660000  1.0
  H  H7  1  0.30706000  0.23282000  0.52338000  1.0
  H  H8  1  0.61957000  0.98863000  0.91815000  1.0
  H  H9  1  0.11939000  0.51127000  0.58189000  1.0
  H  H10  1  0.38048000  0.01135000  0.08185000  1.0
  H  H11  1  0.88058000  0.48872000  0.41810000  1.0
  H  H12  1  0.50185000  0.83305000  0.99232000  1.0
  H  H13  1  0.00163000  0.66688000  0.50774000  1.0
  H  H14  1  0.49819000  0.16694000  0.00767000  1.0
  H  H15  1  0.99835000  0.33311000  0.49224000  1.0
  H  H16  1  0.77731000  0.15760000  0.85600000  1.0
  H  H17  1  0.27734000  0.34238000  0.64410000  1.0
  H  H18  1  0.22271000  0.84239000  0.14400000  1.0
  H  H19  1  0.72265000  0.65762000  0.35590000  1.0
  H  H20  1  0.61886000  0.49541000  0.83048000  1.0
  H  H21  1  0.11925000  0.00448000  0.66945000  1.0
  H  H22  1  0.38113000  0.50460000  0.16950000  1.0
  H  H23  1  0.88076000  0.99556000  0.33052000  1.0
  H  H24  1  0.63285000  0.36444000  0.79815000  1.0
  H  H25  1  0.13327000  0.13538000  0.70187000  1.0
  H  H26  1  0.36720000  0.63558000  0.20185000  1.0
  H  H27  1  0.86673000  0.86467000  0.29811000  1.0
  H  H28  1  0.21272000  0.52020000  0.75176000  1.0
  H  H29  1  0.71322000  0.97971000  0.74831000  1.0
  H  H30  1  0.78737000  0.47977000  0.24823000  1.0
  H  H31  1  0.28690000  0.02031000  0.25170000  1.0
  H  H32  1  0.38016000  0.40330000  0.73637000  1.0
  H  H33  1  0.88051000  0.09667000  0.76369000  1.0
  H  H34  1  0.61978000  0.59663000  0.26363000  1.0
  H  H35  1  0.11952000  0.90345000  0.23629000  1.0
  H  H36  1  0.03111000  0.45397000  0.86228000  1.0
  H  H37  1  0.53145000  0.04613000  0.63781000  1.0
  H  H38  1  0.96890000  0.54600000  0.13772000  1.0
  H  H39  1  0.46855000  0.95385000  0.36220000  1.0
  H  H40  1  0.25860000  0.44578000  0.90703000  1.0
  H  H41  1  0.75888000  0.05423000  0.59303000  1.0
  H  H42  1  0.74144000  0.55419000  0.09297000  1.0
  H  H43  1  0.24108000  0.94574000  0.40697000  1.0
  H  H44  1  0.53527000  0.61087000  0.89741000  1.0
  H  H45  1  0.03559000  0.88896000  0.60266000  1.0
  H  H46  1  0.46473000  0.38911000  0.10260000  1.0
  H  H47  1  0.96442000  0.11102000  0.39736000  1.0
  H  H48  1  0.60298000  0.81670000  0.86573000  1.0
  H  H49  1  0.10309000  0.68309000  0.63432000  1.0
  H  H50  1  0.39701000  0.18328000  0.13428000  1.0
  H  H51  1  0.89691000  0.31689000  0.36569000  1.0
  H  H52  1  0.33888000  0.93282000  0.80391000  1.0
  H  H53  1  0.83881000  0.56711000  0.69612000  1.0
  H  H54  1  0.66112000  0.06717000  0.19610000  1.0
  H  H55  1  0.16117000  0.43287000  0.30389000  1.0
  H  H56  1  0.00669000  0.83647000  0.77056000  1.0
  H  H57  1  0.50673000  0.66367000  0.72952000  1.0
  H  H58  1  0.99328000  0.16353000  0.22947000  1.0
  H  H59  1  0.49329000  0.33632000  0.27051000  1.0
  H  H60  1  0.94402000  0.62914000  0.80005000  1.0
  H  H61  1  0.44430000  0.87105000  0.70006000  1.0
  H  H62  1  0.05595000  0.37085000  0.19998000  1.0
  H  H63  1  0.55576000  0.12894000  0.29998000  1.0
  C  C64  1  0.34807000  0.86739000  0.97511000  1.0
  C  C65  1  0.84784000  0.63252000  0.52495000  1.0
  C  C66  1  0.65198000  0.13259000  0.02489000  1.0
  C  C67  1  0.15214000  0.36747000  0.47504000  1.0
  C  C68  1  0.14547000  0.99830000  0.92137000  1.0
  C  C69  1  0.64534000  0.50163000  0.57869000  1.0
  C  C70  1  0.85458000  0.00169000  0.07863000  1.0
  C  C71  1  0.35464000  0.49837000  0.42130000  1.0
  C  C72  1  0.95591000  0.93718000  0.93748000  1.0
  C  C73  1  0.45576000  0.56271000  0.56255000  1.0
  C  C74  1  0.04411000  0.06281000  0.06252000  1.0
  C  C75  1  0.54426000  0.43727000  0.43744000  1.0
  C  C76  1  0.95984000  0.82924000  0.97354000  1.0
  C  C77  1  0.45953000  0.67063000  0.52646000  1.0
  C  C78  1  0.04021000  0.17074000  0.02645000  1.0
  C  C79  1  0.54045000  0.32935000  0.47353000  1.0
  C  C80  1  0.87412000  0.09331000  0.88091000  1.0
  C  C81  1  0.37405000  0.40664000  0.61917000  1.0
  C  C82  1  0.12593000  0.90668000  0.11910000  1.0
  C  C83  1  0.62592000  0.59335000  0.38083000  1.0
  C  C84  1  0.55517000  0.40709000  0.83210000  1.0
  C  C85  1  0.05545000  0.09288000  0.66788000  1.0
  C  C86  1  0.44489000  0.59295000  0.16788000  1.0
  C  C87  1  0.94451000  0.90719000  0.33209000  1.0
  C  C88  1  0.60669000  0.33611000  0.88908000  1.0
  C  C89  1  0.10687000  0.16393000  0.61092000  1.0
  C  C90  1  0.39336000  0.66393000  0.11091000  1.0
  C  C91  1  0.89306000  0.83614000  0.38905000  1.0
  C  C92  1  0.24970000  0.42841000  0.76397000  1.0
  C  C93  1  0.75002000  0.07159000  0.73609000  1.0
  C  C94  1  0.75033000  0.57159000  0.23602000  1.0
  C  C95  1  0.24998000  0.92849000  0.26390000  1.0
  C  C96  1  0.05694000  0.35335000  0.75218000  1.0
  C  C97  1  0.55711000  0.14659000  0.74789000  1.0
  C  C98  1  0.94301000  0.64668000  0.24783000  1.0
  C  C99  1  0.44283000  0.85342000  0.25209000  1.0
  C  C100  1  0.20287000  0.47602000  0.86366000  1.0
  C  C101  1  0.70322000  0.02398000  0.63642000  1.0
  C  C102  1  0.79713000  0.52395000  0.13635000  1.0
  C  C103  1  0.29679000  0.97599000  0.36359000  1.0
  C  C104  1  0.23798000  0.60399000  0.84922000  1.0
  C  C105  1  0.73823000  0.89602000  0.65084000  1.0
  C  C106  1  0.76201000  0.39599000  0.15078000  1.0
  C  C107  1  0.26178000  0.10397000  0.34918000  1.0
  C  C108  1  0.42165000  0.65896000  0.86827000  1.0
  C  C109  1  0.92187000  0.84095000  0.63179000  1.0
  C  C110  1  0.57835000  0.34103000  0.13174000  1.0
  C  C111  1  0.07814000  0.15904000  0.36823000  1.0
  C  C112  1  0.45841000  0.77593000  0.85104000  1.0
  C  C113  1  0.95851000  0.72394000  0.64901000  1.0
  C  C114  1  0.54159000  0.22406000  0.14897000  1.0
  C  C115  1  0.04149000  0.27604000  0.35100000  1.0
  C  C116  1  0.31015000  0.84077000  0.81595000  1.0
  C  C117  1  0.81016000  0.65917000  0.68409000  1.0
  C  C118  1  0.68985000  0.15921000  0.18406000  1.0
  C  C119  1  0.18982000  0.34081000  0.31592000  1.0
  C  C120  1  0.12458000  0.78748000  0.79788000  1.0
  C  C121  1  0.62469000  0.71258000  0.70219000  1.0
  C  C122  1  0.87539000  0.21251000  0.20214000  1.0
  C  C123  1  0.37534000  0.28740000  0.29784000  1.0
  C  C124  1  0.08953000  0.66996000  0.81436000  1.0
  C  C125  1  0.58976000  0.83014000  0.68572000  1.0
  C  C126  1  0.91044000  0.33003000  0.18566000  1.0
  C  C127  1  0.41029000  0.16986000  0.31431000  1.0
  N  N128  1  0.17200000  0.80404000  0.99198000  1.0
  N  N129  1  0.67170000  0.69585000  0.50803000  1.0
  N  N130  1  0.82805000  0.19595000  0.00801000  1.0
  N  N131  1  0.32827000  0.30414000  0.49195000  1.0
  N  N132  1  0.34667000  0.96363000  0.93945000  1.0
  N  N133  1  0.84648000  0.53631000  0.56061000  1.0
  N  N134  1  0.65340000  0.03636000  0.06054000  1.0
  N  N135  1  0.15348000  0.46368000  0.43938000  1.0
  N  N136  1  0.78736000  0.99961000  0.91114000  1.0
  N  N137  1  0.28721000  0.50028000  0.58890000  1.0
  N  N138  1  0.21268000  0.00037000  0.08886000  1.0
  N  N139  1  0.71277000  0.49970000  0.41110000  1.0
  N  N140  1  0.08987000  0.09634000  0.88553000  1.0
  N  N141  1  0.58978000  0.40365000  0.61454000  1.0
  N  N142  1  0.91020000  0.90367000  0.11446000  1.0
  N  N143  1  0.41017000  0.59636000  0.38545000  1.0
  N  N144  1  0.32006000  0.40462000  0.82377000  1.0
  N  N145  1  0.82042000  0.09539000  0.67630000  1.0
  N  N146  1  0.67996000  0.59540000  0.17623000  1.0
  N  N147  1  0.17958000  0.90465000  0.32370000  1.0
  O  O148  1  0.80728000  0.76384000  0.98831000  1.0
  O  O149  1  0.30686000  0.73600000  0.51164000  1.0
  O  O150  1  0.19280000  0.23614000  0.01167000  1.0
  O  O151  1  0.69309000  0.26399000  0.48835000  1.0
  O  O152  1  0.48318000  0.24800000  0.90313000  1.0
  O  O153  1  0.98317000  0.25200000  0.59691000  1.0
  O  O154  1  0.51692000  0.75201000  0.09686000  1.0
  O  O155  1  0.01671000  0.74803000  0.40306000  1.0
  O  O156  1  0.76480000  0.36268000  0.91788000  1.0
  O  O157  1  0.26511000  0.13744000  0.58212000  1.0
  O  O158  1  0.23517000  0.63738000  0.08213000  1.0
  O  O159  1  0.73487000  0.86265000  0.41787000  1.0
  O  O160  1  0.01362000  0.26686000  0.78990000  1.0
  O  O161  1  0.51378000  0.23309000  0.71018000  1.0
  O  O162  1  0.98629000  0.73318000  0.21012000  1.0
  O  O163  1  0.48609000  0.76687000  0.28979000  1.0
  O  O164  1  0.95625000  0.37642000  0.70631000  1.0
  O  O165  1  0.45636000  0.12346000  0.79375000  1.0
  O  O166  1  0.04366000  0.62360000  0.29371000  1.0
  O  O167  1  0.54363000  0.87654000  0.20624000  1.0
