# generated using pymatgen
data_FeH10C4(NCl)2
_symmetry_space_group_name_H-M   'P 1'
_cell_length_a   6.31272000
_cell_length_b   7.93068000
_cell_length_c   7.93416000
_cell_angle_alpha   107.42500000
_cell_angle_beta   90.45840000
_cell_angle_gamma   90.43010000
_symmetry_Int_Tables_number   1
_chemical_formula_structural   FeH10C4(NCl)2
_chemical_formula_sum   'Fe2 H20 C8 N4 Cl4'
_cell_volume   378.95614302
_cell_formula_units_Z   2
loop_
 _symmetry_equiv_pos_site_id
 _symmetry_equiv_pos_as_xyz
  1  'x, y, z'
loop_
 _atom_site_type_symbol
 _atom_site_label
 _atom_site_symmetry_multiplicity
 _atom_site_fract_x
 _atom_site_fract_y
 _atom_site_fract_z
 _atom_site_occupancy
  Fe  Fe0  1  0.25033000  0.57132000  0.42844000  1.0
  Fe  Fe1  1  0.74971000  0.42860000  0.57155000  1.0
  H  H2  1  0.57322000  0.77197000  0.50712000  1.0
  H  H3  1  0.92707000  0.49286000  0.22827000  1.0
  H  H4  1  0.42684000  0.22811000  0.49296000  1.0
  H  H5  1  0.07288000  0.50712000  0.77168000  1.0
  H  H6  1  0.34882000  0.91368000  0.74527000  1.0
  H  H7  1  0.15116000  0.25473000  0.08626000  1.0
  H  H8  1  0.65109000  0.08631000  0.25476000  1.0
  H  H9  1  0.84892000  0.74526000  0.91378000  1.0
  H  H10  1  0.21380000  0.01394000  0.60292000  1.0
  H  H11  1  0.28624000  0.39732000  0.98634000  1.0
  H  H12  1  0.78610000  0.98603000  0.39707000  1.0
  H  H13  1  0.71381000  0.60271000  0.01368000  1.0
  H  H14  1  0.31558000  0.93591000  0.29047000  1.0
  H  H15  1  0.18391000  0.71045000  0.06493000  1.0
  H  H16  1  0.68436000  0.06403000  0.70954000  1.0
  H  H17  1  0.81617000  0.28952000  0.93509000  1.0
  H  H18  1  0.51643000  0.77512000  0.21236000  1.0
  H  H19  1  0.98216000  0.78746000  0.22492000  1.0
  H  H20  1  0.48356000  0.22488000  0.78768000  1.0
  H  H21  1  0.01791000  0.21253000  0.77507000  1.0
  C  C22  1  0.36824000  0.96587000  0.63278000  1.0
  C  C23  1  0.13185000  0.36730000  0.03416000  1.0
  C  C24  1  0.63173000  0.03411000  0.36723000  1.0
  C  C25  1  0.86818000  0.63269000  0.96580000  1.0
  C  C26  1  0.46646000  0.88567000  0.32488000  1.0
  C  C27  1  0.03302000  0.67523000  0.11449000  1.0
  C  C28  1  0.53352000  0.11436000  0.67511000  1.0
  C  C29  1  0.96698000  0.32480000  0.88546000  1.0
  N  N30  1  0.42935000  0.81805000  0.47712000  1.0
  N  N31  1  0.07068000  0.52294000  0.18198000  1.0
  N  N32  1  0.57068000  0.18198000  0.52290000  1.0
  N  N33  1  0.92932000  0.47710000  0.81805000  1.0
  Cl  Cl34  1  0.57677000  0.42595000  0.27851000  1.0
  Cl  Cl35  1  0.92275000  0.72121000  0.57369000  1.0
  Cl  Cl36  1  0.42316000  0.57392000  0.72130000  1.0
  Cl  Cl37  1  0.07727000  0.27895000  0.42638000  1.0
