# generated using pymatgen
data_CdH13C10NO10
_symmetry_space_group_name_H-M   'P 1'
_cell_length_a   9.93368000
_cell_length_b   10.24040000
_cell_length_c   13.55850000
_cell_angle_alpha   98.10170000
_cell_angle_beta   90.00000000
_cell_angle_gamma   90.00000000
_symmetry_Int_Tables_number   1
_chemical_formula_structural   CdH13C10NO10
_chemical_formula_sum   'Cd4 H52 C40 N4 O40'
_cell_volume   1365.47096741
_cell_formula_units_Z   4
loop_
 _symmetry_equiv_pos_site_id
 _symmetry_equiv_pos_as_xyz
  1  'x, y, z'
loop_
 _atom_site_type_symbol
 _atom_site_label
 _atom_site_symmetry_multiplicity
 _atom_site_fract_x
 _atom_site_fract_y
 _atom_site_fract_z
 _atom_site_occupancy
  Cd  Cd0  1  0.24595000  0.22029000  0.82888000  1.0
  Cd  Cd1  1  0.74595000  0.27972000  0.17112000  1.0
  Cd  Cd2  1  0.75405000  0.77972000  0.17112000  1.0
  Cd  Cd3  1  0.25405000  0.72029000  0.82888000  1.0
  H  H4  1  0.12121000  0.11342000  0.66748000  1.0
  H  H5  1  0.62121000  0.38658000  0.33252000  1.0
  H  H6  1  0.87879000  0.88657000  0.33252000  1.0
  H  H7  1  0.37879000  0.61342000  0.66748000  1.0
  H  H8  1  0.13072000  0.98394000  0.72004000  1.0
  H  H9  1  0.63072000  0.51606000  0.27996000  1.0
  H  H10  1  0.86928000  0.01606000  0.27996000  1.0
  H  H11  1  0.36928000  0.48394000  0.72004000  1.0
  H  H12  1  0.08506000  0.45006000  0.84746000  1.0
  H  H13  1  0.58506000  0.04994000  0.15254000  1.0
  H  H14  1  0.91494000  0.54994000  0.15254000  1.0
  H  H15  1  0.41494000  0.95006000  0.84746000  1.0
  H  H16  1  0.00280000  0.34026000  0.89744000  1.0
  H  H17  1  0.50280000  0.15974000  0.10255000  1.0
  H  H18  1  0.99720000  0.65973000  0.10255000  1.0
  H  H19  1  0.49720000  0.84026000  0.89744000  1.0
  H  H20  1  0.37464000  0.45227000  0.93222000  1.0
  H  H21  1  0.87464000  0.04773000  0.06778000  1.0
  H  H22  1  0.62536000  0.54772000  0.06778000  1.0
  H  H23  1  0.12536000  0.95227000  0.93222000  1.0
  H  H24  1  0.40454000  0.31789000  0.97518000  1.0
  H  H25  1  0.90454000  0.18211000  0.02482000  1.0
  H  H26  1  0.59546000  0.68211000  0.02482000  1.0
  H  H27  1  0.09546000  0.81789000  0.97518000  1.0
  H  H28  1  0.62950000  0.04268000  0.53110000  1.0
  H  H29  1  0.12949000  0.45732000  0.46890000  1.0
  H  H30  1  0.37051000  0.95732000  0.46890000  1.0
  H  H31  1  0.87050000  0.54268000  0.53110000  1.0
  H  H32  1  0.58057000  0.27562000  0.81964000  1.0
  H  H33  1  0.08057000  0.22438000  0.18036000  1.0
  H  H34  1  0.41943000  0.72438000  0.18036000  1.0
  H  H35  1  0.91943000  0.77562000  0.81964000  1.0
  H  H36  1  0.91641000  0.33256000  0.62332000  1.0
  H  H37  1  0.41641000  0.16744000  0.37668000  1.0
  H  H38  1  0.08359000  0.66745000  0.37669000  1.0
  H  H39  1  0.58359000  0.83256000  0.62332000  1.0
  H  H40  1  0.83685000  0.04744000  0.45510000  1.0
  H  H41  1  0.33685000  0.45257000  0.54490000  1.0
  H  H42  1  0.16315000  0.95256000  0.54490000  1.0
  H  H43  1  0.66315000  0.54744000  0.45510000  1.0
  H  H44  1  0.94679000  0.18600000  0.48383000  1.0
  H  H45  1  0.44678000  0.31400000  0.51617000  1.0
  H  H46  1  0.05321000  0.81400000  0.51617000  1.0
  H  H47  1  0.55321000  0.68600000  0.48383000  1.0
  H  H48  1  0.63323000  0.48141000  0.87481000  1.0
  H  H49  1  0.13323000  0.01859000  0.12519000  1.0
  H  H50  1  0.36677000  0.51859000  0.12519000  1.0
  H  H51  1  0.86677000  0.98141000  0.87482000  1.0
  H  H52  1  0.78804000  0.56289000  0.91186000  1.0
  H  H53  1  0.28804000  0.93711000  0.08814000  1.0
  H  H54  1  0.21196000  0.43711000  0.08814000  1.0
  H  H55  1  0.71196000  0.06289000  0.91186000  1.0
  C  C56  1  0.66333000  0.11716000  0.59129000  1.0
  C  C57  1  0.16333000  0.38284000  0.40871000  1.0
  C  C58  1  0.33667000  0.88284000  0.40871000  1.0
  C  C59  1  0.83667000  0.61716000  0.59129000  1.0
  C  C60  1  0.59450000  0.14780000  0.68048000  1.0
  C  C61  1  0.09450000  0.35220000  0.31952000  1.0
  C  C62  1  0.40551000  0.85220000  0.31952000  1.0
  C  C63  1  0.90550000  0.64780000  0.68048000  1.0
  C  C64  1  0.63859000  0.25122000  0.75118000  1.0
  C  C65  1  0.13859000  0.24878000  0.24882000  1.0
  C  C66  1  0.36141000  0.74878000  0.24882000  1.0
  C  C67  1  0.86142000  0.75122000  0.75118000  1.0
  C  C68  1  0.75376000  0.32137000  0.73060000  1.0
  C  C69  1  0.25377000  0.17863000  0.26940000  1.0
  C  C70  1  0.24623000  0.67863000  0.26939000  1.0
  C  C71  1  0.74623000  0.82137000  0.73060000  1.0
  C  C72  1  0.82384000  0.28374000  0.64162000  1.0
  C  C73  1  0.32383000  0.21626000  0.35838000  1.0
  C  C74  1  0.17617000  0.71626000  0.35838000  1.0
  C  C75  1  0.67616000  0.78374000  0.64162000  1.0
  C  C76  1  0.47364000  0.06432000  0.69888000  1.0
  C  C77  1  0.97364000  0.43567000  0.30112000  1.0
  C  C78  1  0.52636000  0.93567000  0.30112000  1.0
  C  C79  1  0.02636000  0.56433000  0.69888000  1.0
  C  C80  1  0.84108000  0.15444000  0.47746000  1.0
  C  C81  1  0.34108000  0.34556000  0.52254000  1.0
  C  C82  1  0.15892000  0.84556000  0.52254000  1.0
  C  C83  1  0.65892000  0.65444000  0.47746000  1.0
  C  C84  1  0.76913000  0.22337000  0.39825000  1.0
  C  C85  1  0.26912000  0.27663000  0.60175000  1.0
  C  C86  1  0.23088000  0.77663000  0.60175000  1.0
  C  C87  1  0.73087000  0.72337000  0.39825000  1.0
  C  C88  1  0.74208000  0.46740000  0.88378000  1.0
  C  C89  1  0.24208000  0.03260000  0.11622000  1.0
  C  C90  1  0.25792000  0.53260000  0.11622000  1.0
  C  C91  1  0.75792000  0.96740000  0.88378000  1.0
  C  C92  1  0.76851000  0.37314000  0.95960000  1.0
  C  C93  1  0.26851000  0.12687000  0.04040000  1.0
  C  C94  1  0.23149000  0.62686000  0.04040000  1.0
  C  C95  1  0.73149000  0.87314000  0.95960000  1.0
  N  N96  1  0.77642000  0.18435000  0.57512000  1.0
  N  N97  1  0.27642000  0.31565000  0.42488000  1.0
  N  N98  1  0.22358000  0.81565000  0.42488000  1.0
  N  N99  1  0.72358000  0.68435000  0.57512000  1.0
  O  O100  1  0.09851000  0.07680000  0.73034000  1.0
  O  O101  1  0.59851000  0.42320000  0.26966000  1.0
  O  O102  1  0.90149000  0.92320000  0.26967000  1.0
  O  O103  1  0.40149000  0.57680000  0.73034000  1.0
  O  O104  1  0.85556000  0.28338000  0.93942000  1.0
  O  O105  1  0.35556000  0.21662000  0.06058000  1.0
  O  O106  1  0.14444000  0.71662000  0.06058000  1.0
  O  O107  1  0.64444000  0.78338000  0.93942000  1.0
  O  O108  1  0.09422000  0.37640000  0.88838000  1.0
  O  O109  1  0.59422000  0.12360000  0.11162000  1.0
  O  O110  1  0.90578000  0.62360000  0.11162000  1.0
  O  O111  1  0.40578000  0.87640000  0.88838000  1.0
  O  O112  1  0.69926000  0.39520000  0.03939000  1.0
  O  O113  1  0.19926000  0.10480000  0.96060000  1.0
  O  O114  1  0.30075000  0.60480000  0.96060000  1.0
  O  O115  1  0.80074000  0.89520000  0.03939000  1.0
  O  O116  1  0.41102000  0.36120000  0.91399000  1.0
  O  O117  1  0.91102000  0.13880000  0.08601000  1.0
  O  O118  1  0.58898000  0.63880000  0.08601000  1.0
  O  O119  1  0.08898000  0.86120000  0.91399000  1.0
  O  O120  1  0.68086000  0.30890000  0.42527000  1.0
  O  O121  1  0.18086000  0.19110000  0.57473000  1.0
  O  O122  1  0.31914000  0.69110000  0.57473000  1.0
  O  O123  1  0.81914000  0.80890000  0.42527000  1.0
  O  O124  1  0.81274000  0.18565000  0.31029000  1.0
  O  O125  1  0.31274000  0.31435000  0.68971000  1.0
  O  O126  1  0.18726000  0.81435000  0.68971000  1.0
  O  O127  1  0.68726000  0.68565000  0.31029000  1.0
  O  O128  1  0.43113000  0.98431000  0.62749000  1.0
  O  O129  1  0.93113000  0.51569000  0.37251000  1.0
  O  O130  1  0.56887000  0.01569000  0.37251000  1.0
  O  O131  1  0.06887000  0.48431000  0.62749000  1.0
  O  O132  1  0.42783000  0.08104000  0.78868000  1.0
  O  O133  1  0.92783000  0.41896000  0.21132000  1.0
  O  O134  1  0.57217000  0.91896000  0.21132000  1.0
  O  O135  1  0.07217000  0.58104000  0.78868000  1.0
  O  O136  1  0.80580000  0.42635000  0.78970000  1.0
  O  O137  1  0.30580000  0.07365000  0.21030000  1.0
  O  O138  1  0.19420000  0.57365000  0.21030000  1.0
  O  O139  1  0.69420000  0.92635000  0.78970000  1.0
