# generated using pymatgen
data_AlH9C20Br4O5
_symmetry_space_group_name_H-M   'P 1'
_cell_length_a   6.70657000
_cell_length_b   25.62820000
_cell_length_c   28.88620000
_cell_angle_alpha   90.00010000
_cell_angle_beta   89.99550000
_cell_angle_gamma   89.99930000
_symmetry_Int_Tables_number   1
_chemical_formula_structural   AlH9C20Br4O5
_chemical_formula_sum   'Al4 H36 C80 Br16 O20'
_cell_volume   4964.88254655
_cell_formula_units_Z   4
loop_
 _symmetry_equiv_pos_site_id
 _symmetry_equiv_pos_as_xyz
  1  'x, y, z'
loop_
 _atom_site_type_symbol
 _atom_site_label
 _atom_site_symmetry_multiplicity
 _atom_site_fract_x
 _atom_site_fract_y
 _atom_site_fract_z
 _atom_site_occupancy
  Al  Al0  1  0.80428000  0.74945000  0.75000000  1.0
  Al  Al1  1  0.19571000  0.25055000  0.25000000  1.0
  Al  Al2  1  0.30428000  0.75055000  0.75000000  1.0
  Al  Al3  1  0.69571000  0.24946000  0.25000000  1.0
  H  H4  1  0.23309000  0.32512000  0.37219000  1.0
  H  H5  1  0.76690000  0.67488000  0.62781000  1.0
  H  H6  1  0.76688000  0.67490000  0.87223000  1.0
  H  H7  1  0.23309000  0.32510000  0.12778000  1.0
  H  H8  1  0.73308000  0.17490000  0.12777000  1.0
  H  H9  1  0.26691000  0.82510000  0.87223000  1.0
  H  H10  1  0.26687000  0.82513000  0.62781000  1.0
  H  H11  1  0.73311000  0.17487000  0.37219000  1.0
  H  H12  1  0.26845000  0.38784000  0.43728000  1.0
  H  H13  1  0.73154000  0.61216000  0.56272000  1.0
  H  H14  1  0.73155000  0.61219000  0.93732000  1.0
  H  H15  1  0.26843000  0.38781000  0.06268000  1.0
  H  H16  1  0.76842000  0.11218000  0.06268000  1.0
  H  H17  1  0.23159000  0.88781000  0.93733000  1.0
  H  H18  1  0.23154000  0.88785000  0.56272000  1.0
  H  H19  1  0.76849000  0.11215000  0.43728000  1.0
  H  H20  1  0.70077000  0.45480000  0.40052000  1.0
  H  H21  1  0.29923000  0.54520000  0.59948000  1.0
  H  H22  1  0.29913000  0.54519000  0.90051000  1.0
  H  H23  1  0.70085000  0.45481000  0.09949000  1.0
  H  H24  1  0.20085000  0.04519000  0.09950000  1.0
  H  H25  1  0.79917000  0.95481000  0.90050000  1.0
  H  H26  1  0.79923000  0.95480000  0.59948000  1.0
  H  H27  1  0.20078000  0.04520000  0.40052000  1.0
  H  H28  1  0.72344000  0.43667000  0.49243000  1.0
  H  H29  1  0.27656000  0.56332000  0.50757000  1.0
  H  H30  1  0.27659000  0.56331000  0.99240000  1.0
  H  H31  1  0.72340000  0.43669000  0.00760000  1.0
  H  H32  1  0.22342000  0.06331000  0.00760000  1.0
  H  H33  1  0.77660000  0.93668000  0.99240000  1.0
  H  H34  1  0.77658000  0.93667000  0.50758000  1.0
  H  H35  1  0.22346000  0.06333000  0.49242000  1.0
  H  H36  1  0.54967000  0.68117000  0.75007000  1.0
  H  H37  1  0.45031000  0.31883000  0.24995000  1.0
  H  H38  1  0.04967000  0.81883000  0.75007000  1.0
  H  H39  1  0.95032000  0.18118000  0.24994000  1.0
  C  C40  1  0.55542000  0.81389000  0.68819000  1.0
  C  C41  1  0.44454000  0.18611000  0.31181000  1.0
  C  C42  1  0.44458000  0.18612000  0.18818000  1.0
  C  C43  1  0.55538000  0.81389000  0.81182000  1.0
  C  C44  1  0.05539000  0.68612000  0.81182000  1.0
  C  C45  1  0.94462000  0.31389000  0.18818000  1.0
  C  C46  1  0.94458000  0.31389000  0.31181000  1.0
  C  C47  1  0.05546000  0.68611000  0.68818000  1.0
  C  C48  1  0.11629000  0.35360000  0.37921000  1.0
  C  C49  1  0.88372000  0.64640000  0.62079000  1.0
  C  C50  1  0.88367000  0.64642000  0.87923000  1.0
  C  C51  1  0.11631000  0.35358000  0.12077000  1.0
  C  C52  1  0.61630000  0.14642000  0.12077000  1.0
  C  C53  1  0.38370000  0.85358000  0.87923000  1.0
  C  C54  1  0.38369000  0.85361000  0.62079000  1.0
  C  C55  1  0.61631000  0.14640000  0.37921000  1.0
  C  C56  1  0.13620000  0.38889000  0.41538000  1.0
  C  C57  1  0.86380000  0.61111000  0.58462000  1.0
  C  C58  1  0.86378000  0.61113000  0.91541000  1.0
  C  C59  1  0.13620000  0.38887000  0.08459000  1.0
  C  C60  1  0.63619000  0.11112000  0.08459000  1.0
  C  C61  1  0.36382000  0.88888000  0.91541000  1.0
  C  C62  1  0.36379000  0.88890000  0.58462000  1.0
  C  C63  1  0.63622000  0.11110000  0.41538000  1.0
  C  C64  1  0.98582000  0.42583000  0.42359000  1.0
  C  C65  1  0.01418000  0.57417000  0.57641000  1.0
  C  C66  1  0.01413000  0.57418000  0.92360000  1.0
  C  C67  1  0.98586000  0.42582000  0.07640000  1.0
  C  C68  1  0.48585000  0.07417000  0.07641000  1.0
  C  C69  1  0.51417000  0.92582000  0.92360000  1.0
  C  C70  1  0.51418000  0.92583000  0.57641000  1.0
  C  C71  1  0.48584000  0.07417000  0.42359000  1.0
  C  C72  1  0.81748000  0.42599000  0.39495000  1.0
  C  C73  1  0.18253000  0.57401000  0.60505000  1.0
  C  C74  1  0.18245000  0.57401000  0.89495000  1.0
  C  C75  1  0.81752000  0.42599000  0.10505000  1.0
  C  C76  1  0.31752000  0.07401000  0.10505000  1.0
  C  C77  1  0.68249000  0.92599000  0.89495000  1.0
  C  C78  1  0.68252000  0.92599000  0.60505000  1.0
  C  C79  1  0.31749000  0.07401000  0.39495000  1.0
  C  C80  1  0.79860000  0.39046000  0.35864000  1.0
  C  C81  1  0.20141000  0.60954000  0.64136000  1.0
  C  C82  1  0.20133000  0.60955000  0.85864000  1.0
  C  C83  1  0.79865000  0.39045000  0.14136000  1.0
  C  C84  1  0.29865000  0.10955000  0.14136000  1.0
  C  C85  1  0.70135000  0.89045000  0.85864000  1.0
  C  C86  1  0.70139000  0.89046000  0.64136000  1.0
  C  C87  1  0.29861000  0.10954000  0.35864000  1.0
  C  C88  1  0.94812000  0.35327000  0.35006000  1.0
  C  C89  1  0.05189000  0.64673000  0.64994000  1.0
  C  C90  1  0.05181000  0.64674000  0.85007000  1.0
  C  C91  1  0.94816000  0.35326000  0.14993000  1.0
  C  C92  1  0.44816000  0.14674000  0.14993000  1.0
  C  C93  1  0.55184000  0.85326000  0.85007000  1.0
  C  C94  1  0.55186000  0.85327000  0.64995000  1.0
  C  C95  1  0.44814000  0.14673000  0.35006000  1.0
  C  C96  1  0.84488000  0.46469000  0.49535000  1.0
  C  C97  1  0.15511000  0.53531000  0.50465000  1.0
  C  C98  1  0.15514000  0.53530000  0.99534000  1.0
  C  C99  1  0.84485000  0.46470000  0.00467000  1.0
  C  C100  1  0.34488000  0.03530000  0.00467000  1.0
  C  C101  1  0.65516000  0.96469000  0.99534000  1.0
  C  C102  1  0.65513000  0.96469000  0.50465000  1.0
  C  C103  1  0.34491000  0.03531000  0.49535000  1.0
  C  C104  1  0.84781000  0.49950000  0.53235000  1.0
  C  C105  1  0.15219000  0.50050000  0.46765000  1.0
  C  C106  1  0.15226000  0.50048000  0.03233000  1.0
  C  C107  1  0.84773000  0.49952000  0.96767000  1.0
  C  C108  1  0.34777000  0.00048000  0.96767000  1.0
  C  C109  1  0.65225000  0.99951000  0.03234000  1.0
  C  C110  1  0.65221000  0.99950000  0.46765000  1.0
  C  C111  1  0.34781000  0.00050000  0.53235000  1.0
  C  C112  1  0.00239000  0.53603000  0.53790000  1.0
  C  C113  1  0.99760000  0.46397000  0.46210000  1.0
  C  C114  1  0.99765000  0.46396000  0.03789000  1.0
  C  C115  1  0.00234000  0.53604000  0.96211000  1.0
  C  C116  1  0.50238000  0.96396000  0.96211000  1.0
  C  C117  1  0.49765000  0.03603000  0.03790000  1.0
  C  C118  1  0.49764000  0.03603000  0.46210000  1.0
  C  C119  1  0.50240000  0.96397000  0.53790000  1.0
  Br  Br120  1  0.56725000  0.39915000  0.32101000  1.0
  Br  Br121  1  0.43277000  0.60086000  0.67898000  1.0
  Br  Br122  1  0.43267000  0.60086000  0.82100000  1.0
  Br  Br123  1  0.56730000  0.39915000  0.17900000  1.0
  Br  Br124  1  0.06729000  0.10086000  0.17900000  1.0
  Br  Br125  1  0.93271000  0.89914000  0.82100000  1.0
  Br  Br126  1  0.93273000  0.89914000  0.67899000  1.0
  Br  Br127  1  0.06727000  0.10085000  0.32101000  1.0
  Br  Br128  1  0.64278000  0.49271000  0.57763000  1.0
  Br  Br129  1  0.35723000  0.50729000  0.42237000  1.0
  Br  Br130  1  0.35745000  0.50723000  0.07757000  1.0
  Br  Br131  1  0.64254000  0.49277000  0.92243000  1.0
  Br  Br132  1  0.14263000  0.00724000  0.92242000  1.0
  Br  Br133  1  0.85739000  0.99275000  0.07759000  1.0
  Br  Br134  1  0.85721000  0.99268000  0.42236000  1.0
  Br  Br135  1  0.14270000  0.00728000  0.57761000  1.0
  O  O136  1  0.38548000  0.79935000  0.79688000  1.0
  O  O137  1  0.61452000  0.20065000  0.20312000  1.0
  O  O138  1  0.61449000  0.20064000  0.29686000  1.0
  O  O139  1  0.38551000  0.79937000  0.70314000  1.0
  O  O140  1  0.88552000  0.70064000  0.70314000  1.0
  O  O141  1  0.11448000  0.29936000  0.29686000  1.0
  O  O142  1  0.11451000  0.29936000  0.20312000  1.0
  O  O143  1  0.88546000  0.70065000  0.79688000  1.0
  O  O144  1  0.72365000  0.79790000  0.70249000  1.0
  O  O145  1  0.27635000  0.20210000  0.29751000  1.0
  O  O146  1  0.27638000  0.20209000  0.20250000  1.0
  O  O147  1  0.72362000  0.79791000  0.79750000  1.0
  O  O148  1  0.22361000  0.70209000  0.79751000  1.0
  O  O149  1  0.77636000  0.29791000  0.20250000  1.0
  O  O150  1  0.77633000  0.29790000  0.29751000  1.0
  O  O151  1  0.22366000  0.70210000  0.70249000  1.0
  O  O152  1  0.55340000  0.71899000  0.75000000  1.0
  O  O153  1  0.44659000  0.28101000  0.25000000  1.0
  O  O154  1  0.05339000  0.78101000  0.75000000  1.0
  O  O155  1  0.94659000  0.21899000  0.25000000  1.0
