# generated using pymatgen
data_ZnH8C4(O2F)4
_symmetry_space_group_name_H-M   'P 1'
_cell_length_a   9.03752000
_cell_length_b   10.69430000
_cell_length_c   10.94100000
_cell_angle_alpha   115.50000000
_cell_angle_beta   89.99980000
_cell_angle_gamma   90.00000000
_symmetry_Int_Tables_number   1
_chemical_formula_structural   ZnH8C4(O2F)4
_chemical_formula_sum   'Zn4 H32 C16 O32 F16'
_cell_volume   954.43619544
_cell_formula_units_Z   4
loop_
 _symmetry_equiv_pos_site_id
 _symmetry_equiv_pos_as_xyz
  1  'x, y, z'
loop_
 _atom_site_type_symbol
 _atom_site_label
 _atom_site_symmetry_multiplicity
 _atom_site_fract_x
 _atom_site_fract_y
 _atom_site_fract_z
 _atom_site_occupancy
  Zn  Zn0  1  0.86684000  0.76414000  0.00832000  1.0
  Zn  Zn1  1  0.36684000  0.23586000  0.49168000  1.0
  Zn  Zn2  1  0.13316000  0.23585000  0.99168000  1.0
  Zn  Zn3  1  0.63316000  0.76415000  0.50832000  1.0
  H  H4  1  0.92961000  0.99600000  0.23850000  1.0
  H  H5  1  0.42961000  0.00400000  0.26150000  1.0
  H  H6  1  0.07039000  0.00400000  0.76150000  1.0
  H  H7  1  0.57039000  0.99600000  0.73850000  1.0
  H  H8  1  0.76587000  0.99582000  0.17671000  1.0
  H  H9  1  0.26587000  0.00419000  0.32329000  1.0
  H  H10  1  0.23413000  0.00419000  0.82329000  1.0
  H  H11  1  0.73413000  0.99581000  0.67671000  1.0
  H  H12  1  0.84103000  0.75917000  0.26006000  1.0
  H  H13  1  0.34103000  0.24083000  0.23994000  1.0
  H  H14  1  0.15897000  0.24083000  0.73994000  1.0
  H  H15  1  0.65897000  0.75917000  0.76006000  1.0
  H  H16  1  0.79455000  0.61831000  0.14686000  1.0
  H  H17  1  0.29455000  0.38169000  0.35314000  1.0
  H  H18  1  0.20545000  0.38169000  0.85313000  1.0
  H  H19  1  0.70544000  0.61831000  0.64686000  1.0
  H  H20  1  0.77425000  0.51924000  0.80137000  1.0
  H  H21  1  0.27425000  0.48075000  0.69864000  1.0
  H  H22  1  0.22575000  0.48075000  0.19863000  1.0
  H  H23  1  0.72575000  0.51925000  0.30136000  1.0
  H  H24  1  0.94390000  0.52208000  0.84561000  1.0
  H  H25  1  0.44390000  0.47792000  0.65440000  1.0
  H  H26  1  0.05610000  0.47791000  0.15439000  1.0
  H  H27  1  0.55610000  0.52209000  0.34561000  1.0
  H  H28  1  0.88842000  0.78924000  0.77721000  1.0
  H  H29  1  0.38842000  0.21076000  0.72279000  1.0
  H  H30  1  0.11158000  0.21076000  0.22279000  1.0
  H  H31  1  0.61158000  0.78924000  0.27721000  1.0
  H  H32  1  0.01773000  0.89038000  0.86717000  1.0
  H  H33  1  0.51774000  0.10961000  0.63283000  1.0
  H  H34  1  0.98227000  0.10962000  0.13283000  1.0
  H  H35  1  0.48226000  0.89039000  0.36717000  1.0
  C  C36  1  0.17105000  0.64404000  0.96463000  1.0
  C  C37  1  0.67105000  0.35596000  0.53538000  1.0
  C  C38  1  0.82895000  0.35596000  0.03537000  1.0
  C  C39  1  0.32895000  0.64404000  0.46462000  1.0
  C  C40  1  0.33665000  0.68072000  0.00099000  1.0
  C  C41  1  0.83665000  0.31928000  0.49901000  1.0
  C  C42  1  0.66335000  0.31928000  0.99901000  1.0
  C  C43  1  0.16335000  0.68072000  0.50099000  1.0
  C  C44  1  0.38890000  0.80647000  0.97559000  1.0
  C  C45  1  0.88890000  0.19353000  0.52441000  1.0
  C  C46  1  0.61110000  0.19353000  0.02441000  1.0
  C  C47  1  0.11110000  0.80647000  0.47559000  1.0
  C  C48  1  0.54915000  0.85309000  0.02703000  1.0
  C  C49  1  0.04915000  0.14691000  0.47297000  1.0
  C  C50  1  0.45085000  0.14691000  0.97297000  1.0
  C  C51  1  0.95085000  0.85309000  0.52703000  1.0
  O  O52  1  0.08246000  0.72743000  0.04884000  1.0
  O  O53  1  0.58246000  0.27257000  0.45116000  1.0
  O  O54  1  0.91754000  0.27257000  0.95115000  1.0
  O  O55  1  0.41754000  0.72743000  0.54884000  1.0
  O  O56  1  0.14333000  0.53807000  0.85539000  1.0
  O  O57  1  0.64334000  0.46193000  0.64461000  1.0
  O  O58  1  0.85666000  0.46193000  0.14461000  1.0
  O  O59  1  0.35666000  0.53807000  0.35539000  1.0
  O  O60  1  0.65031000  0.78607000  0.94476000  1.0
  O  O61  1  0.15031000  0.21393000  0.55524000  1.0
  O  O62  1  0.34968000  0.21393000  0.05524000  1.0
  O  O63  1  0.84969000  0.78606000  0.44476000  1.0
  O  O64  1  0.56451000  0.94834000  0.14447000  1.0
  O  O65  1  0.06451000  0.05166000  0.35553000  1.0
  O  O66  1  0.43549000  0.05166000  0.85553000  1.0
  O  O67  1  0.93549000  0.94834000  0.64447000  1.0
  O  O68  1  0.87191000  0.97526000  0.15354000  1.0
  O  O69  1  0.37191000  0.02475000  0.34647000  1.0
  O  O70  1  0.12809000  0.02475000  0.84646000  1.0
  O  O71  1  0.62809000  0.97525000  0.65353000  1.0
  O  O72  1  0.78464000  0.71964000  0.17436000  1.0
  O  O73  1  0.28464000  0.28036000  0.32565000  1.0
  O  O74  1  0.21536000  0.28036000  0.82564000  1.0
  O  O75  1  0.71536000  0.71964000  0.67435000  1.0
  O  O76  1  0.84169000  0.55044000  0.87974000  1.0
  O  O77  1  0.34169000  0.44956000  0.62026000  1.0
  O  O78  1  0.15831000  0.44956000  0.12026000  1.0
  O  O79  1  0.65831000  0.55044000  0.37974000  1.0
  O  O80  1  0.95092000  0.81378000  0.85794000  1.0
  O  O81  1  0.45092000  0.18622000  0.64206000  1.0
  O  O82  1  0.04908000  0.18622000  0.14206000  1.0
  O  O83  1  0.54908000  0.81378000  0.35794000  1.0
  F  F84  1  0.42601000  0.56996000  0.92594000  1.0
  F  F85  1  0.92602000  0.43004000  0.57406000  1.0
  F  F86  1  0.57399000  0.43004000  0.07406000  1.0
  F  F87  1  0.07399000  0.56996000  0.42595000  1.0
  F  F88  1  0.36004000  0.71224000  0.13498000  1.0
  F  F89  1  0.86004000  0.28776000  0.36502000  1.0
  F  F90  1  0.63996000  0.28776000  0.86502000  1.0
  F  F91  1  0.13996000  0.71224000  0.63498000  1.0
  F  F92  1  0.37898000  0.76822000  0.83888000  1.0
  F  F93  1  0.87898000  0.23178000  0.66112000  1.0
  F  F94  1  0.62102000  0.23178000  0.16112000  1.0
  F  F95  1  0.12103000  0.76823000  0.33888000  1.0
  F  F96  1  0.29300000  0.91536000  0.03959000  1.0
  F  F97  1  0.79300000  0.08464000  0.46041000  1.0
  F  F98  1  0.70700000  0.08464000  0.96041000  1.0
  F  F99  1  0.20700000  0.91536000  0.53959000  1.0
