# generated using pymatgen
data_AgH12C12S(NO)3
_symmetry_space_group_name_H-M   'P 1'
_cell_length_a   7.49039000
_cell_length_b   7.96497000
_cell_length_c   12.22730000
_cell_angle_alpha   88.52400000
_cell_angle_beta   78.01010000
_cell_angle_gamma   70.30070000
_symmetry_Int_Tables_number   1
_chemical_formula_structural   AgH12C12S(NO)3
_chemical_formula_sum   'Ag2 H24 C24 S2 N6 O6'
_cell_volume   671.03649106
_cell_formula_units_Z   2
loop_
 _symmetry_equiv_pos_site_id
 _symmetry_equiv_pos_as_xyz
  1  'x, y, z'
loop_
 _atom_site_type_symbol
 _atom_site_label
 _atom_site_symmetry_multiplicity
 _atom_site_fract_x
 _atom_site_fract_y
 _atom_site_fract_z
 _atom_site_occupancy
  Ag  Ag0  1  0.29224000  0.16316000  0.27586000  1.0
  Ag  Ag1  1  0.70777000  0.83684000  0.72414000  1.0
  H  H2  1  0.24624000  0.61474000  0.05337000  1.0
  H  H3  1  0.75375000  0.38527000  0.94663000  1.0
  H  H4  1  0.48710000  0.59468000  0.87395000  1.0
  H  H5  1  0.51291000  0.40532000  0.12605000  1.0
  H  H6  1  0.37890000  0.14069000  0.88934000  1.0
  H  H7  1  0.62112000  0.85930000  0.11065000  1.0
  H  H8  1  0.13666000  0.18212000  0.06667000  1.0
  H  H9  1  0.86336000  0.81789000  0.93332000  1.0
  H  H10  1  0.98346000  0.80353000  0.19556000  1.0
  H  H11  1  0.01655000  0.19647000  0.80443000  1.0
  H  H12  1  0.91127000  0.04256000  0.19115000  1.0
  H  H13  1  0.08873000  0.95744000  0.80885000  1.0
  H  H14  1  0.25040000  0.62255000  0.31959000  1.0
  H  H15  1  0.74959000  0.37746000  0.68040000  1.0
  H  H16  1  0.42197000  0.70019000  0.22702000  1.0
  H  H17  1  0.57803000  0.29981000  0.77298000  1.0
  H  H18  1  0.19954000  0.69147000  0.53594000  1.0
  H  H19  1  0.80045000  0.30853000  0.46406000  1.0
  H  H20  1  0.37304000  0.71265000  0.68324000  1.0
  H  H21  1  0.62695000  0.28735000  0.31676000  1.0
  H  H22  1  0.81800000  0.80603000  0.45293000  1.0
  H  H23  1  0.18199000  0.19398000  0.54707000  1.0
  H  H24  1  0.66450000  0.78127000  0.29407000  1.0
  H  H25  1  0.33549000  0.21873000  0.70593000  1.0
  C  C26  1  0.27638000  0.73316000  0.02048000  1.0
  C  C27  1  0.72362000  0.26684000  0.97952000  1.0
  C  C28  1  0.40868000  0.72235000  0.92002000  1.0
  C  C29  1  0.59133000  0.27764000  0.07998000  1.0
  C  C30  1  0.34856000  0.02574000  0.92788000  1.0
  C  C31  1  0.65145000  0.97426000  0.07212000  1.0
  C  C32  1  0.21354000  0.04881000  0.02798000  1.0
  C  C33  1  0.78648000  0.95119000  0.97201000  1.0
  C  C34  1  0.17728000  0.89967000  0.07714000  1.0
  C  C35  1  0.82272000  0.10033000  0.92286000  1.0
  C  C36  1  0.03467000  0.91792000  0.18562000  1.0
  C  C37  1  0.96533000  0.08208000  0.81437000  1.0
  C  C38  1  0.31930000  0.72551000  0.30821000  1.0
  C  C39  1  0.68070000  0.27450000  0.69179000  1.0
  C  C40  1  0.41811000  0.73535000  0.40144000  1.0
  C  C41  1  0.58188000  0.26465000  0.59856000  1.0
  C  C42  1  0.33628000  0.71717000  0.51287000  1.0
  C  C43  1  0.66372000  0.28283000  0.48713000  1.0
  C  C44  1  0.43310000  0.72970000  0.59625000  1.0
  C  C45  1  0.56689000  0.27030000  0.40375000  1.0
  C  C46  1  0.68148000  0.77917000  0.46784000  1.0
  C  C47  1  0.31851000  0.22084000  0.53216000  1.0
  C  C48  1  0.59429000  0.76800000  0.37966000  1.0
  C  C49  1  0.40570000  0.23201000  0.62035000  1.0
  S  S50  1  0.12700000  0.94185000  0.30945000  1.0
  S  S51  1  0.87300000  0.05816000  0.69055000  1.0
  N  N52  1  0.44720000  0.86512000  0.87415000  1.0
  N  N53  1  0.55280000  0.13487000  0.12584000  1.0
  N  N54  1  0.60306000  0.76016000  0.57503000  1.0
  N  N55  1  0.39694000  0.23984000  0.42498000  1.0
  N  N56  1  0.95384000  0.46777000  0.19280000  1.0
  N  N57  1  0.04616000  0.53222000  0.80720000  1.0
  O  O58  1  0.12300000  0.46087000  0.20436000  1.0
  O  O59  1  0.87700000  0.53913000  0.79564000  1.0
  O  O60  1  0.88703000  0.34817000  0.23327000  1.0
  O  O61  1  0.11297000  0.65182000  0.76674000  1.0
  O  O62  1  0.85782000  0.59362000  0.14130000  1.0
  O  O63  1  0.14218000  0.40637000  0.85870000  1.0
