# generated using pymatgen
data_CuSiH21C28IN3
_symmetry_space_group_name_H-M   'P 1'
_cell_length_a   10.08130000
_cell_length_b   11.29890000
_cell_length_c   14.13700000
_cell_angle_alpha   112.52900000
_cell_angle_beta   95.69620000
_cell_angle_gamma   99.37790000
_symmetry_Int_Tables_number   1
_chemical_formula_structural   CuSiH21C28IN3
_chemical_formula_sum   'Cu2 Si2 H42 C56 I2 N6'
_cell_volume   1444.26152035
_cell_formula_units_Z   2
loop_
 _symmetry_equiv_pos_site_id
 _symmetry_equiv_pos_as_xyz
  1  'x, y, z'
loop_
 _atom_site_type_symbol
 _atom_site_label
 _atom_site_symmetry_multiplicity
 _atom_site_fract_x
 _atom_site_fract_y
 _atom_site_fract_z
 _atom_site_occupancy
  Cu  Cu0  1  0.45328000  0.58845000  0.46790000  1.0
  Cu  Cu1  1  0.54672000  0.41156000  0.53210000  1.0
  Si  Si2  1  0.67774000  0.11490000  0.75706000  1.0
  Si  Si3  1  0.32226000  0.88510000  0.24294000  1.0
  H  H4  1  0.83048000  0.98130000  0.65799000  1.0
  H  H5  1  0.16952000  0.01870000  0.34201000  1.0
  H  H6  1  0.90755000  0.15186000  0.70973000  1.0
  H  H7  1  0.09245000  0.84814000  0.29027000  1.0
  H  H8  1  0.77816000  0.08230000  0.59773000  1.0
  H  H9  1  0.22184000  0.91770000  0.40227000  1.0
  H  H10  1  0.61387000  0.82537000  0.63483000  1.0
  H  H11  1  0.38613000  0.17463000  0.36517000  1.0
  H  H12  1  0.18697000  0.60038000  0.44859000  1.0
  H  H13  1  0.81303000  0.39962000  0.55141000  1.0
  H  H14  1  0.96088000  0.65721000  0.42474000  1.0
  H  H15  1  0.03912000  0.34278000  0.57526000  1.0
  H  H16  1  0.93270000  0.88477000  0.51878000  1.0
  H  H17  1  0.06729000  0.11523000  0.48122000  1.0
  H  H18  1  0.13092000  0.05933000  0.63703000  1.0
  H  H19  1  0.86907000  0.94067000  0.36297000  1.0
  H  H20  1  0.37844000  0.12676000  0.71392000  1.0
  H  H21  1  0.62156000  0.87324000  0.28608000  1.0
  H  H22  1  0.54093000  0.02704000  0.91029000  1.0
  H  H23  1  0.45907000  0.97297000  0.08971000  1.0
  H  H24  1  0.79575000  0.05762000  0.20736000  1.0
  H  H25  1  0.20425000  0.94238000  0.79264000  1.0
  H  H26  1  0.04134000  0.13889000  0.29102000  1.0
  H  H27  1  0.95866000  0.86111000  0.70898000  1.0
  H  H28  1  0.21210000  0.22285000  0.20423000  1.0
  H  H29  1  0.78790000  0.77715000  0.79577000  1.0
  H  H30  1  0.13896000  0.23022000  0.03369000  1.0
  H  H31  1  0.86104000  0.76978000  0.96631000  1.0
  H  H32  1  0.95089000  0.19212000  0.89010000  1.0
  H  H33  1  0.04911000  0.80788000  0.10990000  1.0
  H  H34  1  0.59950000  0.21574000  0.60433000  1.0
  H  H35  1  0.40050000  0.78427000  0.39566000  1.0
  H  H36  1  0.49284000  0.61829000  0.69082000  1.0
  H  H37  1  0.50717000  0.38171000  0.30918000  1.0
  H  H38  1  0.48886000  0.80620000  0.85759000  1.0
  H  H39  1  0.51114000  0.19380000  0.14241000  1.0
  H  H40  1  0.57093000  0.80238000  0.02693000  1.0
  H  H41  1  0.42907000  0.19762000  0.97307000  1.0
  H  H42  1  0.64036000  0.60269000  0.03342000  1.0
  H  H43  1  0.35965000  0.39731000  0.96658000  1.0
  H  H44  1  0.67441000  0.37648000  0.93990000  1.0
  H  H45  1  0.32559000  0.62352000  0.06010000  1.0
  C  C46  1  0.81089000  0.07905000  0.67289000  1.0
  C  C47  1  0.18911000  0.92095000  0.32711000  1.0
  C  C48  1  0.51351000  0.99118000  0.68557000  1.0
  C  C49  1  0.48649000  0.00882000  0.31443000  1.0
  C  C50  1  0.51778000  0.85783000  0.63021000  1.0
  C  C51  1  0.48221000  0.14217000  0.36980000  1.0
  C  C52  1  0.28746000  0.79698000  0.55652000  1.0
  C  C53  1  0.71254000  0.20302000  0.44348000  1.0
  C  C54  1  0.17359000  0.70030000  0.48879000  1.0
  C  C55  1  0.82641000  0.29970000  0.51121000  1.0
  C  C56  1  0.04880000  0.73252000  0.47585000  1.0
  C  C57  1  0.95119000  0.26747000  0.52415000  1.0
  C  C58  1  0.03261000  0.86211000  0.52972000  1.0
  C  C59  1  0.96739000  0.13789000  0.47028000  1.0
  C  C60  1  0.14210000  0.95871000  0.59553000  1.0
  C  C61  1  0.85790000  0.04129000  0.40446000  1.0
  C  C62  1  0.27205000  0.92904000  0.61041000  1.0
  C  C63  1  0.72795000  0.07096000  0.38959000  1.0
  C  C64  1  0.38852000  0.02520000  0.67478000  1.0
  C  C65  1  0.61148000  0.97480000  0.32522000  1.0
  C  C66  1  0.73879000  0.11177000  0.88539000  1.0
  C  C67  1  0.26121000  0.88824000  0.11461000  1.0
  C  C68  1  0.65060000  0.06328000  0.94146000  1.0
  C  C69  1  0.34940000  0.93672000  0.05855000  1.0
  C  C70  1  0.82624000  0.10026000  0.07404000  1.0
  C  C71  1  0.17376000  0.89974000  0.92597000  1.0
  C  C72  1  0.87157000  0.09538000  0.17028000  1.0
  C  C73  1  0.12843000  0.90461000  0.82973000  1.0
  C  C74  1  0.00781000  0.13965000  0.21566000  1.0
  C  C75  1  0.99219000  0.86034000  0.78434000  1.0
  C  C76  1  0.10518000  0.18849000  0.16658000  1.0
  C  C77  1  0.89482000  0.81150000  0.83342000  1.0
  C  C78  1  0.06455000  0.19339000  0.07243000  1.0
  C  C79  1  0.93545000  0.80661000  0.92757000  1.0
  C  C80  1  0.92483000  0.15079000  0.02467000  1.0
  C  C81  1  0.07517000  0.84920000  0.97534000  1.0
  C  C82  1  0.87656000  0.15505000  0.92904000  1.0
  C  C83  1  0.12344000  0.84496000  0.07096000  1.0
  C  C84  1  0.64047000  0.27818000  0.77220000  1.0
  C  C85  1  0.35954000  0.72182000  0.22779000  1.0
  C  C86  1  0.60336000  0.29551000  0.67960000  1.0
  C  C87  1  0.39664000  0.70449000  0.32039000  1.0
  C  C88  1  0.56993000  0.50541000  0.76794000  1.0
  C  C89  1  0.43008000  0.49459000  0.23206000  1.0
  C  C90  1  0.52610000  0.61740000  0.76636000  1.0
  C  C91  1  0.47391000  0.38261000  0.23364000  1.0
  C  C92  1  0.52483000  0.72080000  0.85858000  1.0
  C  C93  1  0.47517000  0.27920000  0.14142000  1.0
  C  C94  1  0.56882000  0.71737000  0.95558000  1.0
  C  C95  1  0.43118000  0.28263000  0.04442000  1.0
  C  C96  1  0.60909000  0.60804000  0.95921000  1.0
  C  C97  1  0.39092000  0.39196000  0.04079000  1.0
  C  C98  1  0.60923000  0.49893000  0.86593000  1.0
  C  C99  1  0.39077000  0.50107000  0.13407000  1.0
  C  C100  1  0.64513000  0.38271000  0.86565000  1.0
  C  C101  1  0.35486000  0.61729000  0.13434000  1.0
  I  I102  1  0.28386000  0.38794000  0.47253000  1.0
  I  I103  1  0.71614000  0.61206000  0.52747000  1.0
  N  N104  1  0.41214000  0.76367000  0.56744000  1.0
  N  N105  1  0.58786000  0.23633000  0.43256000  1.0
  N  N106  1  0.69033000  0.05722000  0.03134000  1.0
  N  N107  1  0.30967000  0.94278000  0.96866000  1.0
  N  N108  1  0.57189000  0.40334000  0.67521000  1.0
  N  N109  1  0.42811000  0.59666000  0.32479000  1.0
