# generated using pymatgen
data_CdH10C14(SN6)2
_symmetry_space_group_name_H-M   'P 1'
_cell_length_a   7.08979000
_cell_length_b   10.78510000
_cell_length_c   12.41960000
_cell_angle_alpha   89.99970000
_cell_angle_beta   105.64100000
_cell_angle_gamma   90.00000000
_symmetry_Int_Tables_number   1
_chemical_formula_structural   CdH10C14(SN6)2
_chemical_formula_sum   'Cd2 H20 C28 S4 N24'
_cell_volume   914.48768668
_cell_formula_units_Z   2
loop_
 _symmetry_equiv_pos_site_id
 _symmetry_equiv_pos_as_xyz
  1  'x, y, z'
loop_
 _atom_site_type_symbol
 _atom_site_label
 _atom_site_symmetry_multiplicity
 _atom_site_fract_x
 _atom_site_fract_y
 _atom_site_fract_z
 _atom_site_occupancy
  Cd  Cd0  1  0.00000000  0.00000000  0.00000000  1.0
  Cd  Cd1  1  0.50000000  0.50000000  0.00000000  1.0
  H  H2  1  0.02543000  0.31283000  0.91600000  1.0
  H  H3  1  0.47457000  0.81283000  0.08400000  1.0
  H  H4  1  0.97457000  0.68718000  0.08400000  1.0
  H  H5  1  0.52542000  0.18717000  0.91600000  1.0
  H  H6  1  0.93227000  0.38353000  0.68867000  1.0
  H  H7  1  0.56773000  0.88353000  0.31132000  1.0
  H  H8  1  0.06773000  0.61647000  0.31132000  1.0
  H  H9  1  0.43227000  0.11647000  0.68867000  1.0
  H  H10  1  0.89418000  0.31815000  0.33190000  1.0
  H  H11  1  0.60581000  0.81815000  0.66810000  1.0
  H  H12  1  0.10582000  0.68185000  0.66811000  1.0
  H  H13  1  0.39418000  0.18184000  0.33190000  1.0
  H  H14  1  0.76332000  0.11307000  0.24595000  1.0
  H  H15  1  0.73668000  0.61306000  0.75405000  1.0
  H  H16  1  0.23669000  0.88693000  0.75405000  1.0
  H  H17  1  0.26331000  0.38693000  0.24595000  1.0
  H  H18  1  0.73931000  0.98508000  0.55809000  1.0
  H  H19  1  0.76069000  0.48508000  0.44190000  1.0
  H  H20  1  0.26069000  0.01492000  0.44191000  1.0
  H  H21  1  0.23931000  0.51492000  0.55809000  1.0
  C  C22  1  0.99215000  0.25750000  0.84041000  1.0
  C  C23  1  0.50785000  0.75750000  0.15958000  1.0
  C  C24  1  0.00785000  0.74250000  0.15958000  1.0
  C  C25  1  0.49215000  0.24250000  0.84042000  1.0
  C  C26  1  0.95181000  0.29380000  0.73036000  1.0
  C  C27  1  0.54819000  0.79381000  0.26964000  1.0
  C  C28  1  0.04820000  0.70620000  0.26964000  1.0
  C  C29  1  0.45181000  0.20619000  0.73036000  1.0
  C  C30  1  0.86967000  0.16744000  0.55476000  1.0
  C  C31  1  0.63033000  0.66744000  0.44524000  1.0
  C  C32  1  0.13033000  0.83256000  0.44524000  1.0
  C  C33  1  0.36967000  0.33256000  0.55476000  1.0
  C  C34  1  0.86676000  0.24190000  0.38355000  1.0
  C  C35  1  0.63323000  0.74190000  0.61645000  1.0
  C  C36  1  0.13324000  0.75809000  0.61645000  1.0
  C  C37  1  0.36676000  0.25809000  0.38355000  1.0
  C  C38  1  0.78986000  0.12949000  0.33536000  1.0
  C  C39  1  0.71014000  0.62949000  0.66463000  1.0
  C  C40  1  0.21015000  0.87051000  0.66464000  1.0
  C  C41  1  0.28985000  0.37051000  0.33536000  1.0
  C  C42  1  0.78078000  0.05704000  0.50731000  1.0
  C  C43  1  0.71922000  0.55705000  0.49269000  1.0
  C  C44  1  0.21922000  0.94296000  0.49269000  1.0
  C  C45  1  0.28078000  0.44295000  0.50731000  1.0
  C  C46  1  0.87337000  0.27811000  0.08949000  1.0
  C  C47  1  0.62664000  0.77811000  0.91052000  1.0
  C  C48  1  0.12663000  0.72189000  0.91051000  1.0
  C  C49  1  0.37336000  0.22189000  0.08949000  1.0
  S  S50  1  0.87206000  0.42697000  0.11160000  1.0
  S  S51  1  0.62794000  0.92697000  0.88841000  1.0
  S  S52  1  0.12794000  0.57303000  0.88841000  1.0
  S  S53  1  0.37206000  0.07304000  0.11159000  1.0
  N  N54  1  0.98253000  0.13085000  0.84278000  1.0
  N  N55  1  0.51747000  0.63086000  0.15722000  1.0
  N  N56  1  0.01747000  0.86915000  0.15722000  1.0
  N  N57  1  0.48253000  0.36914000  0.84278000  1.0
  N  N58  1  0.93769000  0.08566000  0.74114000  1.0
  N  N59  1  0.56231000  0.58566000  0.25886000  1.0
  N  N60  1  0.06232000  0.91434000  0.25886000  1.0
  N  N61  1  0.43769000  0.41434000  0.74114000  1.0
  N  N62  1  0.91887000  0.18496000  0.67210000  1.0
  N  N63  1  0.58113000  0.68497000  0.32790000  1.0
  N  N64  1  0.08114000  0.81503000  0.32790000  1.0
  N  N65  1  0.41887000  0.31503000  0.67210000  1.0
  N  N66  1  0.90933000  0.26075000  0.49440000  1.0
  N  N67  1  0.59067000  0.76075000  0.50560000  1.0
  N  N68  1  0.09067000  0.73925000  0.50561000  1.0
  N  N69  1  0.40933000  0.23924000  0.49440000  1.0
  N  N70  1  0.74350000  0.03833000  0.39749000  1.0
  N  N71  1  0.75650000  0.53833000  0.60251000  1.0
  N  N72  1  0.25651000  0.96167000  0.60251000  1.0
  N  N73  1  0.24349000  0.46167000  0.39749000  1.0
  N  N74  1  0.87775000  0.16957000  0.07538000  1.0
  N  N75  1  0.62225000  0.66957000  0.92463000  1.0
  N  N76  1  0.12225000  0.83044000  0.92463000  1.0
  N  N77  1  0.37774000  0.33044000  0.07537000  1.0
