# generated using pymatgen
data_H8RhC9O4
_symmetry_space_group_name_H-M   'P 1'
_cell_length_a   9.50054000
_cell_length_b   10.64040000
_cell_length_c   10.64060000
_cell_angle_alpha   102.39500000
_cell_angle_beta   99.95910000
_cell_angle_gamma   99.96340000
_symmetry_Int_Tables_number   1
_chemical_formula_structural   H8RhC9O4
_chemical_formula_sum   'H32 Rh4 C36 O16'
_cell_volume   1009.75950462
_cell_formula_units_Z   4
loop_
 _symmetry_equiv_pos_site_id
 _symmetry_equiv_pos_as_xyz
  1  'x, y, z'
loop_
 _atom_site_type_symbol
 _atom_site_label
 _atom_site_symmetry_multiplicity
 _atom_site_fract_x
 _atom_site_fract_y
 _atom_site_fract_z
 _atom_site_occupancy
  H  H0  1  0.83934000  0.38475000  0.18602000  1.0
  H  H1  1  0.66070000  0.81395000  0.61519000  1.0
  H  H2  1  0.16066000  0.61524000  0.81395000  1.0
  H  H3  1  0.33933000  0.18604000  0.38481000  1.0
  H  H4  1  0.64241000  0.34022000  0.13986000  1.0
  H  H5  1  0.85760000  0.86017000  0.65984000  1.0
  H  H6  1  0.35759000  0.65978000  0.86012000  1.0
  H  H7  1  0.14241000  0.13982000  0.34019000  1.0
  H  H8  1  0.74633000  0.34614000  0.01764000  1.0
  H  H9  1  0.75365000  0.98235000  0.65386000  1.0
  H  H10  1  0.25366000  0.65382000  0.98233000  1.0
  H  H11  1  0.24637000  0.01764000  0.34615000  1.0
  H  H12  1  0.52979000  0.07657000  0.58071000  1.0
  H  H13  1  0.97022000  0.41930000  0.92342000  1.0
  H  H14  1  0.47021000  0.92343000  0.41930000  1.0
  H  H15  1  0.02976000  0.58070000  0.07656000  1.0
  H  H16  1  0.60964000  0.24181000  0.47959000  1.0
  H  H17  1  0.89033000  0.52040000  0.75815000  1.0
  H  H18  1  0.39036000  0.75818000  0.52042000  1.0
  H  H19  1  0.10967000  0.47960000  0.24183000  1.0
  H  H20  1  0.61495000  0.46919000  0.54245000  1.0
  H  H21  1  0.88502000  0.45750000  0.53079000  1.0
  H  H22  1  0.38506000  0.53082000  0.45756000  1.0
  H  H23  1  0.11498000  0.54250000  0.46919000  1.0
  H  H24  1  0.54838000  0.58546000  0.73084000  1.0
  H  H25  1  0.95161000  0.26913000  0.41456000  1.0
  H  H26  1  0.45162000  0.41455000  0.26917000  1.0
  H  H27  1  0.04840000  0.73087000  0.58544000  1.0
  H  H28  1  0.46352000  0.50457000  0.89666000  1.0
  H  H29  1  0.03648000  0.10332000  0.49547000  1.0
  H  H30  1  0.53647000  0.49544000  0.10334000  1.0
  H  H31  1  0.96353000  0.89668000  0.50453000  1.0
  Rh  Rh32  1  0.38630000  0.10137000  0.95761000  1.0
  Rh  Rh33  1  0.11369000  0.04240000  0.89863000  1.0
  Rh  Rh34  1  0.61369000  0.89862000  0.04240000  1.0
  Rh  Rh35  1  0.88631000  0.95761000  0.10138000  1.0
  C  C36  1  0.74814000  0.17962000  0.09820000  1.0
  C  C37  1  0.75184000  0.90178000  0.82038000  1.0
  C  C38  1  0.25186000  0.82037000  0.90181000  1.0
  C  C39  1  0.24817000  0.09822000  0.17963000  1.0
  C  C40  1  0.74439000  0.32181000  0.11282000  1.0
  C  C41  1  0.75559000  0.88715000  0.67820000  1.0
  C  C42  1  0.25560000  0.67819000  0.88717000  1.0
  C  C43  1  0.24442000  0.11281000  0.32181000  1.0
  C  C44  1  0.46746000  0.18208000  0.74353000  1.0
  C  C45  1  0.03252000  0.25645000  0.81790000  1.0
  C  C46  1  0.53252000  0.81792000  0.25646000  1.0
  C  C47  1  0.96747000  0.74354000  0.18208000  1.0
  C  C48  1  0.52287000  0.17633000  0.62824000  1.0
  C  C49  1  0.97711000  0.37175000  0.82366000  1.0
  C  C50  1  0.47713000  0.82367000  0.37176000  1.0
  C  C51  1  0.02288000  0.62825000  0.17633000  1.0
  C  C52  1  0.56974000  0.27532000  0.56865000  1.0
  C  C53  1  0.93022000  0.43135000  0.72465000  1.0
  C  C54  1  0.43026000  0.72469000  0.43136000  1.0
  C  C55  1  0.06977000  0.56867000  0.27534000  1.0
  C  C56  1  0.57390000  0.41037000  0.60603000  1.0
  C  C57  1  0.92607000  0.39395000  0.58961000  1.0
  C  C58  1  0.42609000  0.58962000  0.39398000  1.0
  C  C59  1  0.07394000  0.60605000  0.41038000  1.0
  C  C60  1  0.53422000  0.47873000  0.71713000  1.0
  C  C61  1  0.96577000  0.28284000  0.52124000  1.0
  C  C62  1  0.46578000  0.52126000  0.28286000  1.0
  C  C63  1  0.03424000  0.71715000  0.47873000  1.0
  C  C64  1  0.48243000  0.43115000  0.81629000  1.0
  C  C65  1  0.01756000  0.18368000  0.56886000  1.0
  C  C66  1  0.51754000  0.56885000  0.18370000  1.0
  C  C67  1  0.98246000  0.81631000  0.43114000  1.0
  C  C68  1  0.45453000  0.30243000  0.83375000  1.0
  C  C69  1  0.04545000  0.16623000  0.69757000  1.0
  C  C70  1  0.54545000  0.69757000  0.16624000  1.0
  C  C71  1  0.95455000  0.83378000  0.30244000  1.0
  O  O72  1  0.63108000  0.09268000  0.03491000  1.0
  O  O73  1  0.86893000  0.96509000  0.90730000  1.0
  O  O74  1  0.36892000  0.90731000  0.96511000  1.0
  O  O75  1  0.13108000  0.03492000  0.09272000  1.0
  O  O76  1  0.86570000  0.14946000  0.14721000  1.0
  O  O77  1  0.63431000  0.85280000  0.85058000  1.0
  O  O78  1  0.13430000  0.85054000  0.85281000  1.0
  O  O79  1  0.36571000  0.14721000  0.14944000  1.0
  O  O80  1  0.42874000  0.07224000  0.77700000  1.0
  O  O81  1  0.07125000  0.22301000  0.92775000  1.0
  O  O82  1  0.57125000  0.92778000  0.22301000  1.0
  O  O83  1  0.92872000  0.77700000  0.07224000  1.0
  O  O84  1  0.41433000  0.28684000  0.94215000  1.0
  O  O85  1  0.08566000  0.05785000  0.71318000  1.0
  O  O86  1  0.58565000  0.71318000  0.05786000  1.0
  O  O87  1  0.91435000  0.94215000  0.28683000  1.0
