# generated using pymatgen
data_MnH2(C3O2)2
_symmetry_space_group_name_H-M   'P 1'
_cell_length_a   6.58814000
_cell_length_b   11.31260000
_cell_length_c   11.35930000
_cell_angle_alpha   111.42200000
_cell_angle_beta   90.00070000
_cell_angle_gamma   90.03230000
_symmetry_Int_Tables_number   1
_chemical_formula_structural   MnH2(C3O2)2
_chemical_formula_sum   'Mn6 H12 C36 O24'
_cell_volume   788.11041754
_cell_formula_units_Z   6
loop_
 _symmetry_equiv_pos_site_id
 _symmetry_equiv_pos_as_xyz
  1  'x, y, z'
loop_
 _atom_site_type_symbol
 _atom_site_label
 _atom_site_symmetry_multiplicity
 _atom_site_fract_x
 _atom_site_fract_y
 _atom_site_fract_z
 _atom_site_occupancy
  Mn  Mn0  1  0.28281000  0.72618000  0.82322000  1.0
  Mn  Mn1  1  0.78153000  0.77522000  0.67730000  1.0
  Mn  Mn2  1  0.71868000  0.27508000  0.17737000  1.0
  Mn  Mn3  1  0.21897000  0.22409000  0.32229000  1.0
  Mn  Mn4  1  0.00040000  0.50030000  0.50008000  1.0
  Mn  Mn5  1  0.49855000  0.99832000  0.99855000  1.0
  H  H6  1  0.33640000  0.97079000  0.34468000  1.0
  H  H7  1  0.83640000  0.52909000  0.15559000  1.0
  H  H8  1  0.66348000  0.02926000  0.65572000  1.0
  H  H9  1  0.16363000  0.47101000  0.84434000  1.0
  H  H10  1  0.34092000  0.92768000  0.54371000  1.0
  H  H11  1  0.84145000  0.57204000  0.95644000  1.0
  H  H12  1  0.65921000  0.07236000  0.45662000  1.0
  H  H13  1  0.15916000  0.42785000  0.04345000  1.0
  H  H14  1  0.37459000  0.57059000  0.13253000  1.0
  H  H15  1  0.87425000  0.92940000  0.36758000  1.0
  H  H16  1  0.62505000  0.42943000  0.86787000  1.0
  H  H17  1  0.12524000  0.07084000  0.63216000  1.0
  C  C18  1  0.34711000  0.77250000  0.22522000  1.0
  C  C19  1  0.84723000  0.72741000  0.27490000  1.0
  C  C20  1  0.65256000  0.22753000  0.77515000  1.0
  C  C21  1  0.15282000  0.27271000  0.72493000  1.0
  C  C22  1  0.34132000  0.87374000  0.34186000  1.0
  C  C23  1  0.84151000  0.62610000  0.15829000  1.0
  C  C24  1  0.65843000  0.12631000  0.65850000  1.0
  C  C25  1  0.15860000  0.37397000  0.84158000  1.0
  C  C26  1  0.34106000  0.84949000  0.45278000  1.0
  C  C27  1  0.84153000  0.65028000  0.04733000  1.0
  C  C28  1  0.65880000  0.15057000  0.54758000  1.0
  C  C29  1  0.15891000  0.34967000  0.95250000  1.0
  C  C30  1  0.34056000  0.72479000  0.45123000  1.0
  C  C31  1  0.84107000  0.77495000  0.04886000  1.0
  C  C32  1  0.65920000  0.27528000  0.54915000  1.0
  C  C33  1  0.15940000  0.22496000  0.95089000  1.0
  C  C34  1  0.35228000  0.62191000  0.33433000  1.0
  C  C35  1  0.85222000  0.87787000  0.16570000  1.0
  C  C36  1  0.64739000  0.37814000  0.66603000  1.0
  C  C37  1  0.14754000  0.12216000  0.83400000  1.0
  C  C38  1  0.35745000  0.64861000  0.22284000  1.0
  C  C39  1  0.85734000  0.85130000  0.27726000  1.0
  C  C40  1  0.64222000  0.35143000  0.77753000  1.0
  C  C41  1  0.14240000  0.14883000  0.72251000  1.0
  C  C42  1  0.35044000  0.80099000  0.10660000  1.0
  C  C43  1  0.85032000  0.69906000  0.39366000  1.0
  C  C44  1  0.64955000  0.19901000  0.89379000  1.0
  C  C45  1  0.14968000  0.30100000  0.60618000  1.0
  C  C46  1  0.33102000  0.71871000  0.58000000  1.0
  C  C47  1  0.83218000  0.78123000  0.92019000  1.0
  C  C48  1  0.66892000  0.28129000  0.42038000  1.0
  C  C49  1  0.16917000  0.21863000  0.07951000  1.0
  C  C50  1  0.37797000  0.48423000  0.31731000  1.0
  C  C51  1  0.87717000  0.01551000  0.18253000  1.0
  C  C52  1  0.62180000  0.51580000  0.68294000  1.0
  C  C53  1  0.12162000  0.98460000  0.81684000  1.0
  O  O54  1  0.31750000  0.71151000  0.00091000  1.0
  O  O55  1  0.81693000  0.78869000  0.49918000  1.0
  O  O56  1  0.68303000  0.28862000  0.99932000  1.0
  O  O57  1  0.18295000  0.21129000  0.50068000  1.0
  O  O58  1  0.50088000  0.42216000  0.23203000  1.0
  O  O59  1  0.00002000  0.07793000  0.26782000  1.0
  O  O60  1  0.49860000  0.57792000  0.76802000  1.0
  O  O61  1  0.99886000  0.92245000  0.73150000  1.0
  O  O62  1  0.27445000  0.43476000  0.38422000  1.0
  O  O63  1  0.77327000  0.06464000  0.11555000  1.0
  O  O64  1  0.72570000  0.56522000  0.61610000  1.0
  O  O65  1  0.22497000  0.93502000  0.88380000  1.0
  O  O66  1  0.18967000  0.65908000  0.61258000  1.0
  O  O67  1  0.69054000  0.84055000  0.88758000  1.0
  O  O68  1  0.81027000  0.34098000  0.38801000  1.0
  O  O69  1  0.31057000  0.15883000  0.11164000  1.0
  O  O70  1  0.45591000  0.78507000  0.66447000  1.0
  O  O71  1  0.95756000  0.71553000  0.83587000  1.0
  O  O72  1  0.54429000  0.21484000  0.33590000  1.0
  O  O73  1  0.04449000  0.28477000  0.16405000  1.0
  O  O74  1  0.38725000  0.91572000  0.12025000  1.0
  O  O75  1  0.88713000  0.58442000  0.38017000  1.0
  O  O76  1  0.61284000  0.08433000  0.88027000  1.0
  O  O77  1  0.11283000  0.41560000  0.61968000  1.0
