# generated using pymatgen
data_DyCuH16C24N4ClO10
_symmetry_space_group_name_H-M   'P 1'
_cell_length_a   12.42540000
_cell_length_b   12.42950000
_cell_length_c   22.15480000
_cell_angle_alpha   98.63030000
_cell_angle_beta   97.95750000
_cell_angle_gamma   119.04700000
_symmetry_Int_Tables_number   1
_chemical_formula_structural   DyCuH16C24N4ClO10
_chemical_formula_sum   'Dy4 Cu4 H64 C96 N16 Cl4 O40'
_cell_volume   2867.65382939
_cell_formula_units_Z   4
loop_
 _symmetry_equiv_pos_site_id
 _symmetry_equiv_pos_as_xyz
  1  'x, y, z'
loop_
 _atom_site_type_symbol
 _atom_site_label
 _atom_site_symmetry_multiplicity
 _atom_site_fract_x
 _atom_site_fract_y
 _atom_site_fract_z
 _atom_site_occupancy
  Dy  Dy0  1  0.43081000  0.90128000  0.85958000  1.0
  Dy  Dy1  1  0.95828000  0.92868000  0.35959000  1.0
  Dy  Dy2  1  0.04172000  0.07132000  0.64041000  1.0
  Dy  Dy3  1  0.56919000  0.09872000  0.14042000  1.0
  Cu  Cu4  1  0.20782000  0.42507000  0.07990000  1.0
  Cu  Cu5  1  0.65462000  0.37182000  0.57989000  1.0
  Cu  Cu6  1  0.34538000  0.62818000  0.42011000  1.0
  Cu  Cu7  1  0.79217000  0.57493000  0.92010000  1.0
  H  H8  1  0.54751000  0.31497000  0.01437000  1.0
  H  H9  1  0.47953000  0.44985000  0.07263000  1.0
  H  H10  1  0.15362000  0.04402000  0.92444000  1.0
  H  H11  1  0.96454000  0.00504000  0.91716000  1.0
  H  H12  1  0.74035000  0.16161000  0.97003000  1.0
  H  H13  1  0.94118000  0.35549000  0.03929000  1.0
  H  H14  1  0.35830000  0.39410000  0.29679000  1.0
  H  H15  1  0.98850000  0.19206000  0.11575000  1.0
  H  H16  1  0.97698000  0.09090000  0.20674000  1.0
  H  H17  1  0.52442000  0.55338000  0.28262000  1.0
  H  H18  1  0.64853000  0.81962000  0.16821000  1.0
  H  H19  1  0.42625000  0.68499000  0.09363000  1.0
  H  H20  1  0.46469000  0.74688000  0.75235000  1.0
  H  H21  1  0.58230000  0.80194000  0.81418000  1.0
  H  H22  1  0.39539000  0.82079000  0.97995000  1.0
  H  H23  1  0.26506000  0.72069000  0.92093000  1.0
  H  H24  1  0.69928000  0.96673000  0.51427000  1.0
  H  H25  1  0.62253000  0.09287000  0.57256000  1.0
  H  H26  1  0.88031000  0.27076000  0.42439000  1.0
  H  H27  1  0.91220000  0.45279000  0.41722000  1.0
  H  H28  1  0.80845000  0.72963000  0.47036000  1.0
  H  H29  1  0.68363000  0.59777000  0.53947000  1.0
  H  H30  1  0.90290000  0.43827000  0.79664000  1.0
  H  H31  1  0.92354000  0.62723000  0.61572000  1.0
  H  H32  1  0.11583000  0.72970000  0.70664000  1.0
  H  H33  1  0.72912000  0.25813000  0.78262000  1.0
  H  H34  1  0.34832000  0.01968000  0.66821000  1.0
  H  H35  1  0.40842000  0.16734000  0.59360000  1.0
  H  H36  1  0.00547000  0.78751000  0.25235000  1.0
  H  H37  1  0.01224000  0.73187000  0.31424000  1.0
  H  H38  1  0.15896000  0.08430000  0.47993000  1.0
  H  H39  1  0.19999000  0.15585000  0.42098000  1.0
  H  H40  1  0.30072000  0.03327000  0.48573000  1.0
  H  H41  1  0.37747000  0.90713000  0.42744000  1.0
  H  H42  1  0.11969000  0.72924000  0.57561000  1.0
  H  H43  1  0.08780000  0.54721000  0.58277000  1.0
  H  H44  1  0.19155000  0.27037000  0.52964000  1.0
  H  H45  1  0.31637000  0.40222000  0.46053000  1.0
  H  H46  1  0.09710000  0.56174000  0.20336000  1.0
  H  H47  1  0.07646000  0.37277000  0.38428000  1.0
  H  H48  1  0.88417000  0.27030000  0.29336000  1.0
  H  H49  1  0.27088000  0.74186000  0.21738000  1.0
  H  H50  1  0.65168000  0.98032000  0.33179000  1.0
  H  H51  1  0.59158000  0.83266000  0.40640000  1.0
  H  H52  1  0.99452000  0.21249000  0.74765000  1.0
  H  H53  1  0.98776000  0.26812000  0.68576000  1.0
  H  H54  1  0.84104000  0.91570000  0.52007000  1.0
  H  H55  1  0.80001000  0.84415000  0.57902000  1.0
  H  H56  1  0.45249000  0.68503000  0.98563000  1.0
  H  H57  1  0.52047000  0.55015000  0.92737000  1.0
  H  H58  1  0.84638000  0.95597000  0.07556000  1.0
  H  H59  1  0.03545000  0.99496000  0.08284000  1.0
  H  H60  1  0.25965000  0.83840000  0.02996000  1.0
  H  H61  1  0.05883000  0.64451000  0.96071000  1.0
  H  H62  1  0.64170000  0.60591000  0.70321000  1.0
  H  H63  1  0.01150000  0.80794000  0.88425000  1.0
  H  H64  1  0.02302000  0.90910000  0.79326000  1.0
  H  H65  1  0.47558000  0.44662000  0.71738000  1.0
  H  H66  1  0.35147000  0.18038000  0.83179000  1.0
  H  H67  1  0.57375000  0.31501000  0.90637000  1.0
  H  H68  1  0.53531000  0.25312000  0.24765000  1.0
  H  H69  1  0.41770000  0.19806000  0.18582000  1.0
  H  H70  1  0.60461000  0.17921000  0.02005000  1.0
  H  H71  1  0.73494000  0.27931000  0.07907000  1.0
  C  C72  1  0.38508000  0.07820000  0.93030000  1.0
  C  C73  1  0.35309000  0.16697000  0.96602000  1.0
  C  C74  1  0.44712000  0.28319000  0.00719000  1.0
  C  C75  1  0.40944000  0.35890000  0.03950000  1.0
  C  C76  1  0.22622000  0.13322000  0.95759000  1.0
  C  C77  1  0.19626000  0.21493000  0.99155000  1.0
  C  C78  1  0.06550000  0.18989000  0.98460000  1.0
  C  C79  1  0.95808000  0.08068000  0.94507000  1.0
  C  C80  1  0.83141000  0.16773000  0.97448000  1.0
  C  C81  1  0.83920000  0.06812000  0.94124000  1.0
  C  C82  1  0.94164000  0.27481000  0.01250000  1.0
  C  C83  1  0.71899000  0.95095000  0.90114000  1.0
  C  C84  1  0.16400000  0.17992000  0.31446000  1.0
  C  C85  1  0.16911000  0.23495000  0.25756000  1.0
  C  C86  1  0.27735000  0.34624000  0.25602000  1.0
  C  C87  1  0.27830000  0.39467000  0.20302000  1.0
  C  C88  1  0.07031000  0.23194000  0.15560000  1.0
  C  C89  1  0.06359000  0.17668000  0.20617000  1.0
  C  C90  1  0.38683000  0.51207000  0.19691000  1.0
  C  C91  1  0.50478000  0.58184000  0.24026000  1.0
  C  C92  1  0.60003000  0.69196000  0.22912000  1.0
  C  C93  1  0.57509000  0.73180000  0.17599000  1.0
  C  C94  1  0.45523000  0.65917000  0.13515000  1.0
  C  C95  1  0.72772000  0.77084000  0.27459000  1.0
  C  C96  1  0.85206000  0.04521000  0.43025000  1.0
  C  C97  1  0.79897000  0.11286000  0.46596000  1.0
  C  C98  1  0.72384000  0.05992000  0.50710000  1.0
  C  C99  1  0.68035000  0.12983000  0.53942000  1.0
  C  C100  1  0.82424000  0.23126000  0.45754000  1.0
  C  C101  1  0.77642000  0.29510000  0.49151000  1.0
  C  C102  1  0.79451000  0.41888000  0.48461000  1.0
  C  C103  1  0.86442000  0.48703000  0.44519000  1.0
  C  C104  1  0.80677000  0.64303000  0.47474000  1.0
  C  C105  1  0.87318000  0.60210000  0.44146000  1.0
  C  C106  1  0.73758000  0.57063000  0.51267000  1.0
  C  C107  1  0.95010000  0.68217000  0.40129000  1.0
  C  C108  1  0.13460000  0.65019000  0.81431000  1.0
  C  C109  1  0.02269000  0.58824000  0.75742000  1.0
  C  C110  1  0.90986000  0.47843000  0.75587000  1.0
  C  C111  1  0.80829000  0.42454000  0.70293000  1.0
  C  C112  1  0.92359000  0.58515000  0.65552000  1.0
  C  C113  1  0.02954000  0.64242000  0.70604000  1.0
  C  C114  1  0.68471000  0.30996000  0.69688000  1.0
  C  C115  1  0.65824000  0.23541000  0.74026000  1.0
  C  C116  1  0.53692000  0.12903000  0.72908000  1.0
  C  C117  1  0.44394000  0.10086000  0.67595000  1.0
  C  C118  1  0.47577000  0.17985000  0.63512000  1.0
  C  C119  1  0.50341000  0.04669000  0.77449000  1.0
  C  C120  1  0.14795000  0.95479000  0.56975000  1.0
  C  C121  1  0.20104000  0.88714000  0.53404000  1.0
  C  C122  1  0.27616000  0.94008000  0.49290000  1.0
  C  C123  1  0.31965000  0.87017000  0.46058000  1.0
  C  C124  1  0.17577000  0.76874000  0.54246000  1.0
  C  C125  1  0.22358000  0.70490000  0.50849000  1.0
  C  C126  1  0.20549000  0.58112000  0.51539000  1.0
  C  C127  1  0.13559000  0.51298000  0.55481000  1.0
  C  C128  1  0.19324000  0.35698000  0.52526000  1.0
  C  C129  1  0.12682000  0.39791000  0.55854000  1.0
  C  C130  1  0.26242000  0.42937000  0.48733000  1.0
  C  C131  1  0.04990000  0.31783000  0.59870000  1.0
  C  C132  1  0.86541000  0.34981000  0.18569000  1.0
  C  C133  1  0.97731000  0.41176000  0.24258000  1.0
  C  C134  1  0.09014000  0.52157000  0.24413000  1.0
  C  C135  1  0.19171000  0.57546000  0.29707000  1.0
  C  C136  1  0.07641000  0.41485000  0.34448000  1.0
  C  C137  1  0.97046000  0.35758000  0.29396000  1.0
  C  C138  1  0.31529000  0.69004000  0.30312000  1.0
  C  C139  1  0.34176000  0.76459000  0.25974000  1.0
  C  C140  1  0.46308000  0.87096000  0.27092000  1.0
  C  C141  1  0.55606000  0.89914000  0.32405000  1.0
  C  C142  1  0.52423000  0.82015000  0.36488000  1.0
  C  C143  1  0.49658000  0.95331000  0.22552000  1.0
  C  C144  1  0.61493000  0.92181000  0.06970000  1.0
  C  C145  1  0.64691000  0.83303000  0.03398000  1.0
  C  C146  1  0.55288000  0.71682000  0.99281000  1.0
  C  C147  1  0.59056000  0.64110000  0.96050000  1.0
  C  C148  1  0.77378000  0.86678000  0.04240000  1.0
  C  C149  1  0.80374000  0.78507000  0.00845000  1.0
  C  C150  1  0.93450000  0.81011000  0.01540000  1.0
  C  C151  1  0.04192000  0.91932000  0.05493000  1.0
  C  C152  1  0.16859000  0.83227000  0.02552000  1.0
  C  C153  1  0.16080000  0.93189000  0.05876000  1.0
  C  C154  1  0.05836000  0.72519000  0.98750000  1.0
  C  C155  1  0.28101000  0.04905000  0.09886000  1.0
  C  C156  1  0.83600000  0.82008000  0.68555000  1.0
  C  C157  1  0.83089000  0.76505000  0.74244000  1.0
  C  C158  1  0.72265000  0.65376000  0.74398000  1.0
  C  C159  1  0.72169000  0.60533000  0.79698000  1.0
  C  C160  1  0.92969000  0.76806000  0.84440000  1.0
  C  C161  1  0.93641000  0.82332000  0.79383000  1.0
  C  C162  1  0.61317000  0.48793000  0.80309000  1.0
  C  C163  1  0.49522000  0.41816000  0.75974000  1.0
  C  C164  1  0.39997000  0.30804000  0.77088000  1.0
  C  C165  1  0.42491000  0.26820000  0.82401000  1.0
  C  C166  1  0.54477000  0.34083000  0.86485000  1.0
  C  C167  1  0.27228000  0.22916000  0.72541000  1.0
  N  N168  1  0.28782000  0.32562000  0.03232000  1.0
  N  N169  1  0.05427000  0.28278000  0.01852000  1.0
  N  N170  1  0.17521000  0.33776000  0.15362000  1.0
  N  N171  1  0.36474000  0.55139000  0.14509000  1.0
  N  N172  1  0.70646000  0.24425000  0.53227000  1.0
  N  N173  1  0.73552000  0.46396000  0.51855000  1.0
  N  N174  1  0.81577000  0.47831000  0.65356000  1.0
  N  N175  1  0.59354000  0.28018000  0.64506000  1.0
  N  N176  1  0.29355000  0.75575000  0.46773000  1.0
  N  N177  1  0.26449000  0.53604000  0.48145000  1.0
  N  N178  1  0.18423000  0.52169000  0.34644000  1.0
  N  N179  1  0.40646000  0.71982000  0.35494000  1.0
  N  N180  1  0.71218000  0.67438000  0.96768000  1.0
  N  N181  1  0.94573000  0.71722000  0.98148000  1.0
  N  N182  1  0.82479000  0.66224000  0.84639000  1.0
  N  N183  1  0.63525000  0.44861000  0.85491000  1.0
  Cl  Cl184  1  0.20904000  0.56476000  0.02435000  1.0
  Cl  Cl185  1  0.45930000  0.31519000  0.52436000  1.0
  Cl  Cl186  1  0.54070000  0.68481000  0.47564000  1.0
  Cl  Cl187  1  0.79096000  0.43524000  0.97565000  1.0
  O  O188  1  0.49510000  0.09302000  0.94692000  1.0
  O  O189  1  0.30116000  0.99045000  0.88310000  1.0
  O  O190  1  0.72612000  0.87882000  0.85739000  1.0
  O  O191  1  0.61683000  0.93524000  0.91531000  1.0
  O  O192  1  0.48903000  0.77221000  0.79800000  1.0
  O  O193  1  0.35454000  0.79410000  0.93427000  1.0
  O  O194  1  0.07353000  0.06507000  0.30481000  1.0
  O  O195  1  0.24549000  0.24903000  0.36538000  1.0
  O  O196  1  0.74591000  0.74201000  0.32633000  1.0
  O  O197  1  0.81338000  0.86616000  0.26004000  1.0
  O  O198  1  0.85396000  0.95194000  0.44693000  1.0
  O  O199  1  0.89252000  0.08181000  0.38301000  1.0
  O  O200  1  0.97859000  0.63138000  0.35755000  1.0
  O  O201  1  0.97973000  0.79838000  0.41540000  1.0
  O  O202  1  0.02577000  0.80888000  0.29800000  1.0
  O  O203  1  0.14015000  0.07946000  0.43423000  1.0
  O  O204  1  0.23973000  0.73144000  0.80476000  1.0
  O  O205  1  0.11648000  0.61915000  0.86515000  1.0
  O  O206  1  0.58411000  0.08011000  0.82617000  1.0
  O  O207  1  0.39347000  0.94659000  0.75999000  1.0
  O  O208  1  0.14604000  0.04806000  0.55307000  1.0
  O  O209  1  0.10748000  0.91819000  0.61700000  1.0
  O  O210  1  0.02141000  0.36862000  0.64245000  1.0
  O  O211  1  0.02027000  0.20162000  0.58460000  1.0
  O  O212  1  0.97423000  0.19112000  0.70200000  1.0
  O  O213  1  0.85984000  0.92054000  0.56577000  1.0
  O  O214  1  0.76027000  0.26856000  0.19524000  1.0
  O  O215  1  0.88352000  0.38085000  0.13485000  1.0
  O  O216  1  0.41588000  0.91989000  0.17383000  1.0
  O  O217  1  0.60653000  0.05340000  0.24001000  1.0
  O  O218  1  0.50491000  0.90698000  0.05308000  1.0
  O  O219  1  0.69885000  0.00956000  0.11690000  1.0
  O  O220  1  0.27388000  0.12119000  0.14260000  1.0
  O  O221  1  0.38317000  0.06476000  0.08469000  1.0
  O  O222  1  0.51097000  0.22778000  0.20200000  1.0
  O  O223  1  0.64546000  0.20589000  0.06573000  1.0
  O  O224  1  0.92647000  0.93492000  0.69519000  1.0
  O  O225  1  0.75451000  0.75097000  0.63462000  1.0
  O  O226  1  0.25409000  0.25799000  0.67367000  1.0
  O  O227  1  0.18662000  0.13383000  0.73996000  1.0
