# generated using pymatgen
data_NdH10C7N3O14
_symmetry_space_group_name_H-M   'P 1'
_cell_length_a   6.63122000
_cell_length_b   9.76605000
_cell_length_c   14.66920000
_cell_angle_alpha   107.80820000
_cell_angle_beta   90.44710000
_cell_angle_gamma   102.29180000
_symmetry_Int_Tables_number   1
_chemical_formula_structural   NdH10C7N3O14
_chemical_formula_sum   'Nd2 H20 C14 N6 O28'
_cell_volume   881.01867892
_cell_formula_units_Z   2
loop_
 _symmetry_equiv_pos_site_id
 _symmetry_equiv_pos_as_xyz
  1  'x, y, z'
loop_
 _atom_site_type_symbol
 _atom_site_label
 _atom_site_symmetry_multiplicity
 _atom_site_fract_x
 _atom_site_fract_y
 _atom_site_fract_z
 _atom_site_occupancy
  Nd  Nd0  1  0.30672000  0.66949000  0.37314000  1.0
  Nd  Nd1  1  0.69328000  0.33050000  0.62683000  1.0
  H  H2  1  0.20530000  0.65326000  0.15032000  1.0
  H  H3  1  0.79469000  0.34673000  0.84967000  1.0
  H  H4  1  0.22205000  0.81563000  0.22182000  1.0
  H  H5  1  0.77796000  0.18438000  0.77819000  1.0
  H  H6  1  0.83688000  0.67343000  0.41279000  1.0
  H  H7  1  0.16312000  0.32656000  0.58721000  1.0
  H  H8  1  0.95444000  0.83195000  0.41725000  1.0
  H  H9  1  0.04557000  0.16805000  0.58275000  1.0
  H  H10  1  0.91197000  0.42710000  0.39410000  1.0
  H  H11  1  0.08803000  0.57288000  0.60590000  1.0
  H  H12  1  0.94259000  0.38992000  0.28195000  1.0
  H  H13  1  0.05741000  0.61009000  0.71804000  1.0
  H  H14  1  0.28959000  0.44227000  0.16074000  1.0
  H  H15  1  0.71040000  0.55775000  0.83927000  1.0
  H  H16  1  0.34301000  0.36857000  0.23740000  1.0
  H  H17  1  0.65700000  0.63143000  0.76261000  1.0
  H  H18  1  0.72485000  0.53031000  0.24635000  1.0
  H  H19  1  0.27515000  0.46967000  0.75364000  1.0
  H  H20  1  0.66700000  0.90909000  0.18705000  1.0
  H  H21  1  0.33303000  0.09093000  0.81296000  1.0
  C  C22  1  0.72319000  0.58328000  0.19153000  1.0
  C  C23  1  0.27683000  0.41673000  0.80848000  1.0
  C  C24  1  0.75409000  0.51598000  0.09678000  1.0
  C  C25  1  0.24597000  0.48404000  0.90323000  1.0
  C  C26  1  0.74944000  0.58617000  0.02293000  1.0
  C  C27  1  0.25057000  0.41384000  0.97708000  1.0
  C  C28  1  0.72268000  0.73640000  0.06342000  1.0
  C  C29  1  0.27728000  0.26359000  0.93659000  1.0
  C  C30  1  0.69026000  0.79741000  0.15838000  1.0
  C  C31  1  0.30973000  0.20260000  0.84163000  1.0
  C  C32  1  0.40944000  0.50725000  0.53295000  1.0
  C  C33  1  0.59059000  0.49276000  0.46705000  1.0
  C  C34  1  0.43643000  0.02863000  0.46754000  1.0
  C  C35  1  0.56356000  0.97136000  0.53244000  1.0
  N  N36  1  0.68289000  0.71952000  0.22113000  1.0
  N  N37  1  0.31711000  0.28049000  0.77888000  1.0
  N  N38  1  0.79021000  0.36815000  0.07574000  1.0
  N  N39  1  0.20980000  0.63186000  0.92427000  1.0
  N  N40  1  0.72547000  0.83535000  0.00573000  1.0
  N  N41  1  0.27451000  0.16463000  0.99426000  1.0
  O  O42  1  0.63601000  0.77724000  0.31051000  1.0
  O  O43  1  0.36398000  0.22276000  0.68949000  1.0
  O  O44  1  0.19357000  0.71191000  0.21759000  1.0
  O  O45  1  0.80645000  0.28810000  0.78240000  1.0
  O  O46  1  0.83025000  0.32589000  0.14460000  1.0
  O  O47  1  0.16972000  0.67412000  0.85540000  1.0
  O  O48  1  0.97583000  0.74044000  0.42513000  1.0
  O  O49  1  0.02417000  0.25956000  0.57488000  1.0
  O  O50  1  0.77825000  0.28929000  0.99066000  1.0
  O  O51  1  0.22173000  0.71071000  0.00935000  1.0
  O  O52  1  0.01322000  0.43912000  0.34607000  1.0
  O  O53  1  0.98678000  0.56088000  0.65393000  1.0
  O  O54  1  0.77447000  0.52655000  0.93543000  1.0
  O  O55  1  0.22552000  0.47346000  0.06458000  1.0
  O  O56  1  0.33205000  0.46246000  0.23042000  1.0
  O  O57  1  0.66797000  0.53753000  0.76957000  1.0
  O  O58  1  0.66091000  0.77864000  0.91971000  1.0
  O  O59  1  0.33910000  0.22136000  0.08027000  1.0
  O  O60  1  0.78668000  0.96943000  0.04658000  1.0
  O  O61  1  0.21330000  0.03055000  0.95342000  1.0
  O  O62  1  0.27079000  0.56699000  0.51323000  1.0
  O  O63  1  0.72919000  0.43299000  0.48674000  1.0
  O  O64  1  0.41224000  0.45619000  0.60268000  1.0
  O  O65  1  0.58774000  0.54380000  0.39733000  1.0
  O  O66  1  0.31437000  0.93208000  0.40037000  1.0
  O  O67  1  0.68563000  0.06791000  0.59962000  1.0
  O  O68  1  0.46443000  0.16684000  0.48714000  1.0
  O  O69  1  0.53557000  0.83315000  0.51284000  1.0
