# generated using pymatgen
data_ZnH16C26(NO4)2
_symmetry_space_group_name_H-M   'P 1'
_cell_length_a   10.23620000
_cell_length_b   11.17281778
_cell_length_c   12.09680000
_cell_angle_alpha   71.30460459
_cell_angle_beta   84.85810000
_cell_angle_gamma   70.26355339
_symmetry_Int_Tables_number   1
_chemical_formula_structural   ZnH16C26(NO4)2
_chemical_formula_sum   'Zn2 H32 C52 N4 O16'
_cell_volume   1233.22744253
_cell_formula_units_Z   2
loop_
 _symmetry_equiv_pos_site_id
 _symmetry_equiv_pos_as_xyz
  1  'x, y, z'
loop_
 _atom_site_type_symbol
 _atom_site_label
 _atom_site_symmetry_multiplicity
 _atom_site_fract_x
 _atom_site_fract_y
 _atom_site_fract_z
 _atom_site_occupancy
  Zn  Zn0  1  0.05103000  0.11530000  0.28338000  1.0
  Zn  Zn1  1  0.94896000  0.88471000  0.71662000  1.0
  H  H2  1  0.73119000  0.23232000  0.79276000  1.0
  H  H3  1  0.26879000  0.76766000  0.20724000  1.0
  H  H4  1  0.54379000  0.83584000  0.34924000  1.0
  H  H5  1  0.45620000  0.16417000  0.65076000  1.0
  H  H6  1  0.43032000  0.34637000  0.92785000  1.0
  H  H7  1  0.56967000  0.65361000  0.07215000  1.0
  H  H8  1  0.26286000  0.44062000  0.06365000  1.0
  H  H9  1  0.73712000  0.55938000  0.93636000  1.0
  H  H10  1  0.34974000  0.44397000  0.24937000  1.0
  H  H11  1  0.65026000  0.55602000  0.75063000  1.0
  H  H12  1  0.53397000  0.58554000  0.25585000  1.0
  H  H13  1  0.46604000  0.41446000  0.74414000  1.0
  H  H14  1  0.74096000  0.42019000  0.59225000  1.0
  H  H15  1  0.25905000  0.57981000  0.40774000  1.0
  H  H16  1  0.70805000  0.15884000  0.40933000  1.0
  H  H17  1  0.29197000  0.84116000  0.59066000  1.0
  H  H18  1  0.01191000  0.40651000  0.20348000  1.0
  H  H19  1  0.98807000  0.59351000  0.79652000  1.0
  H  H20  1  0.97856000  0.58523000  0.29248000  1.0
  H  H21  1  0.02145000  0.41478000  0.70752000  1.0
  H  H22  1  0.06370000  0.27615000  0.62881000  1.0
  H  H23  1  0.93632000  0.72385000  0.37119000  1.0
  H  H24  1  0.10170000  0.11129000  0.52385000  1.0
  H  H25  1  0.89830000  0.88872000  0.47615000  1.0
  H  H26  1  0.08500000  0.09822000  0.03708000  1.0
  H  H27  1  0.91501000  0.90177000  0.96293000  1.0
  H  H28  1  0.28548000  0.02729000  0.91621000  1.0
  H  H29  1  0.71454000  0.97267000  0.08383000  1.0
  H  H30  1  0.54762000  0.04570000  0.16875000  1.0
  H  H31  1  0.45239000  0.95428000  0.83127000  1.0
  H  H32  1  0.33560000  0.11560000  0.27896000  1.0
  H  H33  1  0.66440000  0.88440000  0.72106000  1.0
  C  C34  1  0.81209000  0.25400000  0.16672000  1.0
  C  C35  1  0.18790000  0.74601000  0.83327000  1.0
  C  C36  1  0.65921000  0.29749000  0.13927000  1.0
  C  C37  1  0.34079000  0.70252000  0.86071000  1.0
  C  C38  1  0.61057000  0.29603000  0.03460000  1.0
  C  C39  1  0.38942000  0.70397000  0.96540000  1.0
  C  C40  1  0.46758000  0.34719000  0.00895000  1.0
  C  C41  1  0.53241000  0.65281000  0.99105000  1.0
  C  C42  1  0.37352000  0.39905000  0.08598000  1.0
  C  C43  1  0.62647000  0.60095000  0.91402000  1.0
  C  C44  1  0.42198000  0.40226000  0.18886000  1.0
  C  C45  1  0.57801000  0.59775000  0.81113000  1.0
  C  C46  1  0.56455000  0.35323000  0.21596000  1.0
  C  C47  1  0.43544000  0.64678000  0.78403000  1.0
  C  C48  1  0.71385000  0.24494000  0.95104000  1.0
  C  C49  1  0.28614000  0.75505000  0.04896000  1.0
  C  C50  1  0.61489000  0.36989000  0.32019000  1.0
  C  C51  1  0.38510000  0.63012000  0.67980000  1.0
  C  C52  1  0.59131000  0.49874000  0.32614000  1.0
  C  C53  1  0.40870000  0.50126000  0.67385000  1.0
  C  C54  1  0.63848000  0.51687000  0.42303000  1.0
  C  C55  1  0.36152000  0.48314000  0.57696000  1.0
  C  C56  1  0.70657000  0.40593000  0.51622000  1.0
  C  C57  1  0.29345000  0.59407000  0.48376000  1.0
  C  C58  1  0.73141000  0.27724000  0.51088000  1.0
  C  C59  1  0.26860000  0.72276000  0.48911000  1.0
  C  C60  1  0.68659000  0.25981000  0.41271000  1.0
  C  C61  1  0.31342000  0.74019000  0.58728000  1.0
  C  C62  1  0.81024000  0.15813000  0.60802000  1.0
  C  C63  1  0.18977000  0.84187000  0.39197000  1.0
  C  C64  1  0.61648000  0.65173000  0.43134000  1.0
  C  C65  1  0.38352000  0.34827000  0.56866000  1.0
  C  C66  1  0.02589000  0.38313000  0.29711000  1.0
  C  C67  1  0.97410000  0.61689000  0.70289000  1.0
  C  C68  1  0.00501000  0.48212000  0.34884000  1.0
  C  C69  1  0.99499000  0.51789000  0.65116000  1.0
  C  C70  1  0.01499000  0.44823000  0.47067000  1.0
  C  C71  1  0.98501000  0.55178000  0.52933000  1.0
  C  C72  1  0.05347000  0.31168000  0.53415000  1.0
  C  C73  1  0.94655000  0.68832000  0.46584000  1.0
  C  C74  1  0.07443000  0.21777000  0.47661000  1.0
  C  C75  1  0.92557000  0.78224000  0.52339000  1.0
  C  C76  1  0.18958000  0.08562000  0.06254000  1.0
  C  C77  1  0.81043000  0.91437000  0.93748000  1.0
  C  C78  1  0.30372000  0.04562000  0.99555000  1.0
  C  C79  1  0.69630000  0.95435000  0.00448000  1.0
  C  C80  1  0.43782000  0.02457000  0.03304000  1.0
  C  C81  1  0.56220000  0.97541000  0.96699000  1.0
  C  C82  1  0.44861000  0.05281000  0.13636000  1.0
  C  C83  1  0.55140000  0.94718000  0.86366000  1.0
  C  C84  1  0.33037000  0.09331000  0.19828000  1.0
  C  C85  1  0.66963000  0.90669000  0.80174000  1.0
  N  N86  1  0.05785000  0.25283000  0.36000000  1.0
  N  N87  1  0.94214000  0.74718000  0.64000000  1.0
  N  N88  1  0.20334000  0.10718000  0.16346000  1.0
  N  N89  1  0.79666000  0.89283000  0.83655000  1.0
  O  O90  1  0.86482000  0.13390000  0.23887000  1.0
  O  O91  1  0.13518000  0.86610000  0.76112000  1.0
  O  O92  1  0.87564000  0.33603000  0.12832000  1.0
  O  O93  1  0.12436000  0.66398000  0.87168000  1.0
  O  O94  1  0.83813000  0.18628000  0.97528000  1.0
  O  O95  1  0.16185000  0.81370000  0.02472000  1.0
  O  O96  1  0.65752000  0.26937000  0.84681000  1.0
  O  O97  1  0.34245000  0.73061000  0.15320000  1.0
  O  O98  1  0.85492000  0.04623000  0.58472000  1.0
  O  O99  1  0.14508000  0.95378000  0.41528000  1.0
  O  O100  1  0.83343000  0.16999000  0.70393000  1.0
  O  O101  1  0.16657000  0.83001000  0.29607000  1.0
  O  O102  1  0.64663000  0.67478000  0.51649000  1.0
  O  O103  1  0.35336000  0.32523000  0.48351000  1.0
  O  O104  1  0.55858000  0.75233000  0.33218000  1.0
  O  O105  1  0.44142000  0.24768000  0.66781000  1.0
