# generated using pymatgen
data_NdH14C7N10ClO6
_symmetry_space_group_name_H-M   'P 1'
_cell_length_a   8.85085000
_cell_length_b   10.06890000
_cell_length_c   10.11930000
_cell_angle_alpha   65.43220000
_cell_angle_beta   85.06710000
_cell_angle_gamma   70.73420000
_symmetry_Int_Tables_number   1
_chemical_formula_structural   NdH14C7N10ClO6
_chemical_formula_sum   'Nd2 H28 C14 N20 Cl2 O12'
_cell_volume   772.86462137
_cell_formula_units_Z   2
loop_
 _symmetry_equiv_pos_site_id
 _symmetry_equiv_pos_as_xyz
  1  'x, y, z'
loop_
 _atom_site_type_symbol
 _atom_site_label
 _atom_site_symmetry_multiplicity
 _atom_site_fract_x
 _atom_site_fract_y
 _atom_site_fract_z
 _atom_site_occupancy
  Nd  Nd0  1  0.10933000  0.67727000  0.55901000  1.0
  Nd  Nd1  1  0.89067000  0.32273000  0.44099000  1.0
  H  H2  1  0.22032000  0.33727000  0.60565000  1.0
  H  H3  1  0.77968000  0.66273000  0.39435000  1.0
  H  H4  1  0.37100000  0.39120000  0.56917000  1.0
  H  H5  1  0.62900000  0.60880000  0.43083000  1.0
  H  H6  1  0.84155000  0.86783000  0.31804000  1.0
  H  H7  1  0.15845000  0.13217000  0.68196000  1.0
  H  H8  1  0.41975000  0.82140000  0.27609000  1.0
  H  H9  1  0.58025000  0.17860000  0.72391000  1.0
  H  H10  1  0.53020000  0.74645000  0.15719000  1.0
  H  H11  1  0.46980000  0.25355000  0.84281000  1.0
  H  H12  1  0.55344000  0.21250000  0.13453000  1.0
  H  H13  1  0.44656000  0.78750000  0.86547000  1.0
  H  H14  1  0.49407000  0.31477000  0.24587000  1.0
  H  H15  1  0.50593000  0.68523000  0.75413000  1.0
  H  H16  1  0.10495000  0.25004000  0.11076000  1.0
  H  H17  1  0.89505000  0.74996000  0.88924000  1.0
  H  H18  1  0.29159000  0.12542000  0.20923000  1.0
  H  H19  1  0.70841000  0.87458000  0.79078000  1.0
  H  H20  1  0.18869000  0.72773000  0.10919000  1.0
  H  H21  1  0.81131000  0.27227000  0.89081000  1.0
  H  H22  1  0.35476000  0.57127000  0.21847000  1.0
  H  H23  1  0.64524000  0.42873000  0.78153000  1.0
  H  H24  1  0.58990000  0.94402000  0.39269000  1.0
  H  H25  1  0.41010000  0.05598000  0.60731000  1.0
  H  H26  1  0.71714000  0.01239000  0.45944000  1.0
  H  H27  1  0.28286000  0.98761000  0.54056000  1.0
  H  H28  1  0.66815000  0.84249000  0.57710000  1.0
  H  H29  1  0.33185000  0.15751000  0.42290000  1.0
  C  C30  1  0.09151000  0.04619000  0.29693000  1.0
  C  C31  1  0.90849000  0.95381000  0.70307000  1.0
  C  C32  1  0.17857000  0.12917000  0.16751000  1.0
  C  C33  1  0.82143000  0.87083000  0.83249000  1.0
  C  C34  1  0.33366000  0.93409000  0.06472000  1.0
  C  C35  1  0.66634000  0.06591000  0.93528000  1.0
  C  C36  1  0.12397000  0.54384000  0.27635000  1.0
  C  C37  1  0.87603000  0.45616000  0.72364000  1.0
  C  C38  1  0.23891000  0.60181000  0.16274000  1.0
  C  C39  1  0.76109000  0.39819000  0.83726000  1.0
  C  C40  1  0.36737000  0.41061000  0.04938000  1.0
  C  C41  1  0.63263000  0.58938000  0.95062000  1.0
  C  C42  1  0.69396000  0.90925000  0.46588000  1.0
  C  C43  1  0.30604000  0.09075000  0.53412000  1.0
  N  N44  1  0.21507000  0.06237000  0.06215000  1.0
  N  N45  1  0.78493000  0.93763000  0.93785000  1.0
  N  N46  1  0.12607000  0.13163000  0.93404000  1.0
  N  N47  1  0.87393000  0.86837000  0.06596000  1.0
  N  N48  1  0.19090000  0.04870000  0.86232000  1.0
  N  N49  1  0.80910000  0.95130000  0.13768000  1.0
  N  N50  1  0.31861000  0.92560000  0.93739000  1.0
  N  N51  1  0.68139000  0.07440000  0.06261000  1.0
  N  N52  1  0.44836000  0.83912000  0.17159000  1.0
  N  N53  1  0.55164000  0.16088000  0.82842000  1.0
  N  N54  1  0.26495000  0.54486000  0.05039000  1.0
  N  N55  1  0.73505000  0.45514000  0.94961000  1.0
  N  N56  1  0.18192000  0.63037000  0.91909000  1.0
  N  N57  1  0.81808000  0.36963000  0.08091000  1.0
  N  N58  1  0.23340000  0.55029000  0.84255000  1.0
  N  N59  1  0.76660000  0.44971000  0.15746000  1.0
  N  N60  1  0.34834000  0.41337000  0.91748000  1.0
  N  N61  1  0.65166000  0.58663000  0.08253000  1.0
  N  N62  1  0.46646000  0.29472000  0.16103000  1.0
  N  N63  1  0.53354000  0.70527000  0.83897000  1.0
  Cl  Cl64  1  0.43087000  0.67812000  0.54791000  1.0
  Cl  Cl65  1  0.56913000  0.32188000  0.45209000  1.0
  O  O66  1  0.12312000  0.90279000  0.33676000  1.0
  O  O67  1  0.87688000  0.09721000  0.66324000  1.0
  O  O68  1  0.99865000  0.12842000  0.35631000  1.0
  O  O69  1  0.00135000  0.87158000  0.64369000  1.0
  O  O70  1  0.08876000  0.60613000  0.36571000  1.0
  O  O71  1  0.91124000  0.39388000  0.63429000  1.0
  O  O72  1  0.07342000  0.44051000  0.27546000  1.0
  O  O73  1  0.92658000  0.55949000  0.72453000  1.0
  O  O74  1  0.27307000  0.40116000  0.62460000  1.0
  O  O75  1  0.72693000  0.59884000  0.37540000  1.0
  O  O76  1  0.83177000  0.81054000  0.42662000  1.0
  O  O77  1  0.16823000  0.18946000  0.57338000  1.0
