# generated using pymatgen
data_ZnH5C9NO5
_symmetry_space_group_name_H-M   'P 1'
_cell_length_a   7.39731000
_cell_length_b   9.10400000
_cell_length_c   13.07160000
_cell_angle_alpha   75.99300000
_cell_angle_beta   84.43050000
_cell_angle_gamma   75.22870000
_symmetry_Int_Tables_number   1
_chemical_formula_structural   ZnH5C9NO5
_chemical_formula_sum   'Zn2 H10 C18 N2 O10'
_cell_volume   825.31912931
_cell_formula_units_Z   2
loop_
 _symmetry_equiv_pos_site_id
 _symmetry_equiv_pos_as_xyz
  1  'x, y, z'
loop_
 _atom_site_type_symbol
 _atom_site_label
 _atom_site_symmetry_multiplicity
 _atom_site_fract_x
 _atom_site_fract_y
 _atom_site_fract_z
 _atom_site_occupancy
  Zn  Zn0  1  0.69917000  0.42469000  0.51265000  1.0
  Zn  Zn1  1  0.30082000  0.57530000  0.48735000  1.0
  H  H2  1  0.25935000  0.56219000  0.17062000  1.0
  H  H3  1  0.70546000  0.11185000  0.36717000  1.0
  H  H4  1  0.74067000  0.43781000  0.82939000  1.0
  H  H5  1  0.85846000  0.44122000  0.18444000  1.0
  H  H6  1  0.14154000  0.55877000  0.81556000  1.0
  H  H7  1  0.10997000  0.58068000  0.00347000  1.0
  H  H8  1  0.89003000  0.41931000  0.99653000  1.0
  H  H9  1  0.91104000  0.65852000  0.46588000  1.0
  H  H10  1  0.08896000  0.34149000  0.53411000  1.0
  H  H11  1  0.29455000  0.88817000  0.63283000  1.0
  C  C12  1  0.49328000  0.20306000  0.52460000  1.0
  C  C13  1  0.73549000  0.46295000  0.13835000  1.0
  C  C14  1  0.60377000  0.46834000  0.86857000  1.0
  C  C15  1  0.39625000  0.53167000  0.13143000  1.0
  C  C16  1  0.59093000  0.47955000  0.97515000  1.0
  C  C17  1  0.40908000  0.52048000  0.02485000  1.0
  C  C18  1  0.44699000  0.05036000  0.52822000  1.0
  C  C19  1  0.55299000  0.94965000  0.47177000  1.0
  C  C20  1  0.28137000  0.01343000  0.59508000  1.0
  C  C21  1  0.71861000  0.98657000  0.40492000  1.0
  C  C22  1  0.50675000  0.79692000  0.47539000  1.0
  C  C23  1  0.46277000  0.48871000  0.69879000  1.0
  C  C24  1  0.53727000  0.51126000  0.30121000  1.0
  C  C25  1  0.55566000  0.50331000  0.18766000  1.0
  C  C26  1  0.44433000  0.49669000  0.81235000  1.0
  C  C27  1  0.24776000  0.54842000  0.96541000  1.0
  C  C28  1  0.75225000  0.45160000  0.03459000  1.0
  C  C29  1  0.26452000  0.53705000  0.86167000  1.0
  N  N30  1  0.02496000  0.56212000  0.48735000  1.0
  N  N31  1  0.97504000  0.43788000  0.51265000  1.0
  O  O32  1  0.66331000  0.20099000  0.53376000  1.0
  O  O33  1  0.85907000  0.88823000  0.38858000  1.0
  O  O34  1  0.33666000  0.79901000  0.46625000  1.0
  O  O35  1  0.35686000  0.32182000  0.51066000  1.0
  O  O36  1  0.64312000  0.67819000  0.48933000  1.0
  O  O37  1  0.62400000  0.42726000  0.66381000  1.0
  O  O38  1  0.37599000  0.57274000  0.33620000  1.0
  O  O39  1  0.31567000  0.54633000  0.64487000  1.0
  O  O40  1  0.68433000  0.45365000  0.35513000  1.0
  O  O41  1  0.14089000  0.11177000  0.61142000  1.0
