# generated using pymatgen
data_SnH14C9SO2
_symmetry_space_group_name_H-M   'P 1'
_cell_length_a   9.51442000
_cell_length_b   9.97504000
_cell_length_c   13.79220000
_cell_angle_alpha   69.59740000
_cell_angle_beta   70.82790000
_cell_angle_gamma   74.97330000
_symmetry_Int_Tables_number   1
_chemical_formula_structural   SnH14C9SO2
_chemical_formula_sum   'Sn4 H56 C36 S4 O8'
_cell_volume   1143.20778568
_cell_formula_units_Z   4
loop_
 _symmetry_equiv_pos_site_id
 _symmetry_equiv_pos_as_xyz
  1  'x, y, z'
loop_
 _atom_site_type_symbol
 _atom_site_label
 _atom_site_symmetry_multiplicity
 _atom_site_fract_x
 _atom_site_fract_y
 _atom_site_fract_z
 _atom_site_occupancy
  Sn  Sn0  1  0.94685000  0.57023000  0.22004000  1.0
  Sn  Sn1  1  0.05315000  0.42977000  0.77996000  1.0
  Sn  Sn2  1  0.04578000  0.01237000  0.28196000  1.0
  Sn  Sn3  1  0.95421000  0.98763000  0.71805000  1.0
  H  H4  1  0.32689000  0.25069000  0.02027000  1.0
  H  H5  1  0.67310000  0.74932000  0.97973000  1.0
  H  H6  1  0.48944000  0.30251000  0.91837000  1.0
  H  H7  1  0.51056000  0.69751000  0.08163000  1.0
  H  H8  1  0.39294000  0.40728000  0.00939000  1.0
  H  H9  1  0.60707000  0.59272000  0.99061000  1.0
  H  H10  1  0.73350000  0.16946000  0.24287000  1.0
  H  H11  1  0.26650000  0.83053000  0.75714000  1.0
  H  H12  1  0.86418000  0.36148000  0.17565000  1.0
  H  H13  1  0.13582000  0.63853000  0.82433000  1.0
  H  H14  1  0.85420000  0.52573000  0.06915000  1.0
  H  H15  1  0.14582000  0.47429000  0.93084000  1.0
  H  H16  1  0.70687000  0.50481000  0.19103000  1.0
  H  H17  1  0.29314000  0.49520000  0.80896000  1.0
  H  H18  1  0.80169000  0.58204000  0.42299000  1.0
  H  H19  1  0.19830000  0.41796000  0.57701000  1.0
  H  H20  1  0.00007000  0.54487000  0.40757000  1.0
  H  H21  1  0.99992000  0.45512000  0.59243000  1.0
  H  H22  1  0.90397000  0.40240000  0.42667000  1.0
  H  H23  1  0.09602000  0.59759000  0.57332000  1.0
  H  H24  1  0.18588000  0.71833000  0.14435000  1.0
  H  H25  1  0.81412000  0.28168000  0.85565000  1.0
  H  H26  1  0.08181000  0.76957000  0.04746000  1.0
  H  H27  1  0.91819000  0.23045000  0.95254000  1.0
  H  H28  1  0.20861000  0.60148000  0.06492000  1.0
  H  H29  1  0.79139000  0.39854000  0.93508000  1.0
  H  H30  1  0.85415000  0.21730000  0.37042000  1.0
  H  H31  1  0.14585000  0.78269000  0.62958000  1.0
  H  H32  1  0.88517000  0.05357000  0.47445000  1.0
  H  H33  1  0.11483000  0.94643000  0.52556000  1.0
  H  H34  1  0.75709000  0.06963000  0.40029000  1.0
  H  H35  1  0.24291000  0.93037000  0.59972000  1.0
  H  H36  1  0.98454000  0.10707000  0.08962000  1.0
  H  H37  1  0.01547000  0.89291000  0.91038000  1.0
  H  H38  1  0.18384000  0.05439000  0.06967000  1.0
  H  H39  1  0.81617000  0.94560000  0.93033000  1.0
  H  H40  1  0.09328000  0.22578000  0.09456000  1.0
  H  H41  1  0.90672000  0.77421000  0.90545000  1.0
  H  H42  1  0.15702000  0.72780000  0.30459000  1.0
  H  H43  1  0.84298000  0.27220000  0.69541000  1.0
  H  H44  1  0.14918000  0.76797000  0.42245000  1.0
  H  H45  1  0.85081000  0.23203000  0.57756000  1.0
  H  H46  1  0.29795000  0.81855000  0.30432000  1.0
  H  H47  1  0.70206000  0.18145000  0.69568000  1.0
  H  H48  1  0.45947000  0.53140000  0.36368000  1.0
  H  H49  1  0.54055000  0.46859000  0.63631000  1.0
  H  H50  1  0.28973000  0.52237000  0.24891000  1.0
  H  H51  1  0.71029000  0.47763000  0.75108000  1.0
  H  H52  1  0.55861000  0.37255000  0.13482000  1.0
  H  H53  1  0.44139000  0.62744000  0.86518000  1.0
  H  H54  1  0.59187000  0.15813000  0.54655000  1.0
  H  H55  1  0.40813000  0.84186000  0.45345000  1.0
  H  H56  1  0.44938000  0.27914000  0.60791000  1.0
  H  H57  1  0.55062000  0.72087000  0.39209000  1.0
  H  H58  1  0.60893000  0.34393000  0.50619000  1.0
  H  H59  1  0.39108000  0.65607000  0.49380000  1.0
  C  C60  1  0.42861000  0.29655000  0.00243000  1.0
  C  C61  1  0.57139000  0.70346000  0.99757000  1.0
  C  C62  1  0.52518000  0.20984000  0.07647000  1.0
  C  C63  1  0.47482000  0.79016000  0.92353000  1.0
  C  C64  1  0.67770000  0.15079000  0.19270000  1.0
  C  C65  1  0.32229000  0.84921000  0.80731000  1.0
  C  C66  1  0.44737000  0.30302000  0.44726000  1.0
  C  C67  1  0.55262000  0.69698000  0.55275000  1.0
  C  C68  1  0.19707000  0.24886000  0.29121000  1.0
  C  C69  1  0.80292000  0.75114000  0.70879000  1.0
  C  C70  1  0.82842000  0.47887000  0.15647000  1.0
  C  C71  1  0.17159000  0.52114000  0.84352000  1.0
  C  C72  1  0.69235000  0.01629000  0.17917000  1.0
  C  C73  1  0.30764000  0.98371000  0.82083000  1.0
  C  C74  1  0.78820000  0.87976000  0.21926000  1.0
  C  C75  1  0.21179000  0.12024000  0.78074000  1.0
  C  C76  1  0.90800000  0.51846000  0.39010000  1.0
  C  C77  1  0.09200000  0.48154000  0.60990000  1.0
  C  C78  1  0.28608000  0.29595000  0.33899000  1.0
  C  C79  1  0.71391000  0.70405000  0.66102000  1.0
  C  C80  1  0.12833000  0.67766000  0.10607000  1.0
  C  C81  1  0.87167000  0.32236000  0.89393000  1.0
  C  C82  1  0.86268000  0.09912000  0.39531000  1.0
  C  C83  1  0.13733000  0.90087000  0.60470000  1.0
  C  C84  1  0.08195000  0.11264000  0.11271000  1.0
  C  C85  1  0.91805000  0.88735000  0.88729000  1.0
  C  C86  1  0.17879000  0.80609000  0.33475000  1.0
  C  C87  1  0.82121000  0.19390000  0.66526000  1.0
  C  C88  1  0.41748000  0.43492000  0.37273000  1.0
  C  C89  1  0.58253000  0.56507000  0.62727000  1.0
  C  C90  1  0.32510000  0.43108000  0.31205000  1.0
  C  C91  1  0.67491000  0.56892000  0.68794000  1.0
  C  C92  1  0.58329000  0.25992000  0.13461000  1.0
  C  C93  1  0.41671000  0.74007000  0.86539000  1.0
  C  C94  1  0.52884000  0.26892000  0.53105000  1.0
  C  C95  1  0.47116000  0.73108000  0.46895000  1.0
  S  S96  1  0.36468000  0.17450000  0.43922000  1.0
  S  S97  1  0.63529000  0.82550000  0.56079000  1.0
  S  S98  1  0.58540000  0.02627000  0.09575000  1.0
  S  S99  1  0.41461000  0.97374000  0.90424000  1.0
  O  O100  1  0.20386000  0.11023000  0.31571000  1.0
  O  O101  1  0.79613000  0.88978000  0.68430000  1.0
  O  O102  1  0.77148000  0.76747000  0.19979000  1.0
  O  O103  1  0.22852000  0.23252000  0.80021000  1.0
  O  O104  1  0.12025000  0.34067000  0.22983000  1.0
  O  O105  1  0.87975000  0.65933000  0.77017000  1.0
  O  O106  1  0.88271000  0.87345000  0.26820000  1.0
  O  O107  1  0.11729000  0.12654000  0.73180000  1.0
