# generated using pymatgen
data_CdH17C25N3O5
_symmetry_space_group_name_H-M   'P 1'
_cell_length_a   9.28724000
_cell_length_b   10.21830000
_cell_length_c   12.47700000
_cell_angle_alpha   76.79100000
_cell_angle_beta   89.00430000
_cell_angle_gamma   67.44100000
_symmetry_Int_Tables_number   1
_chemical_formula_structural   CdH17C25N3O5
_chemical_formula_sum   'Cd2 H34 C50 N6 O10'
_cell_volume   1061.27834026
_cell_formula_units_Z   2
loop_
 _symmetry_equiv_pos_site_id
 _symmetry_equiv_pos_as_xyz
  1  'x, y, z'
loop_
 _atom_site_type_symbol
 _atom_site_label
 _atom_site_symmetry_multiplicity
 _atom_site_fract_x
 _atom_site_fract_y
 _atom_site_fract_z
 _atom_site_occupancy
  Cd  Cd0  1  0.22222000  0.07111000  0.26296000  1.0
  Cd  Cd1  1  0.77778000  0.92889000  0.73704000  1.0
  H  H2  1  0.37285000  0.01102000  0.50784000  1.0
  H  H3  1  0.62715000  0.98898000  0.49216000  1.0
  H  H4  1  0.37460000  0.61355000  0.71781000  1.0
  H  H5  1  0.62540000  0.38644000  0.28218000  1.0
  H  H6  1  0.15539000  0.78244000  0.38608000  1.0
  H  H7  1  0.84461000  0.21756000  0.61392000  1.0
  H  H8  1  0.01361000  0.36769000  0.71400000  1.0
  H  H9  1  0.98639000  0.63231000  0.28600000  1.0
  H  H10  1  0.13332000  0.20100000  0.58886000  1.0
  H  H11  1  0.86668000  0.79900000  0.41114000  1.0
  H  H12  1  0.30932000  0.25895000  0.45076000  1.0
  H  H13  1  0.69068000  0.74105000  0.54924000  1.0
  H  H14  1  0.36552000  0.48094000  0.43759000  1.0
  H  H15  1  0.63448000  0.51906000  0.56241000  1.0
  H  H16  1  0.84200000  0.17146000  0.20271000  1.0
  H  H17  1  0.15800000  0.82854000  0.79729000  1.0
  H  H18  1  0.66032000  0.09153000  0.11493000  1.0
  H  H19  1  0.33968000  0.90847000  0.88507000  1.0
  H  H20  1  0.77568000  0.85814000  0.04756000  1.0
  H  H21  1  0.22432000  0.14186000  0.95244000  1.0
  H  H22  1  0.00929000  0.64241000  0.03163000  1.0
  H  H23  1  0.99072000  0.35759000  0.96837000  1.0
  H  H24  1  0.29747000  0.51107000  0.05074000  1.0
  H  H25  1  0.70253000  0.48893000  0.94926000  1.0
  H  H26  1  0.56124000  0.50823000  0.09100000  1.0
  H  H27  1  0.43876000  0.49177000  0.90900000  1.0
  H  H28  1  0.72303000  0.62691000  0.15587000  1.0
  H  H29  1  0.27697000  0.37309000  0.84413000  1.0
  H  H30  1  0.58421000  0.85246000  0.22813000  1.0
  H  H31  1  0.41579000  0.14755000  0.77187000  1.0
  H  H32  1  0.31867000  0.26685000  0.13340000  1.0
  H  H33  1  0.68132000  0.73315000  0.86660000  1.0
  H  H34  1  0.12979000  0.33299000  0.12943000  1.0
  H  H35  1  0.87021000  0.66701000  0.87057000  1.0
  C  C36  1  0.33887000  0.91810000  0.52354000  1.0
  C  C37  1  0.66113000  0.08190000  0.47646000  1.0
  C  C38  1  0.38425000  0.81426000  0.62451000  1.0
  C  C39  1  0.61575000  0.18574000  0.37549000  1.0
  C  C40  1  0.33897000  0.69642000  0.64013000  1.0
  C  C41  1  0.66103000  0.30358000  0.35987000  1.0
  C  C42  1  0.25532000  0.68189000  0.55457000  1.0
  C  C43  1  0.74468000  0.31810000  0.44543000  1.0
  C  C44  1  0.21888000  0.78985000  0.45577000  1.0
  C  C45  1  0.78112000  0.21015000  0.54423000  1.0
  C  C46  1  0.21674000  0.55201000  0.56499000  1.0
  C  C47  1  0.78326000  0.44799000  0.43501000  1.0
  C  C48  1  0.11762000  0.51898000  0.64369000  1.0
  C  C49  1  0.88238000  0.48102000  0.35631000  1.0
  C  C50  1  0.09103000  0.39101000  0.65275000  1.0
  C  C51  1  0.90897000  0.60899000  0.34725000  1.0
  C  C52  1  0.15854000  0.29800000  0.58356000  1.0
  C  C53  1  0.84146000  0.70200000  0.41644000  1.0
  C  C54  1  0.25692000  0.33065000  0.50555000  1.0
  C  C55  1  0.74307000  0.66934000  0.49445000  1.0
  C  C56  1  0.28646000  0.45631000  0.49707000  1.0
  C  C57  1  0.71354000  0.54369000  0.50293000  1.0
  C  C58  1  0.88688000  0.07266000  0.17190000  1.0
  C  C59  1  0.11312000  0.92734000  0.82810000  1.0
  C  C60  1  0.78555000  0.02602000  0.12314000  1.0
  C  C61  1  0.21445000  0.97398000  0.87686000  1.0
  C  C62  1  0.84846000  0.89876000  0.08699000  1.0
  C  C63  1  0.15154000  0.10124000  0.91301000  1.0
  C  C64  1  0.01222000  0.81970000  0.09835000  1.0
  C  C65  1  0.98778000  0.18030000  0.90165000  1.0
  C  C66  1  0.10584000  0.87732000  0.14572000  1.0
  C  C67  1  0.89416000  0.12268000  0.85428000  1.0
  C  C68  1  0.08430000  0.68613000  0.06419000  1.0
  C  C69  1  0.91569000  0.31387000  0.93581000  1.0
  C  C70  1  0.24306000  0.61464000  0.07402000  1.0
  C  C71  1  0.75694000  0.38536000  0.92598000  1.0
  C  C72  1  0.34180000  0.67349000  0.11513000  1.0
  C  C73  1  0.65820000  0.32651000  0.88487000  1.0
  C  C74  1  0.27452000  0.80409000  0.15236000  1.0
  C  C75  1  0.72548000  0.19591000  0.84764000  1.0
  C  C76  1  0.50661000  0.60932000  0.11797000  1.0
  C  C77  1  0.49339000  0.39068000  0.88203000  1.0
  C  C78  1  0.59583000  0.67399000  0.15505000  1.0
  C  C79  1  0.40417000  0.32602000  0.84495000  1.0
  C  C80  1  0.51895000  0.80062000  0.19373000  1.0
  C  C81  1  0.48105000  0.19938000  0.80627000  1.0
  C  C82  1  0.49144000  0.82338000  0.70966000  1.0
  C  C83  1  0.50856000  0.17662000  0.29034000  1.0
  C  C84  1  0.03007000  0.62072000  0.71488000  1.0
  C  C85  1  0.96993000  0.37928000  0.28512000  1.0
  N  N86  1  0.25794000  0.90606000  0.44083000  1.0
  N  N87  1  0.74206000  0.09394000  0.55917000  1.0
  N  N88  1  0.04148000  0.00075000  0.18280000  1.0
  N  N89  1  0.95852000  0.99925000  0.81720000  1.0
  N  N90  1  0.36391000  0.86331000  0.19210000  1.0
  N  N91  1  0.63609000  0.13669000  0.80790000  1.0
  O  O92  1  0.54561000  0.92242000  0.67802000  1.0
  O  O93  1  0.45439000  0.07758000  0.32199000  1.0
  O  O94  1  0.52183000  0.73250000  0.80259000  1.0
  O  O95  1  0.47817000  0.26749000  0.19741000  1.0
  O  O96  1  0.96606000  0.75630000  0.66603000  1.0
  O  O97  1  0.03394000  0.24370000  0.33397000  1.0
  O  O98  1  0.02291000  0.56434000  0.81546000  1.0
  O  O99  1  0.97709000  0.43566000  0.18454000  1.0
  O  O100  1  0.22336000  0.25470000  0.10810000  1.0
  O  O101  1  0.77664000  0.74530000  0.89190000  1.0
