# generated using pymatgen
data_MnH10(C2N)4
_symmetry_space_group_name_H-M   'P 1'
_cell_length_a   15.11848256
_cell_length_b   15.11860000
_cell_length_c   15.11850000
_cell_angle_alpha   70.52800000
_cell_angle_beta   70.52958270
_cell_angle_gamma   109.47095326
_symmetry_Int_Tables_number   1
_chemical_formula_structural   MnH10(C2N)4
_chemical_formula_sum   'Mn6 H60 C48 N24'
_cell_volume   2660.16242694
_cell_formula_units_Z   6
loop_
 _symmetry_equiv_pos_site_id
 _symmetry_equiv_pos_as_xyz
  1  'x, y, z'
loop_
 _atom_site_type_symbol
 _atom_site_label
 _atom_site_symmetry_multiplicity
 _atom_site_fract_x
 _atom_site_fract_y
 _atom_site_fract_z
 _atom_site_occupancy
  Mn  Mn0  1  0.24988000  0.74977000  0.50012000  1.0
  Mn  Mn1  1  0.24987000  0.49987000  0.25023000  1.0
  Mn  Mn2  1  0.50000000  0.75022000  0.74978000  1.0
  Mn  Mn3  1  0.50000000  0.25022000  0.24978000  1.0
  Mn  Mn4  1  0.75012000  0.25000000  0.50010000  1.0
  Mn  Mn5  1  0.75013000  0.49991000  0.74999000  1.0
  H  H6  1  0.12618000  0.65023000  0.76132000  1.0
  H  H7  1  0.34960000  0.47583000  0.41172000  1.0
  H  H8  1  0.52396000  0.87379000  0.88761000  1.0
  H  H9  1  0.47603000  0.34982000  0.41157000  1.0
  H  H10  1  0.65040000  0.12624000  0.76131000  1.0
  H  H11  1  0.87382000  0.52406000  0.88750000  1.0
  H  H12  1  0.58848000  0.34979000  0.52401000  1.0
  H  H13  1  0.11245000  0.52401000  0.12638000  1.0
  H  H14  1  0.23873000  0.12633000  0.34949000  1.0
  H  H15  1  0.23872000  0.65050000  0.87369000  1.0
  H  H16  1  0.11245000  0.87360000  0.47600000  1.0
  H  H17  1  0.58849000  0.47600000  0.65020000  1.0
  H  H18  1  0.87382000  0.11251000  0.47595000  1.0
  H  H19  1  0.65040000  0.23870000  0.87377000  1.0
  H  H20  1  0.47604000  0.58843000  0.65017000  1.0
  H  H21  1  0.52396000  0.11239000  0.12621000  1.0
  H  H22  1  0.34960000  0.58828000  0.52417000  1.0
  H  H23  1  0.12619000  0.23869000  0.34975000  1.0
  H  H24  1  0.41151000  0.88750000  0.23870000  1.0
  H  H25  1  0.88756000  0.76117000  0.58844000  1.0
  H  H26  1  0.76128000  0.41178000  0.11240000  1.0
  H  H27  1  0.76128000  0.88760000  0.58823000  1.0
  H  H28  1  0.88755000  0.41156000  0.23883000  1.0
  H  H29  1  0.41151000  0.76130000  0.11250000  1.0
  H  H30  1  0.54672000  0.79012000  0.52538000  1.0
  H  H31  1  0.20980000  0.75656000  0.31567000  1.0
  H  H32  1  0.24345000  0.45322000  0.07219000  1.0
  H  H33  1  0.75654000  0.20976000  0.31564000  1.0
  H  H34  1  0.79019000  0.54676000  0.52547000  1.0
  H  H35  1  0.45329000  0.24341000  0.07209000  1.0
  H  H36  1  0.68431000  0.20980000  0.24341000  1.0
  H  H37  1  0.92775000  0.24326000  0.54693000  1.0
  H  H38  1  0.47447000  0.54685000  0.20986000  1.0
  H  H39  1  0.47447000  0.79014000  0.45315000  1.0
  H  H40  1  0.92775000  0.45308000  0.75674000  1.0
  H  H41  1  0.68431000  0.75659000  0.79020000  1.0
  H  H42  1  0.45328000  0.92790000  0.75660000  1.0
  H  H43  1  0.79019000  0.47453000  0.45323000  1.0
  H  H44  1  0.75654000  0.68435000  0.79024000  1.0
  H  H45  1  0.24346000  0.92782000  0.54678000  1.0
  H  H46  1  0.20981000  0.68433000  0.24343000  1.0
  H  H47  1  0.54672000  0.47462000  0.20988000  1.0
  H  H48  1  0.31568000  0.07227000  0.47452000  1.0
  H  H49  1  0.07225000  0.52532000  0.68449000  1.0
  H  H50  1  0.52554000  0.31568000  0.92761000  1.0
  H  H51  1  0.52553000  0.07238000  0.68433000  1.0
  H  H52  1  0.07225000  0.31551000  0.47468000  1.0
  H  H53  1  0.31569000  0.52550000  0.92772000  1.0
  H  H54  1  0.52437000  0.89968000  0.47552000  1.0
  H  H55  1  0.10027000  0.62466000  0.37534000  1.0
  H  H56  1  0.37542000  0.47573000  0.99992000  1.0
  H  H57  1  0.62458000  0.10030000  0.37535000  1.0
  H  H58  1  0.89973000  0.52439000  0.47561000  1.0
  H  H59  1  0.47564000  0.37532000  0.99988000  1.0
  H  H60  1  0.00000000  0.37520000  0.52451000  1.0
  H  H61  1  0.52437000  0.52448000  0.10032000  1.0
  H  H62  1  0.00000000  0.47548000  0.62480000  1.0
  H  H63  1  0.62458000  0.62465000  0.89969000  1.0
  H  H64  1  0.47563000  0.00011000  0.62469000  1.0
  H  H65  1  0.37542000  0.00007000  0.52428000  1.0
  C  C66  1  0.38358000  0.75369000  0.61631000  1.0
  C  C67  1  0.24626000  0.62987000  0.37012000  1.0
  C  C68  1  0.37004000  0.61640000  1.00000000  1.0
  C  C69  1  0.62995000  0.24636000  0.37003000  1.0
  C  C70  1  0.75374000  0.38362000  0.61638000  1.0
  C  C71  1  0.61641000  0.37010000  0.99991000  1.0
  C  C72  1  0.00000000  0.36993000  0.38376000  1.0
  C  C73  1  0.38359000  0.38369000  0.24631000  1.0
  C  C74  1  0.00001000  0.61624000  0.63006000  1.0
  C  C75  1  0.62995000  0.62996000  0.75364000  1.0
  C  C76  1  0.61642000  0.00011000  0.62989000  1.0
  C  C77  1  0.37005000  0.00001000  0.38359000  1.0
  C  C78  1  0.21186000  0.67931000  0.73243000  1.0
  C  C79  1  0.32058000  0.53247000  0.41188000  1.0
  C  C80  1  0.46735000  0.78811000  0.94438000  1.0
  C  C81  1  0.53264000  0.32075000  0.41173000  1.0
  C  C82  1  0.67941000  0.21190000  0.73246000  1.0
  C  C83  1  0.78814000  0.46746000  0.94429000  1.0
  C  C84  1  0.58830000  0.32074000  0.46739000  1.0
  C  C85  1  0.05564000  0.46734000  0.21205000  1.0
  C  C86  1  0.26756000  0.21198000  0.32054000  1.0
  C  C87  1  0.26755000  0.67945000  0.78803000  1.0
  C  C88  1  0.05565000  0.78795000  0.53265000  1.0
  C  C89  1  0.58830000  0.53261000  0.67927000  1.0
  C  C90  1  0.78814000  0.05571000  0.53255000  1.0
  C  C91  1  0.67941000  0.26754000  0.78810000  1.0
  C  C92  1  0.53264000  0.58827000  0.67925000  1.0
  C  C93  1  0.46735000  0.05562000  0.21189000  1.0
  C  C94  1  0.32058000  0.58811000  0.46753000  1.0
  C  C95  1  0.21187000  0.26758000  0.32067000  1.0
  C  C96  1  0.41169000  0.94430000  0.26757000  1.0
  C  C97  1  0.94436000  0.73231000  0.58830000  1.0
  C  C98  1  0.73245000  0.41190000  0.05558000  1.0
  C  C99  1  0.73245000  0.94443000  0.58810000  1.0
  C  C100  1  0.94436000  0.41170000  0.26769000  1.0
  C  C101  1  0.41169000  0.73243000  0.05570000  1.0
  C  C102  1  0.48745000  0.81103000  0.51243000  1.0
  C  C103  1  0.18891000  0.67640000  0.32360000  1.0
  C  C104  1  0.32361000  0.51255000  0.99995000  1.0
  C  C105  1  0.67639000  0.18893000  0.32356000  1.0
  C  C106  1  0.81109000  0.48750000  0.51250000  1.0
  C  C107  1  0.51256000  0.32360000  0.99986000  1.0
  C  C108  1  0.00000000  0.32344000  0.48763000  1.0
  C  C109  1  0.48745000  0.48758000  0.18896000  1.0
  C  C110  1  0.00000000  0.51237000  0.67656000  1.0
  C  C111  1  0.67639000  0.67644000  0.81106000  1.0
  C  C112  1  0.51255000  0.00012000  0.67642000  1.0
  C  C113  1  0.32360000  0.00004000  0.48746000  1.0
  N  N114  1  0.28544000  0.72617000  0.62375000  1.0
  N  N115  1  0.27368000  0.55918000  0.35010000  1.0
  N  N116  1  0.44072000  0.71457000  0.90927000  1.0
  N  N117  1  0.55928000  0.27385000  0.35000000  1.0
  N  N118  1  0.72631000  0.28551000  0.62378000  1.0
  N  N119  1  0.71457000  0.44074000  0.90917000  1.0
  N  N120  1  0.65003000  0.27381000  0.44072000  1.0
  N  N121  1  0.09072000  0.44062000  0.28564000  1.0
  N  N122  1  0.37623000  0.28561000  0.27362000  1.0
  N  N123  1  0.37623000  0.72638000  0.71440000  1.0
  N  N124  1  0.09073000  0.71435000  0.55937000  1.0
  N  N125  1  0.65003000  0.55928000  0.72619000  1.0
  N  N126  1  0.71456000  0.09082000  0.55928000  1.0
  N  N127  1  0.72631000  0.37622000  0.71450000  1.0
  N  N128  1  0.55928000  0.65000000  0.72615000  1.0
  N  N129  1  0.44071000  0.09072000  0.28544000  1.0
  N  N130  1  0.27369000  0.64990000  0.44081000  1.0
  N  N131  1  0.28544000  0.37626000  0.27383000  1.0
  N  N132  1  0.34997000  0.90925000  0.37622000  1.0
  N  N133  1  0.90927000  0.62363000  0.65010000  1.0
  N  N134  1  0.62378000  0.35016000  0.09061000  1.0
  N  N135  1  0.62378000  0.90938000  0.64985000  1.0
  N  N136  1  0.90927000  0.34990000  0.37637000  1.0
  N  N137  1  0.34997000  0.62379000  0.09075000  1.0
