# generated using pymatgen
data_CdH24C28N7O4
_symmetry_space_group_name_H-M   'P 1'
_cell_length_a   9.76112000
_cell_length_b   13.44315688
_cell_length_c   22.80970000
_cell_angle_alpha   89.99976507
_cell_angle_beta   89.99940000
_cell_angle_gamma   69.02399136
_symmetry_Int_Tables_number   1
_chemical_formula_structural   CdH24C28N7O4
_chemical_formula_sum   'Cd4 H96 C112 N28 O16'
_cell_volume   2794.74374147
_cell_formula_units_Z   4
loop_
 _symmetry_equiv_pos_site_id
 _symmetry_equiv_pos_as_xyz
  1  'x, y, z'
loop_
 _atom_site_type_symbol
 _atom_site_label
 _atom_site_symmetry_multiplicity
 _atom_site_fract_x
 _atom_site_fract_y
 _atom_site_fract_z
 _atom_site_occupancy
  Cd  Cd0  1  0.66818000  0.40611000  0.71813000  1.0
  Cd  Cd1  1  0.83182000  0.59389000  0.21813000  1.0
  Cd  Cd2  1  0.33182000  0.59389000  0.28187000  1.0
  Cd  Cd3  1  0.16817000  0.40611000  0.78187000  1.0
  H  H4  1  0.70764000  0.35870000  0.56172000  1.0
  H  H5  1  0.79235000  0.64131000  0.06171000  1.0
  H  H6  1  0.29235000  0.64131000  0.43828000  1.0
  H  H7  1  0.20765000  0.35869000  0.93828000  1.0
  H  H8  1  0.16315000  0.19583000  0.58877000  1.0
  H  H9  1  0.33685000  0.80417000  0.08877000  1.0
  H  H10  1  0.83685000  0.80417000  0.41123000  1.0
  H  H11  1  0.66315000  0.19584000  0.91123000  1.0
  H  H12  1  0.02829000  0.27797000  0.69552000  1.0
  H  H13  1  0.47169000  0.72204000  0.19551000  1.0
  H  H14  1  0.97169000  0.72204000  0.30449000  1.0
  H  H15  1  0.52830000  0.27797000  0.80449000  1.0
  H  H16  1  0.68142000  0.65463000  0.74908000  1.0
  H  H17  1  0.81859000  0.34537000  0.24907000  1.0
  H  H18  1  0.31859000  0.34537000  0.25093000  1.0
  H  H19  1  0.18141000  0.65463000  0.75093000  1.0
  H  H20  1  0.50303000  0.56306000  0.59793000  1.0
  H  H21  1  0.99697000  0.43694000  0.09793000  1.0
  H  H22  1  0.49696000  0.43694000  0.40207000  1.0
  H  H23  1  0.00303000  0.56306000  0.90207000  1.0
  H  H24  1  0.55075000  0.83252000  0.67848000  1.0
  H  H25  1  0.94926000  0.16748000  0.17848000  1.0
  H  H26  1  0.44926000  0.16748000  0.32152000  1.0
  H  H27  1  0.05074000  0.83252000  0.82152000  1.0
  H  H28  1  0.39695000  0.73061000  0.54587000  1.0
  H  H29  1  0.10306000  0.26938000  0.04586000  1.0
  H  H30  1  0.60304000  0.26939000  0.45414000  1.0
  H  H31  1  0.89694000  0.73062000  0.95414000  1.0
  H  H32  1  0.43638000  0.84552000  0.56661000  1.0
  H  H33  1  0.06362000  0.15448000  0.06661000  1.0
  H  H34  1  0.56362000  0.15448000  0.43339000  1.0
  H  H35  1  0.93637000  0.84552000  0.93339000  1.0
  H  H36  1  0.24436000  0.99160000  0.61297000  1.0
  H  H37  1  0.25566000  0.00839000  0.11296000  1.0
  H  H38  1  0.75565000  0.00840000  0.38704000  1.0
  H  H39  1  0.74434000  0.99161000  0.88703000  1.0
  H  H40  1  0.01360000  0.06314000  0.66802000  1.0
  H  H41  1  0.48642000  0.93685000  0.16802000  1.0
  H  H42  1  0.98641000  0.93685000  0.33199000  1.0
  H  H43  1  0.51359000  0.06315000  0.83198000  1.0
  H  H44  1  0.99187000  0.74795000  0.67558000  1.0
  H  H45  1  0.50812000  0.25205000  0.17558000  1.0
  H  H46  1  0.00812000  0.25205000  0.32442000  1.0
  H  H47  1  0.49187000  0.74795000  0.82442000  1.0
  H  H48  1  0.22667000  0.67662000  0.62057000  1.0
  H  H49  1  0.27333000  0.32337000  0.12057000  1.0
  H  H50  1  0.77334000  0.32337000  0.37943000  1.0
  H  H51  1  0.72666000  0.67663000  0.87943000  1.0
  H  H52  1  0.67458000  0.16403000  0.67502000  1.0
  H  H53  1  0.82542000  0.83597000  0.17502000  1.0
  H  H54  1  0.32541000  0.83597000  0.32498000  1.0
  H  H55  1  0.17459000  0.16402000  0.82498000  1.0
  H  H56  1  0.95029000  0.00199000  0.81447000  1.0
  H  H57  1  0.54972000  0.99801000  0.31447000  1.0
  H  H58  1  0.04970000  0.99802000  0.18553000  1.0
  H  H59  1  0.45029000  0.00198000  0.68553000  1.0
  H  H60  1  0.86512000  0.22138000  0.83092000  1.0
  H  H61  1  0.63489000  0.77862000  0.33091000  1.0
  H  H62  1  0.13487000  0.77863000  0.16908000  1.0
  H  H63  1  0.36512000  0.22138000  0.66909000  1.0
  H  H64  1  0.74979000  0.96425000  0.67732000  1.0
  H  H65  1  0.75021000  0.03575000  0.17732000  1.0
  H  H66  1  0.25020000  0.03575000  0.32268000  1.0
  H  H67  1  0.24980000  0.96424000  0.82268000  1.0
  H  H68  1  0.83398000  0.89349000  0.74103000  1.0
  H  H69  1  0.66602000  0.10651000  0.24103000  1.0
  H  H70  1  0.16602000  0.10651000  0.25897000  1.0
  H  H71  1  0.33398000  0.89349000  0.75897000  1.0
  H  H72  1  0.04943000  0.24021000  0.47747000  1.0
  H  H73  1  0.45057000  0.75979000  0.97746000  1.0
  H  H74  1  0.95056000  0.75980000  0.52253000  1.0
  H  H75  1  0.54944000  0.24020000  0.02253000  1.0
  H  H76  1  0.85623000  0.27607000  0.47506000  1.0
  H  H77  1  0.64376000  0.72394000  0.97505000  1.0
  H  H78  1  0.14375000  0.72394000  0.52495000  1.0
  H  H79  1  0.35625000  0.27606000  0.02495000  1.0
  H  H80  1  0.77330000  0.13231000  0.54230000  1.0
  H  H81  1  0.72669000  0.86769000  0.04230000  1.0
  H  H82  1  0.22669000  0.86770000  0.45770000  1.0
  H  H83  1  0.27330000  0.13231000  0.95769000  1.0
  H  H84  1  0.18845000  0.06062000  0.45549000  1.0
  H  H85  1  0.31155000  0.93938000  0.95549000  1.0
  H  H86  1  0.81156000  0.93938000  0.54451000  1.0
  H  H87  1  0.68844000  0.06062000  0.04451000  1.0
  H  H88  1  0.39272000  0.52027000  0.80043000  1.0
  H  H89  1  0.10728000  0.47974000  0.30042000  1.0
  H  H90  1  0.60729000  0.47974000  0.19957000  1.0
  H  H91  1  0.89271000  0.52026000  0.69958000  1.0
  H  H92  1  0.32381000  0.58104000  0.90528000  1.0
  H  H93  1  0.17618000  0.41899000  0.40528000  1.0
  H  H94  1  0.67620000  0.41897000  0.09472000  1.0
  H  H95  1  0.82382000  0.58102000  0.59472000  1.0
  H  H96  1  0.52751000  0.55758000  0.97638000  1.0
  H  H97  1  0.97248000  0.44244000  0.47637000  1.0
  H  H98  1  0.47250000  0.44243000  0.02363000  1.0
  H  H99  1  0.02751000  0.55757000  0.52363000  1.0
  C  C100  1  0.81092000  0.32412000  0.58536000  1.0
  C  C101  1  0.68908000  0.67588000  0.08535000  1.0
  C  C102  1  0.18907000  0.67589000  0.41464000  1.0
  C  C103  1  0.31092000  0.32412000  0.91464000  1.0
  C  C104  1  0.04984000  0.23987000  0.60022000  1.0
  C  C105  1  0.45016000  0.76013000  0.10021000  1.0
  C  C106  1  0.95016000  0.76013000  0.39979000  1.0
  C  C107  1  0.54984000  0.23987000  0.89979000  1.0
  C  C108  1  0.98207000  0.28001000  0.65226000  1.0
  C  C109  1  0.51792000  0.71999000  0.15226000  1.0
  C  C110  1  0.01793000  0.71999000  0.34774000  1.0
  C  C111  1  0.48208000  0.28001000  0.84774000  1.0
  C  C112  1  0.62445000  0.66192000  0.70761000  1.0
  C  C113  1  0.87555000  0.33808000  0.20761000  1.0
  C  C114  1  0.37555000  0.33808000  0.29239000  1.0
  C  C115  1  0.12445000  0.66191000  0.79239000  1.0
  C  C116  1  0.53662000  0.60920000  0.63046000  1.0
  C  C117  1  0.96338000  0.39080000  0.13046000  1.0
  C  C118  1  0.46338000  0.39080000  0.36954000  1.0
  C  C119  1  0.03661000  0.60920000  0.86954000  1.0
  C  C120  1  0.56142000  0.75015000  0.67302000  1.0
  C  C121  1  0.93859000  0.24985000  0.17302000  1.0
  C  C122  1  0.43859000  0.24985000  0.32698000  1.0
  C  C123  1  0.06141000  0.75015000  0.82698000  1.0
  C  C124  1  0.39918000  0.78253000  0.58282000  1.0
  C  C125  1  0.10082000  0.21747000  0.08281000  1.0
  C  C126  1  0.60082000  0.21747000  0.41719000  1.0
  C  C127  1  0.89918000  0.78253000  0.91719000  1.0
  C  C128  1  0.25267000  0.82896000  0.61384000  1.0
  C  C129  1  0.24734000  0.17103000  0.11383000  1.0
  C  C130  1  0.74733000  0.17104000  0.38617000  1.0
  C  C131  1  0.75267000  0.82896000  0.88617000  1.0
  C  C132  1  0.19069000  0.93725000  0.62742000  1.0
  C  C133  1  0.30932000  0.06274000  0.12742000  1.0
  C  C134  1  0.80931000  0.06275000  0.37258000  1.0
  C  C135  1  0.69069000  0.93725000  0.87258000  1.0
  C  C136  1  0.05910000  0.97798000  0.65856000  1.0
  C  C137  1  0.44091000  0.02202000  0.15855000  1.0
  C  C138  1  0.94090000  0.02202000  0.34145000  1.0
  C  C139  1  0.55911000  0.97797000  0.84144000  1.0
  C  C140  1  0.98673000  0.91023000  0.67635000  1.0
  C  C141  1  0.51327000  0.08977000  0.17635000  1.0
  C  C142  1  0.01327000  0.08977000  0.32366000  1.0
  C  C143  1  0.48673000  0.91022000  0.82365000  1.0
  C  C144  1  0.04791000  0.80159000  0.66241000  1.0
  C  C145  1  0.45209000  0.19841000  0.16241000  1.0
  C  C146  1  0.95209000  0.19841000  0.33759000  1.0
  C  C147  1  0.54792000  0.80158000  0.83759000  1.0
  C  C148  1  0.17998000  0.76112000  0.63194000  1.0
  C  C149  1  0.32002000  0.23887000  0.13193000  1.0
  C  C150  1  0.82003000  0.23887000  0.36807000  1.0
  C  C151  1  0.67997000  0.76113000  0.86807000  1.0
  C  C152  1  0.73638000  0.15101000  0.71565000  1.0
  C  C153  1  0.76363000  0.84899000  0.21564000  1.0
  C  C154  1  0.26361000  0.84899000  0.28435000  1.0
  C  C155  1  0.23639000  0.15100000  0.78435000  1.0
  C  C156  1  0.88122000  0.06842000  0.78858000  1.0
  C  C157  1  0.61879000  0.93158000  0.28858000  1.0
  C  C158  1  0.11878000  0.93158000  0.21142000  1.0
  C  C159  1  0.38121000  0.06842000  0.71142000  1.0
  C  C160  1  0.83816000  0.17679000  0.79598000  1.0
  C  C161  1  0.66185000  0.82321000  0.29598000  1.0
  C  C162  1  0.16183000  0.82322000  0.20401000  1.0
  C  C163  1  0.33816000  0.17679000  0.70402000  1.0
  C  C164  1  0.84106000  0.95162000  0.70832000  1.0
  C  C165  1  0.65894000  0.04838000  0.20832000  1.0
  C  C166  1  0.15894000  0.04838000  0.29168000  1.0
  C  C167  1  0.34106000  0.95162000  0.79168000  1.0
  C  C168  1  0.95605000  0.22718000  0.49854000  1.0
  C  C169  1  0.54394000  0.77283000  0.99854000  1.0
  C  C170  1  0.04394000  0.77283000  0.50146000  1.0
  C  C171  1  0.45605000  0.22717000  0.00146000  1.0
  C  C172  1  0.97838000  0.10982000  0.49866000  1.0
  C  C173  1  0.52163000  0.89017000  0.99865000  1.0
  C  C174  1  0.02162000  0.89018000  0.50135000  1.0
  C  C175  1  0.47837000  0.10982000  0.00135000  1.0
  C  C176  1  0.87313000  0.07427000  0.52369000  1.0
  C  C177  1  0.62687000  0.92573000  0.02368000  1.0
  C  C178  1  0.12687000  0.92574000  0.47632000  1.0
  C  C179  1  0.37312000  0.07427000  0.97631000  1.0
  C  C180  1  0.10537000  0.03403000  0.47512000  1.0
  C  C181  1  0.39463000  0.96597000  0.97511000  1.0
  C  C182  1  0.89463000  0.96598000  0.52489000  1.0
  C  C183  1  0.60537000  0.03402000  0.02488000  1.0
  C  C184  1  0.47537000  0.51498000  0.83339000  1.0
  C  C185  1  0.02462000  0.48504000  0.33339000  1.0
  C  C186  1  0.52463000  0.48503000  0.16661000  1.0
  C  C187  1  0.97537000  0.51497000  0.66666667  1.0
  C  C188  1  0.43820000  0.54757000  0.89132000  1.0
  C  C189  1  0.06179000  0.45245000  0.39132000  1.0
  C  C190  1  0.56180000  0.45244000  0.10868000  1.0
  C  C191  1  0.93820000  0.54756000  0.60868000  1.0
  C  C192  1  0.55148000  0.53294000  0.93081000  1.0
  C  C193  1  0.94851000  0.46706000  0.43080000  1.0
  C  C194  1  0.44853000  0.46705000  0.06920000  1.0
  C  C195  1  0.05149000  0.53294000  0.56920000  1.0
  C  C196  1  0.69919000  0.48674000  0.91321000  1.0
  C  C197  1  0.80080000  0.51326000  0.41320000  1.0
  C  C198  1  0.30082000  0.51325000  0.08680000  1.0
  C  C199  1  0.19920000  0.48674000  0.58680000  1.0
  C  C200  1  0.72631000  0.45914000  0.85368000  1.0
  C  C201  1  0.77369000  0.54086000  0.35368000  1.0
  C  C202  1  0.27371000  0.54085000  0.14632000  1.0
  C  C203  1  0.22631000  0.45914000  0.64633000  1.0
  C  C204  1  0.81058000  0.47873000  0.96129000  1.0
  C  C205  1  0.68941000  0.52127000  0.46129000  1.0
  C  C206  1  0.18943000  0.52126000  0.03871000  1.0
  C  C207  1  0.31058000  0.47874000  0.53871000  1.0
  C  C208  1  0.87853000  0.41837000  0.82725000  1.0
  C  C209  1  0.62147000  0.58163000  0.32724000  1.0
  C  C210  1  0.12147000  0.58163000  0.17276000  1.0
  C  C211  1  0.37853000  0.41837000  0.67276000  1.0
  N  N212  1  0.83399000  0.33203000  0.64238000  1.0
  N  N213  1  0.66600000  0.66798000  0.14238000  1.0
  N  N214  1  0.16600000  0.66798000  0.35762000  1.0
  N  N215  1  0.33400000  0.33202000  0.85762000  1.0
  N  N216  1  0.94032000  0.26854000  0.55828000  1.0
  N  N217  1  0.55968000  0.73146000  0.05827000  1.0
  N  N218  1  0.05967000  0.73147000  0.44172000  1.0
  N  N219  1  0.44033000  0.26854000  0.94172000  1.0
  N  N220  1  0.60738000  0.57514000  0.68075000  1.0
  N  N221  1  0.89262000  0.42486000  0.18074000  1.0
  N  N222  1  0.39262000  0.42486000  0.31925000  1.0
  N  N223  1  0.10738000  0.57514000  0.81926000  1.0
  N  N224  1  0.50711000  0.71526000  0.62428000  1.0
  N  N225  1  0.99291000  0.28473000  0.12428000  1.0
  N  N226  1  0.49291000  0.28473000  0.37572000  1.0
  N  N227  1  0.00709000  0.71527000  0.87572000  1.0
  N  N228  1  0.81489000  0.05305000  0.73752000  1.0
  N  N229  1  0.68512000  0.94695000  0.23752000  1.0
  N  N230  1  0.18510000  0.94696000  0.26248000  1.0
  N  N231  1  0.31489000  0.05304000  0.76248000  1.0
  N  N232  1  0.74770000  0.22703000  0.75018000  1.0
  N  N233  1  0.75230000  0.77297000  0.25018000  1.0
  N  N234  1  0.25229000  0.77297000  0.24981000  1.0
  N  N235  1  0.24770000  0.22703000  0.74982000  1.0
  N  N236  1  0.61457000  0.47303000  0.81539000  1.0
  N  N237  1  0.88542000  0.52698000  0.31539000  1.0
  N  N238  1  0.38543000  0.52697000  0.18461000  1.0
  N  N239  1  0.11457000  0.47303000  0.68461000  1.0
  O  O240  1  0.83742000  0.56408000  0.96740000  1.0
  O  O241  1  0.66258000  0.43591000  0.46740000  1.0
  O  O242  1  0.16259000  0.43591000  0.03260000  1.0
  O  O243  1  0.33742000  0.56409000  0.53261000  1.0
  O  O244  1  0.84926000  0.39626000  0.99245000  1.0
  O  O245  1  0.65072000  0.60374000  0.49245000  1.0
  O  O246  1  0.15074000  0.60373000  0.00755000  1.0
  O  O247  1  0.34928000  0.39627000  0.50755000  1.0
  O  O248  1  0.98884000  0.39624000  0.86062000  1.0
  O  O249  1  0.51115000  0.60376000  0.36061000  1.0
  O  O250  1  0.01116000  0.60375000  0.13938000  1.0
  O  O251  1  0.48884000  0.39624000  0.63938000  1.0
  O  O252  1  0.88900000  0.41106000  0.77120000  1.0
  O  O253  1  0.61100000  0.58894000  0.27120000  1.0
  O  O254  1  0.11101000  0.58894000  0.22880000  1.0
  O  O255  1  0.38899000  0.41107000  0.72880000  1.0
