# generated using pymatgen
data_CuH8C6N8O
_symmetry_space_group_name_H-M   'P 1'
_cell_length_a   7.85094000
_cell_length_b   12.38220000
_cell_length_c   12.38450000
_cell_angle_alpha   89.99890000
_cell_angle_beta   89.99990000
_cell_angle_gamma   89.99920000
_symmetry_Int_Tables_number   1
_chemical_formula_structural   CuH8C6N8O
_chemical_formula_sum   'Cu4 H32 C24 N32 O4'
_cell_volume   1203.92088999
_cell_formula_units_Z   4
loop_
 _symmetry_equiv_pos_site_id
 _symmetry_equiv_pos_as_xyz
  1  'x, y, z'
loop_
 _atom_site_type_symbol
 _atom_site_label
 _atom_site_symmetry_multiplicity
 _atom_site_fract_x
 _atom_site_fract_y
 _atom_site_fract_z
 _atom_site_occupancy
  Cu  Cu0  1  0.03022000  0.99017000  0.32324000  1.0
  Cu  Cu1  1  0.78015000  0.67685000  0.98990000  1.0
  Cu  Cu2  1  0.53023000  0.00983000  0.67676000  1.0
  Cu  Cu3  1  0.28014000  0.32315000  0.01011000  1.0
  H  H4  1  0.18839000  0.90112000  0.09295000  1.0
  H  H5  1  0.93692000  0.90703000  0.90127000  1.0
  H  H6  1  0.68840000  0.09889000  0.90704000  1.0
  H  H7  1  0.43693000  0.09298000  0.09873000  1.0
  H  H8  1  0.14355000  0.76935000  0.04692000  1.0
  H  H9  1  0.89193000  0.95309000  0.76954000  1.0
  H  H10  1  0.64355000  0.23066000  0.95308000  1.0
  H  H11  1  0.39193000  0.04690000  0.23046000  1.0
  H  H12  1  0.19131000  0.69755000  0.23495000  1.0
  H  H13  1  0.94028000  0.76520000  0.69761000  1.0
  H  H14  1  0.69134000  0.30246000  0.76505000  1.0
  H  H15  1  0.44027000  0.23480000  0.30239000  1.0
  H  H16  1  0.37451000  0.76495000  0.17822000  1.0
  H  H17  1  0.12326000  0.82198000  0.76520000  1.0
  H  H18  1  0.87452000  0.23504000  0.82177000  1.0
  H  H19  1  0.62326000  0.17802000  0.23480000  1.0
  H  H20  1  0.48788000  0.83723000  0.36272000  1.0
  H  H21  1  0.23716000  0.63779000  0.83734000  1.0
  H  H22  1  0.98788000  0.16276000  0.63728000  1.0
  H  H23  1  0.73715000  0.36221000  0.16267000  1.0
  H  H24  1  0.34800000  0.72683000  0.39188000  1.0
  H  H25  1  0.09754000  0.60822000  0.72692000  1.0
  H  H26  1  0.84802000  0.27317000  0.60811000  1.0
  H  H27  1  0.59753000  0.39178000  0.27309000  1.0
  H  H28  1  0.17113000  0.83765000  0.50954000  1.0
  H  H29  1  0.92122000  0.49025000  0.83785000  1.0
  H  H30  1  0.67113000  0.16235000  0.49046000  1.0
  H  H31  1  0.42121000  0.50975000  0.16215000  1.0
  H  H32  1  0.38671000  0.83895000  0.55335000  1.0
  H  H33  1  0.13704000  0.44690000  0.83919000  1.0
  H  H34  1  0.88671000  0.16105000  0.44665000  1.0
  H  H35  1  0.63703000  0.55310000  0.16081000  1.0
  C  C36  1  0.95205000  0.83749000  0.14678000  1.0
  C  C37  1  0.70064000  0.85303000  0.83766000  1.0
  C  C38  1  0.45205000  0.16252000  0.85322000  1.0
  C  C39  1  0.20064000  0.14697000  0.16234000  1.0
  C  C40  1  0.13456000  0.82271000  0.11747000  1.0
  C  C41  1  0.88312000  0.88251000  0.82288000  1.0
  C  C42  1  0.63457000  0.17729000  0.88253000  1.0
  C  C43  1  0.38312000  0.11749000  0.17712000  1.0
  C  C44  1  0.24340000  0.77579000  0.20807000  1.0
  C  C45  1  0.99219000  0.79203000  0.77590000  1.0
  C  C46  1  0.74341000  0.22421000  0.79192000  1.0
  C  C47  1  0.49218000  0.20797000  0.22411000  1.0
  C  C48  1  0.35577000  0.81534000  0.38324000  1.0
  C  C49  1  0.10518000  0.61694000  0.81541000  1.0
  C  C50  1  0.85577000  0.18466000  0.61676000  1.0
  C  C51  1  0.60517000  0.38306000  0.18459000  1.0
  C  C52  1  0.29981000  0.86679000  0.48961000  1.0
  C  C53  1  0.04980000  0.51048000  0.86697000  1.0
  C  C54  1  0.79982000  0.13321000  0.51039000  1.0
  C  C55  1  0.54979000  0.48951000  0.13303000  1.0
  C  C56  1  0.29839000  0.98704000  0.48779000  1.0
  C  C57  1  0.04836000  0.51244000  0.98721000  1.0
  C  C58  1  0.79840000  0.01296000  0.51220000  1.0
  C  C59  1  0.54836000  0.48756000  0.01280000  1.0
  N  N60  1  0.89329000  0.90232000  0.22522000  1.0
  N  N61  1  0.64197000  0.77485000  0.90290000  1.0
  N  N62  1  0.39330000  0.09770000  0.77477000  1.0
  N  N63  1  0.14197000  0.22515000  0.09710000  1.0
  N  N64  1  0.72155000  0.89549000  0.22610000  1.0
  N  N65  1  0.47057000  0.77358000  0.89569000  1.0
  N  N66  1  0.22155000  0.10452000  0.77390000  1.0
  N  N67  1  0.97056000  0.22642000  0.10432000  1.0
  N  N68  1  0.67504000  0.82867000  0.15028000  1.0
  N  N69  1  0.42394000  0.84901000  0.82824000  1.0
  N  N70  1  0.17504000  0.17133000  0.84973000  1.0
  N  N71  1  0.92394000  0.15098000  0.17176000  1.0
  N  N72  1  0.81686000  0.79082000  0.09987000  1.0
  N  N73  1  0.56541000  0.89943000  0.79043000  1.0
  N  N74  1  0.31686000  0.20918000  0.90013000  1.0
  N  N75  1  0.06541000  0.10056000  0.20957000  1.0
  N  N76  1  0.20342000  0.04840000  0.42178000  1.0
  N  N77  1  0.95317000  0.57845000  0.04845000  1.0
  N  N78  1  0.70343000  0.95159000  0.57821000  1.0
  N  N79  1  0.45315000  0.42156000  0.95155000  1.0
  N  N80  1  0.23622000  0.15334000  0.44526000  1.0
  N  N81  1  0.98585000  0.55507000  0.15340000  1.0
  N  N82  1  0.73624000  0.84666000  0.55473000  1.0
  N  N83  1  0.48584000  0.44494000  0.84661000  1.0
  N  N84  1  0.34763000  0.15650000  0.52350000  1.0
  N  N85  1  0.09742000  0.47690000  0.15667000  1.0
  N  N86  1  0.84764000  0.84349000  0.47649000  1.0
  N  N87  1  0.59743000  0.52309000  0.84334000  1.0
  N  N88  1  0.38856000  0.05368000  0.55111000  1.0
  N  N89  1  0.13859000  0.44924000  0.05390000  1.0
  N  N90  1  0.88856000  0.94631000  0.44888000  1.0
  N  N91  1  0.63860000  0.55075000  0.94610000  1.0
  O  O92  1  0.24407000  0.84972000  0.29782000  1.0
  O  O93  1  0.99295000  0.70215000  0.84969000  1.0
  O  O94  1  0.74407000  0.15028000  0.70218000  1.0
  O  O95  1  0.49295000  0.29785000  0.15032000  1.0
