# generated using pymatgen
data_Zr3H26(C27O11)2
_symmetry_space_group_name_H-M   'P 1'
_cell_length_a   19.01520000
_cell_length_b   19.01520000
_cell_length_c   19.01520000
_cell_angle_alpha   60.00000000
_cell_angle_beta   60.00000000
_cell_angle_gamma   60.00000000
_symmetry_Int_Tables_number   1
_chemical_formula_structural   Zr3H26(C27O11)2
_chemical_formula_sum   'Zr6 H52 C108 O44'
_cell_volume   4861.69483572
_cell_formula_units_Z   2
loop_
 _symmetry_equiv_pos_site_id
 _symmetry_equiv_pos_as_xyz
  1  'x, y, z'
loop_
 _atom_site_type_symbol
 _atom_site_label
 _atom_site_symmetry_multiplicity
 _atom_site_fract_x
 _atom_site_fract_y
 _atom_site_fract_z
 _atom_site_occupancy
  Zr  Zr0  1  0.90706000  0.40706000  0.09294000  1.0
  Zr  Zr1  1  0.09294000  0.59294000  0.90706000  1.0
  Zr  Zr2  1  0.09294000  0.40706000  0.90706000  1.0
  Zr  Zr3  1  0.90706000  0.59294000  0.09294000  1.0
  Zr  Zr4  1  0.09294000  0.40706000  0.09294000  1.0
  Zr  Zr5  1  0.90706000  0.59294000  0.90706000  1.0
  H  H6  1  0.07316000  0.28052000  0.07316000  1.0
  H  H7  1  0.07316000  0.57316000  0.07316000  1.0
  H  H8  1  0.07315000  0.57316000  0.78053000  1.0
  H  H9  1  0.78052000  0.57316000  0.07316000  1.0
  H  H10  1  0.88521000  0.82308000  0.67829000  1.0
  H  H11  1  0.82013000  0.93653000  0.56334000  1.0
  H  H12  1  0.10954000  0.81905000  0.68237000  1.0
  H  H13  1  0.11342000  0.17829000  0.32308000  1.0
  H  H14  1  0.18001000  0.06333000  0.43652000  1.0
  H  H15  1  0.88905000  0.18237000  0.31905000  1.0
  H  H16  1  0.32307000  0.38522000  0.11342000  1.0
  H  H17  1  0.43653000  0.32014000  0.18000000  1.0
  H  H18  1  0.31906000  0.60953000  0.88904000  1.0
  H  H19  1  0.67829000  0.61342000  0.88521000  1.0
  H  H20  1  0.56334000  0.68000000  0.82014000  1.0
  H  H21  1  0.68238000  0.38904000  0.10953000  1.0
  H  H22  1  0.11342000  0.38521000  0.67829000  1.0
  H  H23  1  0.18001000  0.32014000  0.56333000  1.0
  H  H24  1  0.88905000  0.60953000  0.68237000  1.0
  H  H25  1  0.88521000  0.61342000  0.32308000  1.0
  H  H26  1  0.82015000  0.68000000  0.43652000  1.0
  H  H27  1  0.10954000  0.38904000  0.31905000  1.0
  H  H28  1  0.32308000  0.17829000  0.88521000  1.0
  H  H29  1  0.43653000  0.06333000  0.82014000  1.0
  H  H30  1  0.31906000  0.18237000  0.10953000  1.0
  H  H31  1  0.67830000  0.82308000  0.11341000  1.0
  H  H32  1  0.56334000  0.93652000  0.18000000  1.0
  H  H33  1  0.68238000  0.81905000  0.88904000  1.0
  H  H34  1  0.11342000  0.82308000  0.88521000  1.0
  H  H35  1  0.18000000  0.93652000  0.82014000  1.0
  H  H36  1  0.88905000  0.81905000  0.10953000  1.0
  H  H37  1  0.88521000  0.17829000  0.11342000  1.0
  H  H38  1  0.82014000  0.06334000  0.18000000  1.0
  H  H39  1  0.10954000  0.18237000  0.88904000  1.0
  H  H40  1  0.32309000  0.61342000  0.67828000  1.0
  H  H41  1  0.43653000  0.68000000  0.56333000  1.0
  H  H42  1  0.31906000  0.38904000  0.68237000  1.0
  H  H43  1  0.67828000  0.38522000  0.32308000  1.0
  H  H44  1  0.56334000  0.32014000  0.43652000  1.0
  H  H45  1  0.68238000  0.60953000  0.31905000  1.0
  H  H46  1  0.81451000  0.12096000  0.37922000  1.0
  H  H47  1  0.18532000  0.87922000  0.62096000  1.0
  H  H48  1  0.62097000  0.31450000  0.18531000  1.0
  H  H49  1  0.37923000  0.68531000  0.81450000  1.0
  H  H50  1  0.18532000  0.31450000  0.37922000  1.0
  H  H51  1  0.81451000  0.68531000  0.62096000  1.0
  H  H52  1  0.62097000  0.87922000  0.81450000  1.0
  H  H53  1  0.37923000  0.12096000  0.18531000  1.0
  H  H54  1  0.18532000  0.12096000  0.81450000  1.0
  H  H55  1  0.81451000  0.87922000  0.18531000  1.0
  H  H56  1  0.62097000  0.68531000  0.37922000  1.0
  H  H57  1  0.37923000  0.31450000  0.62096000  1.0
  C  C58  1  0.99938000  0.26545000  0.23836000  1.0
  C  C59  1  0.23836000  0.49681000  0.99938000  1.0
  C  C60  1  0.99681000  0.73836000  0.76545000  1.0
  C  C61  1  0.76545000  0.49938000  0.99681000  1.0
  C  C62  1  0.99682000  0.26545000  0.99938000  1.0
  C  C63  1  0.76545000  0.49681000  0.23836000  1.0
  C  C64  1  0.99938000  0.73836000  0.99681000  1.0
  C  C65  1  0.23836000  0.49938000  0.76545000  1.0
  C  C66  1  0.23836000  0.26545000  0.99681000  1.0
  C  C67  1  0.99938000  0.49681000  0.76545000  1.0
  C  C68  1  0.76545000  0.73836000  0.99938000  1.0
  C  C69  1  0.99681000  0.49938000  0.23836000  1.0
  C  C70  1  0.93458000  0.85234000  0.64873000  1.0
  C  C71  1  0.93444000  0.92561000  0.57432000  1.0
  C  C72  1  0.87037000  0.96424000  0.53539000  1.0
  C  C73  1  0.06229000  0.85134000  0.64976000  1.0
  C  C74  1  0.06479000  0.92429000  0.57565000  1.0
  C  C75  1  0.13003000  0.96336000  0.53628000  1.0
  C  C76  1  0.06435000  0.14873000  0.35234000  1.0
  C  C77  1  0.06562000  0.07432000  0.42561000  1.0
  C  C78  1  0.13000000  0.03539000  0.46424000  1.0
  C  C79  1  0.93660000  0.14977000  0.35134000  1.0
  C  C80  1  0.93528000  0.07565000  0.42429000  1.0
  C  C81  1  0.87033000  0.03628000  0.46336000  1.0
  C  C82  1  0.99754000  0.81589000  0.68621000  1.0
  C  C83  1  0.00017000  0.96256000  0.53711000  1.0
  C  C84  1  0.00036000  0.18621000  0.31589000  1.0
  C  C85  1  0.00016000  0.03712000  0.46255000  1.0
  C  C86  1  0.35234000  0.43458000  0.06435000  1.0
  C  C87  1  0.42560000  0.43445000  0.06563000  1.0
  C  C88  1  0.46423000  0.37038000  0.13000000  1.0
  C  C89  1  0.35134000  0.56229000  0.93661000  1.0
  C  C90  1  0.42429000  0.56479000  0.93527000  1.0
  C  C91  1  0.46336000  0.63003000  0.87033000  1.0
  C  C92  1  0.64873000  0.56435000  0.93458000  1.0
  C  C93  1  0.57432000  0.56562000  0.93445000  1.0
  C  C94  1  0.53540000  0.63000000  0.87037000  1.0
  C  C95  1  0.64976000  0.43661000  0.06229000  1.0
  C  C96  1  0.57565000  0.43528000  0.06478000  1.0
  C  C97  1  0.53627000  0.37034000  0.13003000  1.0
  C  C98  1  0.31589000  0.49754000  0.00036000  1.0
  C  C99  1  0.46256000  0.50017000  0.00016000  1.0
  C  C100  1  0.68621000  0.50036000  0.99754000  1.0
  C  C101  1  0.53712000  0.50016000  0.00017000  1.0
  C  C102  1  0.06435000  0.43458000  0.64873000  1.0
  C  C103  1  0.06562000  0.43445000  0.57432000  1.0
  C  C104  1  0.13000000  0.37037000  0.53539000  1.0
  C  C105  1  0.93661000  0.56229000  0.64976000  1.0
  C  C106  1  0.93527000  0.56479000  0.57565000  1.0
  C  C107  1  0.87034000  0.63003000  0.53628000  1.0
  C  C108  1  0.93458000  0.56435000  0.35234000  1.0
  C  C109  1  0.93444000  0.56563000  0.42561000  1.0
  C  C110  1  0.87037000  0.63000000  0.46424000  1.0
  C  C111  1  0.06229000  0.43661000  0.35134000  1.0
  C  C112  1  0.06478000  0.43528000  0.42429000  1.0
  C  C113  1  0.13002000  0.37034000  0.46336000  1.0
  C  C114  1  0.00036000  0.49754000  0.68621000  1.0
  C  C115  1  0.00016000  0.50017000  0.53712000  1.0
  C  C116  1  0.99754000  0.50036000  0.31589000  1.0
  C  C117  1  0.00018000  0.50016000  0.46255000  1.0
  C  C118  1  0.35234000  0.14873000  0.93458000  1.0
  C  C119  1  0.42560000  0.07432000  0.93445000  1.0
  C  C120  1  0.46423000  0.03539000  0.87038000  1.0
  C  C121  1  0.35133000  0.14977000  0.06229000  1.0
  C  C122  1  0.42428000  0.07565000  0.06479000  1.0
  C  C123  1  0.46336000  0.03628000  0.13003000  1.0
  C  C124  1  0.64873000  0.85234000  0.06435000  1.0
  C  C125  1  0.57431000  0.92561000  0.06563000  1.0
  C  C126  1  0.53539000  0.96424000  0.13000000  1.0
  C  C127  1  0.64976000  0.85134000  0.93661000  1.0
  C  C128  1  0.57564000  0.92429000  0.93528000  1.0
  C  C129  1  0.53627000  0.96336000  0.87034000  1.0
  C  C130  1  0.31589000  0.18621000  0.99754000  1.0
  C  C131  1  0.46255000  0.03712000  0.00017000  1.0
  C  C132  1  0.68621000  0.81589000  0.00036000  1.0
  C  C133  1  0.53712000  0.96255000  0.00016000  1.0
  C  C134  1  0.06435000  0.85234000  0.93458000  1.0
  C  C135  1  0.06562000  0.92561000  0.93445000  1.0
  C  C136  1  0.13000000  0.96424000  0.87037000  1.0
  C  C137  1  0.93661000  0.85134000  0.06229000  1.0
  C  C138  1  0.93528000  0.92429000  0.06478000  1.0
  C  C139  1  0.87033000  0.96336000  0.13003000  1.0
  C  C140  1  0.93458000  0.14873000  0.06435000  1.0
  C  C141  1  0.93444000  0.07432000  0.06563000  1.0
  C  C142  1  0.87037000  0.03539000  0.13000000  1.0
  C  C143  1  0.06228000  0.14977000  0.93661000  1.0
  C  C144  1  0.06479000  0.07565000  0.93527000  1.0
  C  C145  1  0.13003000  0.03628000  0.87033000  1.0
  C  C146  1  0.00036000  0.81589000  0.99754000  1.0
  C  C147  1  0.00016000  0.96256000  0.00017000  1.0
  C  C148  1  0.99754000  0.18621000  0.00036000  1.0
  C  C149  1  0.00016000  0.03712000  0.00016000  1.0
  C  C150  1  0.35234000  0.56435000  0.64873000  1.0
  C  C151  1  0.42560000  0.56563000  0.57432000  1.0
  C  C152  1  0.46423000  0.63000000  0.53539000  1.0
  C  C153  1  0.35134000  0.43661000  0.64976000  1.0
  C  C154  1  0.42428000  0.43528000  0.57565000  1.0
  C  C155  1  0.46335000  0.37034000  0.53628000  1.0
  C  C156  1  0.64873000  0.43458000  0.35234000  1.0
  C  C157  1  0.57431000  0.43445000  0.42561000  1.0
  C  C158  1  0.53539000  0.37038000  0.46423000  1.0
  C  C159  1  0.64976000  0.56229000  0.35134000  1.0
  C  C160  1  0.57564000  0.56479000  0.42429000  1.0
  C  C161  1  0.53627000  0.63003000  0.46336000  1.0
  C  C162  1  0.31589000  0.50036000  0.68621000  1.0
  C  C163  1  0.46255000  0.50016000  0.53712000  1.0
  C  C164  1  0.68621000  0.49754000  0.31589000  1.0
  C  C165  1  0.53712000  0.50017000  0.46255000  1.0
  O  O166  1  0.93937000  0.29637000  0.20782000  1.0
  O  O167  1  0.20782000  0.55644000  0.93937000  1.0
  O  O168  1  0.05644000  0.70782000  0.79637000  1.0
  O  O169  1  0.79637000  0.43937000  0.05644000  1.0
  O  O170  1  0.05644000  0.29637000  0.93937000  1.0
  O  O171  1  0.79637000  0.55644000  0.20782000  1.0
  O  O172  1  0.93938000  0.70782000  0.05644000  1.0
  O  O173  1  0.20782000  0.43937000  0.79637000  1.0
  O  O174  1  0.20782000  0.29637000  0.05644000  1.0
  O  O175  1  0.93938000  0.55644000  0.79636000  1.0
  O  O176  1  0.79637000  0.70782000  0.93937000  1.0
  O  O177  1  0.05645000  0.43937000  0.20782000  1.0
  O  O178  1  0.05924000  0.43726000  0.79631000  1.0
  O  O179  1  0.79631000  0.70719000  0.05924000  1.0
  O  O180  1  0.93726000  0.55924000  0.20719000  1.0
  O  O181  1  0.20719000  0.29631000  0.93726000  1.0
  O  O182  1  0.93726000  0.29631000  0.05924000  1.0
  O  O183  1  0.20719000  0.55924000  0.79631000  1.0
  O  O184  1  0.05924000  0.70719000  0.93726000  1.0
  O  O185  1  0.79631000  0.43726000  0.20719000  1.0
  O  O186  1  0.79631000  0.55924000  0.93726000  1.0
  O  O187  1  0.05924000  0.29631000  0.20719000  1.0
  O  O188  1  0.20719000  0.43726000  0.05924000  1.0
  O  O189  1  0.93726000  0.70719000  0.79631000  1.0
  O  O190  1  0.84295000  0.55235000  0.05235000  1.0
  O  O191  1  0.05234000  0.55235000  0.84296000  1.0
  O  O192  1  0.05234000  0.55235000  0.05235000  1.0
  O  O193  1  0.05234000  0.34296000  0.05235000  1.0
  O  O194  1  0.11575000  0.46142000  0.96141000  1.0
  O  O195  1  0.96142000  0.46142000  0.11575000  1.0
  O  O196  1  0.96141000  0.61575000  0.96142000  1.0
  O  O197  1  0.96142000  0.46142000  0.96141000  1.0
  O  O198  1  0.80689000  0.07011000  0.42962000  1.0
  O  O199  1  0.19338000  0.92962000  0.57010000  1.0
  O  O200  1  0.57010000  0.30690000  0.19338000  1.0
  O  O201  1  0.42962000  0.69338000  0.80690000  1.0
  O  O202  1  0.19338000  0.30690000  0.42962000  1.0
  O  O203  1  0.80691000  0.69338000  0.57010000  1.0
  O  O204  1  0.57010000  0.92962000  0.80690000  1.0
  O  O205  1  0.42962000  0.07011000  0.19337000  1.0
  O  O206  1  0.19337000  0.07011000  0.80690000  1.0
  O  O207  1  0.80690000  0.92962000  0.19338000  1.0
  O  O208  1  0.57010000  0.69338000  0.42961000  1.0
  O  O209  1  0.42962000  0.30690000  0.57010000  1.0
