# generated using pymatgen
data_FeH8Au2(C8N5)2
_symmetry_space_group_name_H-M   'P 1'
_cell_length_a   9.98589000
_cell_length_b   9.98589000
_cell_length_c   15.09270000
_cell_angle_alpha   90.00020000
_cell_angle_beta   90.00020000
_cell_angle_gamma   75.05600000
_symmetry_Int_Tables_number   1
_chemical_formula_structural   FeH8Au2(C8N5)2
_chemical_formula_sum   'Fe2 H16 Au4 C32 N20'
_cell_volume   1454.11176414
_cell_formula_units_Z   2
loop_
 _symmetry_equiv_pos_site_id
 _symmetry_equiv_pos_as_xyz
  1  'x, y, z'
loop_
 _atom_site_type_symbol
 _atom_site_label
 _atom_site_symmetry_multiplicity
 _atom_site_fract_x
 _atom_site_fract_y
 _atom_site_fract_z
 _atom_site_occupancy
  Fe  Fe0  1  0.25000000  0.25000000  0.61548000  1.0
  Fe  Fe1  1  0.75000000  0.75000000  0.38452000  1.0
  H  H2  1  0.42034000  0.07966000  0.75389000  1.0
  H  H3  1  0.07965000  0.42034000  0.75389000  1.0
  H  H4  1  0.57966000  0.92034000  0.24611000  1.0
  H  H5  1  0.92035000  0.57965000  0.24611000  1.0
  H  H6  1  0.42824000  0.07176000  0.91819000  1.0
  H  H7  1  0.07176000  0.42824000  0.91819000  1.0
  H  H8  1  0.57176000  0.92824000  0.08181000  1.0
  H  H9  1  0.92824000  0.57176000  0.08181000  1.0
  H  H10  1  0.42773000  0.07227000  0.31323000  1.0
  H  H11  1  0.07227000  0.42773000  0.31323000  1.0
  H  H12  1  0.57227000  0.92773000  0.68677000  1.0
  H  H13  1  0.92773000  0.57227000  0.68677000  1.0
  H  H14  1  0.42010000  0.07990000  0.47730000  1.0
  H  H15  1  0.07990000  0.42010000  0.47729000  1.0
  H  H16  1  0.57990000  0.92010000  0.52271000  1.0
  H  H17  1  0.92010000  0.57990000  0.52271000  1.0
  Au  Au18  1  0.75000000  0.25000000  0.60636000  1.0
  Au  Au19  1  0.75000000  0.25000000  0.39364000  1.0
  Au  Au20  1  0.25000000  0.75000000  0.39363000  1.0
  Au  Au21  1  0.25000000  0.75000000  0.60636000  1.0
  C  C22  1  0.55858000  0.23317000  0.61071000  1.0
  C  C23  1  0.94142000  0.26683000  0.61072000  1.0
  C  C24  1  0.73317000  0.05857000  0.38928000  1.0
  C  C25  1  0.76683000  0.44142000  0.38928000  1.0
  C  C26  1  0.44142000  0.76684000  0.38928000  1.0
  C  C27  1  0.05858000  0.73317000  0.38928000  1.0
  C  C28  1  0.26683000  0.94142000  0.61071000  1.0
  C  C29  1  0.23317000  0.55857000  0.61072000  1.0
  C  C30  1  0.34522000  0.15478000  0.79272000  1.0
  C  C31  1  0.15478000  0.34522000  0.79272000  1.0
  C  C32  1  0.65478000  0.84522000  0.20728000  1.0
  C  C33  1  0.84522000  0.65478000  0.20728000  1.0
  C  C34  1  0.34896000  0.15104000  0.88463000  1.0
  C  C35  1  0.15104000  0.34896000  0.88463000  1.0
  C  C36  1  0.65105000  0.84896000  0.11537000  1.0
  C  C37  1  0.84896000  0.65104000  0.11537000  1.0
  C  C38  1  0.25000000  0.25000000  0.93240000  1.0
  C  C39  1  0.75000000  0.75000000  0.06760000  1.0
  C  C40  1  0.25000000  0.25000000  0.02997000  1.0
  C  C41  1  0.75000000  0.75000000  0.97004000  1.0
  C  C42  1  0.25000000  0.25000000  0.20132000  1.0
  C  C43  1  0.75000000  0.75000000  0.79868000  1.0
  C  C44  1  0.25000000  0.25000000  0.29879000  1.0
  C  C45  1  0.75000000  0.75000000  0.70121000  1.0
  C  C46  1  0.34868000  0.15132000  0.34659000  1.0
  C  C47  1  0.15132000  0.34868000  0.34659000  1.0
  C  C48  1  0.65132000  0.84868000  0.65341000  1.0
  C  C49  1  0.84868000  0.65132000  0.65341000  1.0
  C  C50  1  0.34516000  0.15484000  0.43836000  1.0
  C  C51  1  0.15483000  0.34516000  0.43836000  1.0
  C  C52  1  0.65483000  0.84516000  0.56164000  1.0
  C  C53  1  0.84517000  0.65483000  0.56164000  1.0
  N  N54  1  0.44247000  0.22927000  0.61423000  1.0
  N  N55  1  0.05753000  0.27073000  0.61423000  1.0
  N  N56  1  0.72927000  0.94247000  0.38577000  1.0
  N  N57  1  0.77073000  0.55753000  0.38577000  1.0
  N  N58  1  0.55753000  0.77073000  0.38577000  1.0
  N  N59  1  0.94247000  0.72927000  0.38577000  1.0
  N  N60  1  0.27073000  0.05753000  0.61423000  1.0
  N  N61  1  0.22927000  0.44247000  0.61423000  1.0
  N  N62  1  0.25000000  0.25000000  0.74661000  1.0
  N  N63  1  0.75000000  0.75000000  0.25340000  1.0
  N  N64  1  0.34832000  0.15169000  0.07204000  1.0
  N  N65  1  0.15168000  0.34832000  0.07204000  1.0
  N  N66  1  0.65168000  0.84832000  0.92796000  1.0
  N  N67  1  0.84832000  0.65168000  0.92796000  1.0
  N  N68  1  0.34831000  0.15169000  0.15933000  1.0
  N  N69  1  0.15169000  0.34831000  0.15933000  1.0
  N  N70  1  0.65169000  0.84831000  0.84068000  1.0
  N  N71  1  0.84831000  0.65169000  0.84068000  1.0
  N  N72  1  0.25000000  0.25000000  0.48424000  1.0
  N  N73  1  0.75000000  0.75000000  0.51576000  1.0
