# generated using pymatgen
data_LaH6C7(NO4)2
_symmetry_space_group_name_H-M   'P 1'
_cell_length_a   7.05250000
_cell_length_b   9.91983000
_cell_length_c   15.15170000
_cell_angle_alpha   89.99990000
_cell_angle_beta   89.99990000
_cell_angle_gamma   99.51890000
_symmetry_Int_Tables_number   1
_chemical_formula_structural   LaH6C7(NO4)2
_chemical_formula_sum   'La4 H24 C28 N8 O32'
_cell_volume   1045.41176310
_cell_formula_units_Z   4
loop_
 _symmetry_equiv_pos_site_id
 _symmetry_equiv_pos_as_xyz
  1  'x, y, z'
loop_
 _atom_site_type_symbol
 _atom_site_label
 _atom_site_symmetry_multiplicity
 _atom_site_fract_x
 _atom_site_fract_y
 _atom_site_fract_z
 _atom_site_occupancy
  La  La0  1  0.19836000  0.83869000  0.86062000  1.0
  La  La1  1  0.30163000  0.66131000  0.36062000  1.0
  La  La2  1  0.80162000  0.16131000  0.13938000  1.0
  La  La3  1  0.69837000  0.33869000  0.63938000  1.0
  H  H4  1  0.49305000  0.63336000  0.73116000  1.0
  H  H5  1  0.00695000  0.86664000  0.23116000  1.0
  H  H6  1  0.50695000  0.36664000  0.26884000  1.0
  H  H7  1  0.99306000  0.13337000  0.76884000  1.0
  H  H8  1  0.24989000  0.29293000  0.95311000  1.0
  H  H9  1  0.25012000  0.20707000  0.45310000  1.0
  H  H10  1  0.75013000  0.70707000  0.04689000  1.0
  H  H11  1  0.74989000  0.79294000  0.54690000  1.0
  H  H12  1  0.36181000  0.90861000  0.66490000  1.0
  H  H13  1  0.13820000  0.59139000  0.16489000  1.0
  H  H14  1  0.63819000  0.09138000  0.33511000  1.0
  H  H15  1  0.86181000  0.40861000  0.83510000  1.0
  H  H16  1  0.49207000  0.98348000  0.73803000  1.0
  H  H17  1  0.00793000  0.51652000  0.23802000  1.0
  H  H18  1  0.50793000  0.01651000  0.26198000  1.0
  H  H19  1  0.99207000  0.48348000  0.76197000  1.0
  H  H20  1  0.73544000  0.81512000  0.89413000  1.0
  H  H21  1  0.76455000  0.68488000  0.39412000  1.0
  H  H22  1  0.26455000  0.18488000  0.10588000  1.0
  H  H23  1  0.23544000  0.31512000  0.60587000  1.0
  H  H24  1  0.80534000  0.66819000  0.90867000  1.0
  H  H25  1  0.69465000  0.83180000  0.40867000  1.0
  H  H26  1  0.19465000  0.33180000  0.09134000  1.0
  H  H27  1  0.30535000  0.16820000  0.59133000  1.0
  C  C28  1  0.44370000  0.55789000  0.78205000  1.0
  C  C29  1  0.05631000  0.94211000  0.28205000  1.0
  C  C30  1  0.55631000  0.44211000  0.21795000  1.0
  C  C31  1  0.94371000  0.05789000  0.71795000  1.0
  C  C32  1  0.39801000  0.33514000  0.82857000  1.0
  C  C33  1  0.10199000  0.16487000  0.32857000  1.0
  C  C34  1  0.60200000  0.66486000  0.17143000  1.0
  C  C35  1  0.89802000  0.83514000  0.67143000  1.0
  C  C36  1  0.30978000  0.37054000  0.90548000  1.0
  C  C37  1  0.19023000  0.12946000  0.40548000  1.0
  C  C38  1  0.69023000  0.62946000  0.09452000  1.0
  C  C39  1  0.80978000  0.87054000  0.59452000  1.0
  C  C40  1  0.30022000  0.50849000  0.91709000  1.0
  C  C41  1  0.19979000  0.99151000  0.41709000  1.0
  C  C42  1  0.69978000  0.49150000  0.08291000  1.0
  C  C43  1  0.80022000  0.00850000  0.58291000  1.0
  C  C44  1  0.22246000  0.56689000  0.99960000  1.0
  C  C45  1  0.27754000  0.93311000  0.49960000  1.0
  C  C46  1  0.77753000  0.43311000  0.00040000  1.0
  C  C47  1  0.72246000  0.06689000  0.50040000  1.0
  C  C48  1  0.41501000  0.18787000  0.80902000  1.0
  C  C49  1  0.08499000  0.31213000  0.30901000  1.0
  C  C50  1  0.58499000  0.81212000  0.19099000  1.0
  C  C51  1  0.91502000  0.68788000  0.69099000  1.0
  C  C52  1  0.58663000  0.97972000  0.97409000  1.0
  C  C53  1  0.91334000  0.52028000  0.47408000  1.0
  C  C54  1  0.41334000  0.02027000  0.02593000  1.0
  C  C55  1  0.08663000  0.47972000  0.52592000  1.0
  N  N56  1  0.35782000  0.60059000  0.85301000  1.0
  N  N57  1  0.14218000  0.89941000  0.35301000  1.0
  N  N58  1  0.64217000  0.39940000  0.14699000  1.0
  N  N59  1  0.85783000  0.10060000  0.64699000  1.0
  N  N60  1  0.47329000  0.42949000  0.76883000  1.0
  N  N61  1  0.02671000  0.07051000  0.26882000  1.0
  N  N62  1  0.52672000  0.57051000  0.23117000  1.0
  N  N63  1  0.97329000  0.92949000  0.73118000  1.0
  O  O64  1  0.16736000  0.68107000  0.99059000  1.0
  O  O65  1  0.33262000  0.81892000  0.49059000  1.0
  O  O66  1  0.83261000  0.31892000  0.00940000  1.0
  O  O67  1  0.66737000  0.18107000  0.50941000  1.0
  O  O68  1  0.22152000  0.50130000  0.07139000  1.0
  O  O69  1  0.27849000  0.99871000  0.57139000  1.0
  O  O70  1  0.77848000  0.49870000  0.92861000  1.0
  O  O71  1  0.72152000  0.00130000  0.42861000  1.0
  O  O72  1  0.55351000  0.16627000  0.75983000  1.0
  O  O73  1  0.94649000  0.33373000  0.25983000  1.0
  O  O74  1  0.44650000  0.83373000  0.24017000  1.0
  O  O75  1  0.05351000  0.66627000  0.74017000  1.0
  O  O76  1  0.28893000  0.09795000  0.84302000  1.0
  O  O77  1  0.21107000  0.40205000  0.34302000  1.0
  O  O78  1  0.71108000  0.90205000  0.15698000  1.0
  O  O79  1  0.78893000  0.59795000  0.65698000  1.0
  O  O80  1  0.54355000  0.89285000  0.91181000  1.0
  O  O81  1  0.95642000  0.60714000  0.41180000  1.0
  O  O82  1  0.45642000  0.10713000  0.08821000  1.0
  O  O83  1  0.04356000  0.39286000  0.58819000  1.0
  O  O84  1  0.75360000  0.03236000  0.99617000  1.0
  O  O85  1  0.74637000  0.46764000  0.49617000  1.0
  O  O86  1  0.24636000  0.96763000  0.00383000  1.0
  O  O87  1  0.25361000  0.53237000  0.50382000  1.0
  O  O88  1  0.41941000  0.89170000  0.72306000  1.0
  O  O89  1  0.08059000  0.60830000  0.22306000  1.0
  O  O90  1  0.58059000  0.10830000  0.27694000  1.0
  O  O91  1  0.91942000  0.39170000  0.77694000  1.0
  O  O92  1  0.84744000  0.76549000  0.89136000  1.0
  O  O93  1  0.65255000  0.73452000  0.39136000  1.0
  O  O94  1  0.15254000  0.23451000  0.10864000  1.0
  O  O95  1  0.34745000  0.26549000  0.60864000  1.0
