# generated using pymatgen
data_Dy2H15(C10O9)2
_symmetry_space_group_name_H-M   'P 1'
_cell_length_a   7.38442000
_cell_length_b   11.46370000
_cell_length_c   15.88420000
_cell_angle_alpha   78.72060000
_cell_angle_beta   81.70570000
_cell_angle_gamma   81.12780000
_symmetry_Int_Tables_number   1
_chemical_formula_structural   Dy2H15(C10O9)2
_chemical_formula_sum   'Dy4 H30 C40 O36'
_cell_volume   1293.82837862
_cell_formula_units_Z   2
loop_
 _symmetry_equiv_pos_site_id
 _symmetry_equiv_pos_as_xyz
  1  'x, y, z'
loop_
 _atom_site_type_symbol
 _atom_site_label
 _atom_site_symmetry_multiplicity
 _atom_site_fract_x
 _atom_site_fract_y
 _atom_site_fract_z
 _atom_site_occupancy
  Dy  Dy0  1  0.94209000  0.06185000  0.77507000  1.0
  Dy  Dy1  1  0.05791000  0.93815000  0.22493000  1.0
  Dy  Dy2  1  0.45146000  0.26500000  0.76164000  1.0
  Dy  Dy3  1  0.54855000  0.73500000  0.23836000  1.0
  H  H4  1  0.98645000  0.21210000  0.94917000  1.0
  H  H5  1  0.01355000  0.78791000  0.05083000  1.0
  H  H6  1  0.59109000  0.73922000  0.98742000  1.0
  H  H7  1  0.40891000  0.26078000  0.01258000  1.0
  H  H8  1  0.85394000  0.24778000  0.57350000  1.0
  H  H9  1  0.14606000  0.75222000  0.42650000  1.0
  H  H10  1  0.81009000  0.87348000  0.62135000  1.0
  H  H11  1  0.18992000  0.12651000  0.37865000  1.0
  H  H12  1  0.27913000  0.98390000  0.65344000  1.0
  H  H13  1  0.72088000  0.01609000  0.34656000  1.0
  H  H14  1  0.15789000  0.87949000  0.66721000  1.0
  H  H15  1  0.84210000  0.12051000  0.33279000  1.0
  H  H16  1  0.77430000  0.82029000  0.85172000  1.0
  H  H17  1  0.22570000  0.17971000  0.14828000  1.0
  H  H18  1  0.95243000  0.82820000  0.89097000  1.0
  H  H19  1  0.04757000  0.17180000  0.10903000  1.0
  H  H20  1  0.63127000  0.45652000  0.66061000  1.0
  H  H21  1  0.36874000  0.54347000  0.33939000  1.0
  H  H22  1  0.60793000  0.38113000  0.59201000  1.0
  H  H23  1  0.39208000  0.61887000  0.40799000  1.0
  H  H24  1  0.86703000  0.38807000  0.11615000  1.0
  H  H25  1  0.13297000  0.61194000  0.88385000  1.0
  H  H26  1  0.66200000  0.55261000  0.82666000  1.0
  H  H27  1  0.33799000  0.44739000  0.17334000  1.0
  H  H28  1  0.24153000  0.50242000  0.59367000  1.0
  H  H29  1  0.75846000  0.49758000  0.40634000  1.0
  H  H30  1  0.40269000  0.19665000  0.54749000  1.0
  H  H31  1  0.59730000  0.80333000  0.45251000  1.0
  H  H32  1  0.18343000  0.94640000  0.03022000  1.0
  H  H33  1  0.81657000  0.05361000  0.96977000  1.0
  C  C34  1  0.80220000  0.40027000  0.90563000  1.0
  C  C35  1  0.19780000  0.59974000  0.09437000  1.0
  C  C36  1  0.86884000  0.35531000  0.98678000  1.0
  C  C37  1  0.13116000  0.64469000  0.01322000  1.0
  C  C38  1  0.82627000  0.42380000  0.05191000  1.0
  C  C39  1  0.17373000  0.57621000  0.94810000  1.0
  C  C40  1  0.73496000  0.54037000  0.03549000  1.0
  C  C41  1  0.26503000  0.45964000  0.96451000  1.0
  C  C42  1  0.68547000  0.59098000  0.95156000  1.0
  C  C43  1  0.31453000  0.40903000  0.04844000  1.0
  C  C44  1  0.71242000  0.51808000  0.88907000  1.0
  C  C45  1  0.28758000  0.48192000  0.11093000  1.0
  C  C46  1  0.81671000  0.32108000  0.84089000  1.0
  C  C47  1  0.18329000  0.67892000  0.15911000  1.0
  C  C48  1  0.68897000  0.60890000  0.10695000  1.0
  C  C49  1  0.31104000  0.39111000  0.89305000  1.0
  C  C50  1  0.90461000  0.40052000  0.51186000  1.0
  C  C51  1  0.09539000  0.59948000  0.48814000  1.0
  C  C52  1  0.04072000  0.40165000  0.56583000  1.0
  C  C53  1  0.95928000  0.59835000  0.43417000  1.0
  C  C54  1  0.13502000  0.50187000  0.55295000  1.0
  C  C55  1  0.86498000  0.49813000  0.44705000  1.0
  C  C56  1  0.08757000  0.29975000  0.63649000  1.0
  C  C57  1  0.91243000  0.70026000  0.36351000  1.0
  C  C58  1  0.63948000  0.91620000  0.53976000  1.0
  C  C59  1  0.36053000  0.08378000  0.46024000  1.0
  C  C60  1  0.44266000  0.11028000  0.52687000  1.0
  C  C61  1  0.55733000  0.88970000  0.47313000  1.0
  C  C62  1  0.58013000  0.02853000  0.56679000  1.0
  C  C63  1  0.41987000  0.97146000  0.43321000  1.0
  C  C64  1  0.66487000  0.06317000  0.63593000  1.0
  C  C65  1  0.33514000  0.93682000  0.36407000  1.0
  C  C66  1  0.32334000  0.96947000  0.01834000  1.0
  C  C67  1  0.67667000  0.03053000  0.98166000  1.0
  C  C68  1  0.57084000  0.04801000  0.91302000  1.0
  C  C69  1  0.42916000  0.95200000  0.08698000  1.0
  C  C70  1  0.38910000  0.01594000  0.93315000  1.0
  C  C71  1  0.61091000  0.98406000  0.06684000  1.0
  C  C72  1  0.25817000  0.03315000  0.86865000  1.0
  C  C73  1  0.74183000  0.96685000  0.13135000  1.0
  O  O74  1  0.93138000  0.22374000  0.84982000  1.0
  O  O75  1  0.06862000  0.77626000  0.15018000  1.0
  O  O76  1  0.71294000  0.34768000  0.78060000  1.0
  O  O77  1  0.28705000  0.65232000  0.21940000  1.0
  O  O78  1  0.71644000  0.56275000  0.18427000  1.0
  O  O79  1  0.28357000  0.43725000  0.81573000  1.0
  O  O80  1  0.61282000  0.71978000  0.08969000  1.0
  O  O81  1  0.38718000  0.28022000  0.91031000  1.0
  O  O82  1  0.97146000  0.24605000  0.00376000  1.0
  O  O83  1  0.02855000  0.75395000  0.99624000  1.0
  O  O84  1  0.60879000  0.70770000  0.93117000  1.0
  O  O85  1  0.39121000  0.29230000  0.06883000  1.0
  O  O86  1  0.99536000  0.20881000  0.65066000  1.0
  O  O87  1  0.00465000  0.79118000  0.34933000  1.0
  O  O88  1  0.21527000  0.30669000  0.67894000  1.0
  O  O89  1  0.78474000  0.69331000  0.32106000  1.0
  O  O90  1  0.80312000  0.30705000  0.52420000  1.0
  O  O91  1  0.19688000  0.69295000  0.47580000  1.0
  O  O92  1  0.60721000  0.16425000  0.65769000  1.0
  O  O93  1  0.39279000  0.83575000  0.34231000  1.0
  O  O94  1  0.79721000  0.99116000  0.67006000  1.0
  O  O95  1  0.20280000  0.00884000  0.32994000  1.0
  O  O96  1  0.77113000  0.83478000  0.57655000  1.0
  O  O97  1  0.22887000  0.16521000  0.42345000  1.0
  O  O98  1  0.28193000  0.10232000  0.79460000  1.0
  O  O99  1  0.71807000  0.89769000  0.20540000  1.0
  O  O100  1  0.11205000  0.98199000  0.88766000  1.0
  O  O101  1  0.88795000  0.01801000  0.11234000  1.0
  O  O102  1  0.63956000  0.09565000  0.83233000  1.0
  O  O103  1  0.36044000  0.90436000  0.16767000  1.0
  O  O104  1  0.18610000  0.94310000  0.69379000  1.0
  O  O105  1  0.81390000  0.05689000  0.30621000  1.0
  O  O106  1  0.88885000  0.85751000  0.83852000  1.0
  O  O107  1  0.11115000  0.14249000  0.16148000  1.0
  O  O108  1  0.53919000  0.42064000  0.63929000  1.0
  O  O109  1  0.46082000  0.57936000  0.36071000  1.0
