# generated using pymatgen
data_CdH4C4O5
_symmetry_space_group_name_H-M   'P 1'
_cell_length_a   6.84596000
_cell_length_b   8.52904000
_cell_length_c   10.03710000
_cell_angle_alpha   90.00030000
_cell_angle_beta   89.99990000
_cell_angle_gamma   89.99990000
_symmetry_Int_Tables_number   1
_chemical_formula_structural   CdH4C4O5
_chemical_formula_sum   'Cd4 H16 C16 O20'
_cell_volume   586.06091599
_cell_formula_units_Z   4
loop_
 _symmetry_equiv_pos_site_id
 _symmetry_equiv_pos_as_xyz
  1  'x, y, z'
loop_
 _atom_site_type_symbol
 _atom_site_label
 _atom_site_symmetry_multiplicity
 _atom_site_fract_x
 _atom_site_fract_y
 _atom_site_fract_z
 _atom_site_occupancy
  Cd  Cd0  1  0.34743000  0.35671000  0.95412000  1.0
  Cd  Cd1  1  0.15257000  0.64329000  0.45412000  1.0
  Cd  Cd2  1  0.84743000  0.14329000  0.04588000  1.0
  Cd  Cd3  1  0.65257000  0.85671000  0.54588000  1.0
  H  H4  1  0.01427000  0.90552000  0.28949000  1.0
  H  H5  1  0.48573000  0.09448000  0.78948000  1.0
  H  H6  1  0.51427000  0.59448000  0.71051000  1.0
  H  H7  1  0.98572000  0.40552000  0.21051000  1.0
  H  H8  1  0.10367000  0.84307000  0.09252000  1.0
  H  H9  1  0.39632000  0.15694000  0.59252000  1.0
  H  H10  1  0.60368000  0.65693000  0.90748000  1.0
  H  H11  1  0.89632000  0.34307000  0.40748000  1.0
  H  H12  1  0.49769000  0.89897000  0.22822000  1.0
  H  H13  1  0.00231000  0.10103000  0.72822000  1.0
  H  H14  1  0.99769000  0.60103000  0.77178000  1.0
  H  H15  1  0.50230000  0.39897000  0.27178000  1.0
  H  H16  1  0.48099000  0.85290000  0.05853000  1.0
  H  H17  1  0.01901000  0.14710000  0.55853000  1.0
  H  H18  1  0.98099000  0.64710000  0.94147000  1.0
  H  H19  1  0.51901000  0.35289000  0.44146000  1.0
  C  C20  1  0.24360000  0.63375000  0.14662000  1.0
  C  C21  1  0.25640000  0.36625000  0.64662000  1.0
  C  C22  1  0.74361000  0.86625000  0.85339000  1.0
  C  C23  1  0.75641000  0.13375000  0.35338000  1.0
  C  C24  1  0.21410000  0.81086000  0.16767000  1.0
  C  C25  1  0.28590000  0.18914000  0.66767000  1.0
  C  C26  1  0.71410000  0.68914000  0.83233000  1.0
  C  C27  1  0.78590000  0.31085000  0.33233000  1.0
  C  C28  1  0.39945000  0.90464000  0.14178000  1.0
  C  C29  1  0.10055000  0.09537000  0.64178000  1.0
  C  C30  1  0.89946000  0.59536000  0.85822000  1.0
  C  C31  1  0.60054000  0.40463000  0.35822000  1.0
  C  C32  1  0.36025000  0.07372000  0.10621000  1.0
  C  C33  1  0.13975000  0.92628000  0.60621000  1.0
  C  C34  1  0.86026000  0.42628000  0.89379000  1.0
  C  C35  1  0.63975000  0.57372000  0.39379000  1.0
  O  O36  1  0.32948000  0.59816000  0.03801000  1.0
  O  O37  1  0.17052000  0.40185000  0.53801000  1.0
  O  O38  1  0.82948000  0.90184000  0.96200000  1.0
  O  O39  1  0.67053000  0.09815000  0.46199000  1.0
  O  O40  1  0.17621000  0.53616000  0.23011000  1.0
  O  O41  1  0.32379000  0.46384000  0.73012000  1.0
  O  O42  1  0.67623000  0.96384000  0.76989000  1.0
  O  O43  1  0.82378000  0.03616000  0.26988000  1.0
  O  O44  1  0.13865000  0.84595000  0.29704000  1.0
  O  O45  1  0.36135000  0.15405000  0.79704000  1.0
  O  O46  1  0.63865000  0.65405000  0.70297000  1.0
  O  O47  1  0.86134000  0.34595000  0.20296000  1.0
  O  O48  1  0.18916000  0.12599000  0.09383000  1.0
  O  O49  1  0.31085000  0.87401000  0.59384000  1.0
  O  O50  1  0.68916000  0.37401000  0.90617000  1.0
  O  O51  1  0.81083000  0.62598000  0.40617000  1.0
  O  O52  1  0.50737000  0.16455000  0.08298000  1.0
  O  O53  1  0.99264000  0.83545000  0.58298000  1.0
  O  O54  1  0.00737000  0.33544000  0.91702000  1.0
  O  O55  1  0.49262000  0.66455000  0.41702000  1.0
