# generated using pymatgen
data_Cd3H98C94(N5O12)2
_symmetry_space_group_name_H-M   'P 1'
_cell_length_a   9.98630000
_cell_length_b   15.63680000
_cell_length_c   16.23450000
_cell_angle_alpha   70.07900000
_cell_angle_beta   74.67600000
_cell_angle_gamma   86.98660000
_symmetry_Int_Tables_number   1
_chemical_formula_structural   Cd3H98C94(N5O12)2
_chemical_formula_sum   'Cd3 H98 C94 N10 O24'
_cell_volume   2296.68656488
_cell_formula_units_Z   1
loop_
 _symmetry_equiv_pos_site_id
 _symmetry_equiv_pos_as_xyz
  1  'x, y, z'
loop_
 _atom_site_type_symbol
 _atom_site_label
 _atom_site_symmetry_multiplicity
 _atom_site_fract_x
 _atom_site_fract_y
 _atom_site_fract_z
 _atom_site_occupancy
  Cd  Cd0  1  0.50000000  0.50000000  0.00000000  1.0
  Cd  Cd1  1  0.05766000  0.22532000  0.55769000  1.0
  Cd  Cd2  1  0.94234000  0.77468000  0.44230000  1.0
  H  H3  1  0.93541000  0.84655000  0.65163000  1.0
  H  H4  1  0.06457000  0.15345000  0.34838000  1.0
  H  H5  1  0.95212000  0.90290000  0.80808000  1.0
  H  H6  1  0.04787000  0.09711000  0.19192000  1.0
  H  H7  1  0.88611000  0.11831000  0.93824000  1.0
  H  H8  1  0.11390000  0.88168000  0.06175000  1.0
  H  H9  1  0.09625000  0.42964000  0.88580000  1.0
  H  H10  1  0.90375000  0.57036000  0.11420000  1.0
  H  H11  1  0.72653000  0.42185000  0.44863000  1.0
  H  H12  1  0.27348000  0.57814000  0.55138000  1.0
  H  H13  1  0.19076000  0.58096000  0.70680000  1.0
  H  H14  1  0.80925000  0.41904000  0.29321000  1.0
  H  H15  1  0.18448000  0.87402000  0.59925000  1.0
  H  H16  1  0.81552000  0.12598000  0.40075000  1.0
  H  H17  1  0.35150000  0.74306000  0.82819000  1.0
  H  H18  1  0.64850000  0.25695000  0.17180000  1.0
  H  H19  1  0.19412000  0.94408000  0.73098000  1.0
  H  H20  1  0.80587000  0.05592000  0.26902000  1.0
  H  H21  1  0.34173000  0.90596000  0.77419000  1.0
  H  H22  1  0.65826000  0.09405000  0.22581000  1.0
  H  H23  1  0.41929000  0.06010000  0.68993000  1.0
  H  H24  1  0.58072000  0.93989000  0.31008000  1.0
  H  H25  1  0.60936000  0.07547000  0.54944000  1.0
  H  H26  1  0.39064000  0.92452000  0.45057000  1.0
  H  H27  1  0.51961000  0.17908000  0.53687000  1.0
  H  H28  1  0.48041000  0.82092000  0.46313000  1.0
  H  H29  1  0.48702000  0.10253000  0.48349000  1.0
  H  H30  1  0.51298000  0.89747000  0.51652000  1.0
  H  H31  1  0.82523000  0.49967000  0.96819000  1.0
  H  H32  1  0.17478000  0.50034000  0.03180000  1.0
  H  H33  1  0.03518000  0.60413000  0.89798000  1.0
  H  H34  1  0.96482000  0.39587000  0.10201000  1.0
  H  H35  1  0.01310000  0.76320000  0.79798000  1.0
  H  H36  1  0.98690000  0.23680000  0.20202000  1.0
  H  H37  1  0.57753000  0.69724000  0.84938000  1.0
  H  H38  1  0.42246000  0.30276000  0.15062000  1.0
  H  H39  1  0.65790000  0.92763000  0.66991000  1.0
  H  H40  1  0.34209000  0.07236000  0.33009000  1.0
  H  H41  1  0.56224000  0.83019000  0.75446000  1.0
  H  H42  1  0.43776000  0.16981000  0.24555000  1.0
  H  H43  1  0.69038000  0.81879000  0.66039000  1.0
  H  H44  1  0.30961000  0.18121000  0.33962000  1.0
  H  H45  1  0.64978000  0.79897000  0.94884000  1.0
  H  H46  1  0.35021000  0.20104000  0.05116000  1.0
  H  H47  1  0.53247000  0.86129000  0.88741000  1.0
  H  H48  1  0.46751000  0.13872000  0.11258000  1.0
  H  H49  1  0.61112000  0.91144000  0.94748000  1.0
  H  H50  1  0.38886000  0.08857000  0.05252000  1.0
  H  H51  1  0.51543000  0.01015000  0.82388000  1.0
  H  H52  1  0.48456000  0.98986000  0.17612000  1.0
  H  H53  1  0.50727000  0.17313000  0.73089000  1.0
  H  H54  1  0.49274000  0.82688000  0.26910000  1.0
  H  H55  1  0.73063000  0.25668000  0.62567000  1.0
  H  H56  1  0.26937000  0.74333000  0.37433000  1.0
  H  H57  1  0.95719000  0.02828000  0.69756000  1.0
  H  H58  1  0.04281000  0.97172000  0.30244000  1.0
  H  H59  1  0.42663000  0.39658000  0.87369000  1.0
  H  H60  1  0.57336000  0.60341000  0.12632000  1.0
  H  H61  1  0.52832000  0.28311000  0.79736000  1.0
  H  H62  1  0.47167000  0.71687000  0.20265000  1.0
  H  H63  1  0.75316000  0.21305000  0.82198000  1.0
  H  H64  1  0.24684000  0.78695000  0.17801000  1.0
  H  H65  1  0.74478000  0.36585000  0.99902000  1.0
  H  H66  1  0.25521000  0.63414000  0.00099000  1.0
  H  H67  1  0.81918000  0.16380000  0.06674000  1.0
  H  H68  1  0.18083000  0.83619000  0.93326000  1.0
  H  H69  1  0.89001000  0.27082000  0.05418000  1.0
  H  H70  1  0.11000000  0.72918000  0.94582000  1.0
  H  H71  1  0.00292000  0.18304000  0.03806000  1.0
  H  H72  1  0.99708000  0.81696000  0.96193000  1.0
  H  H73  1  0.25230000  0.33662000  0.82467000  1.0
  H  H74  1  0.74769000  0.66339000  0.17532000  1.0
  H  H75  1  0.18845000  0.22515000  0.84319000  1.0
  H  H76  1  0.81156000  0.77486000  0.15681000  1.0
  H  H77  1  0.18598000  0.26017000  0.93743000  1.0
  H  H78  1  0.81403000  0.73983000  0.06256000  1.0
  H  H79  1  0.93837000  0.48980000  0.77750000  1.0
  H  H80  1  0.06163000  0.51019000  0.22250000  1.0
  H  H81  1  0.89178000  0.53817000  0.62327000  1.0
  H  H82  1  0.10822000  0.46183000  0.37673000  1.0
  H  H83  1  0.92877000  0.42679000  0.53928000  1.0
  H  H84  1  0.07123000  0.57321000  0.46072000  1.0
  H  H85  1  0.08283000  0.23889000  0.73693000  1.0
  H  H86  1  0.91717000  0.76110000  0.26306000  1.0
  H  H87  1  0.21589000  0.31771000  0.34167000  1.0
  H  H88  1  0.78413000  0.68229000  0.65833000  1.0
  H  H89  1  0.42177000  0.42135000  0.24026000  1.0
  H  H90  1  0.57824000  0.57864000  0.75974000  1.0
  H  H91  1  0.56966000  0.48371000  0.31193000  1.0
  H  H92  1  0.43035000  0.51628000  0.68807000  1.0
  H  H93  1  0.29215000  0.33925000  0.57156000  1.0
  H  H94  1  0.70785000  0.66075000  0.42844000  1.0
  H  H95  1  0.55572000  0.31670000  0.57895000  1.0
  H  H96  1  0.44428000  0.68330000  0.42104000  1.0
  H  H97  1  0.43081000  0.37666000  0.63652000  1.0
  H  H98  1  0.56918000  0.62334000  0.36348000  1.0
  H  H99  1  0.61154000  0.40348000  0.61251000  1.0
  H  H100  1  0.38845000  0.59652000  0.38749000  1.0
  C  C101  1  0.30713000  0.56871000  0.84427000  1.0
  C  C102  1  0.69286000  0.43130000  0.15574000  1.0
  C  C103  1  0.10769000  0.72243000  0.57776000  1.0
  C  C104  1  0.89233000  0.27756000  0.42223000  1.0
  C  C105  1  0.27505000  0.65368000  0.77419000  1.0
  C  C106  1  0.72495000  0.34633000  0.22581000  1.0
  C  C107  1  0.21472000  0.64771000  0.70782000  1.0
  C  C108  1  0.78529000  0.35229000  0.29218000  1.0
  C  C109  1  0.18243000  0.72700000  0.64482000  1.0
  C  C110  1  0.81757000  0.27300000  0.35518000  1.0
  C  C111  1  0.21142000  0.81231000  0.64767000  1.0
  C  C112  1  0.78858000  0.18769000  0.35233000  1.0
  C  C113  1  0.27254000  0.81917000  0.71341000  1.0
  C  C114  1  0.72745000  0.18084000  0.28659000  1.0
  C  C115  1  0.30465000  0.73966000  0.77582000  1.0
  C  C116  1  0.69534000  0.26035000  0.22417000  1.0
  C  C117  1  0.29539000  0.91161000  0.71759000  1.0
  C  C118  1  0.70460000  0.08839000  0.28241000  1.0
  C  C119  1  0.39422000  0.05872000  0.62821000  1.0
  C  C120  1  0.60579000  0.94128000  0.37180000  1.0
  C  C121  1  0.26047000  0.11106000  0.62227000  1.0
  C  C122  1  0.73955000  0.88895000  0.37774000  1.0
  C  C123  1  0.50974000  0.10705000  0.54437000  1.0
  C  C124  1  0.49027000  0.89295000  0.45563000  1.0
  C  C125  1  0.81948000  0.56934000  0.92457000  1.0
  C  C126  1  0.18053000  0.43066000  0.07542000  1.0
  C  C127  1  0.93594000  0.62798000  0.88543000  1.0
  C  C128  1  0.06406000  0.37202000  0.11457000  1.0
  C  C129  1  0.92277000  0.71650000  0.83048000  1.0
  C  C130  1  0.07722000  0.28351000  0.16953000  1.0
  C  C131  1  0.79337000  0.74540000  0.81543000  1.0
  C  C132  1  0.20662000  0.25460000  0.18457000  1.0
  C  C133  1  0.68204000  0.68141000  0.85729000  1.0
  C  C134  1  0.31795000  0.31859000  0.14272000  1.0
  C  C135  1  0.77780000  0.84417000  0.75896000  1.0
  C  C136  1  0.22219000  0.15583000  0.24105000  1.0
  C  C137  1  0.66494000  0.85571000  0.70878000  1.0
  C  C138  1  0.33506000  0.14428000  0.29123000  1.0
  C  C139  1  0.75191000  0.90399000  0.82368000  1.0
  C  C140  1  0.24808000  0.09602000  0.17633000  1.0
  C  C141  1  0.62847000  0.86675000  0.90645000  1.0
  C  C142  1  0.37152000  0.13326000  0.09355000  1.0
  C  C143  1  0.73706000  0.00383000  0.76965000  1.0
  C  C144  1  0.26294000  0.99617000  0.23035000  1.0
  C  C145  1  0.61087000  0.04733000  0.77803000  1.0
  C  C146  1  0.38913000  0.95268000  0.22197000  1.0
  C  C147  1  0.60567000  0.13900000  0.72669000  1.0
  C  C148  1  0.39434000  0.86100000  0.27330000  1.0
  C  C149  1  0.72772000  0.18543000  0.66805000  1.0
  C  C150  1  0.27229000  0.81458000  0.33194000  1.0
  C  C151  1  0.85480000  0.05670000  0.70886000  1.0
  C  C152  1  0.14520000  0.94330000  0.29114000  1.0
  C  C153  1  0.52308000  0.36280000  0.88291000  1.0
  C  C154  1  0.47691000  0.63719000  0.11709000  1.0
  C  C155  1  0.58043000  0.30014000  0.84114000  1.0
  C  C156  1  0.41956000  0.69985000  0.15887000  1.0
  C  C157  1  0.70478000  0.26092000  0.85527000  1.0
  C  C158  1  0.29522000  0.73907000  0.14474000  1.0
  C  C159  1  0.76913000  0.28402000  0.91208000  1.0
  C  C160  1  0.23087000  0.71597000  0.08792000  1.0
  C  C161  1  0.70272000  0.34607000  0.95256000  1.0
  C  C162  1  0.29727000  0.65392000  0.04744000  1.0
  C  C163  1  0.90836000  0.24645000  0.92719000  1.0
  C  C164  1  0.09164000  0.75355000  0.07281000  1.0
  C  C165  1  0.90540000  0.21450000  0.02754000  1.0
  C  C166  1  0.09461000  0.78550000  0.97246000  1.0
  C  C167  1  0.02932000  0.32218000  0.86760000  1.0
  C  C168  1  0.97068000  0.67782000  0.13240000  1.0
  C  C169  1  0.17305000  0.28269000  0.86825000  1.0
  C  C170  1  0.82695000  0.71732000  0.13174000  1.0
  C  C171  1  0.01109000  0.35939000  0.77124000  1.0
  C  C172  1  0.98891000  0.64061000  0.22876000  1.0
  C  C173  1  0.95891000  0.44520000  0.73691000  1.0
  C  C174  1  0.04109000  0.55479000  0.26309000  1.0
  C  C175  1  0.93150000  0.47168000  0.65200000  1.0
  C  C176  1  0.06850000  0.52832000  0.34800000  1.0
  C  C177  1  0.95392000  0.41132000  0.60408000  1.0
  C  C178  1  0.04609000  0.58868000  0.39591000  1.0
  C  C179  1  0.03742000  0.30503000  0.71636000  1.0
  C  C180  1  0.96258000  0.69498000  0.28364000  1.0
  C  C181  1  0.28306000  0.34716000  0.36909000  1.0
  C  C182  1  0.71695000  0.65284000  0.63091000  1.0
  C  C183  1  0.39661000  0.40502000  0.31353000  1.0
  C  C184  1  0.60341000  0.59497000  0.68647000  1.0
  C  C185  1  0.47804000  0.43997000  0.35348000  1.0
  C  C186  1  0.52197000  0.56003000  0.64651000  1.0
  C  C187  1  0.44331000  0.41751000  0.44785000  1.0
  C  C188  1  0.55670000  0.58249000  0.55214000  1.0
  C  C189  1  0.32578000  0.35994000  0.49795000  1.0
  C  C190  1  0.67423000  0.64006000  0.50205000  1.0
  C  C191  1  0.53079000  0.45376000  0.49429000  1.0
  C  C192  1  0.46922000  0.54624000  0.50571000  1.0
  C  C193  1  0.53174000  0.38323000  0.58676000  1.0
  C  C194  1  0.46826000  0.61676000  0.41325000  1.0
  N  N195  1  0.69502000  0.59569000  0.91042000  1.0
  N  N196  1  0.30498000  0.40431000  0.08958000  1.0
  N  N197  1  0.85009000  0.14447000  0.65961000  1.0
  N  N198  1  0.14991000  0.85553000  0.34039000  1.0
  N  N199  1  0.58419000  0.38497000  0.93785000  1.0
  N  N200  1  0.41580000  0.61502000  0.06216000  1.0
  N  N201  1  0.00775000  0.32975000  0.63563000  1.0
  N  N202  1  0.99225000  0.67025000  0.36437000  1.0
  N  N203  1  0.24829000  0.32508000  0.45986000  1.0
  N  N204  1  0.75171000  0.67491000  0.54014000  1.0
  O  O205  1  0.38779000  0.58138000  0.88902000  1.0
  O  O206  1  0.61222000  0.41863000  0.11098000  1.0
  O  O207  1  0.25559000  0.49257000  0.85395000  1.0
  O  O208  1  0.74441000  0.50744000  0.14605000  1.0
  O  O209  1  0.14149000  0.66620000  0.53603000  1.0
  O  O210  1  0.85854000  0.33380000  0.46397000  1.0
  O  O211  1  0.00975000  0.77903000  0.56679000  1.0
  O  O212  1  0.99027000  0.22097000  0.43321000  1.0
  O  O213  1  0.38305000  0.96626000  0.63330000  1.0
  O  O214  1  0.61695000  0.03374000  0.36670000  1.0
  O  O215  1  0.18252000  0.09305000  0.57874000  1.0
  O  O216  1  0.81749000  0.90697000  0.42127000  1.0
  O  O217  1  0.24100000  0.17405000  0.65619000  1.0
  O  O218  1  0.75901000  0.82595000  0.34383000  1.0
  O  O219  1  0.90840000  0.88014000  0.69504000  1.0
  O  O220  1  0.09159000  0.11987000  0.30496000  1.0
  O  O221  1  0.87112000  0.89816000  0.85916000  1.0
  O  O222  1  0.12887000  0.10184000  0.14085000  1.0
  O  O223  1  0.94086000  0.17168000  0.89357000  1.0
  O  O224  1  0.05914000  0.82832000  0.10643000  1.0
  O  O225  1  0.00891000  0.39152000  0.90784000  1.0
  O  O226  1  0.99108000  0.60849000  0.09217000  1.0
  O  O227  1  0.66940000  0.47653000  0.43787000  1.0
  O  O228  1  0.33061000  0.52346000  0.56213000  1.0
