# generated using pymatgen
data_BaH14C12(NO4)2
_symmetry_space_group_name_H-M   'P 1'
_cell_length_a   7.04946000
_cell_length_b   7.49936000
_cell_length_c   15.42930000
_cell_angle_alpha   93.80740000
_cell_angle_beta   102.32900000
_cell_angle_gamma   98.76210000
_symmetry_Int_Tables_number   1
_chemical_formula_structural   BaH14C12(NO4)2
_chemical_formula_sum   'Ba2 H28 C24 N4 O16'
_cell_volume   783.43524803
_cell_formula_units_Z   2
loop_
 _symmetry_equiv_pos_site_id
 _symmetry_equiv_pos_as_xyz
  1  'x, y, z'
loop_
 _atom_site_type_symbol
 _atom_site_label
 _atom_site_symmetry_multiplicity
 _atom_site_fract_x
 _atom_site_fract_y
 _atom_site_fract_z
 _atom_site_occupancy
  Ba  Ba0  1  0.78354000  0.52767000  0.55949000  1.0
  Ba  Ba1  1  0.21647000  0.47233000  0.44051000  1.0
  H  H2  1  0.49532000  0.13233000  0.44411000  1.0
  H  H3  1  0.50468000  0.86767000  0.55589000  1.0
  H  H4  1  0.47801000  0.14925000  0.54461000  1.0
  H  H5  1  0.52199000  0.85074000  0.45540000  1.0
  H  H6  1  0.95622000  0.84449000  0.43527000  1.0
  H  H7  1  0.04377000  0.15549000  0.56473000  1.0
  H  H8  1  0.10618000  0.86802000  0.53000000  1.0
  H  H9  1  0.89381000  0.13198000  0.47000000  1.0
  H  H10  1  0.72117000  0.20798000  0.68945000  1.0
  H  H11  1  0.27883000  0.79203000  0.31056000  1.0
  H  H12  1  0.83349000  0.35654000  0.76553000  1.0
  H  H13  1  0.16650000  0.64346000  0.23448000  1.0
  H  H14  1  0.98526000  0.91776000  0.67487000  1.0
  H  H15  1  0.01475000  0.08225000  0.32513000  1.0
  H  H16  1  0.76379000  0.91399000  0.68068000  1.0
  H  H17  1  0.23622000  0.08602000  0.31932000  1.0
  H  H18  1  0.89343000  0.33260000  0.22355000  1.0
  H  H19  1  0.10657000  0.66738000  0.77645000  1.0
  H  H20  1  0.29921000  0.40616000  0.21892000  1.0
  H  H21  1  0.70080000  0.59384000  0.78108000  1.0
  H  H22  1  0.21550000  0.31330000  0.05556000  1.0
  H  H23  1  0.78450000  0.68671000  0.94444000  1.0
  H  H24  1  0.18532000  0.30479000  0.92437000  1.0
  H  H25  1  0.81468000  0.69521000  0.07563000  1.0
  H  H26  1  0.12204000  0.20234000  0.76332000  1.0
  H  H27  1  0.87796000  0.79768000  0.23667000  1.0
  H  H28  1  0.69209000  0.03681000  0.81441000  1.0
  H  H29  1  0.30789000  0.96318000  0.18558000  1.0
  C  C30  1  0.74282000  0.33466000  0.18716000  1.0
  C  C31  1  0.25719000  0.66533000  0.81283000  1.0
  C  C32  1  0.60450000  0.38286000  0.23381000  1.0
  C  C33  1  0.39550000  0.61714000  0.76619000  1.0
  C  C34  1  0.66009000  0.43895000  0.33241000  1.0
  C  C35  1  0.33991000  0.56104000  0.66759000  1.0
  C  C36  1  0.41209000  0.37606000  0.18450000  1.0
  C  C37  1  0.58791000  0.62394000  0.81550000  1.0
  C  C38  1  0.36679000  0.32442000  0.09341000  1.0
  C  C39  1  0.63322000  0.67560000  0.90659000  1.0
  C  C40  1  0.51684000  0.28218000  0.05233000  1.0
  C  C41  1  0.48317000  0.71782000  0.94767000  1.0
  C  C42  1  0.47428000  0.22452000  0.95506000  1.0
  C  C43  1  0.52571000  0.77547000  0.04493000  1.0
  C  C44  1  0.29483000  0.24313000  0.89863000  1.0
  C  C45  1  0.70517000  0.75688000  0.10137000  1.0
  C  C46  1  0.25871000  0.18606000  0.80846000  1.0
  C  C47  1  0.74129000  0.81395000  0.19154000  1.0
  C  C48  1  0.40290000  0.11186000  0.77548000  1.0
  C  C49  1  0.59709000  0.88814000  0.22451000  1.0
  C  C50  1  0.36920000  0.04945000  0.67909000  1.0
  C  C51  1  0.63080000  0.95055000  0.32091000  1.0
  C  C52  1  0.57777000  0.09886000  0.83675000  1.0
  C  C53  1  0.42223000  0.90113000  0.16325000  1.0
  N  N54  1  0.70296000  0.28804000  0.09932000  1.0
  N  N55  1  0.29704000  0.71195000  0.90068000  1.0
  N  N56  1  0.61392000  0.15289000  0.92363000  1.0
  N  N57  1  0.38607000  0.84711000  0.07637000  1.0
  O  O58  1  0.53593000  0.50456000  0.36850000  1.0
  O  O59  1  0.46408000  0.49543000  0.63150000  1.0
  O  O60  1  0.82867000  0.41799000  0.37578000  1.0
  O  O61  1  0.17134000  0.58201000  0.62422000  1.0
  O  O62  1  0.19362000  0.01599000  0.63223000  1.0
  O  O63  1  0.80637000  0.98400000  0.36776000  1.0
  O  O64  1  0.52050000  0.03349000  0.64627000  1.0
  O  O65  1  0.47948000  0.96652000  0.35373000  1.0
  O  O66  1  0.48255000  0.21927000  0.49292000  1.0
  O  O67  1  0.51745000  0.78073000  0.50708000  1.0
  O  O68  1  0.03102000  0.77810000  0.47980000  1.0
  O  O69  1  0.96898000  0.22189000  0.52020000  1.0
  O  O70  1  0.83907000  0.30545000  0.70671000  1.0
  O  O71  1  0.16093000  0.69456000  0.29330000  1.0
  O  O72  1  0.86692000  0.83913000  0.68451000  1.0
  O  O73  1  0.13308000  0.16087000  0.31549000  1.0
