# generated using pymatgen
data_H10PdC10(I3N)2
_symmetry_space_group_name_H-M   'P 1'
_cell_length_a   5.85542000
_cell_length_b   10.69429384
_cell_length_c   17.17440000
_cell_angle_alpha   98.48159737
_cell_angle_beta   99.75200000
_cell_angle_gamma   105.86489194
_symmetry_Int_Tables_number   1
_chemical_formula_structural   H10PdC10(I3N)2
_chemical_formula_sum   'H20 Pd2 C20 I12 N4'
_cell_volume   998.01015640
_cell_formula_units_Z   2
loop_
 _symmetry_equiv_pos_site_id
 _symmetry_equiv_pos_as_xyz
  1  'x, y, z'
loop_
 _atom_site_type_symbol
 _atom_site_label
 _atom_site_symmetry_multiplicity
 _atom_site_fract_x
 _atom_site_fract_y
 _atom_site_fract_z
 _atom_site_occupancy
  H  H0  1  0.66553000  0.85109000  0.36975000  1.0
  H  H1  1  0.94497000  0.64821000  0.13024000  1.0
  H  H2  1  0.33446000  0.14891000  0.63025000  1.0
  H  H3  1  0.05503000  0.35178000  0.86976000  1.0
  H  H4  1  0.59483000  0.81490000  0.21890000  1.0
  H  H5  1  0.06062000  0.68512000  0.28093000  1.0
  H  H6  1  0.40515000  0.18511000  0.78109000  1.0
  H  H7  1  0.93938000  0.31488000  0.71907000  1.0
  H  H8  1  0.31372000  0.92044000  0.14472000  1.0
  H  H9  1  0.74794000  0.58056000  0.35556000  1.0
  H  H10  1  0.68626000  0.07957000  0.85528000  1.0
  H  H11  1  0.25205000  0.41943000  0.64444000  1.0
  H  H12  1  0.10891000  0.05491000  0.22522000  1.0
  H  H13  1  0.32883000  0.44573000  0.27507000  1.0
  H  H14  1  0.89109000  0.94510000  0.77479000  1.0
  H  H15  1  0.67118000  0.55427000  0.72493000  1.0
  H  H16  1  0.19869000  0.08171000  0.37498000  1.0
  H  H17  1  0.24232000  0.41787000  0.12541000  1.0
  H  H18  1  0.80132000  0.91830000  0.62503000  1.0
  H  H19  1  0.75769000  0.58213000  0.87459000  1.0
  Pd  Pd20  1  0.50000000  0.00000000  0.50000000  1.0
  Pd  Pd21  1  0.50000000  0.50000000  0.00000000  1.0
  C  C22  1  0.54295000  0.89327000  0.33483000  1.0
  C  C23  1  0.81482000  0.60613000  0.16511000  1.0
  C  C24  1  0.45704000  0.10673000  0.66517000  1.0
  C  C25  1  0.18517000  0.39386000  0.83488000  1.0
  C  C26  1  0.50228000  0.87407000  0.25113000  1.0
  C  C27  1  0.87674000  0.62588000  0.24886000  1.0
  C  C28  1  0.49770000  0.12593000  0.74887000  1.0
  C  C29  1  0.12327000  0.37411000  0.75114000  1.0
  C  C30  1  0.34565000  0.93227000  0.21013000  1.0
  C  C31  1  0.70293000  0.56820000  0.29007000  1.0
  C  C32  1  0.65434000  0.06774000  0.78988000  1.0
  C  C33  1  0.29708000  0.43180000  0.70993000  1.0
  C  C34  1  0.23218000  0.00706000  0.25441000  1.0
  C  C35  1  0.47087000  0.49319000  0.24578000  1.0
  C  C36  1  0.76781000  0.99294000  0.74560000  1.0
  C  C37  1  0.52914000  0.50681000  0.75422000  1.0
  C  C38  1  0.28103000  0.02276000  0.33795000  1.0
  C  C39  1  0.42067000  0.47690000  0.16219000  1.0
  C  C40  1  0.71897000  0.97724000  0.66205000  1.0
  C  C41  1  0.57935000  0.52310000  0.83781000  1.0
  I  I42  1  0.92111000  0.18004000  0.51423000  1.0
  I  I43  1  0.72710000  0.31956000  0.98517000  1.0
  I  I44  1  0.07888000  0.81995000  0.48577000  1.0
  I  I45  1  0.27290000  0.68043000  0.01482000  1.0
  I  I46  1  0.88644000  0.24601000  0.33095000  1.0
  I  I47  1  0.81073000  0.25459000  0.16867000  1.0
  I  I48  1  0.11357000  0.75399000  0.66905000  1.0
  I  I49  1  0.18931000  0.74541000  0.83133000  1.0
  I  I50  1  0.61570000  0.40346000  0.50851000  1.0
  I  I51  1  0.20483000  0.09599000  0.99126000  1.0
  I  I52  1  0.38430000  0.59654000  0.49149000  1.0
  I  I53  1  0.79517000  0.90401000  0.00874000  1.0
  N  N54  1  0.43397000  0.96692000  0.37727000  1.0
  N  N55  1  0.59003000  0.53247000  0.12270000  1.0
  N  N56  1  0.56602000  0.03307000  0.62273000  1.0
  N  N57  1  0.40998000  0.46753000  0.87730000  1.0
