# generated using pymatgen
data_CuH7C12(NO2)2
_symmetry_space_group_name_H-M   'P 1'
_cell_length_a   9.48300000
_cell_length_b   9.50383000
_cell_length_c   13.66040000
_cell_angle_alpha   89.99910000
_cell_angle_beta   89.99720000
_cell_angle_gamma   72.64100000
_symmetry_Int_Tables_number   1
_chemical_formula_structural   CuH7C12(NO2)2
_chemical_formula_sum   'Cu4 H28 C48 N8 O16'
_cell_volume   1175.06762638
_cell_formula_units_Z   4
loop_
 _symmetry_equiv_pos_site_id
 _symmetry_equiv_pos_as_xyz
  1  'x, y, z'
loop_
 _atom_site_type_symbol
 _atom_site_label
 _atom_site_symmetry_multiplicity
 _atom_site_fract_x
 _atom_site_fract_y
 _atom_site_fract_z
 _atom_site_occupancy
  Cu  Cu0  1  0.87148000  0.44686000  0.91209000  1.0
  Cu  Cu1  1  0.12851000  0.05311000  0.41207000  1.0
  Cu  Cu2  1  0.12850000  0.55312000  0.08792000  1.0
  Cu  Cu3  1  0.87147000  0.94688000  0.58791000  1.0
  H  H4  1  0.29872000  0.94304000  0.72985000  1.0
  H  H5  1  0.70130000  0.55701000  0.22988000  1.0
  H  H6  1  0.70127000  0.05700000  0.27014000  1.0
  H  H7  1  0.29872000  0.44301000  0.77010000  1.0
  H  H8  1  0.25824000  0.93722000  0.90986000  1.0
  H  H9  1  0.74179000  0.56280000  0.40988000  1.0
  H  H10  1  0.74178000  0.06282000  0.09014000  1.0
  H  H11  1  0.25824000  0.43724000  0.59009000  1.0
  H  H12  1  0.07867000  0.15536000  0.99050000  1.0
  H  H13  1  0.92135000  0.34466000  0.49052000  1.0
  H  H14  1  0.92134000  0.84469000  0.00948000  1.0
  H  H15  1  0.07865000  0.65538000  0.50947000  1.0
  H  H16  1  0.61651000  0.56408000  0.05886000  1.0
  H  H17  1  0.38345000  0.93583000  0.55878000  1.0
  H  H18  1  0.38347000  0.43579000  0.94119000  1.0
  H  H19  1  0.61650000  0.06412000  0.44117000  1.0
  H  H20  1  0.46127000  0.81393000  0.10545000  1.0
  H  H21  1  0.53878000  0.68599000  0.60528000  1.0
  H  H22  1  0.53881000  0.18594000  0.89473000  1.0
  H  H23  1  0.46125000  0.31396000  0.39459000  1.0
  H  H24  1  0.64292000  0.97952000  0.85412000  1.0
  H  H25  1  0.35714000  0.52045000  0.35393000  1.0
  H  H26  1  0.35712000  0.02047000  0.14610000  1.0
  H  H27  1  0.64294000  0.47955000  0.64589000  1.0
  H  H28  1  0.78431000  0.72265000  0.81821000  1.0
  H  H29  1  0.21569000  0.77734000  0.31808000  1.0
  H  H30  1  0.21568000  0.27737000  0.18192000  1.0
  H  H31  1  0.78431000  0.22268000  0.68180000  1.0
  C  C32  1  0.93406000  0.40529000  0.71287000  1.0
  C  C33  1  0.06591000  0.09475000  0.21286000  1.0
  C  C34  1  0.06588000  0.59476000  0.28713000  1.0
  C  C35  1  0.93407000  0.90527000  0.78713000  1.0
  C  C36  1  0.03742000  0.27254000  0.76133000  1.0
  C  C37  1  0.96257000  0.22747000  0.26134000  1.0
  C  C38  1  0.96254000  0.72748000  0.23866000  1.0
  C  C39  1  0.03741000  0.77254000  0.73866000  1.0
  C  C40  1  0.13753000  0.15743000  0.71113000  1.0
  C  C41  1  0.86247000  0.34261000  0.21115000  1.0
  C  C42  1  0.86243000  0.84261000  0.28885000  1.0
  C  C43  1  0.13752000  0.65741000  0.78885000  1.0
  C  C44  1  0.22124000  0.03666000  0.76645000  1.0
  C  C45  1  0.77876000  0.46338000  0.26647000  1.0
  C  C46  1  0.77873000  0.96339000  0.23353000  1.0
  C  C47  1  0.22124000  0.53665000  0.73351000  1.0
  C  C48  1  0.20147000  0.03411000  0.86699000  1.0
  C  C49  1  0.79854000  0.46592000  0.36700000  1.0
  C  C50  1  0.79853000  0.96594000  0.13300000  1.0
  C  C51  1  0.20146000  0.53412000  0.63297000  1.0
  C  C52  1  0.09988000  0.15387000  0.91218000  1.0
  C  C53  1  0.90014000  0.34615000  0.41218000  1.0
  C  C54  1  0.90012000  0.84616000  0.08782000  1.0
  C  C55  1  0.09986000  0.65389000  0.58780000  1.0
  C  C56  1  0.16105000  0.15347000  0.60132000  1.0
  C  C57  1  0.83896000  0.34653000  0.10134000  1.0
  C  C58  1  0.83893000  0.84655000  0.39867000  1.0
  C  C59  1  0.16105000  0.65345000  0.89865000  1.0
  C  C60  1  0.62026000  0.66073000  0.01733000  1.0
  C  C61  1  0.37972000  0.83920000  0.51722000  1.0
  C  C62  1  0.37974000  0.33917000  0.98277000  1.0
  C  C63  1  0.62025000  0.16076000  0.48271000  1.0
  C  C64  1  0.53393000  0.80152000  0.04233000  1.0
  C  C65  1  0.46613000  0.69841000  0.54217000  1.0
  C  C66  1  0.46614000  0.19837000  0.95784000  1.0
  C  C67  1  0.53391000  0.30155000  0.45771000  1.0
  C  C68  1  0.54115000  0.92350000  0.98641000  1.0
  C  C69  1  0.45891000  0.57645000  0.48622000  1.0
  C  C70  1  0.45892000  0.07643000  0.01380000  1.0
  C  C71  1  0.54114000  0.42353000  0.51362000  1.0
  C  C72  1  0.63065000  0.89336000  0.90282000  1.0
  C  C73  1  0.36940000  0.60661000  0.40263000  1.0
  C  C74  1  0.36939000  0.10661000  0.09738000  1.0
  C  C75  1  0.63065000  0.39339000  0.59721000  1.0
  C  C76  1  0.71318000  0.74961000  0.88217000  1.0
  C  C77  1  0.28683000  0.75036000  0.38203000  1.0
  C  C78  1  0.28683000  0.25037000  0.11797000  1.0
  C  C79  1  0.71318000  0.24965000  0.61785000  1.0
  N  N80  1  0.02151000  0.26949000  0.85985000  1.0
  N  N81  1  0.97850000  0.23051000  0.35985000  1.0
  N  N82  1  0.97847000  0.73052000  0.14014000  1.0
  N  N83  1  0.02148000  0.76951000  0.64013000  1.0
  N  N84  1  0.71213000  0.63489000  0.93963000  1.0
  N  N85  1  0.28785000  0.86505000  0.43954000  1.0
  N  N86  1  0.28785000  0.36505000  0.06045000  1.0
  N  N87  1  0.71212000  0.13493000  0.56039000  1.0
  O  O88  1  0.83738000  0.49124000  0.77126000  1.0
  O  O89  1  0.16259000  0.00877000  0.27124000  1.0
  O  O90  1  0.16258000  0.50878000  0.22876000  1.0
  O  O91  1  0.83738000  0.99124000  0.72875000  1.0
  O  O92  1  0.94034000  0.42646000  0.62365000  1.0
  O  O93  1  0.05963000  0.07359000  0.12365000  1.0
  O  O94  1  0.05961000  0.57361000  0.37635000  1.0
  O  O95  1  0.94034000  0.92644000  0.87634000  1.0
  O  O96  1  0.26538000  0.19202000  0.56702000  1.0
  O  O97  1  0.73463000  0.30799000  0.06704000  1.0
  O  O98  1  0.73460000  0.80801000  0.43298000  1.0
  O  O99  1  0.26538000  0.69201000  0.93294000  1.0
  O  O100  1  0.07692000  0.09283000  0.55274000  1.0
  O  O101  1  0.92311000  0.40717000  0.05275000  1.0
  O  O102  1  0.92307000  0.90720000  0.44724000  1.0
  O  O103  1  0.07691000  0.59281000  0.94724000  1.0
