# generated using pymatgen
data_NdH7C7(NO4)2
_symmetry_space_group_name_H-M   'P 1'
_cell_length_a   7.91100000
_cell_length_b   8.66806000
_cell_length_c   8.72403000
_cell_angle_alpha   115.90100000
_cell_angle_beta   96.82170000
_cell_angle_gamma   100.73000000
_symmetry_Int_Tables_number   1
_chemical_formula_structural   NdH7C7(NO4)2
_chemical_formula_sum   'Nd2 H14 C14 N4 O16'
_cell_volume   515.00133380
_cell_formula_units_Z   2
loop_
 _symmetry_equiv_pos_site_id
 _symmetry_equiv_pos_as_xyz
  1  'x, y, z'
loop_
 _atom_site_type_symbol
 _atom_site_label
 _atom_site_symmetry_multiplicity
 _atom_site_fract_x
 _atom_site_fract_y
 _atom_site_fract_z
 _atom_site_occupancy
  Nd  Nd0  1  0.83912000  0.82719000  0.58490000  1.0
  Nd  Nd1  1  0.16088000  0.17281000  0.41510000  1.0
  H  H2  1  0.82322000  0.54494000  0.93394000  1.0
  H  H3  1  0.17678000  0.45506000  0.06606000  1.0
  H  H4  1  0.46875000  0.25054000  0.08551000  1.0
  H  H5  1  0.53125000  0.74946000  0.91449000  1.0
  H  H6  1  0.50841000  0.96581000  0.84890000  1.0
  H  H7  1  0.49159000  0.03419000  0.15109000  1.0
  H  H8  1  0.02303000  0.61426000  0.71016000  1.0
  H  H9  1  0.97697000  0.38574000  0.28984000  1.0
  H  H10  1  0.15820000  0.66308000  0.61736000  1.0
  H  H11  1  0.84180000  0.33692000  0.38264000  1.0
  H  H12  1  0.67206000  0.62128000  0.19191000  1.0
  H  H13  1  0.32794000  0.37872000  0.80809000  1.0
  H  H14  1  0.77399000  0.81575000  0.23220000  1.0
  H  H15  1  0.22601000  0.18425000  0.76780000  1.0
  C  C16  1  0.89626000  0.26016000  0.66974000  1.0
  C  C17  1  0.10374000  0.73985000  0.33026000  1.0
  C  C18  1  0.77502000  0.25872000  0.78844000  1.0
  C  C19  1  0.22499000  0.74128000  0.21156000  1.0
  C  C20  1  0.75368000  0.41579000  0.91780000  1.0
  C  C21  1  0.24632000  0.58421000  0.08220000  1.0
  C  C22  1  0.56013000  0.25352000  0.00180000  1.0
  C  C23  1  0.43987000  0.74648000  0.99820000  1.0
  C  C24  1  0.58124000  0.09615000  0.87156000  1.0
  C  C25  1  0.41876000  0.90385000  0.12844000  1.0
  C  C26  1  0.92739000  0.92768000  0.00401000  1.0
  C  C27  1  0.07261000  0.07232000  0.99599000  1.0
  C  C28  1  0.44234000  0.56651000  0.52462000  1.0
  C  C29  1  0.55766000  0.43349000  0.47538000  1.0
  N  N30  1  0.69215000  0.09878000  0.76829000  1.0
  N  N31  1  0.30785000  0.90122000  0.23171000  1.0
  N  N32  1  0.64898000  0.41289000  0.02678000  1.0
  N  N33  1  0.35102000  0.58711000  0.97322000  1.0
  O  O34  1  0.99275000  0.40455000  0.69394000  1.0
  O  O35  1  0.00725000  0.59545000  0.30606000  1.0
  O  O36  1  0.89882000  0.10774000  0.54860000  1.0
  O  O37  1  0.10118000  0.89226000  0.45141000  1.0
  O  O38  1  0.80853000  0.82558000  0.86689000  1.0
  O  O39  1  0.19147000  0.17442000  0.13311000  1.0
  O  O40  1  0.94032000  0.92265000  0.14828000  1.0
  O  O41  1  0.05967000  0.07735000  0.85172000  1.0
  O  O42  1  0.51388000  0.72510000  0.56244000  1.0
  O  O43  1  0.48612000  0.27490000  0.43756000  1.0
  O  O44  1  0.28321000  0.50361000  0.52338000  1.0
  O  O45  1  0.71679000  0.49639000  0.47661000  1.0
  O  O46  1  0.07563000  0.71463000  0.68982000  1.0
  O  O47  1  0.92437000  0.28537000  0.31019000  1.0
  O  O48  1  0.70239000  0.75114000  0.28210000  1.0
  O  O49  1  0.29761000  0.24886000  0.71790000  1.0
