# generated using pymatgen
data_NiH30(C22O9)2
_symmetry_space_group_name_H-M   'P 1'
_cell_length_a   9.12509000
_cell_length_b   9.92439000
_cell_length_c   10.55420000
_cell_angle_alpha   83.70810000
_cell_angle_beta   77.20260000
_cell_angle_gamma   71.45950000
_symmetry_Int_Tables_number   1
_chemical_formula_structural   NiH30(C22O9)2
_chemical_formula_sum   'Ni1 H30 C44 O18'
_cell_volume   882.88822576
_cell_formula_units_Z   1
loop_
 _symmetry_equiv_pos_site_id
 _symmetry_equiv_pos_as_xyz
  1  'x, y, z'
loop_
 _atom_site_type_symbol
 _atom_site_label
 _atom_site_symmetry_multiplicity
 _atom_site_fract_x
 _atom_site_fract_y
 _atom_site_fract_z
 _atom_site_occupancy
  Ni  Ni0  1  0.50000000  0.00000000  0.50000000  1.0
  H  H1  1  0.46096000  0.04930000  0.90856000  1.0
  H  H2  1  0.53904000  0.95069000  0.09144000  1.0
  H  H3  1  0.10745000  0.81541000  0.52082000  1.0
  H  H4  1  0.89254000  0.18460000  0.47917000  1.0
  H  H5  1  0.40364000  0.70459000  0.27521000  1.0
  H  H6  1  0.59636000  0.29541000  0.72479000  1.0
  H  H7  1  0.26028000  0.01855000  0.43807000  1.0
  H  H8  1  0.73971000  0.98146000  0.56194000  1.0
  H  H9  1  0.36845000  0.05075000  0.30341000  1.0
  H  H10  1  0.63154000  0.94925000  0.69659000  1.0
  H  H11  1  0.08135000  0.01073000  0.26866000  1.0
  H  H12  1  0.91864000  0.98927000  0.73135000  1.0
  H  H13  1  0.08270000  0.20705000  0.88430000  1.0
  H  H14  1  0.91730000  0.79294000  0.11570000  1.0
  H  H15  1  0.79270000  0.30137000  0.93627000  1.0
  H  H16  1  0.20731000  0.69862000  0.06373000  1.0
  H  H17  1  0.58985000  0.32327000  0.36250000  1.0
  H  H18  1  0.41015000  0.67674000  0.63749000  1.0
  H  H19  1  0.30836000  0.44700000  0.41157000  1.0
  H  H20  1  0.69165000  0.55301000  0.58842000  1.0
  H  H21  1  0.27852000  0.39941000  0.01728000  1.0
  H  H22  1  0.72149000  0.60059000  0.98272000  1.0
  H  H23  1  0.55868000  0.26849000  0.96995000  1.0
  H  H24  1  0.44132000  0.73150000  0.03005000  1.0
  H  H25  1  0.80526000  0.75523000  0.43697000  1.0
  H  H26  1  0.19474000  0.24478000  0.56302000  1.0
  H  H27  1  0.76619000  0.48176000  0.16582000  1.0
  H  H28  1  0.23381000  0.51824000  0.83419000  1.0
  H  H29  1  0.05461000  0.37164000  0.12357000  1.0
  H  H30  1  0.94539000  0.62836000  0.87643000  1.0
  C  C31  1  0.77237000  0.07110000  0.35139000  1.0
  C  C32  1  0.22762000  0.92890000  0.64861000  1.0
  C  C33  1  0.85260000  0.12291000  0.22456000  1.0
  C  C34  1  0.14740000  0.87708000  0.77544000  1.0
  C  C35  1  0.01747000  0.07611000  0.19663000  1.0
  C  C36  1  0.98253000  0.92389000  0.80337000  1.0
  C  C37  1  0.10163000  0.10746000  0.07501000  1.0
  C  C38  1  0.89837000  0.89253000  0.92500000  1.0
  C  C39  1  0.27589000  0.06083000  0.04699000  1.0
  C  C40  1  0.72411000  0.93916000  0.95302000  1.0
  C  C41  1  0.01829000  0.18463000  0.97988000  1.0
  C  C42  1  0.98171000  0.81537000  0.02013000  1.0
  C  C43  1  0.85491000  0.23633000  0.00934000  1.0
  C  C44  1  0.14510000  0.76366000  0.99066000  1.0
  C  C45  1  0.76825000  0.21040000  0.13234000  1.0
  C  C46  1  0.23176000  0.78960000  0.86766000  1.0
  C  C47  1  0.59712000  0.28362000  0.16277000  1.0
  C  C48  1  0.40288000  0.71638000  0.83722000  1.0
  C  C49  1  0.52269000  0.33821000  0.28596000  1.0
  C  C50  1  0.47731000  0.66179000  0.71403000  1.0
  C  C51  1  0.36282000  0.41135000  0.31334000  1.0
  C  C52  1  0.63718000  0.58866000  0.68666000  1.0
  C  C53  1  0.27056000  0.43525000  0.21806000  1.0
  C  C54  1  0.72944000  0.56476000  0.78193000  1.0
  C  C55  1  0.34558000  0.38198000  0.09422000  1.0
  C  C56  1  0.65442000  0.61802000  0.90578000  1.0
  C  C57  1  0.50544000  0.30819000  0.06690000  1.0
  C  C58  1  0.49456000  0.69180000  0.93309000  1.0
  C  C59  1  0.09910000  0.50696000  0.24717000  1.0
  C  C60  1  0.90090000  0.49304000  0.75282000  1.0
  C  C61  1  0.02529000  0.61838000  0.33522000  1.0
  C  C62  1  0.97471000  0.38163000  0.66478000  1.0
  C  C63  1  0.11336000  0.70178000  0.37959000  1.0
  C  C64  1  0.88664000  0.29823000  0.62041000  1.0
  C  C65  1  0.86091000  0.67233000  0.36675000  1.0
  C  C66  1  0.13909000  0.32767000  0.63325000  1.0
  C  C67  1  0.76701000  0.62632000  0.30372000  1.0
  C  C68  1  0.23299000  0.37368000  0.69628000  1.0
  C  C69  1  0.59386000  0.69300000  0.33267000  1.0
  C  C70  1  0.40615000  0.30700000  0.66733000  1.0
  C  C71  1  0.83888000  0.51959000  0.21355000  1.0
  C  C72  1  0.16112000  0.48041000  0.78645000  1.0
  C  C73  1  0.00141000  0.45936000  0.18879000  1.0
  C  C74  1  0.99859000  0.54064000  0.81120000  1.0
  O  O75  1  0.65262000  0.03126000  0.35004000  1.0
  O  O76  1  0.34737000  0.96874000  0.64996000  1.0
  O  O77  1  0.83208000  0.06360000  0.45161000  1.0
  O  O78  1  0.16791000  0.93641000  0.54839000  1.0
  O  O79  1  0.35625000  0.00363000  0.13198000  1.0
  O  O80  1  0.64375000  0.99636000  0.86803000  1.0
  O  O81  1  0.33953000  0.08476000  0.92527000  1.0
  O  O82  1  0.66047000  0.91523000  0.07473000  1.0
  O  O83  1  0.21585000  0.74285000  0.30179000  1.0
  O  O84  1  0.78414000  0.25715000  0.69821000  1.0
  O  O85  1  0.06272000  0.73796000  0.50208000  1.0
  O  O86  1  0.93727000  0.26204000  0.49792000  1.0
  O  O87  1  0.52280000  0.76615000  0.42780000  1.0
  O  O88  1  0.47719000  0.23385000  0.57220000  1.0
  O  O89  1  0.52164000  0.66516000  0.24608000  1.0
  O  O90  1  0.47836000  0.33485000  0.75392000  1.0
  O  O91  1  0.33676000  0.07341000  0.39574000  1.0
  O  O92  1  0.66324000  0.92659000  0.60426000  1.0
