# generated using pymatgen
data_ZnSiH28C28(N2F3)2
_symmetry_space_group_name_H-M   'P 1'
_cell_length_a   7.70060000
_cell_length_b   13.99160000
_cell_length_c   13.99170000
_cell_angle_alpha   89.68500000
_cell_angle_beta   85.81950000
_cell_angle_gamma   85.81990000
_symmetry_Int_Tables_number   1
_chemical_formula_structural   ZnSiH28C28(N2F3)2
_chemical_formula_sum   'Zn1 Si1 H28 C28 N4 F6'
_cell_volume   1499.50717961
_cell_formula_units_Z   1
loop_
 _symmetry_equiv_pos_site_id
 _symmetry_equiv_pos_as_xyz
  1  'x, y, z'
loop_
 _atom_site_type_symbol
 _atom_site_label
 _atom_site_symmetry_multiplicity
 _atom_site_fract_x
 _atom_site_fract_y
 _atom_site_fract_z
 _atom_site_occupancy
  Zn  Zn0  1  0.49999000  0.50000000  0.50000000  1.0
  Si  Si1  1  0.99999000  0.49999000  0.49999000  1.0
  H  H2  1  0.25290000  0.50009000  0.33636000  1.0
  H  H3  1  0.25890000  0.50000000  0.16662000  1.0
  H  H4  1  0.82370000  0.50016000  0.16261000  1.0
  H  H5  1  0.79212000  0.49999000  0.33338000  1.0
  H  H6  1  0.17627000  0.49987000  0.83739000  1.0
  H  H7  1  0.74105000  0.50019000  0.83337000  1.0
  H  H8  1  0.74706000  0.50001000  0.66364000  1.0
  H  H9  1  0.20784000  0.50001000  0.66666667  1.0
  H  H10  1  0.25292000  0.33636000  0.49999000  1.0
  H  H11  1  0.25893000  0.16663000  0.49982000  1.0
  H  H12  1  0.82371000  0.16261000  0.50013000  1.0
  H  H13  1  0.79213000  0.33338000  0.49999000  1.0
  H  H14  1  0.17627000  0.83739000  0.49984000  1.0
  H  H15  1  0.74107000  0.83338000  0.50000000  1.0
  H  H16  1  0.74707000  0.66364000  0.49991000  1.0
  H  H17  1  0.20784000  0.66666667  0.50001000  1.0
  H  H18  1  0.77674000  0.56365000  0.94659000  1.0
  H  H19  1  0.84744000  0.49944000  0.04558000  1.0
  H  H20  1  0.79302000  0.43603000  0.94625000  1.0
  H  H21  1  0.20675000  0.56396000  0.05358000  1.0
  H  H22  1  0.15260000  0.50018000  0.95442000  1.0
  H  H23  1  0.22346000  0.43634000  0.05358000  1.0
  H  H24  1  0.79322000  0.94642000  0.43604000  1.0
  H  H25  1  0.84739000  0.04559000  0.49982000  1.0
  H  H26  1  0.77652000  0.94642000  0.56367000  1.0
  H  H27  1  0.22324000  0.05341000  0.43635000  1.0
  H  H28  1  0.15253000  0.95442000  0.50056000  1.0
  H  H29  1  0.20695000  0.05375000  0.56397000  1.0
  C  C30  1  0.37847000  0.50004000  0.29518000  1.0
  C  C31  1  0.38451000  0.50001000  0.19565000  1.0
  C  C32  1  0.54400000  0.50000000  0.13815000  1.0
  C  C33  1  0.69075000  0.50005000  0.19403000  1.0
  C  C34  1  0.67572000  0.50001000  0.29353000  1.0
  C  C35  1  0.56701000  0.49992000  0.03072000  1.0
  C  C36  1  0.43297000  0.50004000  0.96928000  1.0
  C  C37  1  0.30923000  0.49996000  0.80597000  1.0
  C  C38  1  0.45597000  0.50001000  0.86185000  1.0
  C  C39  1  0.61546000  0.50008000  0.80434000  1.0
  C  C40  1  0.62149000  0.50003000  0.70482000  1.0
  C  C41  1  0.32425000  0.50000000  0.70647000  1.0
  C  C42  1  0.37849000  0.29518000  0.49997000  1.0
  C  C43  1  0.38452000  0.19566000  0.49992000  1.0
  C  C44  1  0.54401000  0.13815000  0.49999000  1.0
  C  C45  1  0.69075000  0.19404000  0.50004000  1.0
  C  C46  1  0.67572000  0.29352000  0.49999000  1.0
  C  C47  1  0.56700000  0.03072000  0.49996000  1.0
  C  C48  1  0.43297000  0.96928000  0.50008000  1.0
  C  C49  1  0.30923000  0.80597000  0.49995000  1.0
  C  C50  1  0.45598000  0.86185000  0.50000000  1.0
  C  C51  1  0.61547000  0.80434000  0.49999000  1.0
  C  C52  1  0.62150000  0.70482000  0.49996000  1.0
  C  C53  1  0.32425000  0.70647000  0.49999000  1.0
  C  C54  1  0.75488000  0.49974000  0.99057000  1.0
  C  C55  1  0.24511000  0.50015000  0.00943000  1.0
  C  C56  1  0.75487000  0.99057000  0.49985000  1.0
  C  C57  1  0.24509000  0.00943000  0.50026000  1.0
  N  N58  1  0.52114000  0.50000000  0.34501000  1.0
  N  N59  1  0.47883000  0.50001000  0.65498000  1.0
  N  N60  1  0.52115000  0.34502000  0.49999000  1.0
  N  N61  1  0.47883000  0.65498000  0.49999000  1.0
  F  F62  1  0.22720000  0.50017000  0.50017000  1.0
  F  F63  1  0.77279000  0.49982000  0.49982000  1.0
  F  F64  1  0.99999000  0.58632000  0.41366000  1.0
  F  F65  1  0.99999000  0.41367000  0.58632000  1.0
  F  F66  1  0.02296000  0.41370000  0.41371000  1.0
  F  F67  1  0.97702000  0.58629000  0.58628000  1.0
