# generated using pymatgen
data_Ag2H2C4O5
_symmetry_space_group_name_H-M   'P 1'
_cell_length_a   5.04612000
_cell_length_b   8.04876000
_cell_length_c   15.13986272
_cell_angle_alpha   89.99906920
_cell_angle_beta   95.44082139
_cell_angle_gamma   89.99880000
_symmetry_Int_Tables_number   1
_chemical_formula_structural   Ag2H2C4O5
_chemical_formula_sum   'Ag8 H8 C16 O20'
_cell_volume   612.13530016
_cell_formula_units_Z   4
loop_
 _symmetry_equiv_pos_site_id
 _symmetry_equiv_pos_as_xyz
  1  'x, y, z'
loop_
 _atom_site_type_symbol
 _atom_site_label
 _atom_site_symmetry_multiplicity
 _atom_site_fract_x
 _atom_site_fract_y
 _atom_site_fract_z
 _atom_site_occupancy
  Ag  Ag0  1  0.19507000  0.51667000  0.93211000  1.0
  Ag  Ag1  1  0.80496000  0.01666000  0.56789000  1.0
  Ag  Ag2  1  0.80497000  0.48334000  0.06788000  1.0
  Ag  Ag3  1  0.19504000  0.98335000  0.43211000  1.0
  Ag  Ag4  1  0.88517000  0.79711000  0.94119000  1.0
  Ag  Ag5  1  0.11485000  0.29710000  0.55881000  1.0
  Ag  Ag6  1  0.11484000  0.20287000  0.05882000  1.0
  Ag  Ag7  1  0.88517000  0.70290000  0.44119000  1.0
  H  H8  1  0.34184000  0.49873000  0.72056000  1.0
  H  H9  1  0.65816000  0.99872000  0.77944000  1.0
  H  H10  1  0.65813000  0.50128000  0.27943000  1.0
  H  H11  1  0.34183000  0.00127000  0.22056000  1.0
  H  H12  1  0.80245000  0.68153000  0.63436000  1.0
  H  H13  1  0.19756000  0.18156000  0.86564000  1.0
  H  H14  1  0.19756000  0.31847000  0.36564000  1.0
  H  H15  1  0.80244000  0.81843000  0.13437000  1.0
  C  C16  1  0.73751000  0.54011000  0.79301000  1.0
  C  C17  1  0.26249000  0.04010000  0.70699000  1.0
  C  C18  1  0.26248000  0.45989000  0.20699000  1.0
  C  C19  1  0.73750000  0.95990000  0.29301000  1.0
  C  C20  1  0.39335000  0.68651000  0.56845000  1.0
  C  C21  1  0.60666000  0.18649000  0.93155000  1.0
  C  C22  1  0.60667000  0.31351000  0.43155000  1.0
  C  C23  1  0.39334000  0.81349000  0.06845000  1.0
  C  C24  1  0.55104000  0.51821000  0.70984000  1.0
  C  C25  1  0.44895000  0.01821000  0.79017000  1.0
  C  C26  1  0.44896000  0.48180000  0.29016000  1.0
  C  C27  1  0.55102000  0.98178000  0.20983000  1.0
  C  C28  1  0.61350000  0.61432000  0.63082000  1.0
  C  C29  1  0.38650000  0.11434000  0.86918000  1.0
  C  C30  1  0.38650000  0.38570000  0.36917000  1.0
  C  C31  1  0.61350000  0.88565000  0.13083000  1.0
  O  O32  1  0.95902000  0.46554000  0.80173000  1.0
  O  O33  1  0.04101000  0.96554000  0.69828000  1.0
  O  O34  1  0.04097000  0.53446000  0.19827000  1.0
  O  O35  1  0.95900000  0.03446000  0.30172000  1.0
  O  O36  1  0.64319000  0.64122000  0.84668000  1.0
  O  O37  1  0.35683000  0.14121000  0.65332000  1.0
  O  O38  1  0.35680000  0.35878000  0.15332000  1.0
  O  O39  1  0.64317000  0.85879000  0.34669000  1.0
  O  O40  1  0.43548000  0.83205000  0.53975000  1.0
  O  O41  1  0.56453000  0.33205000  0.96027000  1.0
  O  O42  1  0.56453000  0.16796000  0.46026000  1.0
  O  O43  1  0.43548000  0.66795000  0.03973000  1.0
  O  O44  1  0.18397000  0.60199000  0.54882000  1.0
  O  O45  1  0.81602000  0.10199000  0.95118000  1.0
  O  O46  1  0.81604000  0.39801000  0.45118000  1.0
  O  O47  1  0.18397000  0.89800000  0.04882000  1.0
  O  O48  1  0.63933000  0.43609000  0.63397000  1.0
  O  O49  1  0.36065000  0.93610000  0.86604000  1.0
  O  O50  1  0.36067000  0.56392000  0.36603000  1.0
  O  O51  1  0.63931000  0.06389000  0.13396000  1.0
