# generated using pymatgen
data_NiH18C20S2(N2O3)2
_symmetry_space_group_name_H-M   'P 1'
_cell_length_a   7.59683000
_cell_length_b   8.77293000
_cell_length_c   15.41760000
_cell_angle_alpha   89.99820000
_cell_angle_beta   87.35860000
_cell_angle_gamma   89.99940000
_symmetry_Int_Tables_number   1
_chemical_formula_structural   NiH18C20S2(N2O3)2
_chemical_formula_sum   'Ni2 H36 C40 S4 N8 O12'
_cell_volume   1026.43671056
_cell_formula_units_Z   2
loop_
 _symmetry_equiv_pos_site_id
 _symmetry_equiv_pos_as_xyz
  1  'x, y, z'
loop_
 _atom_site_type_symbol
 _atom_site_label
 _atom_site_symmetry_multiplicity
 _atom_site_fract_x
 _atom_site_fract_y
 _atom_site_fract_z
 _atom_site_occupancy
  Ni  Ni0  1  0.00000000  0.00000000  0.00000000  1.0
  Ni  Ni1  1  0.50000000  0.50000000  0.50000000  1.0
  H  H2  1  0.23957000  0.13674000  0.91710000  1.0
  H  H3  1  0.26049000  0.63674000  0.58290000  1.0
  H  H4  1  0.76043000  0.86325000  0.08290000  1.0
  H  H5  1  0.73952000  0.36326000  0.41710000  1.0
  H  H6  1  0.29468000  0.18097000  0.01327000  1.0
  H  H7  1  0.20535000  0.68094000  0.48672000  1.0
  H  H8  1  0.70532000  0.81904000  0.98672000  1.0
  H  H9  1  0.79466000  0.31905000  0.51328000  1.0
  H  H10  1  0.98257000  0.78580000  0.85142000  1.0
  H  H11  1  0.51739000  0.28577000  0.64857000  1.0
  H  H12  1  0.01743000  0.21420000  0.14858000  1.0
  H  H13  1  0.48262000  0.71422000  0.35143000  1.0
  H  H14  1  0.08779000  0.52127000  0.81521000  1.0
  H  H15  1  0.41216000  0.02124000  0.68478000  1.0
  H  H16  1  0.91220000  0.47873000  0.18480000  1.0
  H  H17  1  0.58784000  0.97877000  0.31522000  1.0
  H  H18  1  0.25088000  0.37645000  0.92393000  1.0
  H  H19  1  0.24909000  0.87645000  0.57605000  1.0
  H  H20  1  0.74912000  0.62356000  0.07608000  1.0
  H  H21  1  0.75091000  0.12356000  0.42396000  1.0
  H  H22  1  0.21663000  0.77817000  0.08756000  1.0
  H  H23  1  0.28343000  0.27818000  0.41240000  1.0
  H  H24  1  0.78339000  0.22183000  0.91244000  1.0
  H  H25  1  0.71658000  0.72183000  0.58759000  1.0
  H  H26  1  0.54621000  0.07857000  0.09561000  1.0
  H  H27  1  0.95381000  0.57855000  0.40440000  1.0
  H  H28  1  0.45380000  0.92143000  0.90439000  1.0
  H  H29  1  0.04619000  0.42145000  0.59560000  1.0
  H  H30  1  0.62898000  0.11758000  0.19990000  1.0
  H  H31  1  0.87102000  0.61753000  0.30011000  1.0
  H  H32  1  0.37102000  0.88242000  0.80010000  1.0
  H  H33  1  0.12897000  0.38247000  0.69989000  1.0
  H  H34  1  0.40781000  0.05395000  0.19006000  1.0
  H  H35  1  0.09221000  0.55394000  0.30996000  1.0
  H  H36  1  0.59218000  0.94606000  0.80994000  1.0
  H  H37  1  0.90779000  0.44607000  0.69003000  1.0
  C  C38  1  0.05901000  0.72004000  0.89604000  1.0
  C  C39  1  0.44096000  0.22002000  0.60394000  1.0
  C  C40  1  0.94099000  0.27996000  0.10396000  1.0
  C  C41  1  0.55904000  0.77998000  0.39606000  1.0
  C  C42  1  0.11662000  0.57290000  0.87705000  1.0
  C  C43  1  0.38335000  0.07288000  0.62293000  1.0
  C  C44  1  0.88337000  0.42710000  0.12295000  1.0
  C  C45  1  0.61664000  0.92712000  0.37707000  1.0
  C  C46  1  0.20855000  0.49245000  0.93786000  1.0
  C  C47  1  0.29145000  0.99245000  0.56211000  1.0
  C  C48  1  0.79145000  0.50755000  0.06214000  1.0
  C  C49  1  0.70855000  0.00755000  0.43789000  1.0
  C  C50  1  0.24400000  0.56354000  0.01666000  1.0
  C  C51  1  0.25600000  0.06354000  0.48331000  1.0
  C  C52  1  0.75600000  0.43646000  0.98334000  1.0
  C  C53  1  0.74399000  0.93646000  0.51669000  1.0
  C  C54  1  0.18847000  0.71470000  0.02901000  1.0
  C  C55  1  0.31152000  0.21470000  0.47096000  1.0
  C  C56  1  0.81153000  0.28530000  0.97099000  1.0
  C  C57  1  0.68848000  0.78530000  0.52904000  1.0
  C  C58  1  0.33007000  0.48174000  0.08520000  1.0
  C  C59  1  0.16993000  0.98172000  0.41478000  1.0
  C  C60  1  0.66994000  0.51827000  0.91480000  1.0
  C  C61  1  0.83006000  0.01828000  0.58522000  1.0
  C  C62  1  0.45419000  0.28676000  0.15428000  1.0
  C  C63  1  0.04578000  0.78673000  0.34572000  1.0
  C  C64  1  0.54581000  0.71324000  0.84571000  1.0
  C  C65  1  0.95422000  0.21326000  0.65429000  1.0
  C  C66  1  0.46711000  0.39848000  0.21744000  1.0
  C  C67  1  0.03285000  0.89845000  0.28256000  1.0
  C  C68  1  0.53289000  0.60152000  0.78256000  1.0
  C  C69  1  0.96715000  0.10154000  0.71744000  1.0
  C  C70  1  0.53612000  0.39129000  0.30648000  1.0
  C  C71  1  0.96387000  0.89125000  0.19351000  1.0
  C  C72  1  0.46389000  0.60870000  0.69352000  1.0
  C  C73  1  0.03613000  0.10874000  0.80649000  1.0
  C  C74  1  0.51343000  0.12532000  0.16026000  1.0
  C  C75  1  0.98657000  0.62529000  0.33975000  1.0
  C  C76  1  0.48656000  0.87468000  0.83974000  1.0
  C  C77  1  0.01342000  0.37470000  0.66026000  1.0
  S  S78  1  0.37841000  0.56697000  0.18234000  1.0
  S  S79  1  0.12159000  0.06694000  0.31764000  1.0
  S  S80  1  0.62160000  0.43303000  0.81766000  1.0
  S  S81  1  0.87841000  0.93306000  0.68236000  1.0
  N  N82  1  0.09517000  0.79039000  0.97108000  1.0
  N  N83  1  0.40480000  0.29038000  0.52890000  1.0
  N  N84  1  0.90482000  0.20961000  0.02892000  1.0
  N  N85  1  0.59520000  0.70962000  0.47111000  1.0
  N  N86  1  0.37391000  0.33550000  0.08117000  1.0
  N  N87  1  0.12608000  0.83548000  0.41882000  1.0
  N  N88  1  0.62609000  0.66450000  0.91883000  1.0
  N  N89  1  0.87392000  0.16451000  0.58117000  1.0
  O  O90  1  0.44954000  0.47268000  0.36299000  1.0
  O  O91  1  0.05047000  0.97260000  0.13698000  1.0
  O  O92  1  0.55047000  0.52732000  0.63700000  1.0
  O  O93  1  0.94951000  0.02741000  0.86302000  1.0
  O  O94  1  0.66909000  0.30939000  0.31949000  1.0
  O  O95  1  0.83087000  0.80937000  0.18052000  1.0
  O  O96  1  0.33091000  0.69061000  0.68051000  1.0
  O  O97  1  0.16913000  0.19063000  0.81948000  1.0
  O  O98  1  0.25945000  0.09357000  0.97630000  1.0
  O  O99  1  0.24059000  0.59356000  0.52371000  1.0
  O  O100  1  0.74055000  0.90643000  0.02371000  1.0
  O  O101  1  0.75944000  0.40644000  0.47629000  1.0
