# generated using pymatgen
data_CdH16C16N4(ClO)2
_symmetry_space_group_name_H-M   'P 1'
_cell_length_a   7.79688000
_cell_length_b   7.86434000
_cell_length_c   8.17149000
_cell_angle_alpha   83.11540000
_cell_angle_beta   76.53610000
_cell_angle_gamma   62.23850000
_symmetry_Int_Tables_number   1
_chemical_formula_structural   CdH16C16N4(ClO)2
_chemical_formula_sum   'Cd1 H16 C16 N4 Cl2 O2'
_cell_volume   431.15616714
_cell_formula_units_Z   1
loop_
 _symmetry_equiv_pos_site_id
 _symmetry_equiv_pos_as_xyz
  1  'x, y, z'
loop_
 _atom_site_type_symbol
 _atom_site_label
 _atom_site_symmetry_multiplicity
 _atom_site_fract_x
 _atom_site_fract_y
 _atom_site_fract_z
 _atom_site_occupancy
  Cd  Cd0  1  0.00000000  0.00000000  0.00000000  1.0
  H  H1  1  0.45083000  0.68839000  0.90013000  1.0
  H  H2  1  0.54917000  0.31161000  0.09987000  1.0
  H  H3  1  0.78226000  0.55786000  0.98511000  1.0
  H  H4  1  0.21774000  0.44214000  0.01490000  1.0
  H  H5  1  0.48450000  0.94233000  0.40666000  1.0
  H  H6  1  0.51550000  0.05767000  0.59334000  1.0
  H  H7  1  0.16706000  0.04778000  0.30834000  1.0
  H  H8  1  0.83293000  0.95223000  0.69166000  1.0
  H  H9  1  0.05978000  0.71900000  0.51223000  1.0
  H  H10  1  0.94022000  0.28100000  0.48776000  1.0
  H  H11  1  0.17042000  0.65237000  0.29817000  1.0
  H  H12  1  0.82958000  0.34763000  0.70182000  1.0
  H  H13  1  0.65506000  0.59380000  0.49020000  1.0
  H  H14  1  0.34495000  0.40620000  0.50980000  1.0
  H  H15  1  0.73228000  0.68911000  0.63001000  1.0
  H  H16  1  0.26772000  0.31088000  0.36999000  1.0
  C  C17  1  0.46745000  0.73784000  0.01214000  1.0
  C  C18  1  0.53256000  0.26216000  0.98786000  1.0
  C  C19  1  0.64919000  0.66886000  0.05800000  1.0
  C  C20  1  0.35081000  0.33114000  0.94200000  1.0
  C  C21  1  0.65966000  0.74344000  0.20046000  1.0
  C  C22  1  0.34034000  0.25656000  0.79954000  1.0
  C  C23  1  0.48495000  0.88084000  0.29424000  1.0
  C  C24  1  0.51504000  0.11916000  0.70577000  1.0
  C  C25  1  0.30853000  0.94210000  0.23966000  1.0
  C  C26  1  0.69147000  0.05790000  0.76034000  1.0
  C  C27  1  0.86046000  0.69200000  0.23017000  1.0
  C  C28  1  0.13954000  0.30801000  0.76983000  1.0
  C  C29  1  0.09057000  0.61735000  0.41495000  1.0
  C  C30  1  0.90944000  0.38265000  0.58505000  1.0
  C  C31  1  0.78443000  0.58725000  0.52698000  1.0
  C  C32  1  0.21557000  0.41275000  0.47301000  1.0
  N  N33  1  0.30009000  0.87425000  0.10009000  1.0
  N  N34  1  0.69991000  0.12576000  0.89991000  1.0
  N  N35  1  0.90317000  0.64066000  0.38449000  1.0
  N  N36  1  0.09683000  0.35934000  0.61550000  1.0
  Cl  Cl37  1  0.79932000  0.15151000  0.29014000  1.0
  Cl  Cl38  1  0.20068000  0.84849000  0.70986000  1.0
  O  O39  1  0.98461000  0.70379000  0.10569000  1.0
  O  O40  1  0.01539000  0.29621000  0.89431000  1.0
