# generated using pymatgen
data_La2CuH16C32(N2O13)2
_symmetry_space_group_name_H-M   'P 1'
_cell_length_a   9.92915000
_cell_length_b   10.46710000
_cell_length_c   11.07610000
_cell_angle_alpha   69.97870000
_cell_angle_beta   84.45650000
_cell_angle_gamma   70.50030000
_symmetry_Int_Tables_number   1
_chemical_formula_structural   La2CuH16C32(N2O13)2
_chemical_formula_sum   'La2 Cu1 H16 C32 N4 O26'
_cell_volume   1019.32604280
_cell_formula_units_Z   1
loop_
 _symmetry_equiv_pos_site_id
 _symmetry_equiv_pos_as_xyz
  1  'x, y, z'
loop_
 _atom_site_type_symbol
 _atom_site_label
 _atom_site_symmetry_multiplicity
 _atom_site_fract_x
 _atom_site_fract_y
 _atom_site_fract_z
 _atom_site_occupancy
  La  La0  1  0.40242000  0.90859000  0.41002000  1.0
  La  La1  1  0.59758000  0.09141000  0.58998000  1.0
  Cu  Cu2  1  0.50000000  0.50000000  0.50000000  1.0
  H  H3  1  0.91587000  0.85154000  0.48461000  1.0
  H  H4  1  0.08413000  0.14846000  0.51539000  1.0
  H  H5  1  0.81548000  0.45926000  0.66966000  1.0
  H  H6  1  0.18453000  0.54074000  0.33034000  1.0
  H  H7  1  0.25207000  0.45177000  0.65069000  1.0
  H  H8  1  0.74794000  0.54824000  0.34931000  1.0
  H  H9  1  0.46146000  0.85703000  0.98059000  1.0
  H  H10  1  0.53854000  0.14298000  0.01941000  1.0
  H  H11  1  0.35213000  0.47970000  0.20452000  1.0
  H  H12  1  0.64787000  0.52031000  0.79548000  1.0
  H  H13  1  0.28113000  0.65042000  0.79368000  1.0
  H  H14  1  0.71887000  0.34959000  0.20632000  1.0
  H  H15  1  0.10861000  0.08440000  0.25633000  1.0
  H  H16  1  0.89139000  0.91559000  0.74367000  1.0
  H  H17  1  0.19959000  0.18752000  0.18386000  1.0
  H  H18  1  0.80041000  0.81248000  0.81614000  1.0
  C  C19  1  0.09475000  0.66025000  0.56053000  1.0
  C  C20  1  0.90525000  0.33974000  0.43948000  1.0
  C  C21  1  0.94873000  0.73687000  0.53787000  1.0
  C  C22  1  0.05127000  0.26313000  0.46213000  1.0
  C  C23  1  0.84786000  0.66525000  0.57546000  1.0
  C  C24  1  0.15214000  0.33475000  0.42454000  1.0
  C  C25  1  0.89169000  0.51794000  0.64284000  1.0
  C  C26  1  0.10831000  0.48206000  0.35716000  1.0
  C  C27  1  0.03587000  0.44600000  0.67338000  1.0
  C  C28  1  0.96414000  0.55399000  0.32662000  1.0
  C  C29  1  0.13961000  0.51346000  0.63079000  1.0
  C  C30  1  0.86039000  0.48654000  0.36921000  1.0
  C  C31  1  0.19724000  0.73986000  0.50071000  1.0
  C  C32  1  0.80276000  0.26014000  0.49929000  1.0
  C  C33  1  0.69533000  0.74391000  0.53455000  1.0
  C  C34  1  0.30468000  0.25608000  0.46545000  1.0
  C  C35  1  0.37601000  0.76189000  0.87441000  1.0
  C  C36  1  0.62399000  0.23811000  0.12559000  1.0
  C  C37  1  0.41738000  0.77250000  0.98724000  1.0
  C  C38  1  0.58262000  0.22750000  0.01276000  1.0
  C  C39  1  0.40767000  0.67165000  0.10637000  1.0
  C  C40  1  0.59233000  0.32835000  0.89363000  1.0
  C  C41  1  0.35335000  0.56234000  0.11326000  1.0
  C  C42  1  0.64665000  0.43766000  0.88674000  1.0
  C  C43  1  0.30174000  0.56085000  0.00157000  1.0
  C  C44  1  0.69826000  0.43915000  0.99843000  1.0
  C  C45  1  0.31384000  0.65791000  0.88126000  1.0
  C  C46  1  0.68616000  0.34209000  0.11874000  1.0
  C  C47  1  0.40783000  0.85542000  0.74485000  1.0
  C  C48  1  0.59216000  0.14458000  0.25515000  1.0
  C  C49  1  0.45506000  0.67510000  0.22973000  1.0
  C  C50  1  0.54494000  0.32490000  0.77028000  1.0
  N  N51  1  0.07987000  0.29083000  0.74685000  1.0
  N  N52  1  0.92014000  0.70917000  0.25314000  1.0
  N  N53  1  0.23669000  0.45087000  0.01198000  1.0
  N  N54  1  0.76331000  0.54913000  0.98801000  1.0
  O  O55  1  0.33062000  0.67275000  0.48994000  1.0
  O  O56  1  0.66938000  0.32725000  0.51006000  1.0
  O  O57  1  0.15198000  0.87557000  0.45745000  1.0
  O  O58  1  0.84802000  0.12443000  0.54255000  1.0
  O  O59  1  0.64568000  0.87841000  0.51959000  1.0
  O  O60  1  0.35432000  0.12159000  0.48041000  1.0
  O  O61  1  0.61994000  0.67860000  0.51049000  1.0
  O  O62  1  0.38006000  0.32140000  0.48950000  1.0
  O  O63  1  0.98374000  0.23721000  0.79101000  1.0
  O  O64  1  0.01627000  0.76279000  0.20900000  1.0
  O  O65  1  0.20936000  0.22314000  0.75861000  1.0
  O  O66  1  0.79065000  0.77686000  0.24138000  1.0
  O  O67  1  0.36715000  0.84086000  0.64672000  1.0
  O  O68  1  0.63285000  0.15914000  0.35328000  1.0
  O  O69  1  0.47812000  0.93726000  0.74471000  1.0
  O  O70  1  0.52187000  0.06275000  0.25529000  1.0
  O  O71  1  0.44831000  0.79307000  0.24013000  1.0
  O  O72  1  0.55169000  0.20693000  0.75987000  1.0
  O  O73  1  0.49824000  0.55035000  0.31584000  1.0
  O  O74  1  0.50177000  0.44964000  0.68416000  1.0
  O  O75  1  0.23873000  0.35962000  0.12062000  1.0
  O  O76  1  0.76126000  0.64038000  0.87938000  1.0
  O  O77  1  0.18257000  0.45363000  0.91474000  1.0
  O  O78  1  0.81742000  0.54637000  0.08525000  1.0
  O  O79  1  0.20405000  0.09249000  0.24534000  1.0
  O  O80  1  0.79595000  0.90751000  0.75466000  1.0
