# generated using pymatgen
data_CuH11C13N3O4
_symmetry_space_group_name_H-M   'P 1'
_cell_length_a   10.84200000
_cell_length_b   12.61410000
_cell_length_c   14.19420000
_cell_angle_alpha   89.99970000
_cell_angle_beta   110.06600000
_cell_angle_gamma   90.00000000
_symmetry_Int_Tables_number   1
_chemical_formula_structural   CuH11C13N3O4
_chemical_formula_sum   'Cu4 H44 C52 N12 O16'
_cell_volume   1823.39180660
_cell_formula_units_Z   4
loop_
 _symmetry_equiv_pos_site_id
 _symmetry_equiv_pos_as_xyz
  1  'x, y, z'
loop_
 _atom_site_type_symbol
 _atom_site_label
 _atom_site_symmetry_multiplicity
 _atom_site_fract_x
 _atom_site_fract_y
 _atom_site_fract_z
 _atom_site_occupancy
  Cu  Cu0  1  0.09780000  0.56669000  0.52891000  1.0
  Cu  Cu1  1  0.90223000  0.06666000  0.97110000  1.0
  Cu  Cu2  1  0.90222000  0.43334000  0.47109000  1.0
  Cu  Cu3  1  0.09781000  0.93331000  0.02891000  1.0
  H  H4  1  0.01694000  0.25965000  0.24948000  1.0
  H  H5  1  0.98305000  0.75965000  0.25051000  1.0
  H  H6  1  0.98305000  0.74035000  0.75051000  1.0
  H  H7  1  0.01695000  0.24035000  0.74949000  1.0
  H  H8  1  0.37999000  0.14361000  0.22917000  1.0
  H  H9  1  0.62001000  0.64361000  0.27083000  1.0
  H  H10  1  0.62001000  0.85639000  0.77083000  1.0
  H  H11  1  0.37999000  0.35640000  0.72916000  1.0
  H  H12  1  0.38406000  0.38712000  0.44449000  1.0
  H  H13  1  0.61593000  0.88712000  0.05551000  1.0
  H  H14  1  0.61592000  0.61288000  0.55552000  1.0
  H  H15  1  0.38408000  0.11288000  0.94449000  1.0
  H  H16  1  0.57855000  0.43340000  0.36851000  1.0
  H  H17  1  0.42144000  0.93340000  0.13148000  1.0
  H  H18  1  0.42144000  0.56660000  0.63148000  1.0
  H  H19  1  0.57855000  0.06660000  0.86851000  1.0
  H  H20  1  0.48981000  0.05098000  0.36008000  1.0
  H  H21  1  0.51018000  0.55098000  0.13993000  1.0
  H  H22  1  0.51018000  0.94902000  0.63994000  1.0
  H  H23  1  0.48981000  0.44902000  0.86007000  1.0
  H  H24  1  0.57626000  0.06000000  0.48928000  1.0
  H  H25  1  0.42375000  0.56001000  0.01073000  1.0
  H  H26  1  0.42374000  0.93999000  0.51073000  1.0
  H  H27  1  0.57626000  0.43999000  0.98927000  1.0
  H  H28  1  0.69476000  0.99242000  0.33057000  1.0
  H  H29  1  0.30522000  0.49241000  0.16943000  1.0
  H  H30  1  0.30522000  0.00759000  0.66943000  1.0
  H  H31  1  0.69476000  0.50759000  0.83057000  1.0
  H  H32  1  0.78595000  0.01031000  0.45837000  1.0
  H  H33  1  0.21405000  0.51032000  0.04163000  1.0
  H  H34  1  0.21404000  0.98968000  0.54163000  1.0
  H  H35  1  0.78595000  0.48968000  0.95836000  1.0
  H  H36  1  0.65018000  0.86992000  0.50471000  1.0
  H  H37  1  0.34982000  0.36992000  0.99529000  1.0
  H  H38  1  0.34982000  0.13007000  0.49529000  1.0
  H  H39  1  0.65018000  0.63007000  0.00471000  1.0
  H  H40  1  0.72751000  0.81841000  0.42311000  1.0
  H  H41  1  0.27248000  0.31841000  0.07688000  1.0
  H  H42  1  0.27248000  0.18159000  0.57688000  1.0
  H  H43  1  0.72751000  0.68159000  0.92311000  1.0
  H  H44  1  0.55757000  0.85045000  0.37584000  1.0
  H  H45  1  0.44243000  0.35045000  0.12416000  1.0
  H  H46  1  0.44243000  0.14954000  0.62416000  1.0
  H  H47  1  0.55757000  0.64955000  0.87584000  1.0
  C  C48  1  0.12174000  0.39928000  0.40162000  1.0
  C  C49  1  0.87827000  0.89927000  0.09837000  1.0
  C  C50  1  0.87825000  0.60073000  0.59837000  1.0
  C  C51  1  0.12175000  0.10072000  0.90163000  1.0
  C  C52  1  0.19363000  0.33092000  0.35106000  1.0
  C  C53  1  0.80638000  0.83092000  0.14893000  1.0
  C  C54  1  0.80637000  0.66908000  0.64894000  1.0
  C  C55  1  0.19363000  0.16907000  0.85106000  1.0
  C  C56  1  0.12374000  0.26140000  0.27475000  1.0
  C  C57  1  0.87626000  0.76140000  0.22524000  1.0
  C  C58  1  0.87626000  0.73860000  0.72525000  1.0
  C  C59  1  0.12374000  0.23860000  0.77476000  1.0
  C  C60  1  0.19157000  0.19378000  0.23169000  1.0
  C  C61  1  0.80843000  0.69380000  0.26831000  1.0
  C  C62  1  0.80843000  0.80622000  0.76832000  1.0
  C  C63  1  0.19158000  0.30622000  0.73170000  1.0
  C  C64  1  0.32867000  0.19537000  0.26475000  1.0
  C  C65  1  0.67131000  0.69538000  0.23524000  1.0
  C  C66  1  0.67132000  0.80462000  0.73525000  1.0
  C  C67  1  0.32868000  0.30463000  0.76476000  1.0
  C  C68  1  0.39768000  0.26478000  0.34104000  1.0
  C  C69  1  0.60232000  0.76479000  0.15896000  1.0
  C  C70  1  0.60232000  0.73522000  0.65897000  1.0
  C  C71  1  0.39769000  0.23522000  0.84104000  1.0
  C  C72  1  0.33094000  0.33342000  0.38408000  1.0
  C  C73  1  0.66906000  0.83342000  0.11592000  1.0
  C  C74  1  0.66905000  0.66658000  0.61592000  1.0
  C  C75  1  0.33095000  0.16658000  0.88408000  1.0
  C  C76  1  0.11935000  0.11962000  0.14870000  1.0
  C  C77  1  0.88065000  0.61963000  0.35130000  1.0
  C  C78  1  0.88065000  0.88038000  0.85130000  1.0
  C  C79  1  0.11936000  0.38039000  0.64871000  1.0
  C  C80  1  0.61550000  0.35335000  0.38650000  1.0
  C  C81  1  0.38449000  0.85336000  0.11349000  1.0
  C  C82  1  0.38449000  0.64665000  0.61349000  1.0
  C  C83  1  0.61551000  0.14664000  0.88650000  1.0
  C  C84  1  0.62452000  0.18088000  0.40555000  1.0
  C  C85  1  0.37547000  0.68089000  0.09445000  1.0
  C  C86  1  0.37547000  0.81912000  0.59445000  1.0
  C  C87  1  0.62453000  0.31912000  0.90555000  1.0
  C  C88  1  0.58722000  0.06853000  0.41515000  1.0
  C  C89  1  0.41277000  0.56854000  0.08485000  1.0
  C  C90  1  0.41277000  0.93147000  0.58485000  1.0
  C  C91  1  0.58722000  0.43146000  0.91515000  1.0
  C  C92  1  0.68846000  0.98792000  0.40630000  1.0
  C  C93  1  0.31153000  0.48792000  0.09370000  1.0
  C  C94  1  0.31153000  0.01208000  0.59370000  1.0
  C  C95  1  0.68846000  0.51208000  0.90629000  1.0
  C  C96  1  0.65390000  0.87558000  0.42846000  1.0
  C  C97  1  0.34609000  0.37558000  0.07154000  1.0
  C  C98  1  0.34609000  0.12442000  0.57154000  1.0
  C  C99  1  0.65390000  0.62442000  0.92846000  1.0
  N  N100  1  0.73970000  0.32504000  0.42032000  1.0
  N  N101  1  0.26028000  0.82504000  0.07968000  1.0
  N  N102  1  0.26029000  0.67496000  0.57967000  1.0
  N  N103  1  0.73971000  0.17495000  0.92032000  1.0
  N  N104  1  0.74616000  0.21666000  0.43263000  1.0
  N  N105  1  0.25383000  0.71667000  0.06737000  1.0
  N  N106  1  0.25383000  0.78334000  0.56737000  1.0
  N  N107  1  0.74618000  0.28333000  0.93264000  1.0
  N  N108  1  0.53764000  0.26551000  0.37526000  1.0
  N  N109  1  0.46236000  0.76552000  0.12474000  1.0
  N  N110  1  0.46236000  0.73448000  0.62475000  1.0
  N  N111  1  0.53765000  0.23449000  0.87525000  1.0
  O  O112  1  0.18266000  0.48038000  0.44863000  1.0
  O  O113  1  0.81736000  0.98037000  0.05135000  1.0
  O  O114  1  0.81733000  0.51963000  0.55135000  1.0
  O  O115  1  0.18268000  0.01961000  0.94865000  1.0
  O  O116  1  0.00727000  0.36842000  0.39458000  1.0
  O  O117  1  0.99275000  0.86842000  0.10542000  1.0
  O  O118  1  0.99273000  0.63157000  0.60543000  1.0
  O  O119  1  0.00728000  0.13156000  0.89458000  1.0
  O  O120  1  0.18117000  0.03598000  0.14058000  1.0
  O  O121  1  0.81884000  0.53600000  0.35942000  1.0
  O  O122  1  0.81884000  0.96400000  0.85943000  1.0
  O  O123  1  0.18118000  0.46401000  0.64057000  1.0
  O  O124  1  0.00463000  0.14740000  0.09365000  1.0
  O  O125  1  0.99537000  0.64742000  0.40635000  1.0
  O  O126  1  0.99539000  0.85259000  0.90635000  1.0
  O  O127  1  0.00463000  0.35261000  0.59367000  1.0
