# generated using pymatgen
data_ZnH16C19NO6
_symmetry_space_group_name_H-M   'P 1'
_cell_length_a   10.89880000
_cell_length_b   16.38110000
_cell_length_c   17.85400000
_cell_angle_alpha   84.81610000
_cell_angle_beta   86.87710000
_cell_angle_gamma   87.86410000
_symmetry_Int_Tables_number   1
_chemical_formula_structural   ZnH16C19NO6
_chemical_formula_sum   'Zn2 H32 C38 N2 O12'
_cell_volume   3168.12264627
_cell_formula_units_Z   2
loop_
 _symmetry_equiv_pos_site_id
 _symmetry_equiv_pos_as_xyz
  1  'x, y, z'
loop_
 _atom_site_type_symbol
 _atom_site_label
 _atom_site_symmetry_multiplicity
 _atom_site_fract_x
 _atom_site_fract_y
 _atom_site_fract_z
 _atom_site_occupancy
  Zn  Zn0  1  0.49631000  0.58498000  0.49634000  1.0
  Zn  Zn1  1  0.50492000  0.41536000  0.50229000  1.0
  H  H2  1  0.37936000  0.28715000  0.42939000  1.0
  H  H3  1  0.38212000  0.13585000  0.43112000  1.0
  H  H4  1  0.66385000  0.13174000  0.59562000  1.0
  H  H5  1  0.64708000  0.28056000  0.58503000  1.0
  H  H6  1  0.33624000  0.86840000  0.40440000  1.0
  H  H7  1  0.61770000  0.86430000  0.56909000  1.0
  H  H8  1  0.62117000  0.71299000  0.57039000  1.0
  H  H9  1  0.35353000  0.71956000  0.41472000  1.0
  H  H10  1  0.50672000  0.38257000  0.26168000  1.0
  H  H11  1  0.50658000  0.38929000  0.12338000  1.0
  H  H12  1  0.49086000  0.65525000  0.11806000  1.0
  H  H13  1  0.49132000  0.64461000  0.25360000  1.0
  H  H14  1  0.50914000  0.34498000  0.88136000  1.0
  H  H15  1  0.49339000  0.61092000  0.87560000  1.0
  H  H16  1  0.49347000  0.61745000  0.73737000  1.0
  H  H17  1  0.50893000  0.35533000  0.74592000  1.0
  H  H18  1  0.12515000  0.48531000  0.38378000  1.0
  H  H19  1  0.11589000  0.58814000  0.40668000  1.0
  H  H20  1  0.90133000  0.58768000  0.40145000  1.0
  H  H21  1  0.91165000  0.48430000  0.38003000  1.0
  H  H22  1  0.88173000  0.62106000  0.53677000  1.0
  H  H23  1  0.87501000  0.54204000  0.61067000  1.0
  H  H24  1  0.09677000  0.61982000  0.54282000  1.0
  H  H25  1  0.08872000  0.53952000  0.61541000  1.0
  H  H26  1  0.11670000  0.36959000  0.48875000  1.0
  H  H27  1  0.10216000  0.39205000  0.58327000  1.0
  H  H28  1  0.88771000  0.39249000  0.57899000  1.0
  H  H29  1  0.90230000  0.37050000  0.48424000  1.0
  H  H30  1  0.65582000  0.03190000  0.59186000  1.0
  H  H31  1  0.34420000  0.96820000  0.40820000  1.0
  H  H32  1  0.49121000  0.64735000  0.02983000  1.0
  H  H33  1  0.50883000  0.35290000  0.96948000  1.0
  C  C34  1  0.49851000  0.50803000  0.35107000  1.0
  C  C35  1  0.26024000  0.50023000  0.50433000  1.0
  C  C36  1  0.50229000  0.49100000  0.64796000  1.0
  C  C37  1  0.74069000  0.50147000  0.49561000  1.0
  C  C38  1  0.44071000  0.24898000  0.46516000  1.0
  C  C39  1  0.44274000  0.16414000  0.46648000  1.0
  C  C40  1  0.52294000  0.11595000  0.51347000  1.0
  C  C41  1  0.59745000  0.16047000  0.55683000  1.0
  C  C42  1  0.59004000  0.24549000  0.55212000  1.0
  C  C43  1  0.53274000  0.02605000  0.51936000  1.0
  C  C44  1  0.46718000  0.97410000  0.48077000  1.0
  C  C45  1  0.40271000  0.83969000  0.44315000  1.0
  C  C46  1  0.47707000  0.88420000  0.48661000  1.0
  C  C47  1  0.55729000  0.83601000  0.53359000  1.0
  C  C48  1  0.55970000  0.75118000  0.53470000  1.0
  C  C49  1  0.41045000  0.75469000  0.44767000  1.0
  C  C50  1  0.49837000  0.51294000  0.26696000  1.0
  C  C51  1  0.50284000  0.44185000  0.22870000  1.0
  C  C52  1  0.50287000  0.44578000  0.15067000  1.0
  C  C53  1  0.49842000  0.52202000  0.10633000  1.0
  C  C54  1  0.49414000  0.59312000  0.14638000  1.0
  C  C55  1  0.49417000  0.58891000  0.22439000  1.0
  C  C56  1  0.49812000  0.53099000  0.02372000  1.0
  C  C57  1  0.50186000  0.46932000  0.97554000  1.0
  C  C58  1  0.50590000  0.40707000  0.85297000  1.0
  C  C59  1  0.50160000  0.47824000  0.89292000  1.0
  C  C60  1  0.49716000  0.55437000  0.84838000  1.0
  C  C61  1  0.49730000  0.55814000  0.77032000  1.0
  C  C62  1  0.50190000  0.48696000  0.73214000  1.0
  C  C63  1  0.50599000  0.41113000  0.77497000  1.0
  C  C64  1  0.08097000  0.52667000  0.42320000  1.0
  C  C65  1  0.93888000  0.52652000  0.42026000  1.0
  C  C66  1  0.88060000  0.49955000  0.49910000  1.0
  C  C67  1  0.91872000  0.55957000  0.55479000  1.0
  C  C68  1  0.06037000  0.55862000  0.55807000  1.0
  C  C69  1  0.12013000  0.49885000  0.50382000  1.0
  C  C70  1  0.07254000  0.41251000  0.52653000  1.0
  C  C71  1  0.93096000  0.41293000  0.52371000  1.0
  N  N72  1  0.51276000  0.28948000  0.50699000  1.0
  N  N73  1  0.48793000  0.71073000  0.49267000  1.0
  O  O74  1  0.49519000  0.57578000  0.38136000  1.0
  O  O75  1  0.50198000  0.43659000  0.38578000  1.0
  O  O76  1  0.31892000  0.43142000  0.50713000  1.0
  O  O77  1  0.30877000  0.57013000  0.50072000  1.0
  O  O78  1  0.50629000  0.42294000  0.61831000  1.0
  O  O79  1  0.49868000  0.56215000  0.61244000  1.0
  O  O80  1  0.68527000  0.57146000  0.49128000  1.0
  O  O81  1  0.68908000  0.43281000  0.49709000  1.0
  O  O82  1  0.61583000  0.98958000  0.56816000  1.0
  O  O83  1  0.38410000  0.01054000  0.43194000  1.0
  O  O84  1  0.49365000  0.61029000  0.99018000  1.0
  O  O85  1  0.50636000  0.39001000  0.00910000  1.0
