# generated using pymatgen
data_Zn2H22C27(N4O5)2
_symmetry_space_group_name_H-M   'P 1'
_cell_length_a   9.80826000
_cell_length_b   11.10290000
_cell_length_c   22.23040000
_cell_angle_alpha   89.98410000
_cell_angle_beta   90.32860000
_cell_angle_gamma   89.58300000
_symmetry_Int_Tables_number   1
_chemical_formula_structural   Zn2H22C27(N4O5)2
_chemical_formula_sum   'Zn4 H44 C54 N16 O20'
_cell_volume   2420.78939613
_cell_formula_units_Z   2
loop_
 _symmetry_equiv_pos_site_id
 _symmetry_equiv_pos_as_xyz
  1  'x, y, z'
loop_
 _atom_site_type_symbol
 _atom_site_label
 _atom_site_symmetry_multiplicity
 _atom_site_fract_x
 _atom_site_fract_y
 _atom_site_fract_z
 _atom_site_occupancy
  Zn  Zn0  1  0.35324000  0.49649000  0.50416000  1.0
  Zn  Zn1  1  0.64377000  0.49772000  0.49684000  1.0
  Zn  Zn2  1  0.64887000  0.50632000  0.00781000  1.0
  Zn  Zn3  1  0.35948000  0.51256000  0.00173000  1.0
  H  H4  1  0.87942000  0.59785000  0.36579000  1.0
  H  H5  1  0.86860000  0.72280000  0.41595000  1.0
  H  H6  1  0.12598000  0.72898000  0.42195000  1.0
  H  H7  1  0.13541000  0.60383000  0.37159000  1.0
  H  H8  1  0.82819000  0.87878000  0.52830000  1.0
  H  H9  1  0.80330000  0.88402000  0.44863000  1.0
  H  H10  1  0.80714000  0.10906000  0.45135000  1.0
  H  H11  1  0.82563000  0.10424000  0.53122000  1.0
  H  H12  1  0.40433000  0.30823000  0.13972000  1.0
  H  H13  1  0.31552000  0.13278000  0.19481000  1.0
  H  H14  1  0.36959000  0.31696000  0.36373000  1.0
  H  H15  1  0.29753000  0.13723000  0.30665000  1.0
  H  H16  1  0.19151000  0.42600000  0.81429000  1.0
  H  H17  1  0.19112000  0.58475000  0.80358000  1.0
  H  H18  1  0.18497000  0.55182000  0.69147000  1.0
  H  H19  1  0.19779000  0.39298000  0.70424000  1.0
  H  H20  1  0.14542000  0.60823000  0.13396000  1.0
  H  H21  1  0.12865000  0.73804000  0.08708000  1.0
  H  H22  1  0.87231000  0.72459000  0.09464000  1.0
  H  H23  1  0.88981000  0.59564000  0.14164000  1.0
  H  H24  1  0.20559000  0.88755000  0.95069000  1.0
  H  H25  1  0.18135000  0.89575000  0.03010000  1.0
  H  H26  1  0.17581000  0.12238000  0.02385000  1.0
  H  H27  1  0.20588000  0.11194000  0.94468000  1.0
  H  H28  1  0.23040000  0.38344000  0.59746000  1.0
  H  H29  1  0.07298000  0.34375000  0.62367000  1.0
  H  H30  1  0.75948000  0.31096000  0.55674000  1.0
  H  H31  1  0.91275000  0.26080000  0.58498000  1.0
  H  H32  1  0.24859000  0.20151000  0.49270000  1.0
  H  H33  1  0.17261000  0.06400000  0.48136000  1.0
  H  H34  1  0.25992000  0.78478000  0.52361000  1.0
  H  H35  1  0.18260000  0.92049000  0.53992000  1.0
  H  H36  1  0.74933000  0.52689000  0.64639000  1.0
  H  H37  1  0.82008000  0.58612000  0.71069000  1.0
  H  H38  1  0.75588000  0.53663000  0.85716000  1.0
  H  H39  1  0.83942000  0.49802000  0.79108000  1.0
  H  H40  1  0.76298000  0.33446000  0.93606000  1.0
  H  H41  1  0.90969000  0.32588000  0.89151000  1.0
  H  H42  1  0.24218000  0.38389000  0.91442000  1.0
  H  H43  1  0.11301000  0.28026000  0.91684000  1.0
  H  H44  1  0.75029000  0.21756000  0.02811000  1.0
  H  H45  1  0.81465000  0.08470000  0.05573000  1.0
  H  H46  1  0.75530000  0.79810000  0.01599000  1.0
  H  H47  1  0.83658000  0.93280000  0.00127000  1.0
  C  C48  1  0.50711000  0.73033000  0.50680000  1.0
  C  C49  1  0.48132000  0.51610000  0.38439000  1.0
  C  C50  1  0.49797000  0.25867000  0.49710000  1.0
  C  C51  1  0.50460000  0.48583000  0.62058000  1.0
  C  C52  1  0.50775000  0.74277000  0.00534000  1.0
  C  C53  1  0.49745000  0.51314000  0.12125000  1.0
  C  C54  1  0.50146000  0.27164000  0.00466000  1.0
  C  C55  1  0.50949000  0.51072000  0.88493000  1.0
  C  C56  1  0.92985000  0.55134000  0.46003000  1.0
  C  C57  1  0.06952000  0.42458000  0.54229000  1.0
  C  C58  1  0.06938000  0.55448000  0.46319000  1.0
  C  C59  1  0.92291000  0.41264000  0.53500000  1.0
  C  C60  1  0.92067000  0.63696000  0.40734000  1.0
  C  C61  1  0.08257000  0.64073000  0.41087000  1.0
  C  C62  1  0.49986000  0.86350000  0.50499000  1.0
  C  C63  1  0.49616000  0.12574000  0.50017000  1.0
  C  C64  1  0.61831000  0.93261000  0.49947000  1.0
  C  C65  1  0.37355000  0.05853000  0.50293000  1.0
  C  C66  1  0.61728000  0.05716000  0.49911000  1.0
  C  C67  1  0.37588000  0.92946000  0.50828000  1.0
  C  C68  1  0.77112000  0.92322000  0.49167000  1.0
  C  C69  1  0.77088000  0.06540000  0.49262000  1.0
  C  C70  1  0.49066000  0.51819000  0.18909000  1.0
  C  C71  1  0.44062000  0.41488000  0.22020000  1.0
  C  C72  1  0.52380000  0.61984000  0.22145000  1.0
  C  C73  1  0.39801000  0.31052000  0.18867000  1.0
  C  C74  1  0.34747000  0.21268000  0.21951000  1.0
  C  C75  1  0.47435000  0.52160000  0.31665000  1.0
  C  C76  1  0.51885000  0.62044000  0.28517000  1.0
  C  C77  1  0.42994000  0.41742000  0.28450000  1.0
  C  C78  1  0.37825000  0.31521000  0.31486000  1.0
  C  C79  1  0.33748000  0.21512000  0.28283000  1.0
  C  C80  1  0.51130000  0.51310000  0.81828000  1.0
  C  C81  1  0.50992000  0.49382000  0.68716000  1.0
  C  C82  1  0.39124000  0.50098000  0.78404000  1.0
  C  C83  1  0.63258000  0.51332000  0.71982000  1.0
  C  C84  1  0.39090000  0.48946000  0.72205000  1.0
  C  C85  1  0.63353000  0.52080000  0.78453000  1.0
  C  C86  1  0.23707000  0.49939000  0.78837000  1.0
  C  C87  1  0.23687000  0.48144000  0.71805000  1.0
  C  C88  1  0.07525000  0.56591000  0.04204000  1.0
  C  C89  1  0.93002000  0.42527000  0.96846000  1.0
  C  C90  1  0.93617000  0.55764000  0.04632000  1.0
  C  C91  1  0.07754000  0.43325000  0.96432000  1.0
  C  C92  1  0.08882000  0.64775000  0.09603000  1.0
  C  C93  1  0.92751000  0.63917000  0.10072000  1.0
  C  C94  1  0.51047000  0.87594000  0.00794000  1.0
  C  C95  1  0.50667000  0.13848000  0.00637000  1.0
  C  C96  1  0.39024000  0.94421000  0.00150000  1.0
  C  C97  1  0.62986000  0.07267000  0.01518000  1.0
  C  C98  1  0.38844000  0.06872000  0.00013000  1.0
  C  C99  1  0.63215000  0.94314000  0.01451000  1.0
  C  C100  1  0.23769000  0.93394000  0.99203000  1.0
  C  C101  1  0.23596000  0.07622000  0.98910000  1.0
  N  N102  1  0.85213000  0.48150000  0.49560000  1.0
  N  N103  1  0.14362000  0.49367000  0.50490000  1.0
  N  N104  1  0.15001000  0.50513000  0.00106000  1.0
  N  N105  1  0.85853000  0.48998000  0.00925000  1.0
  N  N106  1  0.13138000  0.36043000  0.58709000  1.0
  N  N107  1  0.85661000  0.33251000  0.57066000  1.0
  N  N108  1  0.24543000  0.11213000  0.50336000  1.0
  N  N109  1  0.24980000  0.87436000  0.51368000  1.0
  N  N110  1  0.75870000  0.52228000  0.69222000  1.0
  N  N111  1  0.75919000  0.53974000  0.81124000  1.0
  N  N112  1  0.86505000  0.34856000  0.93084000  1.0
  N  N113  1  0.13992000  0.36839000  0.91973000  1.0
  N  N114  1  0.75601000  0.12646000  0.02389000  1.0
  N  N115  1  0.75882000  0.88927000  0.02191000  1.0
  N  N116  1  0.57573000  0.72347000  0.31825000  1.0
  N  N117  1  0.54907000  0.73412000  0.18976000  1.0
  O  O118  1  0.39682000  0.67199000  0.51788000  1.0
  O  O119  1  0.62240000  0.68061000  0.49738000  1.0
  O  O120  1  0.59943000  0.49842000  0.40631000  1.0
  O  O121  1  0.36934000  0.52380000  0.41193000  1.0
  O  O122  1  0.61270000  0.31166000  0.50384000  1.0
  O  O123  1  0.38569000  0.31611000  0.48766000  1.0
  O  O124  1  0.38919000  0.46251000  0.59584000  1.0
  O  O125  1  0.61342000  0.50340000  0.59049000  1.0
  O  O126  1  0.61979000  0.68468000  0.01540000  1.0
  O  O127  1  0.39420000  0.69308000  0.99308000  1.0
  O  O128  1  0.38758000  0.53870000  0.09367000  1.0
  O  O129  1  0.60950000  0.47901000  0.09885000  1.0
  O  O130  1  0.38861000  0.32540000  0.01416000  1.0
  O  O131  1  0.61375000  0.32719000  0.99325000  1.0
  O  O132  1  0.62029000  0.53027000  0.91405000  1.0
  O  O133  1  0.39590000  0.48655000  0.91056000  1.0
  O  O134  1  0.51359000  0.75953000  0.36306000  1.0
  O  O135  1  0.68457000  0.76489000  0.29927000  1.0
  O  O136  1  0.62991000  0.73319000  0.14738000  1.0
  O  O137  1  0.48286000  0.82279000  0.20743000  1.0
