# generated using pymatgen
data_AlH7C12NO5F
_symmetry_space_group_name_H-M   'P 1'
_cell_length_a   6.78639000
_cell_length_b   10.99732222
_cell_length_c   17.67980000
_cell_angle_alpha   92.19369317
_cell_angle_beta   100.09100000
_cell_angle_gamma   106.39508771
_symmetry_Int_Tables_number   1
_chemical_formula_structural   AlH7C12NO5F
_chemical_formula_sum   'Al2 H14 C24 N2 O10 F2'
_cell_volume   1240.85881969
_cell_formula_units_Z   2
loop_
 _symmetry_equiv_pos_site_id
 _symmetry_equiv_pos_as_xyz
  1  'x, y, z'
loop_
 _atom_site_type_symbol
 _atom_site_label
 _atom_site_symmetry_multiplicity
 _atom_site_fract_x
 _atom_site_fract_y
 _atom_site_fract_z
 _atom_site_occupancy
  Al  Al0  1  0.00301000  0.50049000  0.50649000  1.0
  Al  Al1  1  0.50352000  0.50115000  0.50674000  1.0
  H  H2  1  0.17841000  0.43635000  0.41019000  1.0
  H  H3  1  0.84674000  0.61833000  0.58818000  1.0
  H  H4  1  0.13417000  0.89080000  0.50114000  1.0
  H  H5  1  0.87171000  0.11532000  0.50822000  1.0
  H  H6  1  0.94416000  0.48838000  0.27296000  1.0
  H  H7  1  0.86998000  0.47813000  0.12921000  1.0
  H  H8  1  0.36660000  0.57653000  0.27849000  1.0
  H  H9  1  0.64147000  0.42720000  0.73223000  1.0
  H  H10  1  0.05798000  0.50710000  0.73838000  1.0
  H  H11  1  0.13309000  0.51682000  0.88235000  1.0
  H  H12  1  0.23326000  0.22161000  0.46755000  1.0
  H  H13  1  0.04785000  0.07544000  0.46604000  1.0
  H  H14  1  0.73948000  0.76907000  0.49350000  1.0
  H  H15  1  0.85545000  0.88117000  0.44114000  1.0
  C  C16  1  0.69548000  0.52633000  0.36999000  1.0
  C  C17  1  0.64766000  0.27248000  0.49343000  1.0
  C  C18  1  0.30905000  0.47403000  0.64135000  1.0
  C  C19  1  0.35782000  0.73002000  0.51213000  1.0
  C  C20  1  0.56562000  0.13289000  0.49079000  1.0
  C  C21  1  0.43518000  0.86751000  0.50139000  1.0
  C  C22  1  0.34799000  0.06827000  0.48219000  1.0
  C  C23  1  0.64727000  0.92866000  0.49640000  1.0
  C  C24  1  0.29348000  0.93839000  0.49506000  1.0
  C  C25  1  0.70732000  0.06115000  0.49854000  1.0
  C  C26  1  0.65975000  0.53102000  0.28470000  1.0
  C  C27  1  0.80237000  0.50557000  0.24228000  1.0
  C  C28  1  0.76093000  0.49940000  0.16237000  1.0
  C  C29  1  0.57467000  0.51873000  0.12198000  1.0
  C  C30  1  0.43838000  0.54850000  0.16653000  1.0
  C  C31  1  0.47697000  0.55466000  0.24618000  1.0
  C  C32  1  0.52441000  0.50599000  0.04076000  1.0
  C  C33  1  0.48102000  0.49140000  0.97041000  1.0
  C  C34  1  0.43077000  0.47926000  0.88917000  1.0
  C  C35  1  0.56836000  0.45186000  0.84440000  1.0
  C  C36  1  0.52979000  0.44659000  0.76479000  1.0
  C  C37  1  0.34531000  0.46853000  0.72661000  1.0
  C  C38  1  0.20125000  0.49165000  0.76918000  1.0
  C  C39  1  0.24315000  0.49727000  0.84909000  1.0
  N  N40  1  0.19429000  0.12503000  0.46152000  1.0
  N  N41  1  0.79595000  0.86443000  0.48999000  1.0
  O  O42  1  0.86525000  0.50571000  0.40201000  1.0
  O  O43  1  0.51216000  0.33478000  0.48395000  1.0
  O  O44  1  0.45254000  0.46036000  0.60687000  1.0
  O  O45  1  0.16153000  0.67824000  0.50616000  1.0
  O  O46  1  0.13998000  0.49555000  0.60955000  1.0
  O  O47  1  0.49651000  0.67067000  0.52779000  1.0
  O  O48  1  0.55099000  0.54036000  0.40405000  1.0
  O  O49  1  0.84541000  0.32470000  0.50429000  1.0
  O  O50  1  0.21121000  0.44903000  0.46611000  1.0
  O  O51  1  0.79546000  0.55479000  0.54431000  1.0
  F  F52  1  0.25949000  0.56968000  0.12922000  1.0
  F  F53  1  0.74859000  0.43214000  0.88161000  1.0
