# generated using pymatgen
data_Zn2H13C24O8F
_symmetry_space_group_name_H-M   'P 1'
_cell_length_a   6.78822000
_cell_length_b   10.86060000
_cell_length_c   34.98570000
_cell_angle_alpha   89.99140000
_cell_angle_beta   90.31070000
_cell_angle_gamma   89.58720000
_symmetry_Int_Tables_number   1
_chemical_formula_structural   Zn2H13C24O8F
_chemical_formula_sum   'Zn4 H26 C48 O16 F2'
_cell_volume   2579.18580830
_cell_formula_units_Z   2
loop_
 _symmetry_equiv_pos_site_id
 _symmetry_equiv_pos_as_xyz
  1  'x, y, z'
loop_
 _atom_site_type_symbol
 _atom_site_label
 _atom_site_symmetry_multiplicity
 _atom_site_fract_x
 _atom_site_fract_y
 _atom_site_fract_z
 _atom_site_occupancy
  Zn  Zn0  1  0.29021000  0.00396000  0.49968000  1.0
  Zn  Zn1  1  0.68650000  0.99978000  0.50015000  1.0
  Zn  Zn2  1  0.80369000  0.99684000  0.00030000  1.0
  Zn  Zn3  1  0.40730000  0.99619000  0.99985000  1.0
  H  H4  1  0.22411000  0.99600000  0.12434000  1.0
  H  H5  1  0.25655000  0.99656000  0.19498000  1.0
  H  H6  1  0.88928000  0.99519000  0.18432000  1.0
  H  H7  1  0.85346000  0.99474000  0.11340000  1.0
  H  H8  1  0.19509000  0.99721000  0.31663000  1.0
  H  H9  1  0.82703000  0.99610000  0.30429000  1.0
  H  H10  1  0.86474000  0.99737000  0.37481000  1.0
  H  H11  1  0.23622000  0.99881000  0.38740000  1.0
  H  H12  1  0.76524000  0.99643000  0.24457000  1.0
  H  H13  1  0.31630000  0.99572000  0.25570000  1.0
  H  H14  1  0.22488000  0.99531000  0.87503000  1.0
  H  H15  1  0.25714000  0.99583000  0.80447000  1.0
  H  H16  1  0.88988000  0.99583000  0.81637000  1.0
  H  H17  1  0.85429000  0.99536000  0.88722000  1.0
  H  H18  1  0.19527000  0.99671000  0.68273000  1.0
  H  H19  1  0.82731000  0.99531000  0.69620000  1.0
  H  H20  1  0.86436000  0.99669000  0.62574000  1.0
  H  H21  1  0.23574000  0.99838000  0.61201000  1.0
  H  H22  1  0.76574000  0.99673000  0.75587000  1.0
  H  H23  1  0.31679000  0.99478000  0.74385000  1.0
  H  H24  1  0.09010000  0.61460000  0.49874000  1.0
  H  H25  1  0.72376000  0.62151000  0.50074000  1.0
  H  H26  1  0.10248000  0.38373000  0.49885000  1.0
  H  H27  1  0.00661000  0.60607000  0.00016000  1.0
  H  H28  1  0.37288000  0.61763000  0.00068000  1.0
  H  H29  1  0.99515000  0.37530000  0.00015000  1.0
  C  C30  1  0.40659000  0.76991000  0.49976000  1.0
  C  C31  1  0.56590000  0.99925000  0.42795000  1.0
  C  C32  1  0.41707000  0.23494000  0.49986000  1.0
  C  C33  1  0.56537000  0.99884000  0.57206000  1.0
  C  C34  1  0.68879000  0.76376000  0.00027000  1.0
  C  C35  1  0.52605000  0.99522000  0.07202000  1.0
  C  C36  1  0.68047000  0.22880000  0.00023000  1.0
  C  C37  1  0.52685000  0.99520000  0.92795000  1.0
  C  C38  1  0.53708000  0.99532000  0.11452000  1.0
  C  C39  1  0.36923000  0.99580000  0.13781000  1.0
  C  C40  1  0.38871000  0.99610000  0.17739000  1.0
  C  C41  1  0.57642000  0.99586000  0.19505000  1.0
  C  C42  1  0.74305000  0.99538000  0.17118000  1.0
  C  C43  1  0.72436000  0.99510000  0.13173000  1.0
  C  C44  1  0.60974000  0.99614000  0.23617000  1.0
  C  C45  1  0.47203000  0.99606000  0.26396000  1.0
  C  C46  1  0.34234000  0.99729000  0.32933000  1.0
  C  C47  1  0.50726000  0.99661000  0.30503000  1.0
  C  C48  1  0.69617000  0.99667000  0.32222000  1.0
  C  C49  1  0.71863000  0.99736000  0.36174000  1.0
  C  C50  1  0.55246000  0.99817000  0.38547000  1.0
  C  C51  1  0.36401000  0.99811000  0.36874000  1.0
  C  C52  1  0.53788000  0.99527000  0.88548000  1.0
  C  C53  1  0.36997000  0.99536000  0.86184000  1.0
  C  C54  1  0.38938000  0.99566000  0.82231000  1.0
  C  C55  1  0.57705000  0.99575000  0.80501000  1.0
  C  C56  1  0.74370000  0.99568000  0.82923000  1.0
  C  C57  1  0.72512000  0.99540000  0.86864000  1.0
  C  C58  1  0.61026000  0.99604000  0.76396000  1.0
  C  C59  1  0.47247000  0.99549000  0.73589000  1.0
  C  C60  1  0.34240000  0.99674000  0.67027000  1.0
  C  C61  1  0.50749000  0.99599000  0.69488000  1.0
  C  C62  1  0.69627000  0.99595000  0.67803000  1.0
  C  C63  1  0.71838000  0.99666000  0.63856000  1.0
  C  C64  1  0.55204000  0.99761000  0.61452000  1.0
  C  C65  1  0.36371000  0.99761000  0.63091000  1.0
  C  C66  1  0.41691000  0.37237000  0.49983000  1.0
  C  C67  1  0.40571000  0.63228000  0.49973000  1.0
  C  C68  1  0.59024000  0.44250000  0.50034000  1.0
  C  C69  1  0.23015000  0.56524000  0.49920000  1.0
  C  C70  1  0.58680000  0.57006000  0.50029000  1.0
  C  C71  1  0.23708000  0.43732000  0.49925000  1.0
  C  C72  1  0.68071000  0.36623000  0.00035000  1.0
  C  C73  1  0.69082000  0.62610000  0.00040000  1.0
  C  C74  1  0.50712000  0.43766000  0.00055000  1.0
  C  C75  1  0.86673000  0.55777000  0.00027000  1.0
  C  C76  1  0.51005000  0.56516000  0.00058000  1.0
  C  C77  1  0.86031000  0.42986000  0.00025000  1.0
  O  O78  1  0.23892000  0.82672000  0.49961000  1.0
  O  O79  1  0.57385000  0.82149000  0.49994000  1.0
  O  O80  1  0.73624000  0.99763000  0.44459000  1.0
  O  O81  1  0.40248000  0.00169000  0.44558000  1.0
  O  O82  1  0.58172000  0.17910000  0.50002000  1.0
  O  O83  1  0.24726000  0.18186000  0.49968000  1.0
  O  O84  1  0.40201000  0.00136000  0.55407000  1.0
  O  O85  1  0.73576000  0.99734000  0.55580000  1.0
  O  O86  1  0.85610000  0.81953000  0.00041000  1.0
  O  O87  1  0.52131000  0.81653000  0.00002000  1.0
  O  O88  1  0.35619000  0.99477000  0.05517000  1.0
  O  O89  1  0.69007000  0.99565000  0.05460000  1.0
  O  O90  1  0.51585000  0.17443000  0.99999000  1.0
  O  O91  1  0.85012000  0.17391000  0.00037000  1.0
  O  O92  1  0.69083000  0.99568000  0.94573000  1.0
  O  O93  1  0.35692000  0.99471000  0.94443000  1.0
  F  F94  1  0.77046000  0.38759000  0.50099000  1.0
  F  F95  1  0.32703000  0.38420000  0.00074000  1.0
