# generated using pymatgen
data_AgH8AuC12SCl5O2F3
_symmetry_space_group_name_H-M   'P 1'
_cell_length_a   8.61377000
_cell_length_b   9.49086000
_cell_length_c   12.18050000
_cell_angle_alpha   77.84380000
_cell_angle_beta   73.39520000
_cell_angle_gamma   82.80760000
_symmetry_Int_Tables_number   1
_chemical_formula_structural   AgH8AuC12SCl5O2F3
_chemical_formula_sum   'Ag2 H16 Au2 C24 S2 Cl10 O4 F6'
_cell_volume   930.60877750
_cell_formula_units_Z   2
loop_
 _symmetry_equiv_pos_site_id
 _symmetry_equiv_pos_as_xyz
  1  'x, y, z'
loop_
 _atom_site_type_symbol
 _atom_site_label
 _atom_site_symmetry_multiplicity
 _atom_site_fract_x
 _atom_site_fract_y
 _atom_site_fract_z
 _atom_site_occupancy
  Ag  Ag0  1  0.81930000  0.01241000  0.52212000  1.0
  Ag  Ag1  1  0.18071000  0.98759000  0.47788000  1.0
  H  H2  1  0.63826000  0.29778000  0.68123000  1.0
  H  H3  1  0.36174000  0.70223000  0.31877000  1.0
  H  H4  1  0.42399000  0.33462000  0.70417000  1.0
  H  H5  1  0.57600000  0.66537000  0.29583000  1.0
  H  H6  1  0.60103000  0.09851000  0.84848000  1.0
  H  H7  1  0.39897000  0.90149000  0.15152000  1.0
  H  H8  1  0.44490000  0.22923000  0.90003000  1.0
  H  H9  1  0.55510000  0.77077000  0.09997000  1.0
  H  H10  1  0.24489000  0.11199000  0.84170000  1.0
  H  H11  1  0.75511000  0.88801000  0.15830000  1.0
  H  H12  1  0.34489000  0.97129000  0.92267000  1.0
  H  H13  1  0.65511000  0.02871000  0.07733000  1.0
  H  H14  1  0.33478000  0.93528000  0.71173000  1.0
  H  H15  1  0.66522000  0.06472000  0.28827000  1.0
  H  H16  1  0.52711000  0.89991000  0.74602000  1.0
  H  H17  1  0.47288000  0.10009000  0.25398000  1.0
  Au  Au18  1  0.34703000  0.23097000  0.50197000  1.0
  Au  Au19  1  0.65297000  0.76903000  0.49803000  1.0
  C  C20  1  0.20856000  0.33745000  0.39581000  1.0
  C  C21  1  0.79144000  0.66255000  0.60419000  1.0
  C  C22  1  0.03861000  0.34949000  0.43498000  1.0
  C  C23  1  0.96139000  0.65051000  0.56502000  1.0
  C  C24  1  0.93948000  0.41821000  0.36305000  1.0
  C  C25  1  0.06051000  0.58179000  0.63695000  1.0
  C  C26  1  0.01260000  0.48280000  0.24754000  1.0
  C  C27  1  0.98740000  0.51720000  0.75247000  1.0
  C  C28  1  0.18311000  0.47787000  0.20632000  1.0
  C  C29  1  0.81688000  0.52213000  0.79368000  1.0
  C  C30  1  0.27763000  0.40427000  0.28046000  1.0
  C  C31  1  0.72237000  0.59574000  0.71954000  1.0
  C  C32  1  0.52078000  0.24999000  0.71273000  1.0
  C  C33  1  0.47922000  0.75001000  0.28727000  1.0
  C  C34  1  0.48827000  0.15866000  0.83502000  1.0
  C  C35  1  0.51173000  0.84134000  0.16498000  1.0
  C  C36  1  0.36319000  0.05345000  0.84267000  1.0
  C  C37  1  0.63681000  0.94655000  0.15733000  1.0
  C  C38  1  0.42744000  0.98122000  0.73643000  1.0
  C  C39  1  0.57256000  0.01878000  0.26357000  1.0
  C  C40  1  0.03231000  0.08978000  0.26628000  1.0
  C  C41  1  0.96767000  0.91022000  0.73372000  1.0
  C  C42  1  0.04780000  0.12239000  0.13324000  1.0
  C  C43  1  0.95220000  0.87761000  0.86676000  1.0
  S  S44  1  0.52007000  0.12374000  0.61613000  1.0
  S  S45  1  0.47993000  0.87626000  0.38386000  1.0
  Cl  Cl46  1  0.94697000  0.27446000  0.57845000  1.0
  Cl  Cl47  1  0.05303000  0.72554000  0.42156000  1.0
  Cl  Cl48  1  0.73171000  0.42312000  0.41356000  1.0
  Cl  Cl49  1  0.26829000  0.57688000  0.58645000  1.0
  Cl  Cl50  1  0.89565000  0.56880000  0.15751000  1.0
  Cl  Cl51  1  0.10435000  0.43120000  0.84249000  1.0
  Cl  Cl52  1  0.27329000  0.56055000  0.06692000  1.0
  Cl  Cl53  1  0.72670000  0.43946000  0.93308000  1.0
  Cl  Cl54  1  0.48685000  0.39793000  0.22711000  1.0
  Cl  Cl55  1  0.51314000  0.60207000  0.77289000  1.0
  O  O56  1  0.88905000  0.09275000  0.33094000  1.0
  O  O57  1  0.11096000  0.90725000  0.66906000  1.0
  O  O58  1  0.16592000  0.05866000  0.29119000  1.0
  O  O59  1  0.83410000  0.94133000  0.70881000  1.0
  F  F60  1  0.07648000  0.99408000  0.09379000  1.0
  F  F61  1  0.92352000  0.00593000  0.90621000  1.0
  F  F62  1  0.91246000  0.19088000  0.10582000  1.0
  F  F63  1  0.08754000  0.80912000  0.89418000  1.0
  F  F64  1  0.17443000  0.20484000  0.07244000  1.0
  F  F65  1  0.82556000  0.79516000  0.92756000  1.0
