# generated using pymatgen
data_Cu2H8C7(IN2)2
_symmetry_space_group_name_H-M   'P 1'
_cell_length_a   16.80500000
_cell_length_b   19.36060000
_cell_length_c   19.36050000
_cell_angle_alpha   111.98300000
_cell_angle_beta   106.81800000
_cell_angle_gamma   106.81800000
_symmetry_Int_Tables_number   1
_chemical_formula_structural   Cu2H8C7(IN2)2
_chemical_formula_sum   'Cu24 H96 C84 I24 N48'
_cell_volume   4998.81472609
_cell_formula_units_Z   12
loop_
 _symmetry_equiv_pos_site_id
 _symmetry_equiv_pos_as_xyz
  1  'x, y, z'
loop_
 _atom_site_type_symbol
 _atom_site_label
 _atom_site_symmetry_multiplicity
 _atom_site_fract_x
 _atom_site_fract_y
 _atom_site_fract_z
 _atom_site_occupancy
  Cu  Cu0  1  0.42375000  0.47133000  0.87232000  1.0
  Cu  Cu1  1  0.95249000  0.40122000  0.52864000  1.0
  Cu  Cu2  1  0.55120000  0.12731000  0.59861000  1.0
  Cu  Cu3  1  0.05119000  0.59862000  0.12732000  1.0
  Cu  Cu4  1  0.92375000  0.87232000  0.47132000  1.0
  Cu  Cu5  1  0.45249000  0.52865000  0.40123000  1.0
  Cu  Cu6  1  0.26802000  0.40144000  0.87180000  1.0
  Cu  Cu7  1  0.86673000  0.47053000  0.59868000  1.0
  Cu  Cu8  1  0.39611000  0.12798000  0.52949000  1.0
  Cu  Cu9  1  0.89610000  0.52949000  0.12798000  1.0
  Cu  Cu10  1  0.76801000  0.87180000  0.40144000  1.0
  Cu  Cu11  1  0.36672000  0.59868000  0.47053000  1.0
  Cu  Cu12  1  0.42198000  0.43353000  0.98392000  1.0
  Cu  Cu13  1  0.98801000  0.55043000  0.56624000  1.0
  Cu  Cu14  1  0.43746000  0.01567000  0.44952000  1.0
  Cu  Cu15  1  0.93747000  0.44952000  0.01567000  1.0
  Cu  Cu16  1  0.92197000  0.98392000  0.43353000  1.0
  Cu  Cu17  1  0.48801000  0.56625000  0.55043000  1.0
  Cu  Cu18  1  0.38242000  0.54997000  0.98546000  1.0
  Cu  Cu19  1  0.83190000  0.43555000  0.45007000  1.0
  Cu  Cu20  1  0.39650000  0.01439000  0.56453000  1.0
  Cu  Cu21  1  0.89650000  0.56453000  0.01438000  1.0
  Cu  Cu22  1  0.88242000  0.98547000  0.54997000  1.0
  Cu  Cu23  1  0.33190000  0.45007000  0.43556000  1.0
  H  H24  1  0.44731000  0.53259000  0.74397000  1.0
  H  H25  1  0.91486000  0.21177000  0.46760000  1.0
  H  H26  1  0.70263000  0.25567000  0.78796000  1.0
  H  H27  1  0.20264000  0.78797000  0.25567000  1.0
  H  H28  1  0.94731000  0.74398000  0.53258000  1.0
  H  H29  1  0.41486000  0.46761000  0.21177000  1.0
  H  H30  1  0.54200000  0.37703000  0.81154000  1.0
  H  H31  1  0.16524000  0.43477000  0.62301000  1.0
  H  H32  1  0.73052000  0.18847000  0.56519000  1.0
  H  H33  1  0.23050000  0.56519000  0.18848000  1.0
  H  H34  1  0.04200000  0.81154000  0.37701000  1.0
  H  H35  1  0.66524000  0.62301000  0.43477000  1.0
  H  H36  1  0.49452000  0.35781000  0.26128000  1.0
  H  H37  1  0.13653000  0.90320000  0.64194000  1.0
  H  H38  1  0.23394000  0.73867000  0.09675000  1.0
  H  H39  1  0.73395000  0.09675000  0.73868000  1.0
  H  H40  1  0.99452000  0.26128000  0.35781000  1.0
  H  H41  1  0.63653000  0.64195000  0.90321000  1.0
  H  H42  1  0.68411000  0.36433000  0.11040000  1.0
  H  H43  1  0.31946000  0.74575000  0.63569000  1.0
  H  H44  1  0.57400000  0.88979000  0.25450000  1.0
  H  H45  1  0.07400000  0.25450000  0.88979000  1.0
  H  H46  1  0.18411000  0.11040000  0.36434000  1.0
  H  H47  1  0.81946000  0.63568000  0.74575000  1.0
  H  H48  1  0.52634000  0.46891000  0.64307000  1.0
  H  H49  1  0.05745000  0.17443000  0.53117000  1.0
  H  H50  1  0.88254000  0.35688000  0.82559000  1.0
  H  H51  1  0.38254000  0.82559000  0.35688000  1.0
  H  H52  1  0.02633000  0.64306000  0.46889000  1.0
  H  H53  1  0.55745000  0.53117000  0.17443000  1.0
  H  H54  1  0.76355000  0.46178000  0.82474000  1.0
  H  H55  1  0.30218000  0.36310000  0.53824000  1.0
  H  H56  1  0.93872000  0.17545000  0.63696000  1.0
  H  H57  1  0.43870000  0.63694000  0.17544000  1.0
  H  H58  1  0.26354000  0.82473000  0.46178000  1.0
  H  H59  1  0.80218000  0.53823000  0.36309000  1.0
  H  H60  1  0.54502000  0.32138000  0.61310000  1.0
  H  H61  1  0.22380000  0.29207000  0.67871000  1.0
  H  H62  1  0.93167000  0.38701000  0.70833000  1.0
  H  H63  1  0.43166000  0.70832000  0.38701000  1.0
  H  H64  1  0.04500000  0.61308000  0.32137000  1.0
  H  H65  1  0.72380000  0.67870000  0.29206000  1.0
  H  H66  1  0.59286000  0.31968000  0.70667000  1.0
  H  H67  1  0.27332000  0.38722000  0.68020000  1.0
  H  H68  1  0.88611000  0.29354000  0.61306000  1.0
  H  H69  1  0.38610000  0.61304000  0.29353000  1.0
  H  H70  1  0.09285000  0.70666000  0.31966000  1.0
  H  H71  1  0.77333000  0.68020000  0.38722000  1.0
  H  H72  1  0.47061000  0.23372000  0.12054000  1.0
  H  H73  1  0.23691000  0.88666000  0.76625000  1.0
  H  H74  1  0.35056000  0.87950000  0.11344000  1.0
  H  H75  1  0.85056000  0.11344000  0.87950000  1.0
  H  H76  1  0.97060000  0.12054000  0.23372000  1.0
  H  H77  1  0.73691000  0.76625000  0.88666000  1.0
  H  H78  1  0.57441000  0.23141000  0.11523000  1.0
  H  H79  1  0.34281000  0.88346000  0.76847000  1.0
  H  H80  1  0.45986000  0.88517000  0.11680000  1.0
  H  H81  1  0.95986000  0.11680000  0.88517000  1.0
  H  H82  1  0.07441000  0.11523000  0.23141000  1.0
  H  H83  1  0.84281000  0.76846000  0.88347000  1.0
  H  H84  1  0.72830000  0.32090000  0.24725000  1.0
  H  H85  1  0.40744000  0.92629000  0.67928000  1.0
  H  H86  1  0.48189000  0.75311000  0.07396000  1.0
  H  H87  1  0.98189000  0.07397000  0.75311000  1.0
  H  H88  1  0.22830000  0.24725000  0.32090000  1.0
  H  H89  1  0.90744000  0.67927000  0.92629000  1.0
  H  H90  1  0.40561000  0.31587000  0.06793000  1.0
  H  H91  1  0.08932000  0.75200000  0.68383000  1.0
  H  H92  1  0.33758000  0.93173000  0.24800000  1.0
  H  H93  1  0.83758000  0.24800000  0.93172000  1.0
  H  H94  1  0.90562000  0.06794000  0.31587000  1.0
  H  H95  1  0.58932000  0.68383000  0.75200000  1.0
  H  H96  1  0.62700000  0.45195000  0.03878000  1.0
  H  H97  1  0.17464000  0.58663000  0.54795000  1.0
  H  H98  1  0.58799000  0.96104000  0.41356000  1.0
  H  H99  1  0.08799000  0.41355000  0.96104000  1.0
  H  H100  1  0.12700000  0.03878000  0.45195000  1.0
  H  H101  1  0.67465000  0.54795000  0.58664000  1.0
  H  H102  1  0.90635000  0.52493000  0.78736000  1.0
  H  H103  1  0.38168000  0.26235000  0.47522000  1.0
  H  H104  1  0.11889000  0.21285000  0.73728000  1.0
  H  H105  1  0.61887000  0.73727000  0.21284000  1.0
  H  H106  1  0.40635000  0.78737000  0.52493000  1.0
  H  H107  1  0.88168000  0.47522000  0.26235000  1.0
  H  H108  1  0.65354000  0.37923000  0.56603000  1.0
  H  H109  1  0.27411000  0.18684000  0.62074000  1.0
  H  H110  1  0.08730000  0.43414000  0.81326000  1.0
  H  H111  1  0.58729000  0.81325000  0.43413000  1.0
  H  H112  1  0.15354000  0.56603000  0.37922000  1.0
  H  H113  1  0.77412000  0.62075000  0.18685000  1.0
  H  H114  1  0.64394000  0.44945000  0.41820000  1.0
  H  H115  1  0.19463000  0.96858000  0.55045000  1.0
  H  H116  1  0.22661000  0.58179000  0.03125000  1.0
  H  H117  1  0.72661000  0.03126000  0.58179000  1.0
  H  H118  1  0.14394000  0.41821000  0.44946000  1.0
  H  H119  1  0.69463000  0.55045000  0.96859000  1.0
  C  C120  1  0.48108000  0.49264000  0.74463000  1.0
  C  C121  1  0.98859000  0.25234000  0.50749000  1.0
  C  C122  1  0.73591000  0.25506000  0.74748000  1.0
  C  C123  1  0.23591000  0.74749000  0.25506000  1.0
  C  C124  1  0.98108000  0.74463000  0.49263000  1.0
  C  C125  1  0.48859000  0.50749000  0.25235000  1.0
  C  C126  1  0.52834000  0.41300000  0.78210000  1.0
  C  C127  1  0.11553000  0.36939000  0.58708000  1.0
  C  C128  1  0.74602000  0.21791000  0.63054000  1.0
  C  C129  1  0.24602000  0.63054000  0.21792000  1.0
  C  C130  1  0.02834000  0.78209000  0.41298000  1.0
  C  C131  1  0.61553000  0.58708000  0.36939000  1.0
  C  C132  1  0.56449000  0.36365000  0.28167000  1.0
  C  C133  1  0.20076000  0.91782000  0.63624000  1.0
  C  C134  1  0.28358000  0.71836000  0.08219000  1.0
  C  C135  1  0.78357000  0.08219000  0.71836000  1.0
  C  C136  1  0.06449000  0.28168000  0.36365000  1.0
  C  C137  1  0.70076000  0.63624000  0.91782000  1.0
  C  C138  1  0.61842000  0.36711000  0.09077000  1.0
  C  C139  1  0.25096000  0.72338000  0.63284000  1.0
  C  C140  1  0.52789000  0.90942000  0.27681000  1.0
  C  C141  1  0.02789000  0.27680000  0.90942000  1.0
  C  C142  1  0.11842000  0.09077000  0.36711000  1.0
  C  C143  1  0.75097000  0.63284000  0.72339000  1.0
  C  C144  1  0.51993000  0.46189000  0.69445000  1.0
  C  C145  1  0.05814000  0.23286000  0.53823000  1.0
  C  C146  1  0.82493000  0.30544000  0.76712000  1.0
  C  C147  1  0.32493000  0.76712000  0.30544000  1.0
  C  C148  1  0.01993000  0.69444000  0.46187000  1.0
  C  C149  1  0.55814000  0.53823000  0.23286000  1.0
  C  C150  1  0.76262000  0.45642000  0.76671000  1.0
  C  C151  1  0.30648000  0.31040000  0.54364000  1.0
  C  C152  1  0.99579000  0.23348000  0.68963000  1.0
  C  C153  1  0.49578000  0.68962000  0.23347000  1.0
  C  C154  1  0.26261000  0.76670000  0.45642000  1.0
  C  C155  1  0.80648000  0.54364000  0.31040000  1.0
  C  C156  1  0.58995000  0.36081000  0.68046000  1.0
  C  C157  1  0.22927000  0.31987000  0.63918000  1.0
  C  C158  1  0.90927000  0.31967000  0.68036000  1.0
  C  C159  1  0.40927000  0.68035000  0.31967000  1.0
  C  C160  1  0.08994000  0.68044000  0.36080000  1.0
  C  C161  1  0.72927000  0.63917000  0.31987000  1.0
  C  C162  1  0.54315000  0.27216000  0.13785000  1.0
  C  C163  1  0.27084000  0.86542000  0.72770000  1.0
  C  C164  1  0.40583000  0.86228000  0.13469000  1.0
  C  C165  1  0.90583000  0.13469000  0.86228000  1.0
  C  C166  1  0.04315000  0.13786000  0.27216000  1.0
  C  C167  1  0.77084000  0.72770000  0.86543000  1.0
  C  C168  1  0.68597000  0.34356000  0.27338000  1.0
  C  C169  1  0.34236000  0.92958000  0.65641000  1.0
  C  C170  1  0.41343000  0.72686000  0.07049000  1.0
  C  C171  1  0.91344000  0.07049000  0.72686000  1.0
  C  C172  1  0.18597000  0.27338000  0.34356000  1.0
  C  C173  1  0.84236000  0.65640000  0.92958000  1.0
  C  C174  1  0.47285000  0.34109000  0.06888000  1.0
  C  C175  1  0.13136000  0.72769000  0.65869000  1.0
  C  C176  1  0.40392000  0.93090000  0.27237000  1.0
  C  C177  1  0.90392000  0.27236000  0.93089000  1.0
  C  C178  1  0.97285000  0.06889000  0.34110000  1.0
  C  C179  1  0.63137000  0.65869000  0.72770000  1.0
  C  C180  1  0.58953000  0.41061000  0.05584000  1.0
  C  C181  1  0.17846000  0.64501000  0.58925000  1.0
  C  C182  1  0.53361000  0.94407000  0.35513000  1.0
  C  C183  1  0.03361000  0.35513000  0.94407000  1.0
  C  C184  1  0.08953000  0.05584000  0.41061000  1.0
  C  C185  1  0.67847000  0.58925000  0.64501000  1.0
  C  C186  1  0.83222000  0.48700000  0.74719000  1.0
  C  C187  1  0.34542000  0.26020000  0.51312000  1.0
  C  C188  1  0.08492000  0.25303000  0.73970000  1.0
  C  C189  1  0.58490000  0.73969000  0.25302000  1.0
  C  C190  1  0.33222000  0.74719000  0.48700000  1.0
  C  C191  1  0.84542000  0.51312000  0.26020000  1.0
  C  C192  1  0.70401000  0.41248000  0.63103000  1.0
  C  C193  1  0.29148000  0.21861000  0.58755000  1.0
  C  C194  1  0.07277000  0.36914000  0.78145000  1.0
  C  C195  1  0.57276000  0.78144000  0.36913000  1.0
  C  C196  1  0.20401000  0.63103000  0.41248000  1.0
  C  C197  1  0.79148000  0.58755000  0.21861000  1.0
  C  C198  1  0.63915000  0.40916000  0.35893000  1.0
  C  C199  1  0.23004000  0.94961000  0.59079000  1.0
  C  C200  1  0.28103000  0.64113000  0.05030000  1.0
  C  C201  1  0.78103000  0.05030000  0.64113000  1.0
  C  C202  1  0.13915000  0.35894000  0.40916000  1.0
  C  C203  1  0.73005000  0.59079000  0.94961000  1.0
  I  I204  1  0.30388000  0.52901000  0.82955000  1.0
  I  I205  1  0.77489000  0.30066000  0.47109000  1.0
  I  I206  1  0.47417000  0.17039000  0.69924000  1.0
  I  I207  1  0.97417000  0.69925000  0.17038000  1.0
  I  I208  1  0.80388000  0.82955000  0.52900000  1.0
  I  I209  1  0.27489000  0.47108000  0.30066000  1.0
  I  I210  1  0.34551000  0.30086000  0.82795000  1.0
  I  I211  1  0.04469000  0.52738000  0.69919000  1.0
  I  I212  1  0.51726000  0.17166000  0.47261000  1.0
  I  I213  1  0.01726000  0.47261000  0.17166000  1.0
  I  I214  1  0.84549000  0.82794000  0.30085000  1.0
  I  I215  1  0.54469000  0.69919000  0.52738000  1.0
  I  I216  1  0.29346000  0.44542000  0.03429000  1.0
  I  I217  1  0.84771000  0.58897000  0.55445000  1.0
  I  I218  1  0.25870000  0.96538000  0.41100000  1.0
  I  I219  1  0.75870000  0.41100000  0.96538000  1.0
  I  I220  1  0.79346000  0.03429000  0.44542000  1.0
  I  I221  1  0.34771000  0.55446000  0.58897000  1.0
  I  I222  1  0.56038000  0.58815000  0.03661000  1.0
  I  I223  1  0.97164000  0.44820000  0.41161000  1.0
  I  I224  1  0.52362000  0.96342000  0.55187000  1.0
  I  I225  1  0.02362000  0.55186000  0.96342000  1.0
  I  I226  1  0.06038000  0.03663000  0.58815000  1.0
  I  I227  1  0.47164000  0.41161000  0.44820000  1.0
  N  N228  1  0.48606000  0.46118000  0.79855000  1.0
  N  N229  1  0.02507000  0.33772000  0.53893000  1.0
  N  N230  1  0.68718000  0.20121000  0.66210000  1.0
  N  N231  1  0.18718000  0.66210000  0.20121000  1.0
  N  N232  1  0.98607000  0.79855000  0.46116000  1.0
  N  N233  1  0.52507000  0.53893000  0.33772000  1.0
  N  N234  1  0.79490000  0.45868000  0.66233000  1.0
  N  N235  1  0.33620000  0.20363000  0.54140000  1.0
  N  N236  1  0.13242000  0.33786000  0.79628000  1.0
  N  N237  1  0.63240000  0.79627000  0.33785000  1.0
  N  N238  1  0.29490000  0.66233000  0.45868000  1.0
  N  N239  1  0.83620000  0.54139000  0.20363000  1.0
  N  N240  1  0.49896000  0.39374000  0.04250000  1.0
  N  N241  1  0.10475000  0.64865000  0.60603000  1.0
  N  N242  1  0.45623000  0.95720000  0.35141000  1.0
  N  N243  1  0.95623000  0.35141000  0.95720000  1.0
  N  N244  1  0.99896000  0.04251000  0.39375000  1.0
  N  N245  1  0.60476000  0.60603000  0.64866000  1.0
  N  N246  1  0.54985000  0.41174000  0.71906000  1.0
  N  N247  1  0.13824000  0.30758000  0.58833000  1.0
  N  N248  1  0.83046000  0.28100000  0.69247000  1.0
  N  N249  1  0.33045000  0.69247000  0.28101000  1.0
  N  N250  1  0.04985000  0.71905000  0.41172000  1.0
  N  N251  1  0.63824000  0.58833000  0.30758000  1.0
  N  N252  1  0.54347000  0.32260000  0.09829000  1.0
  N  N253  1  0.22055000  0.77547000  0.67726000  1.0
  N  N254  1  0.44541000  0.90175000  0.22465000  1.0
  N  N255  1  0.94541000  0.22464000  0.90175000  1.0
  N  N256  1  0.04347000  0.09830000  0.32260000  1.0
  N  N257  1  0.72055000  0.67726000  0.77547000  1.0
  N  N258  1  0.71400000  0.39591000  0.35283000  1.0
  N  N259  1  0.31815000  0.95674000  0.60409000  1.0
  N  N260  1  0.36203000  0.64736000  0.04321000  1.0
  N  N261  1  0.86203000  0.04322000  0.64735000  1.0
  N  N262  1  0.21400000  0.35283000  0.39591000  1.0
  N  N263  1  0.81815000  0.60409000  0.95674000  1.0
  N  N264  1  0.68176000  0.40953000  0.69259000  1.0
  N  N265  1  0.27232000  0.28318000  0.59047000  1.0
  N  N266  1  0.98897000  0.30756000  0.71695000  1.0
  N  N267  1  0.48896000  0.71694000  0.30756000  1.0
  N  N268  1  0.18175000  0.69258000  0.40952000  1.0
  N  N269  1  0.77232000  0.59046000  0.28318000  1.0
  N  N270  1  0.59476000  0.32165000  0.22769000  1.0
  N  N271  1  0.27300000  0.90581000  0.67826000  1.0
  N  N272  1  0.36782000  0.77245000  0.09428000  1.0
  N  N273  1  0.86782000  0.09428000  0.77245000  1.0
  N  N274  1  0.09476000  0.22770000  0.32165000  1.0
  N  N275  1  0.77300000  0.67825000  0.90581000  1.0
