# generated using pymatgen
data_CuH10C6S2(NO2)4
_symmetry_space_group_name_H-M   'P 1'
_cell_length_a   7.12821000
_cell_length_b   7.33015000
_cell_length_c   13.31380000
_cell_angle_alpha   90.00350000
_cell_angle_beta   90.00200000
_cell_angle_gamma   115.03400000
_symmetry_Int_Tables_number   1
_chemical_formula_structural   CuH10C6S2(NO2)4
_chemical_formula_sum   'Cu2 H20 C12 S4 N8 O16'
_cell_volume   630.30509564
_cell_formula_units_Z   2
loop_
 _symmetry_equiv_pos_site_id
 _symmetry_equiv_pos_as_xyz
  1  'x, y, z'
loop_
 _atom_site_type_symbol
 _atom_site_label
 _atom_site_symmetry_multiplicity
 _atom_site_fract_x
 _atom_site_fract_y
 _atom_site_fract_z
 _atom_site_occupancy
  Cu  Cu0  1  0.00000000  0.49999000  0.50000000  1.0
  Cu  Cu1  1  0.50000000  0.50000000  0.00000000  1.0
  H  H2  1  0.47843000  0.25876000  0.81794000  1.0
  H  H3  1  0.02157000  0.74125000  0.31796000  1.0
  H  H4  1  0.52156000  0.74123000  0.18206000  1.0
  H  H5  1  0.97843000  0.25874000  0.68205000  1.0
  H  H6  1  0.48512000  0.34717000  0.62935000  1.0
  H  H7  1  0.01490000  0.65287000  0.12937000  1.0
  H  H8  1  0.51487000  0.65284000  0.37064000  1.0
  H  H9  1  0.98511000  0.34713000  0.87063000  1.0
  H  H10  1  0.49441000  0.82079000  0.82946000  1.0
  H  H11  1  0.00558000  0.17922000  0.32944000  1.0
  H  H12  1  0.50559000  0.17924000  0.17054000  1.0
  H  H13  1  0.99441000  0.82074000  0.67057000  1.0
  H  H14  1  0.88959000  0.11251000  0.53055000  1.0
  H  H15  1  0.61042000  0.88750000  0.03056000  1.0
  H  H16  1  0.11041000  0.88748000  0.46945000  1.0
  H  H17  1  0.38957000  0.11250000  0.96943000  1.0
  H  H18  1  0.13138000  0.21536000  0.49601000  1.0
  H  H19  1  0.36862000  0.78461000  0.99604000  1.0
  H  H20  1  0.86863000  0.78462000  0.50398000  1.0
  H  H21  1  0.63137000  0.21539000  0.00395000  1.0
  C  C22  1  0.48152000  0.44208000  0.69142000  1.0
  C  C23  1  0.01848000  0.55795000  0.19143000  1.0
  C  C24  1  0.51851000  0.55794000  0.30858000  1.0
  C  C25  1  0.98150000  0.44204000  0.80857000  1.0
  C  C26  1  0.49092000  0.63622000  0.69399000  1.0
  C  C27  1  0.00908000  0.36382000  0.19397000  1.0
  C  C28  1  0.50909000  0.36380000  0.30599000  1.0
  C  C29  1  0.99093000  0.63619000  0.80600000  1.0
  C  C30  1  0.48998000  0.68456000  0.79604000  1.0
  C  C31  1  0.01002000  0.31547000  0.29603000  1.0
  C  C32  1  0.51001000  0.31542000  0.20396000  1.0
  C  C33  1  0.98998000  0.68455000  0.70397000  1.0
  S  S34  1  0.50894000  0.79797000  0.59353000  1.0
  S  S35  1  0.99106000  0.20205000  0.09351000  1.0
  S  S36  1  0.49107000  0.20204000  0.40646000  1.0
  S  S37  1  0.00892000  0.79793000  0.90648000  1.0
  N  N38  1  0.47991000  0.52973000  0.85261000  1.0
  N  N39  1  0.02009000  0.47029000  0.35263000  1.0
  N  N40  1  0.52008000  0.47025000  0.14740000  1.0
  N  N41  1  0.97991000  0.52972000  0.64740000  1.0
  N  N42  1  0.47426000  0.38486000  0.78784000  1.0
  N  N43  1  0.02575000  0.61517000  0.28786000  1.0
  N  N44  1  0.52575000  0.61516000  0.21216000  1.0
  N  N45  1  0.97425000  0.38483000  0.71215000  1.0
  O  O46  1  0.73165000  0.88044000  0.56179000  1.0
  O  O47  1  0.76837000  0.11959000  0.06175000  1.0
  O  O48  1  0.26831000  0.11952000  0.43822000  1.0
  O  O49  1  0.23167000  0.88044000  0.93827000  1.0
  O  O50  1  0.37444000  0.67213000  0.51395000  1.0
  O  O51  1  0.12557000  0.32790000  0.01395000  1.0
  O  O52  1  0.62556000  0.32789000  0.48606000  1.0
  O  O53  1  0.87441000  0.67208000  0.98607000  1.0
  O  O54  1  0.45602000  0.95329000  0.63496000  1.0
  O  O55  1  0.04397000  0.04676000  0.13494000  1.0
  O  O56  1  0.54399000  0.04671000  0.36503000  1.0
  O  O57  1  0.95603000  0.95327000  0.86506000  1.0
  O  O58  1  0.01993000  0.24080000  0.53127000  1.0
  O  O59  1  0.48010000  0.75920000  0.03129000  1.0
  O  O60  1  0.98006000  0.75920000  0.46874000  1.0
  O  O61  1  0.51992000  0.24079000  0.96871000  1.0
