# generated using pymatgen
data_CuH11C8S(NO2)3
_symmetry_space_group_name_H-M   'P 1'
_cell_length_a   6.22880000
_cell_length_b   6.87813000
_cell_length_c   13.49400000
_cell_angle_alpha   89.99990000
_cell_angle_beta   89.34070000
_cell_angle_gamma   89.99990000
_symmetry_Int_Tables_number   1
_chemical_formula_structural   CuH11C8S(NO2)3
_chemical_formula_sum   'Cu2 H22 C16 S2 N6 O12'
_cell_volume   578.07836917
_cell_formula_units_Z   2
loop_
 _symmetry_equiv_pos_site_id
 _symmetry_equiv_pos_as_xyz
  1  'x, y, z'
loop_
 _atom_site_type_symbol
 _atom_site_label
 _atom_site_symmetry_multiplicity
 _atom_site_fract_x
 _atom_site_fract_y
 _atom_site_fract_z
 _atom_site_occupancy
  Cu  Cu0  1  0.98986000  0.81276000  0.99998000  1.0
  Cu  Cu1  1  0.01013000  0.31275000  0.00002000  1.0
  H  H2  1  0.20745000  0.05139000  0.91550000  1.0
  H  H3  1  0.79257000  0.55141000  0.08451000  1.0
  H  H4  1  0.61301000  0.77712000  0.85639000  1.0
  H  H5  1  0.38700000  0.27711000  0.14361000  1.0
  H  H6  1  0.61394000  0.58167000  0.92007000  1.0
  H  H7  1  0.38606000  0.08166000  0.07993000  1.0
  H  H8  1  0.35023000  0.76792000  0.13096000  1.0
  H  H9  1  0.64977000  0.26793000  0.86903000  1.0
  H  H10  1  0.45029000  0.79049000  0.01767000  1.0
  H  H11  1  0.54972000  0.29049000  0.98233000  1.0
  H  H12  1  0.08957000  0.87069000  0.76217000  1.0
  H  H13  1  0.91044000  0.37067000  0.23783000  1.0
  H  H14  1  0.19517000  0.26220000  0.76911000  1.0
  H  H15  1  0.80483000  0.76219000  0.23089000  1.0
  H  H16  1  0.52894000  0.44986000  0.66027000  1.0
  H  H17  1  0.47106000  0.94985000  0.33974000  1.0
  H  H18  1  0.63593000  0.43433000  0.48131000  1.0
  H  H19  1  0.36406000  0.93434000  0.51869000  1.0
  H  H20  1  0.01682000  0.65853000  0.39976000  1.0
  H  H21  1  0.98318000  0.15853000  0.60024000  1.0
  H  H22  1  0.90972000  0.67616000  0.57907000  1.0
  H  H23  1  0.09028000  0.17615000  0.42092000  1.0
  C  C24  1  0.10051000  0.72264000  0.78842000  1.0
  C  C25  1  0.89949000  0.22265000  0.21159000  1.0
  C  C26  1  0.15657000  0.40899000  0.79322000  1.0
  C  C27  1  0.84343000  0.90900000  0.20677000  1.0
  C  C28  1  0.21380000  0.56265000  0.62831000  1.0
  C  C29  1  0.78621000  0.06265000  0.37169000  1.0
  C  C30  1  0.41776000  0.49397000  0.60279000  1.0
  C  C31  1  0.58223000  0.99397000  0.39721000  1.0
  C  C32  1  0.47667000  0.48439000  0.50329000  1.0
  C  C33  1  0.52334000  0.98439000  0.49672000  1.0
  C  C34  1  0.33213000  0.54335000  0.43093000  1.0
  C  C35  1  0.66787000  0.04335000  0.56908000  1.0
  C  C36  1  0.12806000  0.61280000  0.45688000  1.0
  C  C37  1  0.87194000  0.11280000  0.54312000  1.0
  C  C38  1  0.06786000  0.62302000  0.55679000  1.0
  C  C39  1  0.93213000  0.12301000  0.44321000  1.0
  S  S40  1  0.41558000  0.52760000  0.30415000  1.0
  S  S41  1  0.58442000  0.02761000  0.69585000  1.0
  N  N42  1  0.07135000  0.66329000  0.88040000  1.0
  N  N43  1  0.92865000  0.16329000  0.11960000  1.0
  N  N44  1  0.10487000  0.46703000  0.88344000  1.0
  N  N45  1  0.89511000  0.96702000  0.11656000  1.0
  N  N46  1  0.15582000  0.56627000  0.73134000  1.0
  N  N47  1  0.84418000  0.06627000  0.26866000  1.0
  O  O48  1  0.65049000  0.54903000  0.30461000  1.0
  O  O49  1  0.34952000  0.04904000  0.69539000  1.0
  O  O50  1  0.34641000  0.33347000  0.27073000  1.0
  O  O51  1  0.65358000  0.83347000  0.72927000  1.0
  O  O52  1  0.30498000  0.68770000  0.25344000  1.0
  O  O53  1  0.69502000  0.18770000  0.74656000  1.0
  O  O54  1  0.05461000  0.06122000  0.93132000  1.0
  O  O55  1  0.94540000  0.56122000  0.06868000  1.0
  O  O56  1  0.60028000  0.72707000  0.92491000  1.0
  O  O57  1  0.39972000  0.22707000  0.07509000  1.0
  O  O58  1  0.35131000  0.84651000  0.06964000  1.0
  O  O59  1  0.64870000  0.34652000  0.93036000  1.0
