# generated using pymatgen
data_ZnH22C18N2O7
_symmetry_space_group_name_H-M   'P 1'
_cell_length_a   5.95546000
_cell_length_b   8.11107000
_cell_length_c   20.29700000
_cell_angle_alpha   89.99810000
_cell_angle_beta   81.62640000
_cell_angle_gamma   89.99880000
_symmetry_Int_Tables_number   1
_chemical_formula_structural   ZnH22C18N2O7
_chemical_formula_sum   'Zn2 H44 C36 N4 O14'
_cell_volume   969.99764212
_cell_formula_units_Z   2
loop_
 _symmetry_equiv_pos_site_id
 _symmetry_equiv_pos_as_xyz
  1  'x, y, z'
loop_
 _atom_site_type_symbol
 _atom_site_label
 _atom_site_symmetry_multiplicity
 _atom_site_fract_x
 _atom_site_fract_y
 _atom_site_fract_z
 _atom_site_occupancy
  Zn  Zn0  1  0.00052000  0.82476000  0.24633000  1.0
  Zn  Zn1  1  0.99945000  0.32478000  0.75367000  1.0
  H  H2  1  0.47540000  0.67929000  0.11002000  1.0
  H  H3  1  0.52458000  0.17929000  0.88999000  1.0
  H  H4  1  0.10519000  0.63704000  0.14240000  1.0
  H  H5  1  0.89479000  0.13704000  0.85760000  1.0
  H  H6  1  0.06988000  0.82836000  0.12004000  1.0
  H  H7  1  0.93010000  0.32835000  0.87997000  1.0
  H  H8  1  0.40553000  0.04869000  0.13642000  1.0
  H  H9  1  0.59443000  0.54870000  0.86357000  1.0
  H  H10  1  0.64566000  0.94764000  0.09128000  1.0
  H  H11  1  0.35432000  0.44764000  0.90872000  1.0
  H  H12  1  0.60246000  0.81654000  0.97775000  1.0
  H  H13  1  0.39758000  0.31653000  0.02225000  1.0
  H  H14  1  0.39051000  0.81025000  0.88154000  1.0
  H  H15  1  0.60956000  0.31022000  0.11846000  1.0
  H  H16  1  0.04487000  0.88315000  0.84025000  1.0
  H  H17  1  0.95517000  0.38315000  0.15974000  1.0
  H  H18  1  0.85607000  0.09838000  0.99205000  1.0
  H  H19  1  0.14393000  0.59842000  0.00794000  1.0
  H  H20  1  0.07233000  0.10836000  0.08801000  1.0
  H  H21  1  0.92764000  0.60838000  0.91198000  1.0
  H  H22  1  0.61909000  0.18449000  0.32679000  1.0
  H  H23  1  0.38089000  0.68448000  0.67320000  1.0
  H  H24  1  0.62858000  0.90802000  0.31059000  1.0
  H  H25  1  0.37139000  0.40801000  0.68941000  1.0
  H  H26  1  0.78322000  0.91068000  0.37128000  1.0
  H  H27  1  0.21675000  0.41068000  0.62873000  1.0
  H  H28  1  0.09151000  0.14147000  0.36672000  1.0
  H  H29  1  0.90848000  0.64150000  0.63328000  1.0
  H  H30  1  0.95491000  0.33241000  0.36201000  1.0
  H  H31  1  0.04510000  0.83243000  0.63799000  1.0
  H  H32  1  0.49730000  0.06366000  0.42345000  1.0
  H  H33  1  0.50271000  0.56365000  0.57656000  1.0
  H  H34  1  0.33126000  0.03087000  0.54018000  1.0
  H  H35  1  0.66875000  0.53086000  0.45983000  1.0
  H  H36  1  0.58727000  0.18921000  0.67633000  1.0
  H  H37  1  0.41273000  0.68921000  0.32367000  1.0
  H  H38  1  0.91277000  0.26624000  0.60217000  1.0
  H  H39  1  0.08725000  0.76624000  0.39783000  1.0
  H  H40  1  0.08590000  0.29743000  0.48383000  1.0
  H  H41  1  0.91411000  0.79743000  0.51617000  1.0
  H  H42  1  0.78177000  0.61094000  0.32809000  1.0
  H  H43  1  0.21821000  0.11096000  0.67192000  1.0
  H  H44  1  0.92938000  0.50233000  0.27654000  1.0
  H  H45  1  0.07060000  0.00234000  0.72346000  1.0
  C  C46  1  0.48964000  0.78003000  0.20587000  1.0
  C  C47  1  0.51034000  0.28004000  0.79413000  1.0
  C  C48  1  0.39246000  0.78102000  0.14027000  1.0
  C  C49  1  0.60752000  0.28103000  0.85973000  1.0
  C  C50  1  0.45985000  0.94517000  0.10289000  1.0
  C  C51  1  0.54013000  0.44517000  0.89711000  1.0
  C  C52  1  0.34906000  0.95810000  0.04095000  1.0
  C  C53  1  0.65094000  0.45810000  0.95905000  1.0
  C  C54  1  0.43816000  0.87794000  0.98163000  1.0
  C  C55  1  0.56187000  0.37793000  0.01837000  1.0
  C  C56  1  0.31896000  0.87329000  0.92728000  1.0
  C  C57  1  0.68107000  0.37328000  0.07272000  1.0
  C  C58  1  0.10397000  0.94716000  0.93194000  1.0
  C  C59  1  0.89609000  0.44717000  0.06805000  1.0
  C  C60  1  0.01891000  0.03555000  0.98951000  1.0
  C  C61  1  0.98107000  0.53557000  0.01047000  1.0
  C  C62  1  0.14041000  0.04027000  0.04314000  1.0
  C  C63  1  0.85959000  0.54028000  0.95686000  1.0
  C  C64  1  0.90111000  0.18353000  0.24942000  1.0
  C  C65  1  0.09889000  0.68353000  0.75058000  1.0
  C  C66  1  0.79100000  0.13064000  0.31961000  1.0
  C  C67  1  0.20899000  0.63064000  0.68038000  1.0
  C  C68  1  0.92277000  0.20079000  0.37257000  1.0
  C  C69  1  0.07722000  0.70080000  0.62743000  1.0
  C  C70  1  0.80825000  0.18075000  0.44389000  1.0
  C  C71  1  0.19176000  0.68075000  0.55611000  1.0
  C  C72  1  0.59411000  0.10820000  0.46150000  1.0
  C  C73  1  0.40588000  0.60821000  0.53851000  1.0
  C  C74  1  0.49623000  0.09033000  0.52785000  1.0
  C  C75  1  0.50380000  0.59032000  0.47215000  1.0
  C  C76  1  0.61099000  0.14756000  0.57869000  1.0
  C  C77  1  0.38903000  0.64756000  0.42132000  1.0
  C  C78  1  0.82319000  0.22366000  0.56226000  1.0
  C  C79  1  0.17683000  0.72367000  0.43773000  1.0
  C  C80  1  0.91975000  0.23875000  0.49577000  1.0
  C  C81  1  0.08025000  0.73876000  0.50424000  1.0
  N  N82  1  0.14615000  0.75757000  0.15225000  1.0
  N  N83  1  0.85383000  0.25757000  0.84775000  1.0
  N  N84  1  0.77976000  0.94885000  0.32345000  1.0
  N  N85  1  0.22021000  0.44886000  0.67655000  1.0
  O  O86  1  0.35630000  0.81015000  0.26127000  1.0
  O  O87  1  0.64368000  0.31015000  0.73873000  1.0
  O  O88  1  0.69789000  0.75285000  0.20200000  1.0
  O  O89  1  0.30209000  0.25285000  0.79801000  1.0
  O  O90  1  0.96934000  0.93604000  0.88338000  1.0
  O  O91  1  0.03069000  0.43604000  0.11661000  1.0
  O  O92  1  0.00491000  0.07750000  0.21101000  1.0
  O  O93  1  0.99508000  0.57751000  0.78900000  1.0
  O  O94  1  0.87668000  0.33441000  0.23428000  1.0
  O  O95  1  0.12335000  0.83441000  0.76571000  1.0
  O  O96  1  0.51055000  0.12572000  0.64315000  1.0
  O  O97  1  0.48946000  0.62571000  0.35685000  1.0
  O  O98  1  0.94035000  0.60156000  0.30534000  1.0
  O  O99  1  0.05964000  0.10158000  0.69467000  1.0
