# generated using pymatgen
data_Cd3H6C10(N2O5)2
_symmetry_space_group_name_H-M   'P 1'
_cell_length_a   7.64473000
_cell_length_b   9.84288000
_cell_length_c   9.86778000
_cell_angle_alpha   89.99990000
_cell_angle_beta   73.95800000
_cell_angle_gamma   89.99990000
_symmetry_Int_Tables_number   1
_chemical_formula_structural   Cd3H6C10(N2O5)2
_chemical_formula_sum   'Cd6 H12 C20 N8 O20'
_cell_volume   713.59865746
_cell_formula_units_Z   2
loop_
 _symmetry_equiv_pos_site_id
 _symmetry_equiv_pos_as_xyz
  1  'x, y, z'
loop_
 _atom_site_type_symbol
 _atom_site_label
 _atom_site_symmetry_multiplicity
 _atom_site_fract_x
 _atom_site_fract_y
 _atom_site_fract_z
 _atom_site_occupancy
  Cd  Cd0  1  0.00000000  0.00000000  0.00000000  1.0
  Cd  Cd1  1  0.50000000  0.50000000  0.00000000  1.0
  Cd  Cd2  1  0.94447000  0.49172000  0.72404000  1.0
  Cd  Cd3  1  0.55553000  0.99172000  0.27596000  1.0
  Cd  Cd4  1  0.05553000  0.50828000  0.27596000  1.0
  Cd  Cd5  1  0.44447000  0.00828000  0.72404000  1.0
  H  H6  1  0.32133000  0.95950000  0.04570000  1.0
  H  H7  1  0.17867000  0.45950000  0.95430000  1.0
  H  H8  1  0.67867000  0.04050000  0.95430000  1.0
  H  H9  1  0.82133000  0.54050000  0.04570000  1.0
  H  H10  1  0.33354000  0.82316000  0.94669000  1.0
  H  H11  1  0.16646000  0.32316000  0.05331000  1.0
  H  H12  1  0.66646000  0.17684000  0.05331000  1.0
  H  H13  1  0.83354000  0.67684000  0.94669000  1.0
  H  H14  1  0.18969000  0.01634000  0.49249000  1.0
  H  H15  1  0.31031000  0.51634000  0.50751000  1.0
  H  H16  1  0.81031000  0.98366000  0.50751000  1.0
  H  H17  1  0.68969000  0.48366000  0.49250000  1.0
  C  C18  1  0.06916000  0.19674000  0.74613000  1.0
  C  C19  1  0.43084000  0.69674000  0.25387000  1.0
  C  C20  1  0.93084000  0.80326000  0.25387000  1.0
  C  C21  1  0.56916000  0.30326000  0.74613000  1.0
  C  C22  1  0.09860000  0.21611000  0.59368000  1.0
  C  C23  1  0.40140000  0.71611000  0.40632000  1.0
  C  C24  1  0.90140000  0.78389000  0.40632000  1.0
  C  C25  1  0.59860000  0.28389000  0.59368000  1.0
  C  C26  1  0.15464000  0.12209000  0.48458000  1.0
  C  C27  1  0.34536000  0.62209000  0.51542000  1.0
  C  C28  1  0.84536000  0.87791000  0.51542000  1.0
  C  C29  1  0.65464000  0.37791000  0.48458000  1.0
  C  C30  1  0.14589000  0.19305000  0.36404000  1.0
  C  C31  1  0.35411000  0.69305000  0.63596000  1.0
  C  C32  1  0.85411000  0.80695000  0.63596000  1.0
  C  C33  1  0.64589000  0.30695000  0.36404000  1.0
  C  C34  1  0.18186000  0.13227000  0.22199000  1.0
  C  C35  1  0.31814000  0.63227000  0.77801000  1.0
  C  C36  1  0.81814000  0.86773000  0.77801000  1.0
  C  C37  1  0.68186000  0.36773000  0.22200000  1.0
  N  N38  1  0.06087000  0.33671000  0.54089000  1.0
  N  N39  1  0.43913000  0.83671000  0.45911000  1.0
  N  N40  1  0.93913000  0.66329000  0.45911000  1.0
  N  N41  1  0.56087000  0.16329000  0.54089000  1.0
  N  N42  1  0.08814000  0.32293000  0.40087000  1.0
  N  N43  1  0.41187000  0.82292000  0.59913000  1.0
  N  N44  1  0.91187000  0.67708000  0.59913000  1.0
  N  N45  1  0.58813000  0.17707000  0.40087000  1.0
  O  O46  1  0.98599000  0.28527000  0.83285000  1.0
  O  O47  1  0.51401000  0.78527000  0.16715000  1.0
  O  O48  1  0.01401000  0.71473000  0.16715000  1.0
  O  O49  1  0.48599000  0.21473000  0.83285000  1.0
  O  O50  1  0.12833000  0.08327000  0.78296000  1.0
  O  O51  1  0.37167000  0.58327000  0.21704000  1.0
  O  O52  1  0.87167000  0.91673000  0.21704000  1.0
  O  O53  1  0.62833000  0.41673000  0.78296000  1.0
  O  O54  1  0.09633000  0.17412000  0.13560000  1.0
  O  O55  1  0.40367000  0.67412000  0.86440000  1.0
  O  O56  1  0.90366000  0.82588000  0.86440000  1.0
  O  O57  1  0.59633000  0.32588000  0.13560000  1.0
  O  O58  1  0.29313000  0.03204000  0.19607000  1.0
  O  O59  1  0.20687000  0.53204000  0.80393000  1.0
  O  O60  1  0.70687000  0.96796000  0.80393000  1.0
  O  O61  1  0.79313000  0.46796000  0.19607000  1.0
  O  O62  1  0.30183000  0.92171000  0.95512000  1.0
  O  O63  1  0.19817000  0.42171000  0.04488000  1.0
  O  O64  1  0.69817000  0.07829000  0.04487000  1.0
  O  O65  1  0.80183000  0.57828000  0.95512000  1.0
