# generated using pymatgen
data_Zn4H5C24S4Cl3O13
_symmetry_space_group_name_H-M   'P 1'
_cell_length_a   19.66580000
_cell_length_b   19.73280000
_cell_length_c   33.36540000
_cell_angle_alpha   78.95740000
_cell_angle_beta   79.16040000
_cell_angle_gamma   63.94730000
_symmetry_Int_Tables_number   1
_chemical_formula_structural   Zn4H5C24S4Cl3O13
_chemical_formula_sum   'Zn16 H20 C96 S16 Cl12 O52'
_cell_volume   11337.23604006
_cell_formula_units_Z   4
loop_
 _symmetry_equiv_pos_site_id
 _symmetry_equiv_pos_as_xyz
  1  'x, y, z'
loop_
 _atom_site_type_symbol
 _atom_site_label
 _atom_site_symmetry_multiplicity
 _atom_site_fract_x
 _atom_site_fract_y
 _atom_site_fract_z
 _atom_site_occupancy
  Zn  Zn0  1  0.05521000  0.39982000  0.47787000  1.0
  Zn  Zn1  1  0.98607000  0.48393000  0.56065000  1.0
  Zn  Zn2  1  0.05799000  0.56111000  0.48205000  1.0
  Zn  Zn3  1  0.90054000  0.55451000  0.48010000  1.0
  Zn  Zn4  1  0.69431000  0.34901000  0.27145000  1.0
  Zn  Zn5  1  0.68861000  0.18975000  0.26601000  1.0
  Zn  Zn6  1  0.76984000  0.26569000  0.19038000  1.0
  Zn  Zn7  1  0.84779000  0.19471000  0.27294000  1.0
  Zn  Zn8  1  0.26681000  0.76665000  0.68989000  1.0
  Zn  Zn9  1  0.34903000  0.69729000  0.77231000  1.0
  Zn  Zn10  1  0.19222000  0.84782000  0.77145000  1.0
  Zn  Zn11  1  0.19151000  0.68728000  0.76691000  1.0
  Zn  Zn12  1  0.56031000  0.05980000  0.98333000  1.0
  Zn  Zn13  1  0.40147000  0.05480000  0.97819000  1.0
  Zn  Zn14  1  0.55518000  0.90107000  0.97839000  1.0
  Zn  Zn15  1  0.48376000  0.98264000  0.06059000  1.0
  H  H16  1  0.95526000  0.24908000  0.35194000  1.0
  H  H17  1  0.74729000  0.45309000  0.34925000  1.0
  H  H18  1  0.99896000  0.30112000  0.39997000  1.0
  H  H19  1  0.09685000  0.59652000  0.69949000  1.0
  H  H20  1  0.20277000  0.70159000  0.59843000  1.0
  H  H21  1  0.05081000  0.55145000  0.64914000  1.0
  H  H22  1  0.46288000  0.23970000  0.34100000  1.0
  H  H23  1  0.47949000  0.70264000  0.60109000  1.0
  H  H24  1  0.20337000  0.97904000  0.60100000  1.0
  H  H25  1  0.94813000  0.97020000  0.34818000  1.0
  H  H26  1  0.55032000  0.05022000  0.15395000  1.0
  H  H27  1  0.65082000  0.15159000  0.04833000  1.0
  H  H28  1  0.60073000  0.10025000  0.19958000  1.0
  H  H29  1  0.54758000  0.77000000  0.14893000  1.0
  H  H30  1  0.16234000  0.14154000  0.04034000  1.0
  H  H31  1  0.50120000  0.79489000  0.89819000  1.0
  H  H32  1  0.29736000  0.00305000  0.90002000  1.0
  H  H33  1  0.44849000  0.75194000  0.85018000  1.0
  H  H34  1  0.30042000  0.28012000  0.90194000  1.0
  H  H35  1  0.78730000  0.01012000  0.90870000  1.0
  C  C36  1  0.06192000  0.31626000  0.56180000  1.0
  C  C37  1  0.06987000  0.57076000  0.56851000  1.0
  C  C38  1  0.18316000  0.43927000  0.43838000  1.0
  C  C39  1  0.93651000  0.68387000  0.43854000  1.0
  C  C40  1  0.93001000  0.43079000  0.43100000  1.0
  C  C41  1  0.81727000  0.56114000  0.56281000  1.0
  C  C42  1  0.56554000  0.31083000  0.31119000  1.0
  C  C43  1  0.68154000  0.18062000  0.18042000  1.0
  C  C44  1  0.68991000  0.43312000  0.18835000  1.0
  C  C45  1  0.93564000  0.18780000  0.18989000  1.0
  C  C46  1  0.82004000  0.31865000  0.31937000  1.0
  C  C47  1  0.81095000  0.06600000  0.31153000  1.0
  C  C48  1  0.43344000  0.68974000  0.68820000  1.0
  C  C49  1  0.31791000  0.82069000  0.81933000  1.0
  C  C50  1  0.18859000  0.93303000  0.68799000  1.0
  C  C51  1  0.06544000  0.80921000  0.81113000  1.0
  C  C52  1  0.18115000  0.67976000  0.68096000  1.0
  C  C53  1  0.31332000  0.56607000  0.81168000  1.0
  C  C54  1  0.43782000  0.18368000  0.93861000  1.0
  C  C55  1  0.43161000  0.92971000  0.93066000  1.0
  C  C56  1  0.68401000  0.93954000  0.93885000  1.0
  C  C57  1  0.56127000  0.81596000  0.06195000  1.0
  C  C58  1  0.56889000  0.06870000  0.06995000  1.0
  C  C59  1  0.31578000  0.06130000  0.06091000  1.0
  C  C60  1  0.89863000  0.40558000  0.40188000  1.0
  C  C61  1  0.84834000  0.34812000  0.34778000  1.0
  C  C62  1  0.82690000  0.44875000  0.38710000  1.0
  C  C63  1  0.91974000  0.30478000  0.36193000  1.0
  C  C64  1  0.80261000  0.41965000  0.36037000  1.0
  C  C65  1  0.94378000  0.33372000  0.38852000  1.0
  C  C66  1  0.10034000  0.60057000  0.59574000  1.0
  C  C67  1  0.15267000  0.65185000  0.65186000  1.0
  C  C68  1  0.14384000  0.64346000  0.58151000  1.0
  C  C69  1  0.10971000  0.60938000  0.66648000  1.0
  C  C70  1  0.16938000  0.66861000  0.60958000  1.0
  C  C71  1  0.08430000  0.58452000  0.63855000  1.0
  C  C72  1  0.30467000  0.45421000  0.40095000  1.0
  C  C73  1  0.44594000  0.29629000  0.34896000  1.0
  C  C74  1  0.25830000  0.41535000  0.41384000  1.0
  C  C75  1  0.49090000  0.33607000  0.33639000  1.0
  C  C76  1  0.37790000  0.33923000  0.37261000  1.0
  C  C77  1  0.37285000  0.41077000  0.37742000  1.0
  C  C78  1  0.72585000  0.57560000  0.63078000  1.0
  C  C79  1  0.52411000  0.67361000  0.62122000  1.0
  C  C80  1  0.74301000  0.58502000  0.58820000  1.0
  C  C81  1  0.50864000  0.66383000  0.66364000  1.0
  C  C82  1  0.60348000  0.64142000  0.60908000  1.0
  C  C83  1  0.64629000  0.60783000  0.64270000  1.0
  C  C84  1  0.07659000  0.22485000  0.62988000  1.0
  C  C85  1  0.17435000  0.02358000  0.62096000  1.0
  C  C86  1  0.08615000  0.24198000  0.58725000  1.0
  C  C87  1  0.16393000  0.00816000  0.66335000  1.0
  C  C88  1  0.14248000  0.10275000  0.60860000  1.0
  C  C89  1  0.10872000  0.14547000  0.64203000  1.0
  C  C90  1  0.84179000  0.80111000  0.39690000  1.0
  C  C91  1  0.90376000  0.94982000  0.35262000  1.0
  C  C92  1  0.91040000  0.75844000  0.41352000  1.0
  C  C93  1  0.83519000  0.99110000  0.33637000  1.0
  C  C94  1  0.90643000  0.88027000  0.37469000  1.0
  C  C95  1  0.83957000  0.87056000  0.37470000  1.0
  C  C96  1  0.65393000  0.15376000  0.15023000  1.0
  C  C97  1  0.59778000  0.09785000  0.09825000  1.0
  C  C98  1  0.66786000  0.16827000  0.10695000  1.0
  C  C99  1  0.58326000  0.08318000  0.14106000  1.0
  C  C100  1  0.63982000  0.14023000  0.08156000  1.0
  C  C101  1  0.61121000  0.11098000  0.16625000  1.0
  C  C102  1  0.67406000  0.52410000  0.12018000  1.0
  C  C103  1  0.57635000  0.72542000  0.12898000  1.0
  C  C104  1  0.66500000  0.50723000  0.16283000  1.0
  C  C105  1  0.58623000  0.74083000  0.08656000  1.0
  C  C106  1  0.60831000  0.64627000  0.14137000  1.0
  C  C107  1  0.64170000  0.60345000  0.10795000  1.0
  C  C108  1  0.08320000  0.12320000  0.17834000  1.0
  C  C109  1  0.17014000  0.12487000  0.07273000  1.0
  C  C110  1  0.01085000  0.16230000  0.16550000  1.0
  C  C111  1  0.24139000  0.08603000  0.08625000  1.0
  C  C112  1  0.11215000  0.13860000  0.10631000  1.0
  C  C113  1  0.14099000  0.10970000  0.14457000  1.0
  C  C114  1  0.34387000  0.85222000  0.84799000  1.0
  C  C115  1  0.40217000  0.90180000  0.90204000  1.0
  C  C116  1  0.30112000  0.92394000  0.86236000  1.0
  C  C117  1  0.44534000  0.83061000  0.88808000  1.0
  C  C118  1  0.33057000  0.94784000  0.88911000  1.0
  C  C119  1  0.41600000  0.80695000  0.86149000  1.0
  C  C120  1  0.40799000  0.44821000  0.85311000  1.0
  C  C121  1  0.34504000  0.30017000  0.89749000  1.0
  C  C122  1  0.33945000  0.49119000  0.83647000  1.0
  C  C123  1  0.41360000  0.25856000  0.91373000  1.0
  C  C124  1  0.34279000  0.36952000  0.87529000  1.0
  C  C125  1  0.40988000  0.37881000  0.87526000  1.0
  C  C126  1  0.94424000  0.79455000  0.84940000  1.0
  C  C127  1  0.80391000  0.95341000  0.90101000  1.0
  C  C128  1  0.99075000  0.83310000  0.83609000  1.0
  C  C129  1  0.75870000  0.91395000  0.91382000  1.0
  C  C130  1  0.87177000  0.90996000  0.87741000  1.0
  C  C131  1  0.87637000  0.83841000  0.87295000  1.0
  S  S132  1  0.29858000  0.32585000  0.39717000  1.0
  S  S133  1  0.45132000  0.42539000  0.35307000  1.0
  S  S134  1  0.66161000  0.63302000  0.56296000  1.0
  S  S135  1  0.58959000  0.61569000  0.68905000  1.0
  S  S136  1  0.13430000  0.16075000  0.56234000  1.0
  S  S137  1  0.11586000  0.08890000  0.68850000  1.0
  S  S138  1  0.97177000  0.80357000  0.40192000  1.0
  S  S139  1  0.77367000  0.94631000  0.34763000  1.0
  S  S140  1  0.61685000  0.58850000  0.18769000  1.0
  S  S141  1  0.63400000  0.65999000  0.06144000  1.0
  S  S142  1  0.01395000  0.18227000  0.11218000  1.0
  S  S143  1  0.23883000  0.06590000  0.13948000  1.0
  S  S144  1  0.27777000  0.44638000  0.84797000  1.0
  S  S145  1  0.47559000  0.30284000  0.90234000  1.0
  S  S146  1  0.95117000  0.92279000  0.85247000  1.0
  S  S147  1  0.79777000  0.82435000  0.89753000  1.0
  Cl  Cl148  1  0.76408000  0.53821000  0.39961000  1.0
  Cl  Cl149  1  0.16952000  0.66812000  0.53024000  1.0
  Cl  Cl150  1  0.71834000  0.22010000  0.08170000  1.0
  Cl  Cl151  1  0.21199000  0.98735000  0.84905000  1.0
  Cl  Cl152  1  0.28585000  0.54282000  0.41100000  1.0
  Cl  Cl153  1  0.78953000  0.53128000  0.66603000  1.0
  Cl  Cl154  1  0.03219000  0.28814000  0.66503000  1.0
  Cl  Cl155  1  0.76741000  0.77649000  0.40129000  1.0
  Cl  Cl156  1  0.71767000  0.46055000  0.08514000  1.0
  Cl  Cl157  1  0.10403000  0.09340000  0.22785000  1.0
  Cl  Cl158  1  0.48280000  0.47224000  0.84856000  1.0
  Cl  Cl159  1  0.96279000  0.70577000  0.83975000  1.0
  O  O160  1  0.00084000  0.49806000  0.50017000  1.0
  O  O161  1  0.07713000  0.31460000  0.52280000  1.0
  O  O162  1  0.03393000  0.53065000  0.58658000  1.0
  O  O163  1  0.15430000  0.50536000  0.44969000  1.0
  O  O164  1  0.02842000  0.37502000  0.58056000  1.0
  O  O165  1  0.15359000  0.39108000  0.44601000  1.0
  O  O166  1  0.08150000  0.58738000  0.52990000  1.0
  O  O167  1  0.00380000  0.65792000  0.44900000  1.0
  O  O168  1  0.88822000  0.49454000  0.44400000  1.0
  O  O169  1  0.89088000  0.65176000  0.44768000  1.0
  O  O170  1  0.99667000  0.38568000  0.44063000  1.0
  O  O171  1  0.87686000  0.52734000  0.58121000  1.0
  O  O172  1  0.81472000  0.57715000  0.52385000  1.0
  O  O173  1  0.74947000  0.24966000  0.25065000  1.0
  O  O174  1  0.59674000  0.35758000  0.30344000  1.0
  O  O175  1  0.66209000  0.16420000  0.21856000  1.0
  O  O176  1  0.72633000  0.37418000  0.16987000  1.0
  O  O177  1  0.59219000  0.24516000  0.29937000  1.0
  O  O178  1  0.67252000  0.43490000  0.22729000  1.0
  O  O179  1  0.72196000  0.21726000  0.16611000  1.0
  O  O180  1  0.87843000  0.22303000  0.16922000  1.0
  O  O181  1  0.86373000  0.25264000  0.30915000  1.0
  O  O182  1  0.93347000  0.17310000  0.22886000  1.0
  O  O183  1  0.75463000  0.36191000  0.30782000  1.0
  O  O184  1  0.74505000  0.09321000  0.29927000  1.0
  O  O185  1  0.85779000  0.09685000  0.30452000  1.0
  O  O186  1  0.25020000  0.74919000  0.75015000  1.0
  O  O187  1  0.37537000  0.72424000  0.66843000  1.0
  O  O188  1  0.36465000  0.75559000  0.80857000  1.0
  O  O189  1  0.17194000  0.93282000  0.72698000  1.0
  O  O190  1  0.43335000  0.67530000  0.72728000  1.0
  O  O191  1  0.22406000  0.87517000  0.66843000  1.0
  O  O192  1  0.25209000  0.86026000  0.80796000  1.0
  O  O193  1  0.09445000  0.85790000  0.80335000  1.0
  O  O194  1  0.16542000  0.66209000  0.71929000  1.0
  O  O195  1  0.09467000  0.74335000  0.79951000  1.0
  O  O196  1  0.21877000  0.71896000  0.66490000  1.0
  O  O197  1  0.35780000  0.59946000  0.80398000  1.0
  O  O198  1  0.24699000  0.59091000  0.80008000  1.0
  O  O199  1  0.50009000  0.99949000  0.00020000  1.0
  O  O200  1  0.50410000  0.15638000  0.95045000  1.0
  O  O201  1  0.38840000  0.99520000  0.94174000  1.0
  O  O202  1  0.65271000  0.89290000  0.94668000  1.0
  O  O203  1  0.39101000  0.15276000  0.94613000  1.0
  O  O204  1  0.65728000  0.00542000  0.95044000  1.0
  O  O205  1  0.49736000  0.88580000  0.94158000  1.0
  O  O206  1  0.57689000  0.81612000  0.02291000  1.0
  O  O207  1  0.53072000  0.03029000  0.08664000  1.0
  O  O208  1  0.52654000  0.87385000  0.08153000  1.0
  O  O209  1  0.58492000  0.08472000  0.03147000  1.0
  O  O210  1  0.31528000  0.07696000  0.02198000  1.0
  O  O211  1  0.37432000  0.02618000  0.08045000  1.0
