# generated using pymatgen
data_CdH24(C9N7)2
_symmetry_space_group_name_H-M   'P 1'
_cell_length_a   7.64842000
_cell_length_b   8.83762000
_cell_length_c   9.61710000
_cell_angle_alpha   76.07880000
_cell_angle_beta   77.14110000
_cell_angle_gamma   65.93020000
_symmetry_Int_Tables_number   1
_chemical_formula_structural   CdH24(C9N7)2
_chemical_formula_sum   'Cd1 H24 C18 N14'
_cell_volume   570.39375582
_cell_formula_units_Z   1
loop_
 _symmetry_equiv_pos_site_id
 _symmetry_equiv_pos_as_xyz
  1  'x, y, z'
loop_
 _atom_site_type_symbol
 _atom_site_label
 _atom_site_symmetry_multiplicity
 _atom_site_fract_x
 _atom_site_fract_y
 _atom_site_fract_z
 _atom_site_occupancy
  Cd  Cd0  1  0.00000000  0.50000000  0.00000000  1.0
  H  H1  1  0.15844000  0.08031000  0.14395000  1.0
  H  H2  1  0.84156000  0.91969000  0.85605000  1.0
  H  H3  1  0.16041000  0.89345000  0.10345000  1.0
  H  H4  1  0.83958000  0.10655000  0.89655000  1.0
  H  H5  1  0.95554000  0.97539000  0.33619000  1.0
  H  H6  1  0.04446000  0.02461000  0.66381000  1.0
  H  H7  1  0.16336000  0.94657000  0.40776000  1.0
  H  H8  1  0.83664000  0.05343000  0.59223000  1.0
  H  H9  1  0.47522000  0.66256000  0.05551000  1.0
  H  H10  1  0.52478000  0.33744000  0.94448000  1.0
  H  H11  1  0.47740000  0.04596000  0.24734000  1.0
  H  H12  1  0.52259000  0.95404000  0.75266000  1.0
  H  H13  1  0.85570000  0.84325000  0.15819000  1.0
  H  H14  1  0.14429000  0.15675000  0.84180000  1.0
  H  H15  1  0.11749000  0.66675000  0.29705000  1.0
  H  H16  1  0.88251000  0.33325000  0.70295000  1.0
  H  H17  1  0.30341000  0.64209000  0.39111000  1.0
  H  H18  1  0.69659000  0.35791000  0.60889000  1.0
  H  H19  1  0.75073000  0.77902000  0.45501000  1.0
  H  H20  1  0.24927000  0.22099000  0.54499000  1.0
  H  H21  1  0.65325000  0.67737000  0.74770000  1.0
  H  H22  1  0.34675000  0.32263000  0.25230000  1.0
  H  H23  1  0.25520000  0.56599000  0.65749000  1.0
  H  H24  1  0.74480000  0.43401000  0.34251000  1.0
  C  C25  1  0.20458000  0.94378000  0.17799000  1.0
  C  C26  1  0.79542000  0.05622000  0.82201000  1.0
  C  C27  1  0.11213000  0.90283000  0.33259000  1.0
  C  C28  1  0.88787000  0.09717000  0.66741000  1.0
  C  C29  1  0.53215000  0.73645000  0.09470000  1.0
  C  C30  1  0.46785000  0.26355000  0.90530000  1.0
  C  C31  1  0.53427000  0.93511000  0.19694000  1.0
  C  C32  1  0.46573000  0.06489000  0.80306000  1.0
  C  C33  1  0.72067000  0.83377000  0.15273000  1.0
  C  C34  1  0.27933000  0.16624000  0.84727000  1.0
  C  C35  1  0.15068000  0.71545000  0.37880000  1.0
  C  C36  1  0.84932000  0.28455000  0.62120000  1.0
  C  C37  1  0.83860000  0.72145000  0.54185000  1.0
  C  C38  1  0.16140000  0.27855000  0.45815000  1.0
  C  C39  1  0.79371000  0.67038000  0.68754000  1.0
  C  C40  1  0.20629000  0.32961000  0.31246000  1.0
  C  C41  1  0.10418000  0.60795000  0.64564000  1.0
  C  C42  1  0.89582000  0.39205000  0.35436000  1.0
  N  N43  1  0.71756000  0.71071000  0.08905000  1.0
  N  N44  1  0.28244000  0.28929000  0.91095000  1.0
  N  N45  1  0.41629000  0.87224000  0.15894000  1.0
  N  N46  1  0.58372000  0.12776000  0.84106000  1.0
  N  N47  1  0.96063000  0.60024000  0.75129000  1.0
  N  N48  1  0.03937000  0.39976000  0.24871000  1.0
  N  N49  1  0.74632000  0.27651000  0.12901000  1.0
  N  N50  1  0.25368000  0.72349000  0.87099000  1.0
  N  N51  1  0.03654000  0.68055000  0.51702000  1.0
  N  N52  1  0.96346000  0.31945000  0.48298000  1.0
  N  N53  1  0.81374000  0.33281000  0.01338000  1.0
  N  N54  1  0.18626000  0.66719000  0.98663000  1.0
  N  N55  1  0.67789000  0.22029000  0.24136000  1.0
  N  N56  1  0.32211000  0.77971000  0.75864000  1.0
