# generated using pymatgen
data_MnH20C20N5O4
_symmetry_space_group_name_H-M   'P 1'
_cell_length_a   8.44998000
_cell_length_b   9.79956000
_cell_length_c   13.68560000
_cell_angle_alpha   75.49860000
_cell_angle_beta   72.08340000
_cell_angle_gamma   64.46210000
_symmetry_Int_Tables_number   1
_chemical_formula_structural   MnH20C20N5O4
_chemical_formula_sum   'Mn2 H40 C40 N10 O8'
_cell_volume   963.74628590
_cell_formula_units_Z   2
loop_
 _symmetry_equiv_pos_site_id
 _symmetry_equiv_pos_as_xyz
  1  'x, y, z'
loop_
 _atom_site_type_symbol
 _atom_site_label
 _atom_site_symmetry_multiplicity
 _atom_site_fract_x
 _atom_site_fract_y
 _atom_site_fract_z
 _atom_site_occupancy
  Mn  Mn0  1  0.00000000  0.50000000  0.00000000  1.0
  Mn  Mn1  1  0.50000000  0.00000000  0.50000000  1.0
  H  H2  1  0.29812000  0.61152000  0.14033000  1.0
  H  H3  1  0.04881000  0.88841000  0.35968000  1.0
  H  H4  1  0.70188000  0.38848000  0.85966000  1.0
  H  H5  1  0.95119000  0.11159000  0.64032000  1.0
  H  H6  1  0.12139000  0.87120000  0.06325000  1.0
  H  H7  1  0.05554000  0.62838000  0.43643000  1.0
  H  H8  1  0.87862000  0.12880000  0.93674000  1.0
  H  H9  1  0.94447000  0.37162000  0.56356000  1.0
  H  H10  1  0.27597000  0.02163000  0.92655000  1.0
  H  H11  1  0.22425000  0.47810000  0.57326000  1.0
  H  H12  1  0.72404000  0.97837000  0.07344000  1.0
  H  H13  1  0.77575000  0.52190000  0.42674000  1.0
  H  H14  1  0.46121000  0.08362000  0.76532000  1.0
  H  H15  1  0.31097000  0.41593000  0.73438000  1.0
  H  H16  1  0.53880000  0.91638000  0.23467000  1.0
  H  H17  1  0.68903000  0.58407000  0.26562000  1.0
  H  H18  1  0.64992000  0.11900000  0.76863000  1.0
  H  H19  1  0.53826000  0.38086000  0.73104000  1.0
  H  H20  1  0.35009000  0.88100000  0.23137000  1.0
  H  H21  1  0.46174000  0.61914000  0.26896000  1.0
  H  H22  1  0.46472000  0.14247000  0.87912000  1.0
  H  H23  1  0.48671000  0.35769000  0.62042000  1.0
  H  H24  1  0.53528000  0.85753000  0.12088000  1.0
  H  H25  1  0.51330000  0.64231000  0.37958000  1.0
  H  H26  1  0.57412000  0.40075000  0.14654000  1.0
  H  H27  1  0.12024000  0.09911000  0.35364000  1.0
  H  H28  1  0.42589000  0.59924000  0.85345000  1.0
  H  H29  1  0.87977000  0.90089000  0.64636000  1.0
  H  H30  1  0.79216000  0.21080000  0.18900000  1.0
  H  H31  1  0.19206000  0.28842000  0.31029000  1.0
  H  H32  1  0.20785000  0.78920000  0.81100000  1.0
  H  H33  1  0.80795000  0.71158000  0.68971000  1.0
  H  H34  1  0.97953000  0.24903000  0.19422000  1.0
  H  H35  1  0.42302000  0.24954000  0.30479000  1.0
  H  H36  1  0.02048000  0.75097000  0.80578000  1.0
  H  H37  1  0.57698000  0.75046000  0.69521000  1.0
  H  H38  1  0.99466000  0.17105000  0.08760000  1.0
  H  H39  1  0.25437000  0.32862000  0.41127000  1.0
  H  H40  1  0.00534000  0.82895000  0.91240000  1.0
  H  H41  1  0.74563000  0.67138000  0.58873000  1.0
  C  C42  1  0.54172000  0.84655000  0.92450000  1.0
  C  C43  1  0.31239000  0.65338000  0.57547000  1.0
  C  C44  1  0.45828000  0.15345000  0.07550000  1.0
  C  C45  1  0.68761000  0.34662000  0.42453000  1.0
  C  C46  1  0.64641000  0.69804000  0.96895000  1.0
  C  C47  1  0.31253000  0.80195000  0.53121000  1.0
  C  C48  1  0.35359000  0.30196000  0.03105000  1.0
  C  C49  1  0.68747000  0.19806000  0.46880000  1.0
  C  C50  1  0.55603000  0.61480000  0.04857000  1.0
  C  C51  1  0.21769000  0.88535000  0.45198000  1.0
  C  C52  1  0.44398000  0.38520000  0.95143000  1.0
  C  C53  1  0.78231000  0.11465000  0.54802000  1.0
  C  C54  1  0.36594000  0.67797000  0.08042000  1.0
  C  C55  1  0.12300000  0.82196000  0.41977000  1.0
  C  C56  1  0.63406000  0.32203000  0.91958000  1.0
  C  C57  1  0.87701000  0.17804000  0.58023000  1.0
  C  C58  1  0.26747000  0.82217000  0.03679000  1.0
  C  C59  1  0.12573000  0.67763000  0.46310000  1.0
  C  C60  1  0.73253000  0.17783000  0.96320000  1.0
  C  C61  1  0.87427000  0.32236000  0.53690000  1.0
  C  C62  1  0.35490000  0.90703000  0.95859000  1.0
  C  C63  1  0.22022000  0.59282000  0.54132000  1.0
  C  C64  1  0.64511000  0.09297000  0.04140000  1.0
  C  C65  1  0.77978000  0.40718000  0.45868000  1.0
  C  C66  1  0.54630000  0.07558000  0.81483000  1.0
  C  C67  1  0.43723000  0.42431000  0.68488000  1.0
  C  C68  1  0.45370000  0.92442000  0.18517000  1.0
  C  C69  1  0.56277000  0.57569000  0.31513000  1.0
  C  C70  1  0.65477000  0.46578000  0.09682000  1.0
  C  C71  1  0.21611000  0.03402000  0.40351000  1.0
  C  C72  1  0.34523000  0.53422000  0.90318000  1.0
  C  C73  1  0.78390000  0.96598000  0.59649000  1.0
  C  C74  1  0.90072000  0.24983000  0.14351000  1.0
  C  C75  1  0.29437000  0.24947000  0.35571000  1.0
  C  C76  1  0.09928000  0.75017000  0.85649000  1.0
  C  C77  1  0.70562000  0.75053000  0.64429000  1.0
  C  C78  1  0.08864000  0.30952000  0.82483000  1.0
  C  C79  1  0.22257000  0.18902000  0.67585000  1.0
  C  C80  1  0.91135000  0.69048000  0.17518000  1.0
  C  C81  1  0.77741000  0.81098000  0.32415000  1.0
  N  N82  1  0.82803000  0.40345000  0.08820000  1.0
  N  N83  1  0.31889000  0.09632000  0.41158000  1.0
  N  N84  1  0.17198000  0.59655000  0.91180000  1.0
  N  N85  1  0.68110000  0.90368000  0.58842000  1.0
  N  N86  1  0.09144000  0.24767000  0.75098000  1.0
  N  N87  1  0.90853000  0.75232000  0.24903000  1.0
  N  N88  1  0.06727000  0.36807000  0.89587000  1.0
  N  N89  1  0.32944000  0.13311000  0.60354000  1.0
  N  N90  1  0.93272000  0.63193000  0.10413000  1.0
  N  N91  1  0.67054000  0.86689000  0.39646000  1.0
  O  O92  1  0.82181000  0.64523000  0.93297000  1.0
  O  O93  1  0.40087000  0.85388000  0.56671000  1.0
  O  O94  1  0.17819000  0.35478000  0.06703000  1.0
  O  O95  1  0.59912000  0.14613000  0.43330000  1.0
  O  O96  1  0.64106000  0.91984000  0.85215000  1.0
  O  O97  1  0.41306000  0.58015000  0.64780000  1.0
  O  O98  1  0.35894000  0.08016000  0.14785000  1.0
  O  O99  1  0.58694000  0.41985000  0.35220000  1.0
