# generated using pymatgen
data_Nd2P5H40C23N5O19
_symmetry_space_group_name_H-M   'P 1'
_cell_length_a   12.95360000
_cell_length_b   13.36290000
_cell_length_c   14.97840000
_cell_angle_alpha   109.04800000
_cell_angle_beta   101.31200000
_cell_angle_gamma   111.13300000
_symmetry_Int_Tables_number   1
_chemical_formula_structural   Nd2P5H40C23N5O19
_chemical_formula_sum   'Nd4 P10 H80 C46 N10 O38'
_cell_volume   2136.23768340
_cell_formula_units_Z   2
loop_
 _symmetry_equiv_pos_site_id
 _symmetry_equiv_pos_as_xyz
  1  'x, y, z'
loop_
 _atom_site_type_symbol
 _atom_site_label
 _atom_site_symmetry_multiplicity
 _atom_site_fract_x
 _atom_site_fract_y
 _atom_site_fract_z
 _atom_site_occupancy
  Nd  Nd0  1  0.18616000  0.64521000  0.92671000  1.0
  Nd  Nd1  1  0.40164000  0.89247000  0.84506000  1.0
  Nd  Nd2  1  0.81384000  0.35479000  0.07329000  1.0
  Nd  Nd3  1  0.59837000  0.10754000  0.15494000  1.0
  P  P4  1  0.11250000  0.58833000  0.13088000  1.0
  P  P5  1  0.68070000  0.18392000  0.43062000  1.0
  P  P6  1  0.28432000  0.91912000  0.06176000  1.0
  P  P7  1  0.51759000  0.82765000  0.06035000  1.0
  P  P8  1  0.08336000  0.77870000  0.77025000  1.0
  P  P9  1  0.88750000  0.41167000  0.86912000  1.0
  P  P10  1  0.31930000  0.81608000  0.56938000  1.0
  P  P11  1  0.71568000  0.08088000  0.93824000  1.0
  P  P12  1  0.48241000  0.17235000  0.93965000  1.0
  P  P13  1  0.91664000  0.22129000  0.22975000  1.0
  H  H14  1  0.34472000  0.76527000  0.40037000  1.0
  H  H15  1  0.53997000  0.91681000  0.26043000  1.0
  H  H16  1  0.08322000  0.93096000  0.92057000  1.0
  H  H17  1  0.42643000  0.58121000  0.95306000  1.0
  H  H18  1  0.47162000  0.57474000  0.63130000  1.0
  H  H19  1  0.09476000  0.67482000  0.55960000  1.0
  H  H20  1  0.41093000  0.36441000  0.50959000  1.0
  H  H21  1  0.10926000  0.74264000  0.11585000  1.0
  H  H22  1  0.25634000  0.19547000  0.51962000  1.0
  H  H23  1  0.16649000  0.23501000  0.65174000  1.0
  H  H24  1  0.20787000  0.55828000  0.26979000  1.0
  H  H25  1  0.14364000  0.65388000  0.30892000  1.0
  H  H26  1  0.30054000  0.81870000  0.21134000  1.0
  H  H27  1  0.25049000  0.86239000  0.31279000  1.0
  H  H28  1  0.45589000  0.98395000  0.43492000  1.0
  H  H29  1  0.44107000  0.02340000  0.33186000  1.0
  H  H30  1  0.59893000  0.79953000  0.32026000  1.0
  H  H31  1  0.54776000  0.83448000  0.42327000  1.0
  H  H32  1  0.40715000  0.63473000  0.29085000  1.0
  H  H33  1  0.38527000  0.68971000  0.19764000  1.0
  H  H34  1  0.68341000  0.02445000  0.47654000  1.0
  H  H35  1  0.72246000  0.01578000  0.36699000  1.0
  H  H36  1  0.29423000  0.08624000  0.03560000  1.0
  H  H37  1  0.25850000  0.09182000  0.14497000  1.0
  H  H38  1  0.03915000  0.85401000  0.04497000  1.0
  H  H39  1  0.05509000  0.99375000  0.12984000  1.0
  H  H40  1  0.12502000  0.16535000  0.08759000  1.0
  H  H41  1  0.15528000  0.14260000  0.97281000  1.0
  H  H42  1  0.58914000  0.73309000  0.93593000  1.0
  H  H43  1  0.67940000  0.76808000  0.06063000  1.0
  H  H44  1  0.49782000  0.66257000  0.13255000  1.0
  H  H45  1  0.61968000  0.62815000  0.12993000  1.0
  H  H46  1  0.64615000  0.55160000  0.96577000  1.0
  H  H47  1  0.54004000  0.53070000  0.85541000  1.0
  H  H48  1  0.96758000  0.75446000  0.60774000  1.0
  H  H49  1  0.89115000  0.63479000  0.63646000  1.0
  H  H50  1  0.84036000  0.48995000  0.47577000  1.0
  H  H51  1  0.90635000  0.60361000  0.43699000  1.0
  H  H52  1  0.11770000  0.58897000  0.67911000  1.0
  H  H53  1  0.96629000  0.48176000  0.61887000  1.0
  H  H54  1  0.65528000  0.23473000  0.59963000  1.0
  H  H55  1  0.46003000  0.08319000  0.73957000  1.0
  H  H56  1  0.91678000  0.06904000  0.07943000  1.0
  H  H57  1  0.57358000  0.41880000  0.04695000  1.0
  H  H58  1  0.52837000  0.42526000  0.36870000  1.0
  H  H59  1  0.90525000  0.32518000  0.44040000  1.0
  H  H60  1  0.58906000  0.63560000  0.49041000  1.0
  H  H61  1  0.89074000  0.25736000  0.88415000  1.0
  H  H62  1  0.74366000  0.80453000  0.48038000  1.0
  H  H63  1  0.83351000  0.76499000  0.34826000  1.0
  H  H64  1  0.79213000  0.44172000  0.73021000  1.0
  H  H65  1  0.85636000  0.34611000  0.69108000  1.0
  H  H66  1  0.69946000  0.18129000  0.78866000  1.0
  H  H67  1  0.74951000  0.13761000  0.68721000  1.0
  H  H68  1  0.54411000  0.01605000  0.56508000  1.0
  H  H69  1  0.55893000  0.97659000  0.66813000  1.0
  H  H70  1  0.40107000  0.20047000  0.67974000  1.0
  H  H71  1  0.45224000  0.16552000  0.57673000  1.0
  H  H72  1  0.59286000  0.36527000  0.70915000  1.0
  H  H73  1  0.61473000  0.31029000  0.80236000  1.0
  H  H74  1  0.31659000  0.97555000  0.52346000  1.0
  H  H75  1  0.27754000  0.98421000  0.63301000  1.0
  H  H76  1  0.70578000  0.91376000  0.96440000  1.0
  H  H77  1  0.74150000  0.90818000  0.85503000  1.0
  H  H78  1  0.96085000  0.14600000  0.95503000  1.0
  H  H79  1  0.94491000  0.00625000  0.87016000  1.0
  H  H80  1  0.87498000  0.83466000  0.91241000  1.0
  H  H81  1  0.84472000  0.85740000  0.02719000  1.0
  H  H82  1  0.41086000  0.26691000  0.06407000  1.0
  H  H83  1  0.32060000  0.23193000  0.93936000  1.0
  H  H84  1  0.50218000  0.33743000  0.86745000  1.0
  H  H85  1  0.38032000  0.37185000  0.87007000  1.0
  H  H86  1  0.35385000  0.44840000  0.03423000  1.0
  H  H87  1  0.45996000  0.46931000  0.14459000  1.0
  H  H88  1  0.03242000  0.24554000  0.39226000  1.0
  H  H89  1  0.10885000  0.36521000  0.36354000  1.0
  H  H90  1  0.15964000  0.51005000  0.52423000  1.0
  H  H91  1  0.09365000  0.39639000  0.56301000  1.0
  H  H92  1  0.88230000  0.41103000  0.32089000  1.0
  H  H93  1  0.03372000  0.51824000  0.38113000  1.0
  C  C94  1  0.21294000  0.45267000  0.79250000  1.0
  C  C95  1  0.38715000  0.64893000  0.77411000  1.0
  C  C96  1  0.26854000  0.42568000  0.71457000  1.0
  C  C97  1  0.35440000  0.52165000  0.70816000  1.0
  C  C98  1  0.40605000  0.49861000  0.63485000  1.0
  C  C99  1  0.37140000  0.38181000  0.56722000  1.0
  C  C100  1  0.28492000  0.28690000  0.57310000  1.0
  C  C101  1  0.23430000  0.30865000  0.64704000  1.0
  C  C102  1  0.19682000  0.63369000  0.26344000  1.0
  C  C103  1  0.32020000  0.84282000  0.29239000  1.0
  C  C104  1  0.43900000  0.95229000  0.35382000  1.0
  C  C105  1  0.52990000  0.81752000  0.34353000  1.0
  C  C106  1  0.40852000  0.71194000  0.27878000  1.0
  C  C107  1  0.66108000  0.03085000  0.40457000  1.0
  C  C108  1  0.23690000  0.03372000  0.06536000  1.0
  C  C109  1  0.02926000  0.93345000  0.04997000  1.0
  C  C110  1  0.09726000  0.10158000  0.00849000  1.0
  C  C111  1  0.58895000  0.73480000  0.00971000  1.0
  C  C112  1  0.52647000  0.60084000  0.09013000  1.0
  C  C113  1  0.55240000  0.52462000  0.92772000  1.0
  C  C114  1  0.97788000  0.69305000  0.63850000  1.0
  C  C115  1  0.92144000  0.54325000  0.46665000  1.0
  C  C116  1  0.04426000  0.53534000  0.60666000  1.0
  C  C117  1  0.78706000  0.54733000  0.20751000  1.0
  C  C118  1  0.61284000  0.35107000  0.22589000  1.0
  C  C119  1  0.73146000  0.57433000  0.28544000  1.0
  C  C120  1  0.64560000  0.47835000  0.29184000  1.0
  C  C121  1  0.59395000  0.50139000  0.36516000  1.0
  C  C122  1  0.62859000  0.61819000  0.43278000  1.0
  C  C123  1  0.71508000  0.71310000  0.42690000  1.0
  C  C124  1  0.76570000  0.69136000  0.35296000  1.0
  C  C125  1  0.80318000  0.36630000  0.73656000  1.0
  C  C126  1  0.67979000  0.15718000  0.70761000  1.0
  C  C127  1  0.56100000  0.04771000  0.64618000  1.0
  C  C128  1  0.47010000  0.18248000  0.65647000  1.0
  C  C129  1  0.59148000  0.28806000  0.72122000  1.0
  C  C130  1  0.33892000  0.96914000  0.59544000  1.0
  C  C131  1  0.76311000  0.96629000  0.93464000  1.0
  C  C132  1  0.97074000  0.06655000  0.95003000  1.0
  C  C133  1  0.90274000  0.89842000  0.99150000  1.0
  C  C134  1  0.41105000  0.26520000  0.99029000  1.0
  C  C135  1  0.47353000  0.39916000  0.90987000  1.0
  C  C136  1  0.44760000  0.47538000  0.07228000  1.0
  C  C137  1  0.02212000  0.30695000  0.36150000  1.0
  C  C138  1  0.07856000  0.45674000  0.53335000  1.0
  C  C139  1  0.95574000  0.46465000  0.39334000  1.0
  N  N140  1  0.31679000  0.73902000  0.31131000  1.0
  N  N141  1  0.53979000  0.92931000  0.33595000  1.0
  N  N142  1  0.11198000  0.99561000  0.00728000  1.0
  N  N143  1  0.51779000  0.60946000  0.99210000  1.0
  N  N144  1  0.01632000  0.61688000  0.56908000  1.0
  N  N145  1  0.68321000  0.26098000  0.68869000  1.0
  N  N146  1  0.46021000  0.07068000  0.66405000  1.0
  N  N147  1  0.88802000  0.00439000  0.99271000  1.0
  N  N148  1  0.48221000  0.39054000  0.00790000  1.0
  N  N149  1  0.98368000  0.38312000  0.43092000  1.0
  O  O150  1  0.10992000  0.44167000  0.76480000  1.0
  O  O151  1  0.27754000  0.49475000  0.88604000  1.0
  O  O152  1  0.30839000  0.67124000  0.80595000  1.0
  O  O153  1  0.48772000  0.73007000  0.79371000  1.0
  O  O154  1  0.19720000  0.59901000  0.07335000  1.0
  O  O155  1  0.01225000  0.46680000  0.09686000  1.0
  O  O156  1  0.06401000  0.68416000  0.13982000  1.0
  O  O157  1  0.61350000  0.20891000  0.50373000  1.0
  O  O158  1  0.62048000  0.17685000  0.32921000  1.0
  O  O159  1  0.81424000  0.26236000  0.48115000  1.0
  O  O160  1  0.29114000  0.86274000  0.95719000  1.0
  O  O161  1  0.18906000  0.81643000  0.07026000  1.0
  O  O162  1  0.40218000  0.98962000  0.14942000  1.0
  O  O163  1  0.07207000  0.68621000  0.81161000  1.0
  O  O164  1  0.03671000  0.86549000  0.82034000  1.0
  O  O165  1  0.20251000  0.83972000  0.76007000  1.0
  O  O166  1  0.53072000  0.90779000  0.00507000  1.0
  O  O167  1  0.58914000  0.90791000  0.17349000  1.0
  O  O168  1  0.39365000  0.73434000  0.03658000  1.0
  O  O169  1  0.89008000  0.55833000  0.23520000  1.0
  O  O170  1  0.72246000  0.50525000  0.11396000  1.0
  O  O171  1  0.69161000  0.32876000  0.19406000  1.0
  O  O172  1  0.51227000  0.26994000  0.20629000  1.0
  O  O173  1  0.80280000  0.40099000  0.92665000  1.0
  O  O174  1  0.98775000  0.53320000  0.90314000  1.0
  O  O175  1  0.93599000  0.31584000  0.86018000  1.0
  O  O176  1  0.38650000  0.79109000  0.49627000  1.0
  O  O177  1  0.37953000  0.82315000  0.67079000  1.0
  O  O178  1  0.18576000  0.73764000  0.51885000  1.0
  O  O179  1  0.70886000  0.13726000  0.04281000  1.0
  O  O180  1  0.81094000  0.18357000  0.92974000  1.0
  O  O181  1  0.59782000  0.01038000  0.85058000  1.0
  O  O182  1  0.92793000  0.31378000  0.18839000  1.0
  O  O183  1  0.96329000  0.13450000  0.17966000  1.0
  O  O184  1  0.79749000  0.16028000  0.23993000  1.0
  O  O185  1  0.46928000  0.09221000  0.99493000  1.0
  O  O186  1  0.41087000  0.09210000  0.82651000  1.0
  O  O187  1  0.60635000  0.26566000  0.96342000  1.0
