# generated using pymatgen
data_V2AsH13C15N3O8
_symmetry_space_group_name_H-M   'P 1'
_cell_length_a   7.86774000
_cell_length_b   10.12340000
_cell_length_c   12.03490000
_cell_angle_alpha   111.89500000
_cell_angle_beta   95.28830000
_cell_angle_gamma   97.30880000
_symmetry_Int_Tables_number   1
_chemical_formula_structural   V2AsH13C15N3O8
_chemical_formula_sum   'V4 As2 H26 C30 N6 O16'
_cell_volume   871.98149706
_cell_formula_units_Z   2
loop_
 _symmetry_equiv_pos_site_id
 _symmetry_equiv_pos_as_xyz
  1  'x, y, z'
loop_
 _atom_site_type_symbol
 _atom_site_label
 _atom_site_symmetry_multiplicity
 _atom_site_fract_x
 _atom_site_fract_y
 _atom_site_fract_z
 _atom_site_occupancy
  V  V0  1  0.49847000  0.23776000  0.69466000  1.0
  V  V1  1  0.50153000  0.76224000  0.30534000  1.0
  V  V2  1  0.08053000  0.17103000  0.37840000  1.0
  V  V3  1  0.91947000  0.82897000  0.62160000  1.0
  As  As4  1  0.76437000  0.05833000  0.51180000  1.0
  As  As5  1  0.23563000  0.94168000  0.48820000  1.0
  H  H6  1  0.09276000  0.20227000  0.71799000  1.0
  H  H7  1  0.90725000  0.79774000  0.28200000  1.0
  H  H8  1  0.54070000  0.35808000  0.96722000  1.0
  H  H9  1  0.45930000  0.64192000  0.03279000  1.0
  H  H10  1  0.90579000  0.26702000  0.87682000  1.0
  H  H11  1  0.09422000  0.73297000  0.12317000  1.0
  H  H12  1  0.77040000  0.28866000  0.02211000  1.0
  H  H13  1  0.22960000  0.71133000  0.97787000  1.0
  H  H14  1  0.61535000  0.37783000  0.20329000  1.0
  H  H15  1  0.38465000  0.62217000  0.79670000  1.0
  H  H16  1  0.25034000  0.51075000  0.26798000  1.0
  H  H17  1  0.74966000  0.48924000  0.73202000  1.0
  H  H18  1  0.46904000  0.15523000  0.35719000  1.0
  H  H19  1  0.53096000  0.84479000  0.64282000  1.0
  H  H20  1  0.04501000  0.09898000  0.10479000  1.0
  H  H21  1  0.95498000  0.90103000  0.89521000  1.0
  H  H22  1  0.65536000  0.07276000  0.20094000  1.0
  H  H23  1  0.34464000  0.92725000  0.79907000  1.0
  H  H24  1  0.37755000  0.43431000  0.14084000  1.0
  H  H25  1  0.62245000  0.56568000  0.85916000  1.0
  H  H26  1  0.21059000  0.00797000  0.93226000  1.0
  H  H27  1  0.78940000  0.99202000  0.06774000  1.0
  H  H28  1  0.07429000  0.58857000  0.43364000  1.0
  H  H29  1  0.92569000  0.41142000  0.56635000  1.0
  H  H30  1  0.77871000  0.53168000  0.39393000  1.0
  H  H31  1  0.22128000  0.46832000  0.60606000  1.0
  C  C32  1  0.14994000  0.25308000  0.81320000  1.0
  C  C33  1  0.85007000  0.74692000  0.18680000  1.0
  C  C34  1  0.39980000  0.34044000  0.95336000  1.0
  C  C35  1  0.60021000  0.65956000  0.04665000  1.0
  C  C36  1  0.04622000  0.28869000  0.90426000  1.0
  C  C37  1  0.95377000  0.71130000  0.09574000  1.0
  C  C38  1  0.12471000  0.35444000  0.02607000  1.0
  C  C39  1  0.87531000  0.64555000  0.97393000  1.0
  C  C40  1  0.30653000  0.38068000  0.04912000  1.0
  C  C41  1  0.69347000  0.61931000  0.95088000  1.0
  C  C42  1  0.02469000  0.39577000  0.12823000  1.0
  C  C43  1  0.97530000  0.60421000  0.87176000  1.0
  C  C44  1  0.84306000  0.35553000  0.11135000  1.0
  C  C45  1  0.15695000  0.64447000  0.88864000  1.0
  C  C46  1  0.75493000  0.40208000  0.20914000  1.0
  C  C47  1  0.24506000  0.59791000  0.79084000  1.0
  C  C48  1  0.01612000  0.52100000  0.34117000  1.0
  C  C49  1  0.98387000  0.47899000  0.65882000  1.0
  C  C50  1  0.11027000  0.47715000  0.24660000  1.0
  C  C51  1  0.88973000  0.52284000  0.75340000  1.0
  C  C52  1  0.41726000  0.12270000  0.26180000  1.0
  C  C53  1  0.58274000  0.87731000  0.73821000  1.0
  C  C54  1  0.18036000  0.08886000  0.11964000  1.0
  C  C55  1  0.81964000  0.91114000  0.88036000  1.0
  C  C56  1  0.52012000  0.07377000  0.17216000  1.0
  C  C57  1  0.47987000  0.92624000  0.82785000  1.0
  C  C58  1  0.27418000  0.03847000  0.02474000  1.0
  C  C59  1  0.72581000  0.96152000  0.97527000  1.0
  C  C60  1  0.44861000  0.02803000  0.04955000  1.0
  C  C61  1  0.55139000  0.97196000  0.95045000  1.0
  N  N62  1  0.32424000  0.27822000  0.83702000  1.0
  N  N63  1  0.67575000  0.72178000  0.16298000  1.0
  N  N64  1  0.84248000  0.48534000  0.32039000  1.0
  N  N65  1  0.15752000  0.51466000  0.67961000  1.0
  N  N66  1  0.24894000  0.12885000  0.23606000  1.0
  N  N67  1  0.75106000  0.87116000  0.76394000  1.0
  O  O68  1  0.60921000  0.16583000  0.55102000  1.0
  O  O69  1  0.39079000  0.83418000  0.44898000  1.0
  O  O70  1  0.95307000  0.16163000  0.50702000  1.0
  O  O71  1  0.04694000  0.83838000  0.49299000  1.0
  O  O72  1  0.81369000  0.99295000  0.62062000  1.0
  O  O73  1  0.18631000  0.00706000  0.37939000  1.0
  O  O74  1  0.68929000  0.92771000  0.37072000  1.0
  O  O75  1  0.31072000  0.07230000  0.62929000  1.0
  O  O76  1  0.65516000  0.25783000  0.80234000  1.0
  O  O77  1  0.34484000  0.74218000  0.19766000  1.0
  O  O78  1  0.47774000  0.39595000  0.69178000  1.0
  O  O79  1  0.52226000  0.60405000  0.30822000  1.0
  O  O80  1  0.18162000  0.33936000  0.44883000  1.0
  O  O81  1  0.81839000  0.66065000  0.55118000  1.0
  O  O82  1  0.92236000  0.15811000  0.27426000  1.0
  O  O83  1  0.07763000  0.84190000  0.72575000  1.0
