# generated using pymatgen
data_CdH14C13(NCl)2
_symmetry_space_group_name_H-M   'P 1'
_cell_length_a   8.58381000
_cell_length_b   11.92660000
_cell_length_c   13.69100000
_cell_angle_alpha   85.38870000
_cell_angle_beta   77.18560000
_cell_angle_gamma   82.46880000
_symmetry_Int_Tables_number   1
_chemical_formula_structural   CdH14C13(NCl)2
_chemical_formula_sum   'Cd4 H56 C52 N8 Cl8'
_cell_volume   1353.01494454
_cell_formula_units_Z   4
loop_
 _symmetry_equiv_pos_site_id
 _symmetry_equiv_pos_as_xyz
  1  'x, y, z'
loop_
 _atom_site_type_symbol
 _atom_site_label
 _atom_site_symmetry_multiplicity
 _atom_site_fract_x
 _atom_site_fract_y
 _atom_site_fract_z
 _atom_site_occupancy
  Cd  Cd0  1  0.86027000  0.11623000  0.06665000  1.0
  Cd  Cd1  1  0.13973000  0.88377000  0.93335000  1.0
  Cd  Cd2  1  0.91072000  0.39939000  0.94307000  1.0
  Cd  Cd3  1  0.08928000  0.60061000  0.05693000  1.0
  H  H4  1  0.75297000  0.29333000  0.19405000  1.0
  H  H5  1  0.24703000  0.70667000  0.80595000  1.0
  H  H6  1  0.61154000  0.20757000  0.21520000  1.0
  H  H7  1  0.38846000  0.79243000  0.78480000  1.0
  H  H8  1  0.62324000  0.03744000  0.33746000  1.0
  H  H9  1  0.37677000  0.96256000  0.66254000  1.0
  H  H10  1  0.67212000  0.98633000  0.50827000  1.0
  H  H11  1  0.32788000  0.01367000  0.49173000  1.0
  H  H12  1  0.95562000  0.26358000  0.48212000  1.0
  H  H13  1  0.04437000  0.73642000  0.51789000  1.0
  H  H14  1  0.90243000  0.31738000  0.31212000  1.0
  H  H15  1  0.09757000  0.68262000  0.68788000  1.0
  H  H16  1  0.59120000  0.23376000  0.69110000  1.0
  H  H17  1  0.40881000  0.76623000  0.30890000  1.0
  H  H18  1  0.37332000  0.19779000  0.83803000  1.0
  H  H19  1  0.62668000  0.80221000  0.16197000  1.0
  H  H20  1  0.58601000  0.85191000  0.86526000  1.0
  H  H21  1  0.41398000  0.14809000  0.13474000  1.0
  H  H22  1  0.27308000  0.07381000  0.97273000  1.0
  H  H23  1  0.72692000  0.92620000  0.02727000  1.0
  H  H24  1  0.37927000  0.95300000  0.00180000  1.0
  H  H25  1  0.62072000  0.04700000  0.99820000  1.0
  H  H26  1  0.88991000  0.23939000  0.81034000  1.0
  H  H27  1  0.11009000  0.76062000  0.18966000  1.0
  H  H28  1  0.80004000  0.36320000  0.77252000  1.0
  H  H29  1  0.19996000  0.63681000  0.22748000  1.0
  H  H30  1  0.15219000  0.16303000  0.73391000  1.0
  H  H31  1  0.84781000  0.83697000  0.26609000  1.0
  H  H32  1  0.38897000  0.18046000  0.59376000  1.0
  H  H33  1  0.61103000  0.81954000  0.40624000  1.0
  H  H34  1  0.18825000  0.51668000  0.51608000  1.0
  H  H35  1  0.81176000  0.48332000  0.48392000  1.0
  H  H36  1  0.95216000  0.49993000  0.65578000  1.0
  H  H37  1  0.04784000  0.50007000  0.34422000  1.0
  H  H38  1  0.53150000  0.27866000  0.45979000  1.0
  H  H39  1  0.46850000  0.72134000  0.54020000  1.0
  H  H40  1  0.52353000  0.42424000  0.47321000  1.0
  H  H41  1  0.47647000  0.57576000  0.52679000  1.0
  H  H42  1  0.55964000  0.51735000  0.31107000  1.0
  H  H43  1  0.44036000  0.48266000  0.68893000  1.0
  H  H44  1  0.23799000  0.37483000  0.05530000  1.0
  H  H45  1  0.76201000  0.62517000  0.94470000  1.0
  H  H46  1  0.37981000  0.46077000  0.01847000  1.0
  H  H47  1  0.62019000  0.53923000  0.98153000  1.0
  H  H48  1  0.48941000  0.55249000  0.14508000  1.0
  H  H49  1  0.51059000  0.44751000  0.85492000  1.0
  H  H50  1  0.17568000  0.29029000  0.21608000  1.0
  H  H51  1  0.82432000  0.70971000  0.78392000  1.0
  H  H52  1  0.24497000  0.25592000  0.38387000  1.0
  H  H53  1  0.75503000  0.74408000  0.61613000  1.0
  H  H54  1  0.80602000  0.88991000  0.71909000  1.0
  H  H55  1  0.19397000  0.11008000  0.28091000  1.0
  H  H56  1  0.91654000  0.15374000  0.63125000  1.0
  H  H57  1  0.08346000  0.84626000  0.36875000  1.0
  H  H58  1  0.94365000  0.01102000  0.60321000  1.0
  H  H59  1  0.05635000  0.98898000  0.39679000  1.0
  C  C60  1  0.76079000  0.18043000  0.31360000  1.0
  C  C61  1  0.23921000  0.81957000  0.68640000  1.0
  C  C62  1  0.69616000  0.08710000  0.36939000  1.0
  C  C63  1  0.30385000  0.91289000  0.63061000  1.0
  C  C64  1  0.72353000  0.05898000  0.46550000  1.0
  C  C65  1  0.27648000  0.94102000  0.53450000  1.0
  C  C66  1  0.81732000  0.12134000  0.50798000  1.0
  C  C67  1  0.18268000  0.87866000  0.49202000  1.0
  C  C68  1  0.88270000  0.21343000  0.45059000  1.0
  C  C69  1  0.11729000  0.78657000  0.54941000  1.0
  C  C70  1  0.85521000  0.24315000  0.35453000  1.0
  C  C71  1  0.14478000  0.75685000  0.64547000  1.0
  C  C72  1  0.59040000  0.14931000  0.72839000  1.0
  C  C73  1  0.40960000  0.85068000  0.27161000  1.0
  C  C74  1  0.46711000  0.12972000  0.81092000  1.0
  C  C75  1  0.53289000  0.87028000  0.18908000  1.0
  C  C76  1  0.46505000  0.02234000  0.86073000  1.0
  C  C77  1  0.53495000  0.97766000  0.13927000  1.0
  C  C78  1  0.58610000  0.93525000  0.82587000  1.0
  C  C79  1  0.41390000  0.06475000  0.17413000  1.0
  C  C80  1  0.03790000  0.33040000  0.70405000  1.0
  C  C81  1  0.96210000  0.66961000  0.29595000  1.0
  C  C82  1  0.16126000  0.24074000  0.68632000  1.0
  C  C83  1  0.83874000  0.75926000  0.31368000  1.0
  C  C84  1  0.29362000  0.25106000  0.60752000  1.0
  C  C85  1  0.70638000  0.74894000  0.39248000  1.0
  C  C86  1  0.30752000  0.35016000  0.54593000  1.0
  C  C87  1  0.69248000  0.64984000  0.45407000  1.0
  C  C88  1  0.18200000  0.43909000  0.56415000  1.0
  C  C89  1  0.81800000  0.56091000  0.43585000  1.0
  C  C90  1  0.04841000  0.42984000  0.64215000  1.0
  C  C91  1  0.95159000  0.57016000  0.35785000  1.0
  C  C92  1  0.45172000  0.35887000  0.46076000  1.0
  C  C93  1  0.54828000  0.64113000  0.53923000  1.0
  C  C94  1  0.47375000  0.46772000  0.29158000  1.0
  C  C95  1  0.52625000  0.53229000  0.70842000  1.0
  C  C96  1  0.43512000  0.48734000  0.19732000  1.0
  C  C97  1  0.56488000  0.51266000  0.80268000  1.0
  C  C98  1  0.32917000  0.42236000  0.16932000  1.0
  C  C99  1  0.67083000  0.57764000  0.83068000  1.0
  C  C100  1  0.25972000  0.33971000  0.23773000  1.0
  C  C101  1  0.74028000  0.66029000  0.76227000  1.0
  C  C102  1  0.29915000  0.32094000  0.33140000  1.0
  C  C103  1  0.70085000  0.67906000  0.66860000  1.0
  C  C104  1  0.70869000  0.95667000  0.74354000  1.0
  C  C105  1  0.29130000  0.04332000  0.25646000  1.0
  C  C106  1  0.71398000  0.06367000  0.69360000  1.0
  C  C107  1  0.28602000  0.93632000  0.30640000  1.0
  C  C108  1  0.85510000  0.08714000  0.60982000  1.0
  C  C109  1  0.14490000  0.91286000  0.39018000  1.0
  C  C110  1  0.40751000  0.38379000  0.35978000  1.0
  C  C111  1  0.59249000  0.61621000  0.64022000  1.0
  N  N112  1  0.72939000  0.21182000  0.21644000  1.0
  N  N113  1  0.27061000  0.78818000  0.78356000  1.0
  N  N114  1  0.33976000  0.00091000  0.94478000  1.0
  N  N115  1  0.66024000  0.99909000  0.05522000  1.0
  N  N116  1  0.90556000  0.32186000  0.78672000  1.0
  N  N117  1  0.09444000  0.67814000  0.21328000  1.0
  N  N118  1  0.28591000  0.44222000  0.07493000  1.0
  N  N119  1  0.71409000  0.55778000  0.92507000  1.0
  Cl  Cl120  1  0.10388000  0.23876000  0.01602000  1.0
  Cl  Cl121  1  0.89612000  0.76124000  0.98398000  1.0
  Cl  Cl122  1  0.04186000  0.95063000  0.12773000  1.0
  Cl  Cl123  1  0.95814000  0.04937000  0.87227000  1.0
  Cl  Cl124  1  0.65652000  0.28195000  0.99810000  1.0
  Cl  Cl125  1  0.34348000  0.71806000  0.00190000  1.0
  Cl  Cl126  1  0.85649000  0.47954000  0.12967000  1.0
  Cl  Cl127  1  0.14351000  0.52047000  0.87033000  1.0
