# generated using pymatgen
data_Zn4H21C26(NO5)3
_symmetry_space_group_name_H-M   'P 1'
_cell_length_a   10.74700000
_cell_length_b   10.93930000
_cell_length_c   19.62230000
_cell_angle_alpha   96.89420000
_cell_angle_beta   92.34030000
_cell_angle_gamma   99.13960000
_symmetry_Int_Tables_number   1
_chemical_formula_structural   Zn4H21C26(NO5)3
_chemical_formula_sum   'Zn4 H21 C26 N3 O15'
_cell_volume   2256.90666906
_cell_formula_units_Z   1
loop_
 _symmetry_equiv_pos_site_id
 _symmetry_equiv_pos_as_xyz
  1  'x, y, z'
loop_
 _atom_site_type_symbol
 _atom_site_label
 _atom_site_symmetry_multiplicity
 _atom_site_fract_x
 _atom_site_fract_y
 _atom_site_fract_z
 _atom_site_occupancy
  Zn  Zn0  1  0.41381000  0.58698000  0.44246000  1.0
  Zn  Zn1  1  0.38747000  0.38049000  0.54939000  1.0
  Zn  Zn2  1  0.61228000  0.60987000  0.57074000  1.0
  Zn  Zn3  1  0.59420000  0.39180000  0.43719000  1.0
  H  H4  1  0.27742000  0.45550000  0.89063000  1.0
  H  H5  1  0.52267000  0.80312000  0.23096000  1.0
  H  H6  1  0.47750000  0.71898000  0.29669000  1.0
  H  H7  1  0.94509000  0.77215000  0.54622000  1.0
  H  H8  1  0.08298000  0.77207000  0.49635000  1.0
  H  H9  1  0.10018000  0.81342000  0.58802000  1.0
  H  H10  1  0.24747000  0.57382000  0.69199000  1.0
  H  H11  1  0.15632000  0.59975000  0.76586000  1.0
  H  H12  1  0.10107000  0.47461000  0.69816000  1.0
  H  H13  1  0.60596000  0.29341000  0.04227000  1.0
  H  H14  1  0.64566000  0.23684000  0.11444000  1.0
  H  H15  1  0.54897000  0.01389000  0.58874000  1.0
  H  H16  1  0.43415000  0.75796000  0.12991000  1.0
  H  H17  1  0.50597000  0.71318000  0.05844000  1.0
  H  H18  1  0.45851000  0.97129000  0.43484000  1.0
  H  H19  1  0.97152000  0.36382000  0.44919000  1.0
  H  H20  1  0.66922000  0.58597000  0.77607000  1.0
  H  H21  1  0.38691000  0.51733000  0.00261000  1.0
  H  H22  1  0.67949000  0.58806000  0.90280000  1.0
  H  H23  1  0.60564000  0.33226000  0.22609000  1.0
  H  H24  1  0.66951000  0.49904000  0.00277000  1.0
  C  C25  1  0.48672000  0.16064000  0.49054000  1.0
  C  C26  1  0.57864000  0.51105000  0.02384000  1.0
  C  C27  1  0.47895000  0.51678000  0.98065000  1.0
  C  C28  1  0.51783000  0.82809000  0.52664000  1.0
  C  C29  1  0.47072000  0.51798000  0.76149000  1.0
  C  C30  1  0.51723000  0.96474000  0.53783000  1.0
  C  C31  1  0.48378000  0.02382000  0.48572000  1.0
  C  C32  1  0.97700000  0.53419000  0.51306000  1.0
  C  C33  1  0.03085000  0.44583000  0.47724000  1.0
  C  C34  1  0.17018000  0.45280000  0.47846000  1.0
  C  C35  1  0.83534000  0.52255000  0.51124000  1.0
  C  C36  1  0.57098000  0.51425000  0.09865000  1.0
  C  C37  1  0.47907000  0.51010000  0.68562000  1.0
  C  C38  1  0.52941000  0.50128000  0.31453000  1.0
  C  C39  1  0.54522000  0.51132000  0.24098000  1.0
  C  C40  1  0.51956000  0.61622000  0.21038000  1.0
  C  C41  1  0.53139000  0.61517000  0.13840000  1.0
  C  C42  1  0.04265000  0.75396000  0.54554000  1.0
  C  C43  1  0.18478000  0.52859000  0.72765000  1.0
  C  C44  1  0.60176000  0.41229000  0.13087000  1.0
  C  C45  1  0.58710000  0.41156000  0.20082000  1.0
  C  C46  1  0.58999000  0.55645000  0.87294000  1.0
  C  C47  1  0.58434000  0.55663000  0.80235000  1.0
  C  C48  1  0.35876000  0.48223000  0.79501000  1.0
  C  C49  1  0.36524000  0.48368000  0.86640000  1.0
  C  C50  1  0.47950000  0.51835000  0.90641000  1.0
  N  N51  1  0.48014000  0.72070000  0.24501000  1.0
  N  N52  1  0.64586000  0.31471000  0.09099000  1.0
  N  N53  1  0.50937000  0.72238000  0.11062000  1.0
  O  O54  1  0.50354000  0.49279000  0.50109000  1.0
  O  O55  1  0.39014000  0.43980000  0.64748000  1.0
  O  O56  1  0.57065000  0.41194000  0.34020000  1.0
  O  O57  1  0.57760000  0.57236000  0.66409000  1.0
  O  O58  1  0.47380000  0.58245000  0.34940000  1.0
  O  O59  1  0.04935000  0.62721000  0.55705000  1.0
  O  O60  1  0.24197000  0.44089000  0.76222000  1.0
  O  O61  1  0.23106000  0.53836000  0.44837000  1.0
  O  O62  1  0.77431000  0.43761000  0.46668000  1.0
  O  O63  1  0.43791000  0.21373000  0.54180000  1.0
  O  O64  1  0.58273000  0.78399000  0.57100000  1.0
  O  O65  1  0.53744000  0.21204000  0.44116000  1.0
  O  O66  1  0.45375000  0.76686000  0.47385000  1.0
  O  O67  1  0.21490000  0.37094000  0.50869000  1.0
  O  O68  1  0.78991000  0.59800000  0.55425000  1.0
