# generated using pymatgen
data_ErH10(C3O2)4
_symmetry_space_group_name_H-M   'P 1'
_cell_length_a   6.12190000
_cell_length_b   9.98685000
_cell_length_c   10.01450000
_cell_angle_alpha   102.76700000
_cell_angle_beta   91.44390000
_cell_angle_gamma   100.33300000
_symmetry_Int_Tables_number   1
_chemical_formula_structural   ErH10(C3O2)4
_chemical_formula_sum   'Er2 H20 C24 O16'
_cell_volume   586.10695104
_cell_formula_units_Z   2
loop_
 _symmetry_equiv_pos_site_id
 _symmetry_equiv_pos_as_xyz
  1  'x, y, z'
loop_
 _atom_site_type_symbol
 _atom_site_label
 _atom_site_symmetry_multiplicity
 _atom_site_fract_x
 _atom_site_fract_y
 _atom_site_fract_z
 _atom_site_occupancy
  Er  Er0  1  0.01458000  0.51582000  0.75822000  1.0
  Er  Er1  1  0.98541000  0.48419000  0.24178000  1.0
  H  H2  1  0.72897000  0.47475000  0.51577000  1.0
  H  H3  1  0.27103000  0.52526000  0.48424000  1.0
  H  H4  1  0.55550000  0.45953000  0.62690000  1.0
  H  H5  1  0.44450000  0.54047000  0.37310000  1.0
  H  H6  1  0.26844000  0.39249000  0.95975000  1.0
  H  H7  1  0.73155000  0.60750000  0.04025000  1.0
  H  H8  1  0.43066000  0.44868000  0.85710000  1.0
  H  H9  1  0.56933000  0.55132000  0.14290000  1.0
  H  H10  1  0.75732000  0.84320000  0.03594000  1.0
  H  H11  1  0.24269000  0.15679000  0.96406000  1.0
  H  H12  1  0.84920000  0.10444000  0.08763000  1.0
  H  H13  1  0.15080000  0.89556000  0.91237000  1.0
  H  H14  1  0.59447000  0.09924000  0.68299000  1.0
  H  H15  1  0.40554000  0.90075000  0.31701000  1.0
  H  H16  1  0.47826000  0.83783000  0.63594000  1.0
  H  H17  1  0.52174000  0.16217000  0.36406000  1.0
  H  H18  1  0.85558000  0.04300000  0.28277000  1.0
  H  H19  1  0.14442000  0.95700000  0.71723000  1.0
  H  H20  1  0.18711000  0.20105000  0.68522000  1.0
  H  H21  1  0.81289000  0.79895000  0.31478000  1.0
  C  C22  1  0.55711000  0.66999000  0.80243000  1.0
  C  C23  1  0.44290000  0.33001000  0.19758000  1.0
  C  C24  1  0.61421000  0.82523000  0.83240000  1.0
  C  C25  1  0.38580000  0.17477000  0.16760000  1.0
  C  C26  1  0.71929000  0.89961000  0.95962000  1.0
  C  C27  1  0.28071000  0.10039000  0.04038000  1.0
  C  C28  1  0.77159000  0.04447000  0.98846000  1.0
  C  C29  1  0.22841000  0.95553000  0.01155000  1.0
  C  C30  1  0.73010000  0.11630000  0.88823000  1.0
  C  C31  1  0.26990000  0.88370000  0.11177000  1.0
  C  C32  1  0.62506000  0.04214000  0.76039000  1.0
  C  C33  1  0.37494000  0.95785000  0.23962000  1.0
  C  C34  1  0.56235000  0.89731000  0.73390000  1.0
  C  C35  1  0.43765000  0.10269000  0.26610000  1.0
  C  C36  1  0.80749000  0.27107000  0.91870000  1.0
  C  C37  1  0.19252000  0.72894000  0.08131000  1.0
  C  C38  1  0.04841000  0.28192000  0.46033000  1.0
  C  C39  1  0.95158000  0.71808000  0.53966000  1.0
  C  C40  1  0.02259000  0.13672000  0.48160000  1.0
  C  C41  1  0.97742000  0.86328000  0.51839000  1.0
  C  C42  1  0.91744000  0.02306000  0.37784000  1.0
  C  C43  1  0.08257000  0.97694000  0.62216000  1.0
  C  C44  1  0.10591000  0.11280000  0.60429000  1.0
  C  C45  1  0.89409000  0.88720000  0.39571000  1.0
  O  O46  1  0.67664000  0.60222000  0.86033000  1.0
  O  O47  1  0.32337000  0.39777000  0.13967000  1.0
  O  O48  1  0.39216000  0.60691000  0.71832000  1.0
  O  O49  1  0.60785000  0.39309000  0.28168000  1.0
  O  O50  1  0.80883000  0.33209000  0.81989000  1.0
  O  O51  1  0.19117000  0.66791000  0.18010000  1.0
  O  O52  1  0.87419000  0.33416000  0.04176000  1.0
  O  O53  1  0.12580000  0.66584000  0.95824000  1.0
  O  O54  1  0.11932000  0.38468000  0.56334000  1.0
  O  O55  1  0.88068000  0.61532000  0.43665000  1.0
  O  O56  1  0.00461000  0.29874000  0.34131000  1.0
  O  O57  1  0.99538000  0.70126000  0.65869000  1.0
  O  O58  1  0.69321000  0.43023000  0.59346000  1.0
  O  O59  1  0.30679000  0.56977000  0.40655000  1.0
  O  O60  1  0.27665000  0.40073000  0.86323000  1.0
  O  O61  1  0.72334000  0.59928000  0.13678000  1.0
