# generated using pymatgen
data_ZnH30C45(NO)4
_symmetry_space_group_name_H-M   'P 1'
_cell_length_a   13.26880000
_cell_length_b   14.92910000
_cell_length_c   14.92920000
_cell_angle_alpha   113.40900000
_cell_angle_beta   98.07900000
_cell_angle_gamma   98.07860000
_symmetry_Int_Tables_number   1
_chemical_formula_structural   ZnH30C45(NO)4
_chemical_formula_sum   'Zn2 H60 C90 N8 O8'
_cell_volume   2623.49202751
_cell_formula_units_Z   2
loop_
 _symmetry_equiv_pos_site_id
 _symmetry_equiv_pos_as_xyz
  1  'x, y, z'
loop_
 _atom_site_type_symbol
 _atom_site_label
 _atom_site_symmetry_multiplicity
 _atom_site_fract_x
 _atom_site_fract_y
 _atom_site_fract_z
 _atom_site_occupancy
  Zn  Zn0  1  0.25000000  0.87915000  0.12086000  1.0
  Zn  Zn1  1  0.75000000  0.12086000  0.87914000  1.0
  H  H2  1  0.31614000  0.61847000  0.13655000  1.0
  H  H3  1  0.18385000  0.86345000  0.38153000  1.0
  H  H4  1  0.68386000  0.38154000  0.86346000  1.0
  H  H5  1  0.81614000  0.13655000  0.61847000  1.0
  H  H6  1  0.37559000  0.46252000  0.12218000  1.0
  H  H7  1  0.12441000  0.87781000  0.53747000  1.0
  H  H8  1  0.62441000  0.53749000  0.87781000  1.0
  H  H9  1  0.87559000  0.12219000  0.46252000  1.0
  H  H10  1  0.48575000  0.34030000  0.05386000  1.0
  H  H11  1  0.01425000  0.94614000  0.65969000  1.0
  H  H12  1  0.51424000  0.65969000  0.94614000  1.0
  H  H13  1  0.98574000  0.05386000  0.34031000  1.0
  H  H14  1  0.18507000  0.68974000  0.94668000  1.0
  H  H15  1  0.31493000  0.05334000  0.31026000  1.0
  H  H16  1  0.81493000  0.31026000  0.05333000  1.0
  H  H17  1  0.68507000  0.94667000  0.68974000  1.0
  H  H18  1  0.06903000  0.61470000  0.78022000  1.0
  H  H19  1  0.43096000  0.21979000  0.38529000  1.0
  H  H20  1  0.93096000  0.38530000  0.21979000  1.0
  H  H21  1  0.56905000  0.78021000  0.61471000  1.0
  H  H22  1  0.98461000  0.90197000  0.85074000  1.0
  H  H23  1  0.51538000  0.14926000  0.09803000  1.0
  H  H24  1  0.01538000  0.09803000  0.14926000  1.0
  H  H25  1  0.48463000  0.85074000  0.90197000  1.0
  H  H26  1  0.10493000  0.96369000  0.01576000  1.0
  H  H27  1  0.39506000  0.98425000  0.03632000  1.0
  H  H28  1  0.89506000  0.03632000  0.98424000  1.0
  H  H29  1  0.60495000  0.01576000  0.96369000  1.0
  H  H30  1  0.97458000  0.55932000  0.64955000  1.0
  H  H31  1  0.52541000  0.35046000  0.44069000  1.0
  H  H32  1  0.02541000  0.44069000  0.35046000  1.0
  H  H33  1  0.47459000  0.64954000  0.55931000  1.0
  H  H34  1  0.86193000  0.49223000  0.48339000  1.0
  H  H35  1  0.63808000  0.51661000  0.50777000  1.0
  H  H36  1  0.13807000  0.50777000  0.51661000  1.0
  H  H37  1  0.36193000  0.48339000  0.49223000  1.0
  H  H38  1  0.78169000  0.77860000  0.55042000  1.0
  H  H39  1  0.71832000  0.44958000  0.22140000  1.0
  H  H40  1  0.21833000  0.22141000  0.44958000  1.0
  H  H41  1  0.28169000  0.55042000  0.77860000  1.0
  H  H42  1  0.89323000  0.84721000  0.71722000  1.0
  H  H43  1  0.60676000  0.28279000  0.15279000  1.0
  H  H44  1  0.10678000  0.15279000  0.28278000  1.0
  H  H45  1  0.39324000  0.71721000  0.84722000  1.0
  H  H46  1  0.91295000  0.72231000  0.41193000  1.0
  H  H47  1  0.58705000  0.58807000  0.27768000  1.0
  H  H48  1  0.08705000  0.27767000  0.58807000  1.0
  H  H49  1  0.41295000  0.41192000  0.72233000  1.0
  H  H50  1  0.91252000  0.82107000  0.31424000  1.0
  H  H51  1  0.58747000  0.68577000  0.17893000  1.0
  H  H52  1  0.08748000  0.17893000  0.68576000  1.0
  H  H53  1  0.41252000  0.31423000  0.82107000  1.0
  H  H54  1  0.58714000  0.83108000  0.17080000  1.0
  H  H55  1  0.91286000  0.82921000  0.16892000  1.0
  H  H56  1  0.41286000  0.16892000  0.82920000  1.0
  H  H57  1  0.08714000  0.17079000  0.83108000  1.0
  H  H58  1  0.59364000  0.92857000  0.07158000  1.0
  H  H59  1  0.90637000  0.92841000  0.07143000  1.0
  H  H60  1  0.40637000  0.07143000  0.92841000  1.0
  H  H61  1  0.09364000  0.07158000  0.92857000  1.0
  C  C62  1  0.37604000  0.74166000  0.05263000  1.0
  C  C63  1  0.12395000  0.94736000  0.25834000  1.0
  C  C64  1  0.62395000  0.25834000  0.94736000  1.0
  C  C65  1  0.87605000  0.05264000  0.74167000  1.0
  C  C66  1  0.41206000  0.64746000  0.04142000  1.0
  C  C67  1  0.08793000  0.95858000  0.35253000  1.0
  C  C68  1  0.58793000  0.35254000  0.95858000  1.0
  C  C69  1  0.91207000  0.04143000  0.64747000  1.0
  C  C70  1  0.37269000  0.59138000  0.09173000  1.0
  C  C71  1  0.12731000  0.90828000  0.40862000  1.0
  C  C72  1  0.62731000  0.40863000  0.90828000  1.0
  C  C73  1  0.87269000  0.09173000  0.59139000  1.0
  C  C74  1  0.40589000  0.50580000  0.08383000  1.0
  C  C75  1  0.09410000  0.91617000  0.49420000  1.0
  C  C76  1  0.59410000  0.49421000  0.91618000  1.0
  C  C77  1  0.90589000  0.08383000  0.50580000  1.0
  C  C78  1  0.48022000  0.47186000  0.02562000  1.0
  C  C79  1  0.01977000  0.97438000  0.52814000  1.0
  C  C80  1  0.51977000  0.52814000  0.97438000  1.0
  C  C81  1  0.98022000  0.02562000  0.47186000  1.0
  C  C82  1  0.51603000  0.38434000  0.01633000  1.0
  C  C83  1  0.98396000  0.98367000  0.61566000  1.0
  C  C84  1  0.48395000  0.61566000  0.98367000  1.0
  C  C85  1  0.01603000  0.01633000  0.38434000  1.0
  C  C86  1  0.13899000  0.73382000  0.92189000  1.0
  C  C87  1  0.36100000  0.07812000  0.26617000  1.0
  C  C88  1  0.86101000  0.26618000  0.07811000  1.0
  C  C89  1  0.63900000  0.92189000  0.73383000  1.0
  C  C90  1  0.07311000  0.69268000  0.82856000  1.0
  C  C91  1  0.42689000  0.17144000  0.30732000  1.0
  C  C92  1  0.92689000  0.30732000  0.17144000  1.0
  C  C93  1  0.57311000  0.82856000  0.69268000  1.0
  C  C94  1  0.01392000  0.75090000  0.79800000  1.0
  C  C95  1  0.48607000  0.20201000  0.24910000  1.0
  C  C96  1  0.98607000  0.24911000  0.20200000  1.0
  C  C97  1  0.51393000  0.79799000  0.75090000  1.0
  C  C98  1  0.02625000  0.85088000  0.86797000  1.0
  C  C99  1  0.47374000  0.13204000  0.14912000  1.0
  C  C100  1  0.97375000  0.14912000  0.13203000  1.0
  C  C101  1  0.52626000  0.86796000  0.85088000  1.0
  C  C102  1  0.09395000  0.88685000  0.96035000  1.0
  C  C103  1  0.40604000  0.03966000  0.11315000  1.0
  C  C104  1  0.90604000  0.11315000  0.03966000  1.0
  C  C105  1  0.59396000  0.96034000  0.88685000  1.0
  C  C106  1  0.94438000  0.70937000  0.69837000  1.0
  C  C107  1  0.55561000  0.30163000  0.29062000  1.0
  C  C108  1  0.05562000  0.29063000  0.30163000  1.0
  C  C109  1  0.44440000  0.69837000  0.70937000  1.0
  C  C110  1  0.93264000  0.60890000  0.62987000  1.0
  C  C111  1  0.56735000  0.37014000  0.39110000  1.0
  C  C112  1  0.06736000  0.39110000  0.37014000  1.0
  C  C113  1  0.43266000  0.62986000  0.60890000  1.0
  C  C114  1  0.86888000  0.56995000  0.53521000  1.0
  C  C115  1  0.63112000  0.46478000  0.43005000  1.0
  C  C116  1  0.13111000  0.43005000  0.46478000  1.0
  C  C117  1  0.36889000  0.53522000  0.56995000  1.0
  C  C118  1  0.81374000  0.63076000  0.50522000  1.0
  C  C119  1  0.68627000  0.49478000  0.36924000  1.0
  C  C120  1  0.18626000  0.36924000  0.49478000  1.0
  C  C121  1  0.31374000  0.50522000  0.63076000  1.0
  C  C122  1  0.82400000  0.73072000  0.57281000  1.0
  C  C123  1  0.67600000  0.42718000  0.26928000  1.0
  C  C124  1  0.17600000  0.26928000  0.42718000  1.0
  C  C125  1  0.32400000  0.57281000  0.73072000  1.0
  C  C126  1  0.88785000  0.76906000  0.66744000  1.0
  C  C127  1  0.61215000  0.33257000  0.23093000  1.0
  C  C128  1  0.11216000  0.23094000  0.33256000  1.0
  C  C129  1  0.38786000  0.66743000  0.76907000  1.0
  C  C130  1  0.75000000  0.64810000  0.35191000  1.0
  C  C131  1  0.25000000  0.35190000  0.64809000  1.0
  C  C132  1  0.84143000  0.71398000  0.36072000  1.0
  C  C133  1  0.65856000  0.63928000  0.28602000  1.0
  C  C134  1  0.15857000  0.28601000  0.63927000  1.0
  C  C135  1  0.34143000  0.36071000  0.71398000  1.0
  C  C136  1  0.84097000  0.76950000  0.30497000  1.0
  C  C137  1  0.65902000  0.69503000  0.23050000  1.0
  C  C138  1  0.15903000  0.23050000  0.69502000  1.0
  C  C139  1  0.34097000  0.30497000  0.76950000  1.0
  C  C140  1  0.75000000  0.76129000  0.23871000  1.0
  C  C141  1  0.25000000  0.23870000  0.76129000  1.0
  C  C142  1  0.75000000  0.82036000  0.17965000  1.0
  C  C143  1  0.25000000  0.17964000  0.82035000  1.0
  C  C144  1  0.65998000  0.85012000  0.15009000  1.0
  C  C145  1  0.84002000  0.84990000  0.14988000  1.0
  C  C146  1  0.34002000  0.14987000  0.84991000  1.0
  C  C147  1  0.15998000  0.15008000  0.85011000  1.0
  C  C148  1  0.66405000  0.90597000  0.09444000  1.0
  C  C149  1  0.83596000  0.90556000  0.09403000  1.0
  C  C150  1  0.33596000  0.09404000  0.90557000  1.0
  C  C151  1  0.16405000  0.09443000  0.90596000  1.0
  N  N152  1  0.15016000  0.82975000  0.98767000  1.0
  N  N153  1  0.34984000  0.01233000  0.17025000  1.0
  N  N154  1  0.84984000  0.17025000  0.01233000  1.0
  N  N155  1  0.65016000  0.98767000  0.82975000  1.0
  N  N156  1  0.75000000  0.59142000  0.40859000  1.0
  N  N157  1  0.25000000  0.40858000  0.59142000  1.0
  N  N158  1  0.75000000  0.93421000  0.06578000  1.0
  N  N159  1  0.25000000  0.06578000  0.93421000  1.0
  O  O160  1  0.31164000  0.76448000  0.11166000  1.0
  O  O161  1  0.18835000  0.88833000  0.23553000  1.0
  O  O162  1  0.68837000  0.23553000  0.88833000  1.0
  O  O163  1  0.81164000  0.11167000  0.76447000  1.0
  O  O164  1  0.40654000  0.79138000  0.00689000  1.0
  O  O165  1  0.09345000  0.99311000  0.20862000  1.0
  O  O166  1  0.59347000  0.20863000  0.99310000  1.0
  O  O167  1  0.90654000  0.00690000  0.79138000  1.0
