# generated using pymatgen
data_Eu2H10C14N4O15
_symmetry_space_group_name_H-M   'P 1'
_cell_length_a   10.96640000
_cell_length_b   11.85390000
_cell_length_c   19.08140000
_cell_angle_alpha   90.00000000
_cell_angle_beta   90.00090000
_cell_angle_gamma   90.00000000
_symmetry_Int_Tables_number   1
_chemical_formula_structural   Eu2H10C14N4O15
_chemical_formula_sum   'Eu8 H40 C56 N16 O60'
_cell_volume   2480.47913110
_cell_formula_units_Z   4
loop_
 _symmetry_equiv_pos_site_id
 _symmetry_equiv_pos_as_xyz
  1  'x, y, z'
loop_
 _atom_site_type_symbol
 _atom_site_label
 _atom_site_symmetry_multiplicity
 _atom_site_fract_x
 _atom_site_fract_y
 _atom_site_fract_z
 _atom_site_occupancy
  Eu  Eu0  1  0.86051000  0.83838000  0.10092000  1.0
  Eu  Eu1  1  0.13949000  0.16162000  0.60092000  1.0
  Eu  Eu2  1  0.36051000  0.66162000  0.60092000  1.0
  Eu  Eu3  1  0.63949000  0.33838000  0.10092000  1.0
  Eu  Eu4  1  0.38277000  0.02223000  0.32133000  1.0
  Eu  Eu5  1  0.61723000  0.97777000  0.82132000  1.0
  Eu  Eu6  1  0.88277000  0.47777000  0.82132000  1.0
  Eu  Eu7  1  0.11723000  0.52223000  0.32132000  1.0
  H  H8  1  0.63966000  0.99472000  0.20096000  1.0
  H  H9  1  0.36033000  0.00529000  0.70097000  1.0
  H  H10  1  0.13966000  0.50528000  0.70097000  1.0
  H  H11  1  0.86033000  0.49471000  0.20097000  1.0
  H  H12  1  0.79214000  0.74793000  0.38503000  1.0
  H  H13  1  0.20787000  0.25206000  0.88503000  1.0
  H  H14  1  0.29214000  0.75207000  0.88503000  1.0
  H  H15  1  0.70787000  0.24794000  0.38503000  1.0
  H  H16  1  0.14325000  0.88397000  0.20573000  1.0
  H  H17  1  0.85676000  0.11603000  0.70573000  1.0
  H  H18  1  0.64325000  0.61603000  0.70573000  1.0
  H  H19  1  0.35676000  0.38397000  0.20573000  1.0
  H  H20  1  0.98839000  0.26826000  0.20549000  1.0
  H  H21  1  0.01160000  0.73174000  0.70549000  1.0
  H  H22  1  0.48839000  0.23174000  0.70549000  1.0
  H  H23  1  0.51160000  0.76826000  0.20549000  1.0
  H  H24  1  0.08909000  0.89493000  0.03820000  1.0
  H  H25  1  0.91091000  0.10507000  0.53820000  1.0
  H  H26  1  0.58909000  0.60507000  0.53821000  1.0
  H  H27  1  0.41091000  0.39493000  0.03820000  1.0
  H  H28  1  0.09179000  0.76431000  0.03327000  1.0
  H  H29  1  0.90821000  0.23569000  0.53327000  1.0
  H  H30  1  0.59179000  0.73569000  0.53327000  1.0
  H  H31  1  0.40821000  0.26431000  0.03327000  1.0
  H  H32  1  0.90977000  0.64142000  0.99468000  1.0
  H  H33  1  0.09023000  0.35858000  0.49468000  1.0
  H  H34  1  0.40977000  0.85858000  0.49468000  1.0
  H  H35  1  0.59023000  0.14142000  0.99468000  1.0
  H  H36  1  0.82647000  0.60156000  0.06008000  1.0
  H  H37  1  0.17353000  0.39844000  0.56008000  1.0
  H  H38  1  0.32647000  0.89844000  0.56008000  1.0
  H  H39  1  0.67353000  0.10156000  0.06008000  1.0
  H  H40  1  0.46319000  0.12112000  0.18413000  1.0
  H  H41  1  0.53680000  0.87888000  0.68413000  1.0
  H  H42  1  0.96319000  0.37888000  0.68413000  1.0
  H  H43  1  0.03680000  0.62112000  0.18413000  1.0
  H  H44  1  0.38615000  0.01764000  0.15249000  1.0
  H  H45  1  0.61385000  0.98236000  0.65249000  1.0
  H  H46  1  0.88615000  0.48236000  0.65249000  1.0
  H  H47  1  0.11385000  0.51764000  0.15249000  1.0
  C  C48  1  0.67330000  0.93863000  0.24188000  1.0
  C  C49  1  0.32670000  0.06138000  0.74189000  1.0
  C  C50  1  0.17330000  0.56137000  0.74188000  1.0
  C  C51  1  0.82670000  0.43862000  0.24189000  1.0
  C  C52  1  0.64949000  0.86285000  0.35124000  1.0
  C  C53  1  0.35051000  0.13715000  0.85124000  1.0
  C  C54  1  0.14949000  0.63715000  0.85124000  1.0
  C  C55  1  0.85051000  0.36285000  0.35124000  1.0
  C  C56  1  0.75759000  0.80214000  0.34355000  1.0
  C  C57  1  0.24241000  0.19786000  0.84355000  1.0
  C  C58  1  0.25759000  0.69786000  0.84355000  1.0
  C  C59  1  0.74241000  0.30214000  0.34355000  1.0
  C  C60  1  0.81540000  0.80955000  0.27899000  1.0
  C  C61  1  0.18460000  0.19045000  0.77899000  1.0
  C  C62  1  0.31540000  0.69045000  0.77899000  1.0
  C  C63  1  0.68460000  0.30955000  0.27899000  1.0
  C  C64  1  0.91872000  0.73065000  0.25999000  1.0
  C  C65  1  0.08127000  0.26934000  0.75998000  1.0
  C  C66  1  0.41872000  0.76934000  0.75999000  1.0
  C  C67  1  0.58127000  0.23066000  0.25998000  1.0
  C  C68  1  0.57444000  0.85293000  0.41728000  1.0
  C  C69  1  0.42557000  0.14707000  0.91728000  1.0
  C  C70  1  0.07444000  0.64707000  0.91728000  1.0
  C  C71  1  0.92557000  0.35293000  0.41728000  1.0
  C  C72  1  0.10883000  0.97010000  0.20598000  1.0
  C  C73  1  0.89117000  0.02990000  0.70598000  1.0
  C  C74  1  0.60883000  0.52990000  0.70598000  1.0
  C  C75  1  0.39117000  0.47010000  0.20597000  1.0
  C  C76  1  0.13070000  0.15446000  0.23992000  1.0
  C  C77  1  0.86930000  0.84554000  0.73992000  1.0
  C  C78  1  0.63070000  0.34554000  0.73992000  1.0
  C  C79  1  0.36930000  0.65446000  0.23992000  1.0
  C  C80  1  0.02255000  0.18228000  0.20611000  1.0
  C  C81  1  0.97745000  0.81772000  0.70611000  1.0
  C  C82  1  0.52255000  0.31772000  0.70611000  1.0
  C  C83  1  0.47745000  0.68228000  0.20611000  1.0
  C  C84  1  0.96034000  0.09509000  0.17302000  1.0
  C  C85  1  0.03966000  0.90491000  0.67302000  1.0
  C  C86  1  0.46034000  0.40491000  0.67302000  1.0
  C  C87  1  0.53966000  0.59509000  0.17302000  1.0
  C  C88  1  0.83838000  0.11501000  0.13886000  1.0
  C  C89  1  0.16161000  0.88499000  0.63886000  1.0
  C  C90  1  0.33838000  0.38499000  0.63886000  1.0
  C  C91  1  0.66161000  0.61501000  0.13886000  1.0
  C  C92  1  0.20555000  0.24327000  0.27769000  1.0
  C  C93  1  0.79446000  0.75673000  0.77769000  1.0
  C  C94  1  0.70555000  0.25673000  0.77769000  1.0
  C  C95  1  0.29446000  0.74327000  0.27769000  1.0
  C  C96  1  0.32338000  0.11526000  0.47403000  1.0
  C  C97  1  0.67662000  0.88474000  0.97402000  1.0
  C  C98  1  0.82338000  0.38474000  0.97402000  1.0
  C  C99  1  0.17662000  0.61526000  0.47402000  1.0
  C  C100  1  0.19979000  0.06580000  0.44757000  1.0
  C  C101  1  0.80021000  0.93420000  0.94757000  1.0
  C  C102  1  0.69979000  0.43420000  0.94757000  1.0
  C  C103  1  0.30021000  0.56580000  0.44758000  1.0
  N  N104  1  0.77548000  0.88083000  0.22895000  1.0
  N  N105  1  0.22451000  0.11918000  0.72895000  1.0
  N  N106  1  0.27548000  0.61917000  0.72895000  1.0
  N  N107  1  0.72451000  0.38082000  0.22895000  1.0
  N  N108  1  0.60542000  0.92889000  0.29994000  1.0
  N  N109  1  0.39458000  0.07111000  0.79994000  1.0
  N  N110  1  0.10542000  0.57111000  0.79994000  1.0
  N  N111  1  0.89458000  0.42889000  0.29994000  1.0
  N  N112  1  0.00401000  0.98925000  0.17159000  1.0
  N  N113  1  0.99599000  0.01075000  0.67159000  1.0
  N  N114  1  0.50401000  0.51075000  0.67158000  1.0
  N  N115  1  0.49599000  0.48925000  0.17159000  1.0
  N  N116  1  0.17355000  0.04795000  0.24064000  1.0
  N  N117  1  0.82646000  0.95205000  0.74064000  1.0
  N  N118  1  0.67355000  0.45205000  0.74064000  1.0
  N  N119  1  0.32646000  0.54795000  0.24064000  1.0
  O  O120  1  0.96058000  0.73859000  0.19736000  1.0
  O  O121  1  0.03941000  0.26142000  0.69735000  1.0
  O  O122  1  0.46058000  0.76141000  0.69736000  1.0
  O  O123  1  0.53941000  0.23858000  0.19735000  1.0
  O  O124  1  0.95143000  0.66052000  0.30534000  1.0
  O  O125  1  0.04857000  0.33948000  0.80534000  1.0
  O  O126  1  0.45143000  0.83948000  0.80534000  1.0
  O  O127  1  0.54857000  0.16052000  0.30534000  1.0
  O  O128  1  0.46313000  0.88437000  0.41272000  1.0
  O  O129  1  0.53688000  0.11564000  0.91272000  1.0
  O  O130  1  0.96313000  0.61563000  0.91272000  1.0
  O  O131  1  0.03688000  0.38437000  0.41272000  1.0
  O  O132  1  0.62930000  0.81440000  0.46979000  1.0
  O  O133  1  0.37071000  0.18559000  0.96979000  1.0
  O  O134  1  0.12930000  0.68560000  0.96979000  1.0
  O  O135  1  0.87070000  0.31441000  0.46979000  1.0
  O  O136  1  0.79098000  0.03317000  0.10509000  1.0
  O  O137  1  0.20901000  0.96683000  0.60509000  1.0
  O  O138  1  0.29098000  0.46683000  0.60509000  1.0
  O  O139  1  0.70901000  0.53317000  0.10509000  1.0
  O  O140  1  0.79115000  0.21017000  0.14832000  1.0
  O  O141  1  0.20885000  0.78983000  0.64832000  1.0
  O  O142  1  0.29115000  0.28983000  0.64832000  1.0
  O  O143  1  0.70885000  0.71017000  0.14832000  1.0
  O  O144  1  0.30219000  0.21084000  0.30691000  1.0
  O  O145  1  0.69782000  0.78917000  0.80691000  1.0
  O  O146  1  0.80219000  0.28916000  0.80691000  1.0
  O  O147  1  0.19782000  0.71083000  0.30691000  1.0
  O  O148  1  0.16490000  0.34345000  0.27508000  1.0
  O  O149  1  0.83510000  0.65655000  0.77508000  1.0
  O  O150  1  0.66490000  0.15655000  0.77508000  1.0
  O  O151  1  0.33510000  0.84345000  0.27508000  1.0
  O  O152  1  0.41226000  0.11057000  0.43209000  1.0
  O  O153  1  0.58774000  0.88943000  0.93208000  1.0
  O  O154  1  0.91226000  0.38943000  0.93209000  1.0
  O  O155  1  0.08774000  0.61057000  0.43208000  1.0
  O  O156  1  0.32463000  0.15463000  0.53577000  1.0
  O  O157  1  0.67538000  0.84537000  0.03577000  1.0
  O  O158  1  0.82463000  0.34537000  0.03577000  1.0
  O  O159  1  0.17537000  0.65463000  0.53577000  1.0
  O  O160  1  0.20204000  0.01315000  0.38984000  1.0
  O  O161  1  0.79795000  0.98685000  0.88984000  1.0
  O  O162  1  0.70204000  0.48685000  0.88984000  1.0
  O  O163  1  0.29795000  0.51315000  0.38985000  1.0
  O  O164  1  0.10722000  0.08182000  0.48615000  1.0
  O  O165  1  0.89278000  0.91818000  0.98616000  1.0
  O  O166  1  0.60722000  0.41818000  0.98615000  1.0
  O  O167  1  0.39278000  0.58182000  0.48616000  1.0
  O  O168  1  0.07678000  0.82836000  0.06741000  1.0
  O  O169  1  0.92322000  0.17164000  0.56740000  1.0
  O  O170  1  0.57678000  0.67164000  0.56741000  1.0
  O  O171  1  0.42322000  0.32836000  0.06740000  1.0
  O  O172  1  0.88544000  0.65945000  0.04400000  1.0
  O  O173  1  0.11456000  0.34055000  0.54400000  1.0
  O  O174  1  0.38544000  0.84055000  0.54400000  1.0
  O  O175  1  0.61456000  0.15945000  0.04400000  1.0
  O  O176  1  0.42975000  0.04354000  0.19367000  1.0
  O  O177  1  0.57024000  0.95646000  0.69367000  1.0
  O  O178  1  0.92975000  0.45646000  0.69367000  1.0
  O  O179  1  0.07024000  0.54354000  0.19367000  1.0
