# generated using pymatgen
data_CoH15C11NO9
_symmetry_space_group_name_H-M   'P 1'
_cell_length_a   6.99373000
_cell_length_b   10.36980000
_cell_length_c   10.50080000
_cell_angle_alpha   110.51200000
_cell_angle_beta   102.03200000
_cell_angle_gamma   91.11100000
_symmetry_Int_Tables_number   1
_chemical_formula_structural   CoH15C11NO9
_chemical_formula_sum   'Co2 H30 C22 N2 O18'
_cell_volume   694.04174796
_cell_formula_units_Z   2
loop_
 _symmetry_equiv_pos_site_id
 _symmetry_equiv_pos_as_xyz
  1  'x, y, z'
loop_
 _atom_site_type_symbol
 _atom_site_label
 _atom_site_symmetry_multiplicity
 _atom_site_fract_x
 _atom_site_fract_y
 _atom_site_fract_z
 _atom_site_occupancy
  Co  Co0  1  0.50000000  0.00000000  0.50000000  1.0
  Co  Co1  1  0.50001000  0.50000000  0.00000000  1.0
  H  H2  1  0.65839000  0.67763000  0.58354000  1.0
  H  H3  1  0.34160000  0.32237000  0.41646000  1.0
  H  H4  1  0.82541000  0.15894000  0.50008000  1.0
  H  H5  1  0.17458000  0.84106000  0.49992000  1.0
  H  H6  1  0.76567000  0.18649000  0.65259000  1.0
  H  H7  1  0.23432000  0.81350000  0.34741000  1.0
  H  H8  1  0.20128000  0.16266000  0.53202000  1.0
  H  H9  1  0.79871000  0.83734000  0.46798000  1.0
  H  H10  1  0.33906000  0.19761000  0.68975000  1.0
  H  H11  1  0.66093000  0.80239000  0.31025000  1.0
  H  H12  1  0.21526000  0.65973000  0.08586000  1.0
  H  H13  1  0.78475000  0.34026000  0.91414000  1.0
  H  H14  1  0.15497000  0.50129000  0.06095000  1.0
  H  H15  1  0.84496000  0.49870000  0.93899000  1.0
  H  H16  1  0.40201000  0.15945000  0.17075000  1.0
  H  H17  1  0.59800000  0.84054000  0.82925000  1.0
  H  H18  1  0.17161000  0.04755000  0.72804000  1.0
  H  H19  1  0.82840000  0.95246000  0.27197000  1.0
  H  H20  1  0.08423000  0.76029000  0.92630000  1.0
  H  H21  1  0.91576000  0.23971000  0.07370000  1.0
  H  H22  1  0.55111000  0.27399000  0.50519000  1.0
  H  H23  1  0.44889000  0.72602000  0.49481000  1.0
  H  H24  1  0.61689000  0.32894000  0.31177000  1.0
  H  H25  1  0.38311000  0.67107000  0.68823000  1.0
  H  H26  1  0.76268000  0.43687000  0.47888000  1.0
  H  H27  1  0.23730000  0.56314000  0.52111000  1.0
  H  H28  1  0.61157000  0.49359000  0.68825000  1.0
  H  H29  1  0.38843000  0.50642000  0.31174000  1.0
  H  H30  1  0.36800000  0.41992000  0.66099000  1.0
  H  H31  1  0.63200000  0.58009000  0.33901000  1.0
  C  C32  1  0.25207000  0.95521000  0.06282000  1.0
  C  C33  1  0.74794000  0.04479000  0.93718000  1.0
  C  C34  1  0.32423000  0.08501000  0.07035000  1.0
  C  C35  1  0.67578000  0.91499000  0.92966000  1.0
  C  C36  1  0.29673000  0.11957000  0.95115000  1.0
  C  C37  1  0.70329000  0.88043000  0.04886000  1.0
  C  C38  1  0.19642000  0.02248000  0.82206000  1.0
  C  C39  1  0.80359000  0.97753000  0.17795000  1.0
  C  C40  1  0.12012000  0.89348000  0.81369000  1.0
  C  C41  1  0.87989000  0.10652000  0.18631000  1.0
  C  C42  1  0.14779000  0.86018000  0.93423000  1.0
  C  C43  1  0.85221000  0.13982000  0.06577000  1.0
  C  C44  1  0.28393000  0.92405000  0.19434000  1.0
  C  C45  1  0.71606000  0.07594000  0.80566000  1.0
  C  C46  1  0.37322000  0.25931000  0.96474000  1.0
  C  C47  1  0.62681000  0.74069000  0.03527000  1.0
  C  C48  1  0.98985000  0.79806000  0.67878000  1.0
  C  C49  1  0.01015000  0.20195000  0.32122000  1.0
  C  C50  1  0.61379000  0.41050000  0.41135000  1.0
  C  C51  1  0.38620000  0.58950000  0.58865000  1.0
  C  C52  1  0.46676000  0.46466000  0.61570000  1.0
  C  C53  1  0.53324000  0.53534000  0.38429000  1.0
  N  N54  1  0.48614000  0.35656000  0.48254000  1.0
  N  N55  1  0.51385000  0.64344000  0.51746000  1.0
  O  O56  1  0.38470000  0.01588000  0.30498000  1.0
  O  O57  1  0.61528000  0.98411000  0.69502000  1.0
  O  O58  1  0.20696000  0.80831000  0.18998000  1.0
  O  O59  1  0.79303000  0.19168000  0.81002000  1.0
  O  O60  1  0.45226000  0.34917000  0.08525000  1.0
  O  O61  1  0.54780000  0.65082000  0.91475000  1.0
  O  O62  1  0.36177000  0.29488000  0.85773000  1.0
  O  O63  1  0.63823000  0.70513000  0.14228000  1.0
  O  O64  1  0.99463000  0.82150000  0.56703000  1.0
  O  O65  1  0.00536000  0.17852000  0.43297000  1.0
  O  O66  1  0.87676000  0.70391000  0.68352000  1.0
  O  O67  1  0.12323000  0.29610000  0.31647000  1.0
  O  O68  1  0.71425000  0.16689000  0.54912000  1.0
  O  O69  1  0.28574000  0.83311000  0.45088000  1.0
  O  O70  1  0.32909000  0.14799000  0.58795000  1.0
  O  O71  1  0.67090000  0.85202000  0.41205000  1.0
  O  O72  1  0.22151000  0.55934000  0.02446000  1.0
  O  O73  1  0.77852000  0.44066000  0.97554000  1.0
