# generated using pymatgen
data_Cd3H40C50(NO3)4
_symmetry_space_group_name_H-M   'P 1'
_cell_length_a   12.87800000
_cell_length_b   16.46150000
_cell_length_c   16.78845946
_cell_angle_alpha   89.26056914
_cell_angle_beta   67.44000661
_cell_angle_gamma   90.00900000
_symmetry_Int_Tables_number   1
_chemical_formula_structural   Cd3H40C50(NO3)4
_chemical_formula_sum   'Cd6 H80 C100 N8 O24'
_cell_volume   3286.34056453
_cell_formula_units_Z   2
loop_
 _symmetry_equiv_pos_site_id
 _symmetry_equiv_pos_as_xyz
  1  'x, y, z'
loop_
 _atom_site_type_symbol
 _atom_site_label
 _atom_site_symmetry_multiplicity
 _atom_site_fract_x
 _atom_site_fract_y
 _atom_site_fract_z
 _atom_site_occupancy
  Cd  Cd0  1  0.70179000  0.76163000  0.21409000  1.0
  Cd  Cd1  1  0.91630000  0.73836000  0.78572000  1.0
  Cd  Cd2  1  0.29821000  0.23837000  0.78591000  1.0
  Cd  Cd3  1  0.08370000  0.26163000  0.21430000  1.0
  Cd  Cd4  1  0.72213000  0.75016000  0.99987000  1.0
  Cd  Cd5  1  0.27787000  0.24983000  0.00013000  1.0
  H  H6  1  0.40444000  0.56071000  0.30392000  1.0
  H  H7  1  0.28915000  0.44388000  0.28465000  1.0
  H  H8  1  0.52604000  0.41543000  0.02540000  1.0
  H  H9  1  0.63842000  0.53394000  0.04286000  1.0
  H  H10  1  0.98734000  0.97735000  0.14998000  1.0
  H  H11  1  0.89130000  0.91055000  0.94083000  1.0
  H  H12  1  0.71521000  0.59922000  0.31364000  1.0
  H  H13  1  0.85247000  0.50576000  0.34082000  1.0
  H  H14  1  0.11920000  0.65328000  0.16205000  1.0
  H  H15  1  0.97114000  0.74171000  0.14435000  1.0
  H  H16  1  0.83682000  0.71935000  0.63344000  1.0
  H  H17  1  0.90142000  0.67952000  0.47779000  1.0
  H  H18  1  0.22787000  0.63100000  0.48362000  1.0
  H  H19  1  0.14847000  0.67157000  0.63945000  1.0
  H  H20  1  0.16766000  0.53481000  0.22732000  1.0
  H  H21  1  0.06554000  0.45718000  0.26887000  1.0
  H  H22  1  0.98828000  0.52857000  0.41219000  1.0
  H  H23  1  0.12792000  0.49604000  0.38423000  1.0
  H  H24  1  0.07365000  0.66837000  0.34116000  1.0
  H  H25  1  0.20251000  0.63319000  0.34309000  1.0
  H  H26  1  0.70869000  0.93924000  0.69628000  1.0
  H  H27  1  0.57386000  0.05588000  0.71557000  1.0
  H  H28  1  0.55183000  0.08474000  0.97465000  1.0
  H  H29  1  0.68147000  0.96613000  0.95734000  1.0
  H  H30  1  0.13707000  0.52200000  0.84980000  1.0
  H  H31  1  0.83268000  0.58993000  0.05917000  1.0
  H  H32  1  0.02866000  0.90112000  0.68710000  1.0
  H  H33  1  0.19348000  0.99436000  0.65987000  1.0
  H  H34  1  0.28163000  0.84605000  0.83799000  1.0
  H  H35  1  0.11606000  0.75756000  0.85519000  1.0
  H  H36  1  0.46979000  0.78075000  0.36623000  1.0
  H  H37  1  0.37876000  0.82024000  0.52197000  1.0
  H  H38  1  0.71115000  0.86868000  0.51608000  1.0
  H  H39  1  0.78754000  0.82800000  0.36030000  1.0
  H  H40  1  0.39568000  0.96486000  0.77259000  1.0
  H  H41  1  0.33495000  0.04248000  0.73123000  1.0
  H  H42  1  0.40018000  0.97108000  0.58804000  1.0
  H  H43  1  0.51235000  0.00344000  0.61549000  1.0
  H  H44  1  0.41437000  0.83122000  0.65855000  1.0
  H  H45  1  0.54531000  0.86604000  0.65670000  1.0
  H  H46  1  0.59557000  0.43927000  0.69609000  1.0
  H  H47  1  0.71087000  0.55610000  0.71536000  1.0
  H  H48  1  0.47395000  0.58460000  0.97458000  1.0
  H  H49  1  0.36156000  0.46608000  0.95713000  1.0
  H  H50  1  0.01263000  0.02265000  0.85002000  1.0
  H  H51  1  0.10867000  0.08945000  0.05917000  1.0
  H  H52  1  0.28483000  0.40081000  0.68634000  1.0
  H  H53  1  0.14757000  0.49426000  0.65915000  1.0
  H  H54  1  0.88084000  0.34674000  0.83794000  1.0
  H  H55  1  0.02890000  0.25831000  0.85563000  1.0
  H  H56  1  0.16317000  0.28064000  0.36657000  1.0
  H  H57  1  0.09858000  0.32049000  0.52221000  1.0
  H  H58  1  0.77213000  0.36902000  0.51637000  1.0
  H  H59  1  0.85152000  0.32843000  0.36055000  1.0
  H  H60  1  0.83238000  0.46521000  0.77266000  1.0
  H  H61  1  0.93450000  0.54284000  0.73111000  1.0
  H  H62  1  0.01175000  0.47144000  0.58779000  1.0
  H  H63  1  0.87212000  0.50398000  0.61575000  1.0
  H  H64  1  0.92636000  0.33165000  0.65883000  1.0
  H  H65  1  0.79750000  0.36684000  0.65691000  1.0
  H  H66  1  0.29132000  0.06075000  0.30372000  1.0
  H  H67  1  0.42618000  0.94412000  0.28442000  1.0
  H  H68  1  0.44815000  0.91523000  0.02535000  1.0
  H  H69  1  0.31850000  0.03383000  0.04266000  1.0
  H  H70  1  0.86293000  0.47798000  0.15022000  1.0
  H  H71  1  0.16732000  0.41006000  0.94085000  1.0
  H  H72  1  0.97133000  0.09885000  0.31291000  1.0
  H  H73  1  0.80652000  0.00561000  0.34012000  1.0
  H  H74  1  0.71835000  0.15397000  0.16204000  1.0
  H  H75  1  0.88391000  0.24245000  0.14487000  1.0
  H  H76  1  0.53021000  0.21925000  0.63376000  1.0
  H  H77  1  0.62123000  0.17975000  0.47802000  1.0
  H  H78  1  0.28883000  0.13131000  0.48393000  1.0
  H  H79  1  0.21246000  0.17201000  0.63969000  1.0
  H  H80  1  0.60431000  0.03514000  0.22741000  1.0
  H  H81  1  0.66504000  0.95751000  0.26877000  1.0
  H  H82  1  0.59980000  0.02892000  0.41196000  1.0
  H  H83  1  0.48762000  0.99656000  0.38451000  1.0
  H  H84  1  0.58560000  0.16878000  0.34145000  1.0
  H  H85  1  0.45467000  0.13396000  0.34330000  1.0
  C  C86  1  0.52720000  0.55439000  0.17437000  1.0
  C  C87  1  0.42947000  0.52843000  0.24313000  1.0
  C  C88  1  0.36635000  0.46402000  0.23265000  1.0
  C  C89  1  0.40028000  0.42388000  0.15361000  1.0
  C  C90  1  0.50026000  0.44768000  0.08613000  1.0
  C  C91  1  0.56279000  0.51310000  0.09602000  1.0
  C  C92  1  0.59104000  0.62580000  0.18641000  1.0
  C  C93  1  0.32622000  0.35892000  0.14021000  1.0
  C  C94  1  0.93257000  0.93747000  0.05096000  1.0
  C  C95  1  0.99383000  0.98788000  0.08408000  1.0
  C  C96  1  0.93910000  0.94973000  0.96636000  1.0
  C  C97  1  0.85931000  0.87218000  0.10716000  1.0
  C  C98  1  0.80587000  0.60926000  0.28265000  1.0
  C  C99  1  0.88247000  0.55772000  0.29693000  1.0
  C  C100  1  0.99816000  0.57261000  0.25448000  1.0
  C  C101  1  0.03041000  0.63926000  0.19762000  1.0
  C  C102  1  0.94864000  0.68855000  0.18710000  1.0
  C  C103  1  0.92266000  0.69925000  0.59716000  1.0
  C  C104  1  0.95937000  0.67710000  0.51116000  1.0
  C  C105  1  0.07091000  0.65220000  0.46747000  1.0
  C  C106  1  0.14042000  0.64999000  0.51434000  1.0
  C  C107  1  0.09728000  0.67281000  0.60051000  1.0
  C  C108  1  0.08219000  0.52189000  0.27438000  1.0
  C  C109  1  0.07520000  0.53921000  0.36617000  1.0
  C  C110  1  0.11059000  0.62697000  0.37508000  1.0
  C  C111  1  0.70184000  0.94563000  0.82581000  1.0
  C  C112  1  0.67285000  0.97152000  0.75703000  1.0
  C  C113  1  0.59915000  0.03585000  0.76752000  1.0
  C  C114  1  0.55415000  0.07607000  0.84656000  1.0
  C  C115  1  0.58673000  0.05237000  0.91401000  1.0
  C  C116  1  0.65909000  0.98695000  0.90418000  1.0
  C  C117  1  0.77781000  0.87432000  0.81368000  1.0
  C  C118  1  0.46665000  0.14098000  0.85994000  1.0
  C  C119  1  0.98372000  0.56251000  0.94894000  1.0
  C  C120  1  0.07778000  0.51178000  0.91581000  1.0
  C  C121  1  0.90578000  0.55054000  0.03366000  1.0
  C  C122  1  0.96679000  0.62784000  0.89273000  1.0
  C  C123  1  0.08856000  0.89082000  0.71784000  1.0
  C  C124  1  0.17961000  0.94225000  0.70360000  1.0
  C  C125  1  0.25299000  0.92712000  0.74586000  1.0
  C  C126  1  0.22840000  0.86029000  0.80251000  1.0
  C  C127  1  0.13615000  0.81100000  0.81284000  1.0
  C  C128  1  0.51934000  0.80074000  0.40254000  1.0
  C  C129  1  0.47007000  0.82275000  0.48858000  1.0
  C  C130  1  0.53797000  0.84750000  0.53229000  1.0
  C  C131  1  0.65435000  0.84972000  0.48539000  1.0
  C  C132  1  0.69738000  0.82688000  0.39922000  1.0
  C  C133  1  0.35704000  0.97778000  0.72572000  1.0
  C  C134  1  0.44142000  0.96038000  0.63383000  1.0
  C  C135  1  0.48541000  0.87254000  0.62473000  1.0
  C  C136  1  0.47280000  0.44562000  0.82563000  1.0
  C  C137  1  0.57054000  0.47155000  0.75687000  1.0
  C  C138  1  0.63366000  0.53597000  0.76735000  1.0
  C  C139  1  0.59972000  0.57612000  0.84639000  1.0
  C  C140  1  0.49973000  0.55233000  0.91386000  1.0
  C  C141  1  0.43719000  0.48691000  0.90398000  1.0
  C  C142  1  0.40896000  0.37420000  0.81359000  1.0
  C  C143  1  0.67378000  0.64108000  0.85979000  1.0
  C  C144  1  0.06740000  0.06254000  0.94904000  1.0
  C  C145  1  0.00613000  0.01212000  0.91593000  1.0
  C  C146  1  0.06086000  0.05027000  0.03365000  1.0
  C  C147  1  0.14066000  0.12782000  0.89285000  1.0
  C  C148  1  0.19417000  0.39076000  0.71733000  1.0
  C  C149  1  0.11756000  0.44230000  0.70305000  1.0
  C  C150  1  0.00188000  0.42742000  0.74550000  1.0
  C  C151  1  0.96963000  0.36077000  0.80237000  1.0
  C  C152  1  0.05139000  0.31148000  0.81289000  1.0
  C  C153  1  0.07733000  0.30075000  0.40285000  1.0
  C  C154  1  0.04064000  0.32291000  0.48884000  1.0
  C  C155  1  0.92909000  0.34782000  0.53253000  1.0
  C  C156  1  0.85958000  0.35002000  0.48565000  1.0
  C  C157  1  0.90272000  0.32719000  0.39949000  1.0
  C  C158  1  0.91784000  0.47814000  0.72561000  1.0
  C  C159  1  0.92483000  0.46081000  0.63382000  1.0
  C  C160  1  0.88942000  0.37304000  0.62491000  1.0
  C  C161  1  0.29816000  0.05433000  0.17418000  1.0
  C  C162  1  0.32716000  0.02847000  0.24295000  1.0
  C  C163  1  0.40087000  0.96414000  0.23246000  1.0
  C  C164  1  0.44585000  0.92392000  0.15343000  1.0
  C  C165  1  0.41325000  0.94760000  0.08600000  1.0
  C  C166  1  0.34090000  0.01302000  0.09582000  1.0
  C  C167  1  0.22219000  0.12565000  0.18632000  1.0
  C  C168  1  0.53335000  0.85901000  0.14006000  1.0
  C  C169  1  0.01629000  0.43747000  0.05108000  1.0
  C  C170  1  0.92224000  0.48820000  0.08420000  1.0
  C  C171  1  0.09423000  0.44945000  0.96636000  1.0
  C  C172  1  0.03321000  0.37215000  0.10729000  1.0
  C  C173  1  0.91143000  0.10916000  0.28218000  1.0
  C  C174  1  0.82039000  0.05773000  0.29640000  1.0
  C  C175  1  0.74700000  0.07288000  0.25415000  1.0
  C  C176  1  0.77158000  0.13972000  0.19753000  1.0
  C  C177  1  0.86382000  0.18901000  0.18721000  1.0
  C  C178  1  0.48066000  0.19927000  0.59745000  1.0
  C  C179  1  0.52992000  0.17725000  0.51141000  1.0
  C  C180  1  0.46202000  0.15250000  0.46771000  1.0
  C  C181  1  0.34564000  0.15027000  0.51461000  1.0
  C  C182  1  0.30262000  0.17312000  0.60077000  1.0
  C  C183  1  0.64295000  0.02222000  0.27428000  1.0
  C  C184  1  0.55856000  0.03962000  0.36617000  1.0
  C  C185  1  0.51457000  0.12746000  0.37526000  1.0
  N  N186  1  0.83824000  0.67440000  0.22935000  1.0
  N  N187  1  0.99069000  0.69733000  0.64110000  1.0
  N  N188  1  0.06780000  0.82541000  0.77080000  1.0
  N  N189  1  0.63134000  0.80253000  0.35861000  1.0
  N  N190  1  0.16181000  0.32562000  0.77063000  1.0
  N  N191  1  0.00930000  0.30266000  0.35891000  1.0
  N  N192  1  0.93219000  0.17458000  0.22923000  1.0
  N  N193  1  0.36866000  0.19748000  0.64139000  1.0
  O  O194  1  0.67040000  0.65736000  0.12037000  1.0
  O  O195  1  0.56627000  0.65241000  0.26220000  1.0
  O  O196  1  0.36082000  0.32845000  0.06517000  1.0
  O  O197  1  0.23561000  0.34197000  0.20383000  1.0
  O  O198  1  0.83716000  0.87293000  0.18770000  1.0
  O  O199  1  0.82048000  0.81615000  0.07307000  1.0
  O  O200  1  0.79136000  0.84283000  0.87962000  1.0
  O  O201  1  0.82871000  0.84768000  0.73788000  1.0
  O  O202  1  0.42638000  0.17162000  0.93490000  1.0
  O  O203  1  0.43949000  0.15774000  0.79638000  1.0
  O  O204  1  0.02516000  0.62707000  0.81218000  1.0
  O  O205  1  0.89395000  0.68390000  0.92688000  1.0
  O  O206  1  0.32961000  0.34263000  0.87963000  1.0
  O  O207  1  0.43370000  0.34761000  0.73780000  1.0
  O  O208  1  0.63917000  0.67156000  0.93482000  1.0
  O  O209  1  0.76441000  0.65801000  0.79618000  1.0
  O  O210  1  0.16284000  0.12707000  0.81230000  1.0
  O  O211  1  0.17950000  0.18386000  0.92693000  1.0
  O  O212  1  0.20861000  0.15715000  0.12038000  1.0
  O  O213  1  0.17129000  0.15230000  0.26212000  1.0
  O  O214  1  0.57363000  0.82836000  0.06510000  1.0
  O  O215  1  0.56054000  0.84227000  0.20361000  1.0
  O  O216  1  0.97484000  0.37292000  0.18784000  1.0
  O  O217  1  0.10604000  0.31608000  0.07314000  1.0
