# generated using pymatgen
data_ZnH24C27(NO)4
_symmetry_space_group_name_H-M   'P 1'
_cell_length_a   10.75960000
_cell_length_b   11.17740000
_cell_length_c   11.56500000
_cell_angle_alpha   65.19720000
_cell_angle_beta   83.24470000
_cell_angle_gamma   67.51750000
_symmetry_Int_Tables_number   1
_chemical_formula_structural   ZnH24C27(NO)4
_chemical_formula_sum   'Zn2 H48 C54 N8 O8'
_cell_volume   1165.08235880
_cell_formula_units_Z   2
loop_
 _symmetry_equiv_pos_site_id
 _symmetry_equiv_pos_as_xyz
  1  'x, y, z'
loop_
 _atom_site_type_symbol
 _atom_site_label
 _atom_site_symmetry_multiplicity
 _atom_site_fract_x
 _atom_site_fract_y
 _atom_site_fract_z
 _atom_site_occupancy
  Zn  Zn0  1  0.19928000  0.81930000  0.16391000  1.0
  Zn  Zn1  1  0.80072000  0.18070000  0.83609000  1.0
  H  H2  1  0.19156000  0.51747000  0.30519000  1.0
  H  H3  1  0.80844000  0.48253000  0.69481000  1.0
  H  H4  1  0.29253000  0.34711000  0.30652000  1.0
  H  H5  1  0.70747000  0.65290000  0.69348000  1.0
  H  H6  1  0.19362000  0.48326000  0.16802000  1.0
  H  H7  1  0.80638000  0.51674000  0.83198000  1.0
  H  H8  1  0.46947000  0.86476000  0.08139000  1.0
  H  H9  1  0.53054000  0.13524000  0.91861000  1.0
  H  H10  1  0.70567000  0.81836000  0.01013000  1.0
  H  H11  1  0.29434000  0.18164000  0.98988000  1.0
  H  H12  1  0.84711000  0.58560000  0.00928000  1.0
  H  H13  1  0.15290000  0.41440000  0.99072000  1.0
  H  H14  1  0.76271000  0.38569000  0.08658000  1.0
  H  H15  1  0.23728000  0.61431000  0.91342000  1.0
  H  H16  1  0.61512000  0.25888000  0.13814000  1.0
  H  H17  1  0.38488000  0.74112000  0.86186000  1.0
  H  H18  1  0.45302000  0.25952000  0.18762000  1.0
  H  H19  1  0.54698000  0.74048000  0.81238000  1.0
  H  H20  1  0.52434000  0.22251000  0.40874000  1.0
  H  H21  1  0.47566000  0.77749000  0.59126000  1.0
  H  H22  1  0.60824000  0.07872000  0.36492000  1.0
  H  H23  1  0.39176000  0.92128000  0.63508000  1.0
  H  H24  1  0.74743000  0.41738000  0.46257000  1.0
  H  H25  1  0.25257000  0.58262000  0.53743000  1.0
  H  H26  1  0.59022000  0.40169000  0.45518000  1.0
  H  H27  1  0.40978000  0.59831000  0.54482000  1.0
  H  H28  1  0.64568000  0.39860000  0.59637000  1.0
  H  H29  1  0.35432000  0.60140000  0.40363000  1.0
  H  H30  1  0.92734000  0.85195000  0.89365000  1.0
  H  H31  1  0.07266000  0.14805000  0.10635000  1.0
  H  H32  1  0.01522000  0.63288000  0.85018000  1.0
  H  H33  1  0.98478000  0.36712000  0.14982000  1.0
  H  H34  1  0.99291000  0.64561000  0.63420000  1.0
  H  H35  1  0.00709000  0.35439000  0.36580000  1.0
  H  H36  1  0.88004000  0.87597000  0.45372000  1.0
  H  H37  1  0.11996000  0.12403000  0.54628000  1.0
  H  H38  1  0.73024000  0.30167000  0.32037000  1.0
  H  H39  1  0.26976000  0.69833000  0.67963000  1.0
  H  H40  1  0.81105000  0.13403000  0.31526000  1.0
  H  H41  1  0.18894000  0.86597000  0.68474000  1.0
  H  H42  1  0.46800000  0.95594000  0.84535000  1.0
  H  H43  1  0.53200000  0.04407000  0.15465000  1.0
  H  H44  1  0.55204000  0.12014000  0.66756000  1.0
  H  H45  1  0.44796000  0.87986000  0.33244000  1.0
  H  H46  1  0.38909000  0.35148000  0.51645000  1.0
  H  H47  1  0.61091000  0.64852000  0.48355000  1.0
  H  H48  1  0.14207000  0.41043000  0.54339000  1.0
  H  H49  1  0.85793000  0.58957000  0.45660000  1.0
  C  C50  1  0.36767000  0.51342000  0.20036000  1.0
  C  C51  1  0.63233000  0.48658000  0.79964000  1.0
  C  C52  1  0.25613000  0.46160000  0.24849000  1.0
  C  C53  1  0.74387000  0.53840000  0.75151000  1.0
  C  C54  1  0.48545000  0.65103000  0.12537000  1.0
  C  C55  1  0.51455000  0.34897000  0.87463000  1.0
  C  C56  1  0.53350000  0.76159000  0.08298000  1.0
  C  C57  1  0.46650000  0.23841000  0.91702000  1.0
  C  C58  1  0.66469000  0.73473000  0.04240000  1.0
  C  C59  1  0.33532000  0.26527000  0.95760000  1.0
  C  C60  1  0.74565000  0.60106000  0.04330000  1.0
  C  C61  1  0.25436000  0.39894000  0.95671000  1.0
  C  C62  1  0.69985000  0.48913000  0.08591000  1.0
  C  C63  1  0.30015000  0.51087000  0.91409000  1.0
  C  C64  1  0.56873000  0.51678000  0.12786000  1.0
  C  C65  1  0.43127000  0.48322000  0.87214000  1.0
  C  C66  1  0.53831000  0.28130000  0.20541000  1.0
  C  C67  1  0.46169000  0.71870000  0.79459000  1.0
  C  C68  1  0.59651000  0.18834000  0.34264000  1.0
  C  C69  1  0.40349000  0.81166000  0.65736000  1.0
  C  C70  1  0.74707000  0.20924000  0.57020000  1.0
  C  C71  1  0.25293000  0.79076000  0.42980000  1.0
  C  C72  1  0.67821000  0.36545000  0.51774000  1.0
  C  C73  1  0.32179000  0.63455000  0.48226000  1.0
  C  C74  1  0.85113000  0.98621000  0.69754000  1.0
  C  C75  1  0.14887000  0.01379000  0.30246000  1.0
  C  C76  1  0.91532000  0.85655000  0.79946000  1.0
  C  C77  1  0.08468000  0.14345000  0.20055000  1.0
  C  C78  1  0.96416000  0.73588000  0.77360000  1.0
  C  C79  1  0.03584000  0.26412000  0.22639000  1.0
  C  C80  1  0.95206000  0.74230000  0.65083000  1.0
  C  C81  1  0.04794000  0.25770000  0.34917000  1.0
  C  C82  1  0.88884000  0.87092000  0.54863000  1.0
  C  C83  1  0.11115000  0.12908000  0.45137000  1.0
  C  C84  1  0.83877000  0.99151000  0.57479000  1.0
  C  C85  1  0.16122000  0.00849000  0.42521000  1.0
  C  C86  1  0.73291000  0.19263000  0.36260000  1.0
  C  C87  1  0.26709000  0.80737000  0.63740000  1.0
  C  C88  1  0.21591000  0.97917000  0.90488000  1.0
  C  C89  1  0.78409000  0.02083000  0.09512000  1.0
  C  C90  1  0.25806000  0.08852000  0.79578000  1.0
  C  C91  1  0.74194000  0.91149000  0.20422000  1.0
  C  C92  1  0.39649000  0.05530000  0.77847000  1.0
  C  C93  1  0.60351000  0.94470000  0.22153000  1.0
  C  C94  1  0.44390000  0.14815000  0.67807000  1.0
  C  C95  1  0.55610000  0.85185000  0.32193000  1.0
  C  C96  1  0.35285000  0.27704000  0.59390000  1.0
  C  C97  1  0.64715000  0.72296000  0.40610000  1.0
  C  C98  1  0.01723000  0.25586000  0.71863000  1.0
  C  C99  1  0.98277000  0.74414000  0.28136000  1.0
  C  C100  1  0.16671000  0.21729000  0.70929000  1.0
  C  C101  1  0.83329000  0.78271000  0.29071000  1.0
  C  C102  1  0.21502000  0.31097000  0.60896000  1.0
  C  C103  1  0.78498000  0.68903000  0.39103000  1.0
  N  N104  1  0.36094000  0.64543000  0.17075000  1.0
  N  N105  1  0.63907000  0.35457000  0.82925000  1.0
  N  N106  1  0.49169000  0.43242000  0.17664000  1.0
  N  N107  1  0.50831000  0.56758000  0.82336000  1.0
  N  N108  1  0.79232000  0.12401000  0.69121000  1.0
  N  N109  1  0.20768000  0.87599000  0.30879000  1.0
  N  N110  1  0.77297000  0.13374000  0.49709000  1.0
  N  N111  1  0.22703000  0.86626000  0.50291000  1.0
  O  O112  1  0.97812000  0.19221000  0.83032000  1.0
  O  O113  1  0.02188000  0.80779000  0.16968000  1.0
  O  O114  1  0.94091000  0.34311000  0.62147000  1.0
  O  O115  1  0.05909000  0.65689000  0.37853000  1.0
  O  O116  1  0.18777000  0.89051000  0.88526000  1.0
  O  O117  1  0.81223000  0.10949000  0.11474000  1.0
  O  O118  1  0.22581000  0.97915000  0.01558000  1.0
  O  O119  1  0.77419000  0.02085000  0.98442000  1.0
