# generated using pymatgen
data_CuH4C7N4
_symmetry_space_group_name_H-M   'P 1'
_cell_length_a   10.27270000
_cell_length_b   14.67940000
_cell_length_c   19.27290000
_cell_angle_alpha   90.00000000
_cell_angle_beta   90.00000000
_cell_angle_gamma   89.99990000
_symmetry_Int_Tables_number   1
_chemical_formula_structural   CuH4C7N4
_chemical_formula_sum   'Cu16 H64 C112 N64'
_cell_volume   2906.29689627
_cell_formula_units_Z   16
loop_
 _symmetry_equiv_pos_site_id
 _symmetry_equiv_pos_as_xyz
  1  'x, y, z'
loop_
 _atom_site_type_symbol
 _atom_site_label
 _atom_site_symmetry_multiplicity
 _atom_site_fract_x
 _atom_site_fract_y
 _atom_site_fract_z
 _atom_site_occupancy
  Cu  Cu0  1  0.75562000  0.34433000  0.37983000  1.0
  Cu  Cu1  1  0.25562000  0.15567000  0.12017000  1.0
  Cu  Cu2  1  0.74438000  0.65567000  0.37983000  1.0
  Cu  Cu3  1  0.24438000  0.84433000  0.12017000  1.0
  Cu  Cu4  1  0.24438000  0.65567000  0.62017000  1.0
  Cu  Cu5  1  0.74437000  0.84433000  0.87983000  1.0
  Cu  Cu6  1  0.25562000  0.34433000  0.62017000  1.0
  Cu  Cu7  1  0.75562000  0.15567000  0.87983000  1.0
  Cu  Cu8  1  0.25000000  0.00000000  0.26694000  1.0
  Cu  Cu9  1  0.75000000  0.50000000  0.23307000  1.0
  Cu  Cu10  1  0.75000000  0.00000000  0.73307000  1.0
  Cu  Cu11  1  0.25000000  0.50000000  0.76694000  1.0
  Cu  Cu12  1  0.75000000  0.50000000  0.50727000  1.0
  Cu  Cu13  1  0.25000000  0.00000000  0.99273000  1.0
  Cu  Cu14  1  0.25000000  0.50000000  0.49273000  1.0
  Cu  Cu15  1  0.75000000  0.00000000  0.00727000  1.0
  H  H16  1  0.17331000  0.09750000  0.40354000  1.0
  H  H17  1  0.27008000  0.21612000  0.48015000  1.0
  H  H18  1  0.61117000  0.20907000  0.35095000  1.0
  H  H19  1  0.49780000  0.09691000  0.27547000  1.0
  H  H20  1  0.42105000  0.60352000  0.80992000  1.0
  H  H21  1  0.52619000  0.72274000  0.88496000  1.0
  H  H22  1  0.83035000  0.75321000  0.74563000  1.0
  H  H23  1  0.74001000  0.63329000  0.66710000  1.0
  H  H24  1  0.67331000  0.40250000  0.09646000  1.0
  H  H25  1  0.77007000  0.28388000  0.01985000  1.0
  H  H26  1  0.11117000  0.29093000  0.14905000  1.0
  H  H27  1  0.99780000  0.40309000  0.22453000  1.0
  H  H28  1  0.92105000  0.89647000  0.69008000  1.0
  H  H29  1  0.02619000  0.77726000  0.61504000  1.0
  H  H30  1  0.33035000  0.74679000  0.75438000  1.0
  H  H31  1  0.24001000  0.86671000  0.83290000  1.0
  H  H32  1  0.32669000  0.90250000  0.40354000  1.0
  H  H33  1  0.22993000  0.78388000  0.48015000  1.0
  H  H34  1  0.88882000  0.79093000  0.35095000  1.0
  H  H35  1  0.00220000  0.90309000  0.27547000  1.0
  H  H36  1  0.07895000  0.39647000  0.80992000  1.0
  H  H37  1  0.97381000  0.27726000  0.88496000  1.0
  H  H38  1  0.66965000  0.24679000  0.74562000  1.0
  H  H39  1  0.75999000  0.36671000  0.66710000  1.0
  H  H40  1  0.82669000  0.59750000  0.09646000  1.0
  H  H41  1  0.72993000  0.71612000  0.01985000  1.0
  H  H42  1  0.38882000  0.70907000  0.14905000  1.0
  H  H43  1  0.50220000  0.59691000  0.22453000  1.0
  H  H44  1  0.57895000  0.10353000  0.69008000  1.0
  H  H45  1  0.47381000  0.22274000  0.61504000  1.0
  H  H46  1  0.16965000  0.25321000  0.75437000  1.0
  H  H47  1  0.25999000  0.13329000  0.83290000  1.0
  H  H48  1  0.82669000  0.90250000  0.59646000  1.0
  H  H49  1  0.72993000  0.78388000  0.51985000  1.0
  H  H50  1  0.38883000  0.79093000  0.64905000  1.0
  H  H51  1  0.50220000  0.90309000  0.72453000  1.0
  H  H52  1  0.57895000  0.39647000  0.19008000  1.0
  H  H53  1  0.47381000  0.27726000  0.11504000  1.0
  H  H54  1  0.16965000  0.24679000  0.25438000  1.0
  H  H55  1  0.25999000  0.36671000  0.33290000  1.0
  H  H56  1  0.32669000  0.59750000  0.90354000  1.0
  H  H57  1  0.22993000  0.71612000  0.98015000  1.0
  H  H58  1  0.88883000  0.70908000  0.85095000  1.0
  H  H59  1  0.00220000  0.59691000  0.77547000  1.0
  H  H60  1  0.07895000  0.10352000  0.30992000  1.0
  H  H61  1  0.97381000  0.22274000  0.38496000  1.0
  H  H62  1  0.66965000  0.25321000  0.24562000  1.0
  H  H63  1  0.75999000  0.13329000  0.16710000  1.0
  H  H64  1  0.67331000  0.09750000  0.59646000  1.0
  H  H65  1  0.77007000  0.21612000  0.51985000  1.0
  H  H66  1  0.11117000  0.20907000  0.64905000  1.0
  H  H67  1  0.99780000  0.09691000  0.72453000  1.0
  H  H68  1  0.92105000  0.60353000  0.19008000  1.0
  H  H69  1  0.02619000  0.72274000  0.11504000  1.0
  H  H70  1  0.33035000  0.75321000  0.25438000  1.0
  H  H71  1  0.24001000  0.63329000  0.33290000  1.0
  H  H72  1  0.17331000  0.40250000  0.90354000  1.0
  H  H73  1  0.27008000  0.28388000  0.98015000  1.0
  H  H74  1  0.61118000  0.29093000  0.85095000  1.0
  H  H75  1  0.49780000  0.40309000  0.77547000  1.0
  H  H76  1  0.42105000  0.89648000  0.30992000  1.0
  H  H77  1  0.52619000  0.77726000  0.38496000  1.0
  H  H78  1  0.83035000  0.74679000  0.24562000  1.0
  H  H79  1  0.74001000  0.86671000  0.16710000  1.0
  C  C80  1  0.26952000  0.12534000  0.39215000  1.0
  C  C81  1  0.32389000  0.19046000  0.43553000  1.0
  C  C82  1  0.44866000  0.22492000  0.42049000  1.0
  C  C83  1  0.51276000  0.18745000  0.36307000  1.0
  C  C84  1  0.45026000  0.12428000  0.32149000  1.0
  C  C85  1  0.50481000  0.29699000  0.46261000  1.0
  C  C86  1  0.52330000  0.39394000  0.54340000  1.0
  C  C87  1  0.49832000  0.44837000  0.60413000  1.0
  C  C88  1  0.51592000  0.54223000  0.68583000  1.0
  C  C89  1  0.57124000  0.60994000  0.73176000  1.0
  C  C90  1  0.51199000  0.63570000  0.79435000  1.0
  C  C91  1  0.56933000  0.70143000  0.83584000  1.0
  C  C92  1  0.73967000  0.71842000  0.75836000  1.0
  C  C93  1  0.68952000  0.65256000  0.71455000  1.0
  C  C94  1  0.76952000  0.37466000  0.10785000  1.0
  C  C95  1  0.82389000  0.30954000  0.06447000  1.0
  C  C96  1  0.94866000  0.27508000  0.07951000  1.0
  C  C97  1  0.01276000  0.31255000  0.13693000  1.0
  C  C98  1  0.95026000  0.37572000  0.17851000  1.0
  C  C99  1  0.00480000  0.20301000  0.03739000  1.0
  C  C100  1  0.02330000  0.10606000  0.95660000  1.0
  C  C101  1  0.99832000  0.05162000  0.89587000  1.0
  C  C102  1  0.01592000  0.95777000  0.81417000  1.0
  C  C103  1  0.07124000  0.89006000  0.76824000  1.0
  C  C104  1  0.01199000  0.86430000  0.70565000  1.0
  C  C105  1  0.06933000  0.79857000  0.66416000  1.0
  C  C106  1  0.23967000  0.78158000  0.74164000  1.0
  C  C107  1  0.18952000  0.84744000  0.78545000  1.0
  C  C108  1  0.23048000  0.87466000  0.39215000  1.0
  C  C109  1  0.17611000  0.80954000  0.43553000  1.0
  C  C110  1  0.05134000  0.77508000  0.42049000  1.0
  C  C111  1  0.98724000  0.81255000  0.36307000  1.0
  C  C112  1  0.04974000  0.87572000  0.32149000  1.0
  C  C113  1  0.99519000  0.70301000  0.46261000  1.0
  C  C114  1  0.97670000  0.60606000  0.54340000  1.0
  C  C115  1  0.00168000  0.55163000  0.60413000  1.0
  C  C116  1  0.98408000  0.45777000  0.68583000  1.0
  C  C117  1  0.92876000  0.39006000  0.73176000  1.0
  C  C118  1  0.98801000  0.36430000  0.79435000  1.0
  C  C119  1  0.93067000  0.29857000  0.83584000  1.0
  C  C120  1  0.76033000  0.28158000  0.75836000  1.0
  C  C121  1  0.81048000  0.34744000  0.71455000  1.0
  C  C122  1  0.73048000  0.62534000  0.10785000  1.0
  C  C123  1  0.67611000  0.69046000  0.06447000  1.0
  C  C124  1  0.55134000  0.72492000  0.07951000  1.0
  C  C125  1  0.48724000  0.68745000  0.13693000  1.0
  C  C126  1  0.54974000  0.62428000  0.17851000  1.0
  C  C127  1  0.49519000  0.79699000  0.03739000  1.0
  C  C128  1  0.47670000  0.89394000  0.95660000  1.0
  C  C129  1  0.50168000  0.94837000  0.89587000  1.0
  C  C130  1  0.48408000  0.04223000  0.81417000  1.0
  C  C131  1  0.42876000  0.10994000  0.76824000  1.0
  C  C132  1  0.48801000  0.13570000  0.70565000  1.0
  C  C133  1  0.43067000  0.20143000  0.66415000  1.0
  C  C134  1  0.26033000  0.21842000  0.74164000  1.0
  C  C135  1  0.31048000  0.15256000  0.78545000  1.0
  C  C136  1  0.73048000  0.87466000  0.60785000  1.0
  C  C137  1  0.67611000  0.80954000  0.56447000  1.0
  C  C138  1  0.55134000  0.77508000  0.57951000  1.0
  C  C139  1  0.48724000  0.81255000  0.63693000  1.0
  C  C140  1  0.54974000  0.87572000  0.67851000  1.0
  C  C141  1  0.49519000  0.70301000  0.53739000  1.0
  C  C142  1  0.47670000  0.60606000  0.45660000  1.0
  C  C143  1  0.50168000  0.55163000  0.39587000  1.0
  C  C144  1  0.48408000  0.45777000  0.31417000  1.0
  C  C145  1  0.42876000  0.39006000  0.26824000  1.0
  C  C146  1  0.48801000  0.36430000  0.20565000  1.0
  C  C147  1  0.43067000  0.29857000  0.16416000  1.0
  C  C148  1  0.26033000  0.28158000  0.24164000  1.0
  C  C149  1  0.31048000  0.34744000  0.28545000  1.0
  C  C150  1  0.23048000  0.62534000  0.89215000  1.0
  C  C151  1  0.17611000  0.69046000  0.93553000  1.0
  C  C152  1  0.05134000  0.72492000  0.92049000  1.0
  C  C153  1  0.98724000  0.68745000  0.86307000  1.0
  C  C154  1  0.04974000  0.62428000  0.82149000  1.0
  C  C155  1  0.99519000  0.79699000  0.96261000  1.0
  C  C156  1  0.97670000  0.89394000  0.04340000  1.0
  C  C157  1  0.00168000  0.94837000  0.10413000  1.0
  C  C158  1  0.98408000  0.04223000  0.18583000  1.0
  C  C159  1  0.92876000  0.10994000  0.23176000  1.0
  C  C160  1  0.98802000  0.13570000  0.29435000  1.0
  C  C161  1  0.93067000  0.20143000  0.33585000  1.0
  C  C162  1  0.76033000  0.21842000  0.25836000  1.0
  C  C163  1  0.81048000  0.15256000  0.21455000  1.0
  C  C164  1  0.76952000  0.12534000  0.60785000  1.0
  C  C165  1  0.82389000  0.19046000  0.56447000  1.0
  C  C166  1  0.94866000  0.22492000  0.57951000  1.0
  C  C167  1  0.01276000  0.18745000  0.63693000  1.0
  C  C168  1  0.95026000  0.12428000  0.67851000  1.0
  C  C169  1  0.00481000  0.29699000  0.53739000  1.0
  C  C170  1  0.02330000  0.39394000  0.45660000  1.0
  C  C171  1  0.99832000  0.44837000  0.39587000  1.0
  C  C172  1  0.01592000  0.54223000  0.31417000  1.0
  C  C173  1  0.07124000  0.60994000  0.26824000  1.0
  C  C174  1  0.01199000  0.63570000  0.20565000  1.0
  C  C175  1  0.06933000  0.70143000  0.16416000  1.0
  C  C176  1  0.23967000  0.71842000  0.24164000  1.0
  C  C177  1  0.18952000  0.65256000  0.28545000  1.0
  C  C178  1  0.26952000  0.37466000  0.89215000  1.0
  C  C179  1  0.32389000  0.30954000  0.93553000  1.0
  C  C180  1  0.44866000  0.27508000  0.92049000  1.0
  C  C181  1  0.51276000  0.31255000  0.86307000  1.0
  C  C182  1  0.45026000  0.37572000  0.82149000  1.0
  C  C183  1  0.50481000  0.20301000  0.96261000  1.0
  C  C184  1  0.52330000  0.10606000  0.04340000  1.0
  C  C185  1  0.49832000  0.05163000  0.10413000  1.0
  C  C186  1  0.51592000  0.95777000  0.18583000  1.0
  C  C187  1  0.57124000  0.89006000  0.23176000  1.0
  C  C188  1  0.51199000  0.86430000  0.29435000  1.0
  C  C189  1  0.56933000  0.79857000  0.33585000  1.0
  C  C190  1  0.73967000  0.78158000  0.25836000  1.0
  C  C191  1  0.68952000  0.84744000  0.21455000  1.0
  N  N192  1  0.32825000  0.09345000  0.33395000  1.0
  N  N193  1  0.44564000  0.32621000  0.52146000  1.0
  N  N194  1  0.61574000  0.34462000  0.44854000  1.0
  N  N195  1  0.62651000  0.40719000  0.50107000  1.0
  N  N196  1  0.58138000  0.51014000  0.63000000  1.0
  N  N197  1  0.38550000  0.44213000  0.64041000  1.0
  N  N198  1  0.39630000  0.50297000  0.69346000  1.0
  N  N199  1  0.68212000  0.74367000  0.81879000  1.0
  N  N200  1  0.82825000  0.40655000  0.16605000  1.0
  N  N201  1  0.94564000  0.17379000  0.97854000  1.0
  N  N202  1  0.11574000  0.15538000  0.05146000  1.0
  N  N203  1  0.12651000  0.09281000  0.99893000  1.0
  N  N204  1  0.08138000  0.98986000  0.87000000  1.0
  N  N205  1  0.88551000  0.05787000  0.85959000  1.0
  N  N206  1  0.89630000  0.99703000  0.80654000  1.0
  N  N207  1  0.18212000  0.75633000  0.68121000  1.0
  N  N208  1  0.17175000  0.90655000  0.33395000  1.0
  N  N209  1  0.05436000  0.67379000  0.52146000  1.0
  N  N210  1  0.88426000  0.65538000  0.44854000  1.0
  N  N211  1  0.87349000  0.59281000  0.50107000  1.0
  N  N212  1  0.91863000  0.48986000  0.63000000  1.0
  N  N213  1  0.11450000  0.55787000  0.64041000  1.0
  N  N214  1  0.10370000  0.49703000  0.69346000  1.0
  N  N215  1  0.81788000  0.25633000  0.81879000  1.0
  N  N216  1  0.67175000  0.59344000  0.16605000  1.0
  N  N217  1  0.55436000  0.82621000  0.97854000  1.0
  N  N218  1  0.38425000  0.84462000  0.05146000  1.0
  N  N219  1  0.37349000  0.90719000  0.99893000  1.0
  N  N220  1  0.41863000  0.01014000  0.87000000  1.0
  N  N221  1  0.61450000  0.94213000  0.85959000  1.0
  N  N222  1  0.60370000  0.00297000  0.80654000  1.0
  N  N223  1  0.31788000  0.24367000  0.68121000  1.0
  N  N224  1  0.67175000  0.90655000  0.66605000  1.0
  N  N225  1  0.55436000  0.67379000  0.47854000  1.0
  N  N226  1  0.38426000  0.65538000  0.55145000  1.0
  N  N227  1  0.37349000  0.59281000  0.49893000  1.0
  N  N228  1  0.41863000  0.48986000  0.37000000  1.0
  N  N229  1  0.61450000  0.55787000  0.35959000  1.0
  N  N230  1  0.60370000  0.49703000  0.30654000  1.0
  N  N231  1  0.31788000  0.25633000  0.18121000  1.0
  N  N232  1  0.17175000  0.59345000  0.83395000  1.0
  N  N233  1  0.05436000  0.82621000  0.02146000  1.0
  N  N234  1  0.88425000  0.84462000  0.94854000  1.0
  N  N235  1  0.87349000  0.90719000  0.00107000  1.0
  N  N236  1  0.91863000  0.01014000  0.13000000  1.0
  N  N237  1  0.11450000  0.94213000  0.14041000  1.0
  N  N238  1  0.10370000  0.00297000  0.19346000  1.0
  N  N239  1  0.81788000  0.24367000  0.31879000  1.0
  N  N240  1  0.82825000  0.09344000  0.66605000  1.0
  N  N241  1  0.94564000  0.32621000  0.47854000  1.0
  N  N242  1  0.11574000  0.34462000  0.55146000  1.0
  N  N243  1  0.12651000  0.40719000  0.49893000  1.0
  N  N244  1  0.08138000  0.51014000  0.37000000  1.0
  N  N245  1  0.88550000  0.44213000  0.35959000  1.0
  N  N246  1  0.89630000  0.50297000  0.30654000  1.0
  N  N247  1  0.18212000  0.74367000  0.18121000  1.0
  N  N248  1  0.32825000  0.40655000  0.83395000  1.0
  N  N249  1  0.44564000  0.17379000  0.02146000  1.0
  N  N250  1  0.61574000  0.15538000  0.94854000  1.0
  N  N251  1  0.62651000  0.09281000  0.00107000  1.0
  N  N252  1  0.58138000  0.98986000  0.13000000  1.0
  N  N253  1  0.38551000  0.05787000  0.14041000  1.0
  N  N254  1  0.39630000  0.99703000  0.19346000  1.0
  N  N255  1  0.68212000  0.75633000  0.31879000  1.0
