# generated using pymatgen
data_AgH13C10N3ClO4
_symmetry_space_group_name_H-M   'P 1'
_cell_length_a   7.57639000
_cell_length_b   9.93967000
_cell_length_c   17.65380000
_cell_angle_alpha   102.98600000
_cell_angle_beta   90.00000000
_cell_angle_gamma   89.99990000
_symmetry_Int_Tables_number   1
_chemical_formula_structural   AgH13C10N3ClO4
_chemical_formula_sum   'Ag4 H52 C40 N12 Cl4 O16'
_cell_volume   1295.45075587
_cell_formula_units_Z   4
loop_
 _symmetry_equiv_pos_site_id
 _symmetry_equiv_pos_as_xyz
  1  'x, y, z'
loop_
 _atom_site_type_symbol
 _atom_site_label
 _atom_site_symmetry_multiplicity
 _atom_site_fract_x
 _atom_site_fract_y
 _atom_site_fract_z
 _atom_site_occupancy
  Ag  Ag0  1  0.41562000  0.62295000  0.30884000  1.0
  Ag  Ag1  1  0.08438000  0.62295000  0.80885000  1.0
  Ag  Ag2  1  0.58438000  0.37705000  0.69115000  1.0
  Ag  Ag3  1  0.91562000  0.37705000  0.19115000  1.0
  H  H4  1  0.97033000  0.92517000  0.35485000  1.0
  H  H5  1  0.52966000  0.92517000  0.85485000  1.0
  H  H6  1  0.02966000  0.07483000  0.64515000  1.0
  H  H7  1  0.47034000  0.07483000  0.14515000  1.0
  H  H8  1  0.07443000  0.08566000  0.34947000  1.0
  H  H9  1  0.42557000  0.08565000  0.84948000  1.0
  H  H10  1  0.92557000  0.91434000  0.65052000  1.0
  H  H11  1  0.57444000  0.91434000  0.15052000  1.0
  H  H12  1  0.07665000  0.02786000  0.43918000  1.0
  H  H13  1  0.42335000  0.02786000  0.93918000  1.0
  H  H14  1  0.92335000  0.97214000  0.56082000  1.0
  H  H15  1  0.57665000  0.97214000  0.06082000  1.0
  H  H16  1  0.40066000  0.04056000  0.44263000  1.0
  H  H17  1  0.09934000  0.04056000  0.94263000  1.0
  H  H18  1  0.59934000  0.95944000  0.55737000  1.0
  H  H19  1  0.90066000  0.95944000  0.05737000  1.0
  H  H20  1  0.39730000  0.10198000  0.35384000  1.0
  H  H21  1  0.10270000  0.10198000  0.85384000  1.0
  H  H22  1  0.60270000  0.89802000  0.64616000  1.0
  H  H23  1  0.89730000  0.89802000  0.14616000  1.0
  H  H24  1  0.52488000  0.95121000  0.35979000  1.0
  H  H25  1  0.97512000  0.95121000  0.85979000  1.0
  H  H26  1  0.47512000  0.04879000  0.64021000  1.0
  H  H27  1  0.02488000  0.04879000  0.14021000  1.0
  H  H28  1  0.37726000  0.82884000  0.24602000  1.0
  H  H29  1  0.12274000  0.82883000  0.74602000  1.0
  H  H30  1  0.62274000  0.17117000  0.75398000  1.0
  H  H31  1  0.87726000  0.17117000  0.25398000  1.0
  H  H32  1  0.24534000  0.97814000  0.24330000  1.0
  H  H33  1  0.25465000  0.97813000  0.74330000  1.0
  H  H34  1  0.75465000  0.02186000  0.75670000  1.0
  H  H35  1  0.74535000  0.02186000  0.25670000  1.0
  H  H36  1  0.13995000  0.81468000  0.24421000  1.0
  H  H37  1  0.36004000  0.81468000  0.74421000  1.0
  H  H38  1  0.86005000  0.18532000  0.75579000  1.0
  H  H39  1  0.63995000  0.18532000  0.25579000  1.0
  H  H40  1  0.36762000  0.74872000  0.58724000  1.0
  H  H41  1  0.13238000  0.74872000  0.08724000  1.0
  H  H42  1  0.63238000  0.25128000  0.41276000  1.0
  H  H43  1  0.86762000  0.25128000  0.91276000  1.0
  H  H44  1  0.36834000  0.52581000  0.62912000  1.0
  H  H45  1  0.13167000  0.52580000  0.12912000  1.0
  H  H46  1  0.63167000  0.47420000  0.37088000  1.0
  H  H47  1  0.86833000  0.47420000  0.87088000  1.0
  H  H48  1  0.11378000  0.32845000  0.41458000  1.0
  H  H49  1  0.38622000  0.32845000  0.91458000  1.0
  H  H50  1  0.88622000  0.67155000  0.58542000  1.0
  H  H51  1  0.61378000  0.67155000  0.08542000  1.0
  H  H52  1  0.10859000  0.55243000  0.37453000  1.0
  H  H53  1  0.39141000  0.55243000  0.87453000  1.0
  H  H54  1  0.89141000  0.44757000  0.62547000  1.0
  H  H55  1  0.60859000  0.44757000  0.12547000  1.0
  C  C56  1  0.07899000  0.99614000  0.37600000  1.0
  C  C57  1  0.42101000  0.99614000  0.87600000  1.0
  C  C58  1  0.92101000  0.00386000  0.62400000  1.0
  C  C59  1  0.57899000  0.00386000  0.12400000  1.0
  C  C60  1  0.40580000  0.01123000  0.37933000  1.0
  C  C61  1  0.09420000  0.01123000  0.87933000  1.0
  C  C62  1  0.59420000  0.98877000  0.62067000  1.0
  C  C63  1  0.90580000  0.98877000  0.12067000  1.0
  C  C64  1  0.25249000  0.88246000  0.26409000  1.0
  C  C65  1  0.24751000  0.88245000  0.76409000  1.0
  C  C66  1  0.74751000  0.11755000  0.73591000  1.0
  C  C67  1  0.75249000  0.11755000  0.23591000  1.0
  C  C68  1  0.24611000  0.80248000  0.45531000  1.0
  C  C69  1  0.25389000  0.80248000  0.95531000  1.0
  C  C70  1  0.75389000  0.19752000  0.54469000  1.0
  C  C71  1  0.74611000  0.19752000  0.04469000  1.0
  C  C72  1  0.24483000  0.66449000  0.47699000  1.0
  C  C73  1  0.25517000  0.66449000  0.97699000  1.0
  C  C74  1  0.75517000  0.33551000  0.52301000  1.0
  C  C75  1  0.74483000  0.33551000  0.02301000  1.0
  C  C76  1  0.31413000  0.65599000  0.54924000  1.0
  C  C77  1  0.18587000  0.65599000  0.04924000  1.0
  C  C78  1  0.68587000  0.34401000  0.45076000  1.0
  C  C79  1  0.81413000  0.34401000  0.95076000  1.0
  C  C80  1  0.31512000  0.53136000  0.57267000  1.0
  C  C81  1  0.18488000  0.53136000  0.07267000  1.0
  C  C82  1  0.68488000  0.46864000  0.42733000  1.0
  C  C83  1  0.81512000  0.46864000  0.92733000  1.0
  C  C84  1  0.24655000  0.41365000  0.52294000  1.0
  C  C85  1  0.25346000  0.41365000  0.02294000  1.0
  C  C86  1  0.75346000  0.58635000  0.47706000  1.0
  C  C87  1  0.74654000  0.58635000  0.97706000  1.0
  C  C88  1  0.17374000  0.41985000  0.45120000  1.0
  C  C89  1  0.32626000  0.41985000  0.95120000  1.0
  C  C90  1  0.82626000  0.58015000  0.54880000  1.0
  C  C91  1  0.67374000  0.58015000  0.04880000  1.0
  C  C92  1  0.17208000  0.54570000  0.42888000  1.0
  C  C93  1  0.32792000  0.54569000  0.92888000  1.0
  C  C94  1  0.82792000  0.45430000  0.57113000  1.0
  C  C95  1  0.67208000  0.45430000  0.07113000  1.0
  N  N96  1  0.25632000  0.79044000  0.37719000  1.0
  N  N97  1  0.24368000  0.79044000  0.87719000  1.0
  N  N98  1  0.74368000  0.20956000  0.62281000  1.0
  N  N99  1  0.75632000  0.20956000  0.12281000  1.0
  N  N100  1  0.24905000  0.92074000  0.35109000  1.0
  N  N101  1  0.25095000  0.92074000  0.85109000  1.0
  N  N102  1  0.75095000  0.07926000  0.64891000  1.0
  N  N103  1  0.74905000  0.07926000  0.14891000  1.0
  N  N104  1  0.77240000  0.67431000  0.24241000  1.0
  N  N105  1  0.72760000  0.67431000  0.74241000  1.0
  N  N106  1  0.22760000  0.32569000  0.75759000  1.0
  N  N107  1  0.27240000  0.32569000  0.25759000  1.0
  Cl  Cl108  1  0.24627000  0.25806000  0.55182000  1.0
  Cl  Cl109  1  0.25373000  0.25806000  0.05182000  1.0
  Cl  Cl110  1  0.75373000  0.74194000  0.44818000  1.0
  Cl  Cl111  1  0.74626000  0.74194000  0.94818000  1.0
  O  O112  1  0.23876000  0.91111000  0.50760000  1.0
  O  O113  1  0.26123000  0.91111000  0.00760000  1.0
  O  O114  1  0.76122000  0.08888000  0.49240000  1.0
  O  O115  1  0.73878000  0.08888000  0.99240000  1.0
  O  O116  1  0.68429000  0.56915000  0.25434000  1.0
  O  O117  1  0.81571000  0.56915000  0.75434000  1.0
  O  O118  1  0.31571000  0.43086000  0.74566000  1.0
  O  O119  1  0.18429000  0.43085000  0.24566000  1.0
  O  O120  1  0.92873000  0.65420000  0.21868000  1.0
  O  O121  1  0.57127000  0.65420000  0.71868000  1.0
  O  O122  1  0.07127000  0.34580000  0.78132000  1.0
  O  O123  1  0.42872000  0.34580000  0.28132000  1.0
  O  O124  1  0.70032000  0.79101000  0.25379000  1.0
  O  O125  1  0.79968000  0.79101000  0.75379000  1.0
  O  O126  1  0.29968000  0.20899000  0.74621000  1.0
  O  O127  1  0.20032000  0.20899000  0.24621000  1.0
