# generated using pymatgen
data_TbH6(C3O5)2
_symmetry_space_group_name_H-M   'P 1'
_cell_length_a   6.04339000
_cell_length_b   6.06495000
_cell_length_c   14.13364707
_cell_angle_alpha   99.90646072
_cell_angle_beta   102.23573261
_cell_angle_gamma   89.97180000
_symmetry_Int_Tables_number   1
_chemical_formula_structural   TbH6(C3O5)2
_chemical_formula_sum   'Tb2 H12 C12 O20'
_cell_volume   498.37400810
_cell_formula_units_Z   2
loop_
 _symmetry_equiv_pos_site_id
 _symmetry_equiv_pos_as_xyz
  1  'x, y, z'
loop_
 _atom_site_type_symbol
 _atom_site_label
 _atom_site_symmetry_multiplicity
 _atom_site_fract_x
 _atom_site_fract_y
 _atom_site_fract_z
 _atom_site_occupancy
  Tb  Tb0  1  0.34932000  0.07982000  0.85172000  1.0
  Tb  Tb1  1  0.05022000  0.47178000  0.26295000  1.0
  H  H2  1  0.03419000  0.46484000  0.60466000  1.0
  H  H3  1  0.98718000  0.08959000  0.51114000  1.0
  H  H4  1  0.47507000  0.91394000  0.14782000  1.0
  H  H5  1  0.62531000  0.11548000  0.38351000  1.0
  H  H6  1  0.80556000  0.43533000  0.73130000  1.0
  H  H7  1  0.88888000  0.63793000  0.96677000  1.0
  H  H8  1  0.37479000  0.65888000  0.62842000  1.0
  H  H9  1  0.30186000  0.89572000  0.48496000  1.0
  H  H10  1  0.84093000  0.89376000  0.27898000  1.0
  H  H11  1  0.63068000  0.74751000  0.29609000  1.0
  H  H12  1  0.89706000  0.80480000  0.81796000  1.0
  H  H13  1  0.12365000  0.65772000  0.83472000  1.0
  C  C14  1  0.09247000  0.47114000  0.46163000  1.0
  C  C15  1  0.16504000  0.40514000  0.56312000  1.0
  C  C16  1  0.15988000  0.14950000  0.55161000  1.0
  C  C17  1  0.19293000  0.08356000  0.65327000  1.0
  C  C18  1  0.62438000  0.17873000  0.08180000  1.0
  C  C19  1  0.47271000  0.97424000  0.07828000  1.0
  C  C20  1  0.46342000  0.16458000  0.34149000  1.0
  C  C21  1  0.27343000  0.98982000  0.29167000  1.0
  C  C22  1  0.54502000  0.56159000  0.82337000  1.0
  C  C23  1  0.68645000  0.38684000  0.77394000  1.0
  C  C24  1  0.95382000  0.57710000  0.03633000  1.0
  C  C25  1  0.10139000  0.37222000  0.03312000  1.0
  O  O26  1  0.19706000  0.62975000  0.43846000  1.0
  O  O27  1  0.93138000  0.35899000  0.39897000  1.0
  O  O28  1  0.38363000  0.49310000  0.61406000  1.0
  O  O29  1  0.32586000  0.06142000  0.49939000  1.0
  O  O30  1  0.32392000  0.92686000  0.67593000  1.0
  O  O31  1  0.09425000  0.19382000  0.71651000  1.0
  O  O32  1  0.72595000  0.27624000  0.16577000  1.0
  O  O33  1  0.63307000  0.22721000  0.99868000  1.0
  O  O34  1  0.35898000  0.87636000  0.99996000  1.0
  O  O35  1  0.43431000  0.35905000  0.32959000  1.0
  O  O36  1  0.32184000  0.78381000  0.28137000  1.0
  O  O37  1  0.08353000  0.06864000  0.26096000  1.0
  O  O38  1  0.38541000  0.48279000  0.85390000  1.0
  O  O39  1  0.60286000  0.76763000  0.83328000  1.0
  O  O40  1  0.66953000  0.19253000  0.78592000  1.0
  O  O41  1  0.91638000  0.67494000  0.11439000  1.0
  O  O42  1  0.19067000  0.32287000  0.11629000  1.0
  O  O43  1  0.12174000  0.27610000  0.94922000  1.0
  O  O44  1  0.79522000  0.75428000  0.29792000  1.0
  O  O45  1  0.05922000  0.79671000  0.81515000  1.0
