# generated using pymatgen
data_ZnH17C23N6O5
_symmetry_space_group_name_H-M   'P 1'
_cell_length_a   16.49780000
_cell_length_b   17.85250000
_cell_length_c   33.15940000
_cell_angle_alpha   89.68550000
_cell_angle_beta   91.43610000
_cell_angle_gamma   89.98600000
_symmetry_Int_Tables_number   1
_chemical_formula_structural   ZnH17C23N6O5
_chemical_formula_sum   'Zn4 H68 C92 N24 O20'
_cell_volume   9763.12233259
_cell_formula_units_Z   4
loop_
 _symmetry_equiv_pos_site_id
 _symmetry_equiv_pos_as_xyz
  1  'x, y, z'
loop_
 _atom_site_type_symbol
 _atom_site_label
 _atom_site_symmetry_multiplicity
 _atom_site_fract_x
 _atom_site_fract_y
 _atom_site_fract_z
 _atom_site_occupancy
  Zn  Zn0  1  0.42124000  0.50348000  0.49987000  1.0
  Zn  Zn1  1  0.59243000  0.50268000  0.50095000  1.0
  Zn  Zn2  1  0.57825000  0.50052000  0.96237000  1.0
  Zn  Zn3  1  0.40702000  0.49995000  0.96134000  1.0
  H  H4  1  0.71819000  0.40939000  0.53905000  1.0
  H  H5  1  0.72041000  0.59228000  0.46185000  1.0
  H  H6  1  0.30318000  0.45771000  0.56128000  1.0
  H  H7  1  0.28659000  0.55505000  0.44782000  1.0
  H  H8  1  0.37435000  0.26929000  0.49268000  1.0
  H  H9  1  0.63067000  0.26264000  0.51812000  1.0
  H  H10  1  0.37769000  0.73683000  0.50889000  1.0
  H  H11  1  0.63161000  0.74368000  0.48379000  1.0
  H  H12  1  0.64339000  0.49696000  0.63497000  1.0
  H  H13  1  0.71037000  0.48431000  0.70301000  1.0
  H  H14  1  0.38582000  0.50493000  0.62299000  1.0
  H  H15  1  0.35632000  0.49706000  0.82745000  1.0
  H  H16  1  0.28926000  0.48536000  0.75946000  1.0
  H  H17  1  0.61394000  0.50428000  0.83935000  1.0
  H  H18  1  0.62457000  0.51641000  0.09005000  1.0
  H  H19  1  0.37018000  0.46572000  0.08877000  1.0
  H  H20  1  0.62976000  0.47064000  0.37394000  1.0
  H  H21  1  0.37523000  0.52102000  0.37159000  1.0
  H  H22  1  0.28131000  0.40703000  0.92342000  1.0
  H  H23  1  0.27891000  0.58945000  0.99986000  1.0
  H  H24  1  0.69646000  0.45529000  0.90141000  1.0
  H  H25  1  0.71257000  0.55170000  0.01454000  1.0
  H  H26  1  0.62573000  0.26690000  0.96821000  1.0
  H  H27  1  0.36936000  0.25964000  0.94285000  1.0
  H  H28  1  0.62240000  0.73320000  0.95280000  1.0
  H  H29  1  0.36867000  0.74152000  0.97823000  1.0
  H  H30  1  0.94056000  0.62050000  0.46825000  1.0
  H  H31  1  0.85147000  0.65178000  0.44718000  1.0
  H  H32  1  0.94010000  0.38801000  0.54611000  1.0
  H  H33  1  0.84905000  0.35161000  0.56032000  1.0
  H  H34  1  0.06484000  0.54855000  0.43963000  1.0
  H  H35  1  0.15183000  0.57343000  0.41627000  1.0
  H  H36  1  0.08521000  0.46530000  0.58074000  1.0
  H  H37  1  0.17917000  0.44241000  0.60052000  1.0
  H  H38  1  0.63578000  0.05817000  0.52502000  1.0
  H  H39  1  0.69021000  0.13816000  0.53113000  1.0
  H  H40  1  0.35984000  0.06749000  0.47718000  1.0
  H  H41  1  0.30913000  0.15031000  0.47522000  1.0
  H  H42  1  0.63411000  0.94766000  0.47358000  1.0
  H  H43  1  0.68863000  0.86776000  0.46881000  1.0
  H  H44  1  0.36332000  0.93920000  0.52204000  1.0
  H  H45  1  0.31355000  0.85620000  0.52527000  1.0
  H  H46  1  0.36331000  0.45139000  0.19876000  1.0
  H  H47  1  0.31023000  0.43968000  0.15467000  1.0
  H  H48  1  0.63528000  0.54375000  0.19908000  1.0
  H  H49  1  0.68652000  0.54974000  0.15545000  1.0
  H  H50  1  0.36511000  0.54509000  0.26215000  1.0
  H  H51  1  0.31354000  0.55245000  0.30559000  1.0
  H  H52  1  0.63725000  0.45320000  0.26421000  1.0
  H  H53  1  0.69018000  0.44294000  0.30849000  1.0
  H  H54  1  0.05878000  0.61765000  0.99339000  1.0
  H  H55  1  0.14790000  0.64882000  0.01429000  1.0
  H  H56  1  0.05942000  0.38560000  0.91646000  1.0
  H  H57  1  0.15051000  0.34937000  0.90235000  1.0
  H  H58  1  0.93447000  0.54575000  0.02273000  1.0
  H  H59  1  0.84742000  0.57015000  0.04607000  1.0
  H  H60  1  0.91434000  0.46357000  0.88197000  1.0
  H  H61  1  0.82050000  0.44063000  0.86227000  1.0
  H  H62  1  0.36565000  0.05541000  0.93521000  1.0
  H  H63  1  0.31077000  0.13530000  0.92932000  1.0
  H  H64  1  0.64138000  0.06463000  0.98322000  1.0
  H  H65  1  0.69162000  0.14760000  0.98553000  1.0
  H  H66  1  0.36719000  0.94552000  0.98700000  1.0
  H  H67  1  0.31232000  0.86588000  0.99231000  1.0
  H  H68  1  0.63785000  0.93547000  0.93837000  1.0
  H  H69  1  0.68707000  0.85218000  0.93553000  1.0
  H  H70  1  0.66773000  0.41141000  0.81957000  1.0
  H  H71  1  0.33145000  0.41237000  0.64339000  1.0
  C  C72  1  0.50406000  0.35672000  0.50609000  1.0
  C  C73  1  0.51682000  0.50642000  0.58010000  1.0
  C  C74  1  0.50615000  0.64950000  0.49661000  1.0
  C  C75  1  0.50256000  0.49600000  0.42162000  1.0
  C  C76  1  0.49552000  0.35405000  0.95516000  1.0
  C  C77  1  0.48286000  0.50621000  0.88221000  1.0
  C  C78  1  0.49371000  0.64657000  0.96601000  1.0
  C  C79  1  0.49702000  0.49079000  0.04060000  1.0
  C  C80  1  0.75585000  0.44971000  0.52329000  1.0
  C  C81  1  0.84072000  0.44814000  0.52670000  1.0
  C  C82  1  0.88501000  0.50294000  0.50522000  1.0
  C  C83  1  0.84197000  0.55601000  0.48085000  1.0
  C  C84  1  0.75708000  0.55259000  0.47954000  1.0
  C  C85  1  0.97017000  0.50431000  0.50766000  1.0
  C  C86  1  0.04450000  0.50559000  0.50949000  1.0
  C  C87  1  0.12960000  0.50692000  0.50876000  1.0
  C  C88  1  0.17796000  0.47892000  0.54164000  1.0
  C  C89  1  0.26259000  0.47920000  0.53753000  1.0
  C  C90  1  0.25318000  0.53431000  0.47356000  1.0
  C  C91  1  0.16838000  0.53585000  0.47418000  1.0
  C  C92  1  0.50252000  0.27266000  0.50575000  1.0
  C  C93  1  0.42898000  0.23595000  0.49781000  1.0
  C  C94  1  0.42647000  0.15783000  0.49580000  1.0
  C  C95  1  0.49910000  0.11608000  0.50245000  1.0
  C  C96  1  0.57340000  0.15403000  0.51102000  1.0
  C  C97  1  0.57433000  0.23225000  0.51237000  1.0
  C  C98  1  0.49807000  0.03749000  0.50036000  1.0
  C  C99  1  0.49878000  0.96880000  0.49871000  1.0
  C  C100  1  0.50037000  0.89018000  0.49737000  1.0
  C  C101  1  0.42871000  0.84839000  0.50461000  1.0
  C  C102  1  0.43163000  0.77025000  0.50356000  1.0
  C  C103  1  0.50470000  0.73357000  0.49621000  1.0
  C  C104  1  0.57561000  0.77399000  0.48915000  1.0
  C  C105  1  0.57409000  0.85226000  0.48927000  1.0
  C  C106  1  0.58465000  0.49527000  0.64935000  1.0
  C  C107  1  0.57987000  0.49005000  0.69153000  1.0
  C  C108  1  0.65108000  0.48611000  0.71685000  1.0
  C  C109  1  0.43823000  0.49727000  0.64321000  1.0
  C  C110  1  0.42995000  0.48859000  0.68499000  1.0
  C  C111  1  0.35233000  0.48402000  0.70434000  1.0
  C  C112  1  0.41503000  0.49524000  0.81308000  1.0
  C  C113  1  0.41978000  0.49020000  0.77092000  1.0
  C  C114  1  0.34856000  0.48687000  0.74561000  1.0
  C  C115  1  0.56148000  0.49675000  0.81917000  1.0
  C  C116  1  0.56972000  0.48800000  0.77746000  1.0
  C  C117  1  0.64732000  0.48299000  0.75813000  1.0
  C  C118  1  0.51417000  0.49987000  0.62543000  1.0
  C  C119  1  0.50220000  0.48766000  0.70986000  1.0
  C  C120  1  0.48555000  0.49967000  0.83695000  1.0
  C  C121  1  0.49744000  0.48754000  0.75260000  1.0
  C  C122  1  0.49738000  0.49109000  0.08585000  1.0
  C  C123  1  0.56982000  0.50654000  0.10698000  1.0
  C  C124  1  0.57127000  0.50946000  0.14906000  1.0
  C  C125  1  0.49875000  0.49551000  0.17017000  1.0
  C  C126  1  0.42552000  0.47906000  0.14836000  1.0
  C  C127  1  0.42556000  0.47745000  0.10620000  1.0
  C  C128  1  0.49969000  0.49746000  0.21255000  1.0
  C  C129  1  0.50074000  0.49825000  0.24958000  1.0
  C  C130  1  0.50158000  0.49801000  0.29198000  1.0
  C  C131  1  0.57479000  0.48243000  0.31410000  1.0
  C  C132  1  0.57450000  0.48200000  0.35627000  1.0
  C  C133  1  0.50249000  0.49597000  0.37634000  1.0
  C  C134  1  0.43015000  0.51084000  0.35489000  1.0
  C  C135  1  0.42891000  0.51259000  0.31279000  1.0
  C  C136  1  0.24360000  0.44726000  0.93900000  1.0
  C  C137  1  0.15874000  0.44566000  0.93562000  1.0
  C  C138  1  0.11440000  0.50024000  0.95694000  1.0
  C  C139  1  0.15739000  0.55319000  0.98108000  1.0
  C  C140  1  0.24229000  0.54982000  0.98237000  1.0
  C  C141  1  0.02923000  0.50157000  0.95460000  1.0
  C  C142  1  0.95489000  0.50306000  0.95304000  1.0
  C  C143  1  0.86979000  0.50428000  0.95385000  1.0
  C  C144  1  0.82157000  0.47648000  0.92105000  1.0
  C  C145  1  0.73695000  0.47656000  0.92514000  1.0
  C  C146  1  0.74611000  0.53114000  0.98892000  1.0
  C  C147  1  0.83092000  0.53287000  0.98831000  1.0
  C  C148  1  0.49748000  0.26998000  0.95521000  1.0
  C  C149  1  0.57129000  0.23344000  0.96303000  1.0
  C  C150  1  0.57427000  0.15526000  0.96488000  1.0
  C  C151  1  0.50191000  0.11332000  0.95811000  1.0
  C  C152  1  0.42740000  0.15113000  0.94955000  1.0
  C  C153  1  0.42593000  0.22939000  0.94847000  1.0
  C  C154  1  0.50331000  0.03467000  0.96017000  1.0
  C  C155  1  0.50265000  0.96594000  0.96188000  1.0
  C  C156  1  0.50067000  0.88728000  0.96356000  1.0
  C  C157  1  0.57200000  0.84503000  0.95644000  1.0
  C  C158  1  0.56865000  0.76690000  0.95801000  1.0
  C  C159  1  0.49547000  0.73064000  0.96578000  1.0
  C  C160  1  0.42485000  0.77149000  0.97264000  1.0
  C  C161  1  0.42679000  0.84976000  0.97197000  1.0
  C  C162  1  0.72605000  0.47141000  0.78073000  1.0
  C  C163  1  0.27357000  0.47318000  0.68174000  1.0
  N  N164  1  0.71677000  0.50090000  0.50050000  1.0
  N  N165  1  0.29741000  0.50597000  0.50445000  1.0
  N  N166  1  0.28264000  0.49828000  0.96160000  1.0
  N  N167  1  0.70203000  0.50302000  0.95810000  1.0
  N  N168  1  0.88366000  0.60749000  0.45816000  1.0
  N  N169  1  0.88051000  0.39703000  0.55118000  1.0
  N  N170  1  0.12313000  0.56642000  0.44268000  1.0
  N  N171  1  0.14324000  0.45022000  0.57544000  1.0
  N  N172  1  0.64397000  0.11222000  0.51614000  1.0
  N  N173  1  0.35416000  0.11985000  0.48870000  1.0
  N  N174  1  0.64377000  0.89427000  0.48344000  1.0
  N  N175  1  0.35683000  0.88627000  0.51126000  1.0
  N  N176  1  0.35497000  0.46795000  0.16955000  1.0
  N  N177  1  0.64272000  0.52304000  0.17090000  1.0
  N  N178  1  0.35757000  0.52536000  0.29064000  1.0
  N  N179  1  0.64547000  0.47075000  0.29315000  1.0
  N  N180  1  0.11570000  0.60459000  0.00353000  1.0
  N  N181  1  0.11900000  0.39471000  0.91134000  1.0
  N  N182  1  0.87609000  0.56339000  0.01967000  1.0
  N  N183  1  0.85640000  0.44822000  0.88732000  1.0
  N  N184  1  0.35710000  0.10912000  0.94428000  1.0
  N  N185  1  0.64679000  0.11740000  0.97191000  1.0
  N  N186  1  0.35732000  0.89213000  0.97752000  1.0
  N  N187  1  0.64405000  0.88249000  0.94942000  1.0
  O  O188  1  0.43585000  0.38989000  0.50232000  1.0
  O  O189  1  0.57292000  0.38884000  0.50979000  1.0
  O  O190  1  0.58576000  0.51159000  0.56425000  1.0
  O  O191  1  0.44820000  0.50509000  0.56177000  1.0
  O  O192  1  0.57492000  0.61694000  0.49505000  1.0
  O  O193  1  0.43779000  0.61682000  0.49886000  1.0
  O  O194  1  0.43404000  0.50215000  0.43829000  1.0
  O  O195  1  0.57109000  0.49027000  0.44000000  1.0
  O  O196  1  0.56379000  0.38727000  0.95801000  1.0
  O  O197  1  0.42641000  0.38608000  0.95266000  1.0
  O  O198  1  0.41382000  0.50971000  0.89807000  1.0
  O  O199  1  0.55151000  0.50644000  0.90051000  1.0
  O  O200  1  0.42475000  0.61422000  0.96697000  1.0
  O  O201  1  0.56211000  0.61371000  0.96485000  1.0
  O  O202  1  0.56561000  0.49512000  0.02381000  1.0
  O  O203  1  0.42825000  0.48685000  0.02233000  1.0
  O  O204  1  0.72357000  0.42752000  0.81505000  1.0
  O  O205  1  0.79128000  0.49495000  0.77004000  1.0
  O  O206  1  0.27575000  0.42907000  0.64773000  1.0
  O  O207  1  0.20854000  0.49744000  0.69214000  1.0
