# generated using pymatgen
data_Co3H46C52(NO2)8
_symmetry_space_group_name_H-M   'P 1'
_cell_length_a   10.91478494
_cell_length_b   10.98690000
_cell_length_c   12.86440000
_cell_angle_alpha   69.38880000
_cell_angle_beta   76.14918133
_cell_angle_gamma   61.27090624
_symmetry_Int_Tables_number   1
_chemical_formula_structural   Co3H46C52(NO2)8
_chemical_formula_sum   'Co3 H46 C52 N8 O16'
_cell_volume   1261.56273455
_cell_formula_units_Z   1
loop_
 _symmetry_equiv_pos_site_id
 _symmetry_equiv_pos_as_xyz
  1  'x, y, z'
loop_
 _atom_site_type_symbol
 _atom_site_label
 _atom_site_symmetry_multiplicity
 _atom_site_fract_x
 _atom_site_fract_y
 _atom_site_fract_z
 _atom_site_occupancy
  Co  Co0  1  0.44565000  0.49430000  0.21030000  1.0
  Co  Co1  1  0.55411000  0.50563000  0.78971000  1.0
  Co  Co2  1  0.00005000  0.00004000  1.00000000  1.0
  H  H3  1  0.19100000  0.50037000  0.19138000  1.0
  H  H4  1  0.97249000  0.53586000  0.31147000  1.0
  H  H5  1  0.20659000  0.41461000  0.58923000  1.0
  H  H6  1  0.41209000  0.39424000  0.45732000  1.0
  H  H7  1  0.80006000  0.87064000  0.08610000  1.0
  H  H8  1  0.79690000  0.64541000  0.09499000  1.0
  H  H9  1  0.20762000  0.52942000  0.91395000  1.0
  H  H10  1  0.19427000  0.75662000  0.91530000  1.0
  H  H11  1  0.83153000  0.05724000  0.82978000  1.0
  H  H12  1  0.84374000  0.12408000  0.62515000  1.0
  H  H13  1  0.25809000  0.08846000  0.62034000  1.0
  H  H14  1  0.22961000  0.01693000  0.82406000  1.0
  H  H15  1  0.88555000  0.32948000  0.25078000  1.0
  H  H16  1  0.84718000  0.27770000  0.45591000  1.0
  H  H17  1  0.29701000  0.02935000  0.46549000  1.0
  H  H18  1  0.31694000  0.09530000  0.26154000  1.0
  H  H19  1  0.58590000  0.79302000  0.13970000  1.0
  H  H20  1  0.40631000  0.91022000  0.13472000  1.0
  H  H21  1  0.64191000  0.77374000  0.94365000  1.0
  H  H22  1  0.47335000  0.92276000  0.92154000  1.0
  H  H23  1  0.63154000  0.29278000  0.37000000  1.0
  H  H24  1  0.60451000  0.23010000  0.28845000  1.0
  H  H25  1  0.56728000  0.55917000  0.01765000  1.0
  H  H26  1  0.80869000  0.49969000  0.80879000  1.0
  H  H27  1  0.02724000  0.46424000  0.68873000  1.0
  H  H28  1  0.79330000  0.58517000  0.41095000  1.0
  H  H29  1  0.58776000  0.60559000  0.54280000  1.0
  H  H30  1  0.20036000  0.12901000  0.91422000  1.0
  H  H31  1  0.20371000  0.35420000  0.90521000  1.0
  H  H32  1  0.79247000  0.47104000  0.08546000  1.0
  H  H33  1  0.80581000  0.24373000  0.08445000  1.0
  H  H34  1  0.16837000  0.94316000  0.17027000  1.0
  H  H35  1  0.15606000  0.87642000  0.37489000  1.0
  H  H36  1  0.74201000  0.91136000  0.37965000  1.0
  H  H37  1  0.77047000  0.98304000  0.17592000  1.0
  H  H38  1  0.11480000  0.67097000  0.74903000  1.0
  H  H39  1  0.15290000  0.72278000  0.54392000  1.0
  H  H40  1  0.70294000  0.97020000  0.53471000  1.0
  H  H41  1  0.68328000  0.90411000  0.73866000  1.0
  H  H42  1  0.41443000  0.20637000  0.86026000  1.0
  H  H43  1  0.59406000  0.08943000  0.86545000  1.0
  H  H44  1  0.35776000  0.22639000  0.05622000  1.0
  H  H45  1  0.52625000  0.07723000  0.07856000  1.0
  H  H46  1  0.36834000  0.70794000  0.62938000  1.0
  H  H47  1  0.39551000  0.77005000  0.71126000  1.0
  H  H48  1  0.43229000  0.44082000  0.98222000  1.0
  C  C49  1  0.18893000  0.48367000  0.28006000  1.0
  C  C50  1  0.06661000  0.50396000  0.34888000  1.0
  C  C51  1  0.06465000  0.48586000  0.46313000  1.0
  C  C52  1  0.19505000  0.43844000  0.50160000  1.0
  C  C53  1  0.31329000  0.42385000  0.42786000  1.0
  C  C54  1  0.88992000  0.79006000  0.05178000  1.0
  C  C55  1  0.88839000  0.66395000  0.05424000  1.0
  C  C56  1  0.00102000  0.56529000  0.00250000  1.0
  C  C57  1  0.11401000  0.59965000  0.95444000  1.0
  C  C58  1  0.10891000  0.72744000  0.95560000  1.0
  C  C59  1  0.92198000  0.07022000  0.77973000  1.0
  C  C60  1  0.93099000  0.10665000  0.66450000  1.0
  C  C61  1  0.05235000  0.11548000  0.60214000  1.0
  C  C62  1  0.15993000  0.08518000  0.66204000  1.0
  C  C63  1  0.14330000  0.04922000  0.77732000  1.0
  C  C64  1  0.97552000  0.26490000  0.30058000  1.0
  C  C65  1  0.95332000  0.23401000  0.41612000  1.0
  C  C66  1  0.06930000  0.14977000  0.47976000  1.0
  C  C67  1  0.20221000  0.09928000  0.42189000  1.0
  C  C68  1  0.21330000  0.13610000  0.30592000  1.0
  C  C69  1  0.45684000  0.71899000  0.27288000  1.0
  C  C70  1  0.48178000  0.79567000  0.14908000  1.0
  C  C71  1  0.47311000  0.73950000  0.05929000  1.0
  C  C72  1  0.52982000  0.80477000  0.94316000  1.0
  C  C73  1  0.51303000  0.75377000  0.85355000  1.0
  C  C74  1  0.31824000  0.77345000  0.05735000  1.0
  C  C75  1  0.81081000  0.51634000  0.72011000  1.0
  C  C76  1  0.93316000  0.49606000  0.65131000  1.0
  C  C77  1  0.93515000  0.51408000  0.53707000  1.0
  C  C78  1  0.80479000  0.56140000  0.49859000  1.0
  C  C79  1  0.68652000  0.57602000  0.57229000  1.0
  C  C80  1  0.11044000  0.20978000  0.94831000  1.0
  C  C81  1  0.11206000  0.33588000  0.94577000  1.0
  C  C82  1  0.99932000  0.43479000  0.99726000  1.0
  C  C83  1  0.88619000  0.40062000  0.04519000  1.0
  C  C84  1  0.89124000  0.27279000  0.04417000  1.0
  C  C85  1  0.07796000  0.93005000  0.22030000  1.0
  C  C86  1  0.06891000  0.89365000  0.33553000  1.0
  C  C87  1  0.94761000  0.88465000  0.39787000  1.0
  C  C88  1  0.84010000  0.91480000  0.33796000  1.0
  C  C89  1  0.85675000  0.95080000  0.22268000  1.0
  C  C90  1  0.02473000  0.73532000  0.69933000  1.0
  C  C91  1  0.04678000  0.76624000  0.58380000  1.0
  C  C92  1  0.93071000  0.85027000  0.52025000  1.0
  C  C93  1  0.79783000  0.90046000  0.57822000  1.0
  C  C94  1  0.78688000  0.86358000  0.69419000  1.0
  C  C95  1  0.54350000  0.28057000  0.72717000  1.0
  C  C96  1  0.51843000  0.20395000  0.85097000  1.0
  C  C97  1  0.52676000  0.26036000  0.94075000  1.0
  C  C98  1  0.46986000  0.19523000  0.05684000  1.0
  C  C99  1  0.48656000  0.24635000  0.14641000  1.0
  C  C100  1  0.68155000  0.22659000  0.94283000  1.0
  N  N101  1  0.31061000  0.45082000  0.31703000  1.0
  N  N102  1  0.99831000  0.82330000  0.00343000  1.0
  N  N103  1  0.02492000  0.04434000  0.83694000  1.0
  N  N104  1  0.10271000  0.21849000  0.24455000  1.0
  N  N105  1  0.68917000  0.54913000  0.68311000  1.0
  N  N106  1  0.00189000  0.17676000  0.99654000  1.0
  N  N107  1  0.97509000  0.95581000  0.16307000  1.0
  N  N108  1  0.89758000  0.78145000  0.75547000  1.0
  O  O109  1  0.64080000  0.29680000  0.29187000  1.0
  O  O110  1  0.44778000  0.59788000  0.30101000  1.0
  O  O111  1  0.44997000  0.77752000  0.34274000  1.0
  O  O112  1  0.55703000  0.58284000  0.08955000  1.0
  O  O113  1  0.24072000  0.89792000  0.99962000  1.0
  O  O114  1  0.28013000  0.67647000  0.11594000  1.0
  O  O115  1  0.46878000  0.84026000  0.76248000  1.0
  O  O116  1  0.54786000  0.61507000  0.88300000  1.0
  O  O117  1  0.35920000  0.70348000  0.70759000  1.0
  O  O118  1  0.55245000  0.40172000  0.69905000  1.0
  O  O119  1  0.55066000  0.22189000  0.65731000  1.0
  O  O120  1  0.44274000  0.41700000  0.91034000  1.0
  O  O121  1  0.75917000  0.10210000  0.00045000  1.0
  O  O122  1  0.71949000  0.32376000  0.88443000  1.0
  O  O123  1  0.53104000  0.15989000  0.23742000  1.0
  O  O124  1  0.45147000  0.38512000  0.11696000  1.0
