# generated using pymatgen
data_HoH31C27O14
_symmetry_space_group_name_H-M   'P 1'
_cell_length_a   9.13420000
_cell_length_b   12.67190000
_cell_length_c   13.02770000
_cell_angle_alpha   94.04600000
_cell_angle_beta   93.66380000
_cell_angle_gamma   92.70150000
_symmetry_Int_Tables_number   1
_chemical_formula_structural   HoH31C27O14
_chemical_formula_sum   'Ho2 H62 C54 O28'
_cell_volume   1499.07230697
_cell_formula_units_Z   2
loop_
 _symmetry_equiv_pos_site_id
 _symmetry_equiv_pos_as_xyz
  1  'x, y, z'
loop_
 _atom_site_type_symbol
 _atom_site_label
 _atom_site_symmetry_multiplicity
 _atom_site_fract_x
 _atom_site_fract_y
 _atom_site_fract_z
 _atom_site_occupancy
  Ho  Ho0  1  0.74757000  0.48891000  0.48665000  1.0
  Ho  Ho1  1  0.25244000  0.51110000  0.51336000  1.0
  H  H2  1  0.64561000  0.28374000  0.43076000  1.0
  H  H3  1  0.35438000  0.71627000  0.56924000  1.0
  H  H4  1  0.49524000  0.33915000  0.40543000  1.0
  H  H5  1  0.50475000  0.66086000  0.59457000  1.0
  H  H6  1  0.80843000  0.46485000  0.28218000  1.0
  H  H7  1  0.19157000  0.53516000  0.71783000  1.0
  H  H8  1  0.96722000  0.43721000  0.32961000  1.0
  H  H9  1  0.03277000  0.56279000  0.67039000  1.0
  H  H10  1  0.22832000  0.59164000  0.27227000  1.0
  H  H11  1  0.77168000  0.40835000  0.72772000  1.0
  H  H12  1  0.55773000  0.80153000  0.06448000  1.0
  H  H13  1  0.44228000  0.19847000  0.93551000  1.0
  H  H14  1  0.66157000  0.70710000  0.21185000  1.0
  H  H15  1  0.33842000  0.29291000  0.78815000  1.0
  H  H16  1  0.03125000  0.53762000  0.16475000  1.0
  H  H17  1  0.96874000  0.46238000  0.83525000  1.0
  H  H18  1  0.88852000  0.61989000  0.12121000  1.0
  H  H19  1  0.11149000  0.38010000  0.87878000  1.0
  H  H20  1  0.98790000  0.65233000  0.24365000  1.0
  H  H21  1  0.01212000  0.34767000  0.75633000  1.0
  H  H22  1  0.40976000  0.92330000  0.98576000  1.0
  H  H23  1  0.59024000  0.07669000  0.01423000  1.0
  H  H24  1  0.28229000  0.87997000  0.87940000  1.0
  H  H25  1  0.71773000  0.12003000  0.12059000  1.0
  H  H26  1  0.43946000  0.80444000  0.90637000  1.0
  H  H27  1  0.56056000  0.19557000  0.09362000  1.0
  H  H28  1  0.62638000  0.81241000  0.68805000  1.0
  H  H29  1  0.37361000  0.18760000  0.31195000  1.0
  H  H30  1  0.96925000  0.75506000  0.98843000  1.0
  H  H31  1  0.03074000  0.24494000  0.01157000  1.0
  H  H32  1  0.94524000  0.62564000  0.83757000  1.0
  H  H33  1  0.05475000  0.37437000  0.16242000  1.0
  H  H34  1  0.61155000  0.99261000  0.68867000  1.0
  H  H35  1  0.38846000  0.00739000  0.31133000  1.0
  H  H36  1  0.49986000  0.06325000  0.77551000  1.0
  H  H37  1  0.50013000  0.93675000  0.22449000  1.0
  H  H38  1  0.45711000  0.92557000  0.73873000  1.0
  H  H39  1  0.54289000  0.07443000  0.26126000  1.0
  H  H40  1  0.87423000  0.84113000  0.12946000  1.0
  H  H41  1  0.12577000  0.15887000  0.87055000  1.0
  H  H42  1  0.89284000  0.98226000  0.15028000  1.0
  H  H43  1  0.10716000  0.01774000  0.84972000  1.0
  H  H44  1  0.02210000  0.91263000  0.07616000  1.0
  H  H45  1  0.97790000  0.08737000  0.92385000  1.0
  H  H46  1  0.75732000  0.75080000  0.45696000  1.0
  H  H47  1  0.24269000  0.24920000  0.54306000  1.0
  H  H48  1  0.10390000  0.01681000  0.32760000  1.0
  H  H49  1  0.89611000  0.98319000  0.67240000  1.0
  H  H50  1  0.18977000  0.84143000  0.37314000  1.0
  H  H51  1  0.81024000  0.15857000  0.62686000  1.0
  H  H52  1  0.51525000  0.79941000  0.39904000  1.0
  H  H53  1  0.48476000  0.20060000  0.60096000  1.0
  H  H54  1  0.44413000  0.90836000  0.47345000  1.0
  H  H55  1  0.55588000  0.09164000  0.52655000  1.0
  H  H56  1  0.58761000  0.83427000  0.52874000  1.0
  H  H57  1  0.41239000  0.16572000  0.47126000  1.0
  H  H58  1  0.01636000  0.17705000  0.37289000  1.0
  H  H59  1  0.98364000  0.82294000  0.62711000  1.0
  H  H60  1  0.86073000  0.22926000  0.30676000  1.0
  H  H61  1  0.13926000  0.77073000  0.69324000  1.0
  H  H62  1  0.96766000  0.13385000  0.24069000  1.0
  H  H63  1  0.03234000  0.86614000  0.75931000  1.0
  C  C64  1  0.51281000  0.58761000  0.33885000  1.0
  C  C65  1  0.48717000  0.41240000  0.66116000  1.0
  C  C66  1  0.45137000  0.64320000  0.25035000  1.0
  C  C67  1  0.54864000  0.35680000  0.74964000  1.0
  C  C68  1  0.29865000  0.63758000  0.22589000  1.0
  C  C69  1  0.70136000  0.36242000  0.77410000  1.0
  C  C70  1  0.24007000  0.68745000  0.14238000  1.0
  C  C71  1  0.75992000  0.31254000  0.85759000  1.0
  C  C72  1  0.33382000  0.74759000  0.08293000  1.0
  C  C73  1  0.66617000  0.25239000  0.91705000  1.0
  C  C74  1  0.48528000  0.75473000  0.10894000  1.0
  C  C75  1  0.51471000  0.24527000  0.89106000  1.0
  C  C76  1  0.54376000  0.70170000  0.19138000  1.0
  C  C77  1  0.45624000  0.29830000  0.80861000  1.0
  C  C78  1  0.99585000  0.61934000  0.16394000  1.0
  C  C79  1  0.00415000  0.38065000  0.83605000  1.0
  C  C80  1  0.35668000  0.85384000  0.94061000  1.0
  C  C81  1  0.64333000  0.14616000  0.05938000  1.0
  C  C82  1  0.77199000  0.63472000  0.66176000  1.0
  C  C83  1  0.22800000  0.36528000  0.33825000  1.0
  C  C84  1  0.78309000  0.71005000  0.75354000  1.0
  C  C85  1  0.21690000  0.28996000  0.24646000  1.0
  C  C86  1  0.70032000  0.80104000  0.75453000  1.0
  C  C87  1  0.29967000  0.19896000  0.24547000  1.0
  C  C88  1  0.71217000  0.87496000  0.83893000  1.0
  C  C89  1  0.28781000  0.12503000  0.16107000  1.0
  C  C90  1  0.80812000  0.85712000  0.92586000  1.0
  C  C91  1  0.19188000  0.14289000  0.07414000  1.0
  C  C92  1  0.89129000  0.76736000  0.92421000  1.0
  C  C93  1  0.10871000  0.23264000  0.07579000  1.0
  C  C94  1  0.87849000  0.69443000  0.83856000  1.0
  C  C95  1  0.12151000  0.30558000  0.16143000  1.0
  C  C96  1  0.54625000  0.98687000  0.75646000  1.0
  C  C97  1  0.45375000  0.01314000  0.24355000  1.0
  C  C98  1  0.90677000  0.91490000  0.09531000  1.0
  C  C99  1  0.09323000  0.08510000  0.90469000  1.0
  C  C100  1  0.02941000  0.68212000  0.44906000  1.0
  C  C101  1  0.97060000  0.31787000  0.55094000  1.0
  C  C102  1  0.97859000  0.78580000  0.41805000  1.0
  C  C103  1  0.02142000  0.21420000  0.58196000  1.0
  C  C104  1  0.83122000  0.81012000  0.42856000  1.0
  C  C105  1  0.16879000  0.18988000  0.57145000  1.0
  C  C106  1  0.78327000  0.90902000  0.40684000  1.0
  C  C107  1  0.21674000  0.09099000  0.59318000  1.0
  C  C108  1  0.88212000  0.98485000  0.36930000  1.0
  C  C109  1  0.11789000  0.01515000  0.63072000  1.0
  C  C110  1  0.02765000  0.95921000  0.35665000  1.0
  C  C111  1  0.97237000  0.04079000  0.64337000  1.0
  C  C112  1  0.07610000  0.86081000  0.38192000  1.0
  C  C113  1  0.92392000  0.13919000  0.61808000  1.0
  C  C114  1  0.54255000  0.86562000  0.45740000  1.0
  C  C115  1  0.45746000  0.13438000  0.54260000  1.0
  C  C116  1  0.92423000  0.15890000  0.31492000  1.0
  C  C117  1  0.07577000  0.84109000  0.68508000  1.0
  O  O118  1  0.65057000  0.57201000  0.34515000  1.0
  O  O119  1  0.34941000  0.42801000  0.65487000  1.0
  O  O120  1  0.42923000  0.55766000  0.40706000  1.0
  O  O121  1  0.57076000  0.44234000  0.59295000  1.0
  O  O122  1  0.93596000  0.60763000  0.46338000  1.0
  O  O123  1  0.06405000  0.39236000  0.53663000  1.0
  O  O124  1  0.16777000  0.67061000  0.46135000  1.0
  O  O125  1  0.83224000  0.32938000  0.53866000  1.0
  O  O126  1  0.09417000  0.68305000  0.11002000  1.0
  O  O127  1  0.90585000  0.31694000  0.88996000  1.0
  O  O128  1  0.26578000  0.79351000  0.00316000  1.0
  O  O129  1  0.73421000  0.20648000  0.99683000  1.0
  O  O130  1  0.64456000  0.94136000  0.42079000  1.0
  O  O131  1  0.35545000  0.05864000  0.57923000  1.0
  O  O132  1  0.82510000  0.07872000  0.34790000  1.0
  O  O133  1  0.17491000  0.92128000  0.65211000  1.0
  O  O134  1  0.68262000  0.64891000  0.58411000  1.0
  O  O135  1  0.31737000  0.35109000  0.41589000  1.0
  O  O136  1  0.85215000  0.55399000  0.65720000  1.0
  O  O137  1  0.14784000  0.44601000  0.34280000  1.0
  O  O138  1  0.63784000  0.96571000  0.84547000  1.0
  O  O139  1  0.36214000  0.03429000  0.15453000  1.0
  O  O140  1  0.81179000  0.93146000  0.00628000  1.0
  O  O141  1  0.18820000  0.06855000  0.99372000  1.0
  O  O142  1  0.60286000  0.34140000  0.39516000  1.0
  O  O143  1  0.39712000  0.65861000  0.60485000  1.0
  O  O144  1  0.85890000  0.42278000  0.33199000  1.0
  O  O145  1  0.14110000  0.57723000  0.66800000  1.0
