# generated using pymatgen
data_CdH24C34N2O5
_symmetry_space_group_name_H-M   'P 1'
_cell_length_a   9.62656000
_cell_length_b   15.25810000
_cell_length_c   15.40760000
_cell_angle_alpha   61.61810000
_cell_angle_beta   88.47080000
_cell_angle_gamma   72.45110000
_symmetry_Int_Tables_number   1
_chemical_formula_structural   CdH24C34N2O5
_chemical_formula_sum   'Cd2 H48 C68 N4 O10'
_cell_volume   1879.97876703
_cell_formula_units_Z   2
loop_
 _symmetry_equiv_pos_site_id
 _symmetry_equiv_pos_as_xyz
  1  'x, y, z'
loop_
 _atom_site_type_symbol
 _atom_site_label
 _atom_site_symmetry_multiplicity
 _atom_site_fract_x
 _atom_site_fract_y
 _atom_site_fract_z
 _atom_site_occupancy
  Cd  Cd0  1  0.85406000  0.49249000  0.89933000  1.0
  Cd  Cd1  1  0.14594000  0.50751000  0.10067000  1.0
  H  H2  1  0.05903000  0.45657000  0.74841000  1.0
  H  H3  1  0.94097000  0.54343000  0.25159000  1.0
  H  H4  1  0.29721000  0.33925000  0.73859000  1.0
  H  H5  1  0.70278000  0.66075000  0.26141000  1.0
  H  H6  1  0.36345000  0.16369000  0.06088000  1.0
  H  H7  1  0.63656000  0.83631000  0.93912000  1.0
  H  H8  1  0.12864000  0.29163000  0.05668000  1.0
  H  H9  1  0.87137000  0.70837000  0.94333000  1.0
  H  H10  1  0.50990000  0.19184000  0.81555000  1.0
  H  H11  1  0.49010000  0.80816000  0.18445000  1.0
  H  H12  1  0.56969000  0.06966000  0.04458000  1.0
  H  H13  1  0.43031000  0.93034000  0.95542000  1.0
  H  H14  1  0.70439000  0.09636000  0.79942000  1.0
  H  H15  1  0.29561000  0.90364000  0.20058000  1.0
  H  H16  1  0.94232000  0.98432000  0.79293000  1.0
  H  H17  1  0.05768000  0.01568000  0.20708000  1.0
  H  H18  1  0.03007000  0.81467000  0.11385000  1.0
  H  H19  1  0.96993000  0.18533000  0.88615000  1.0
  H  H20  1  0.78920000  0.92923000  0.12058000  1.0
  H  H21  1  0.21080000  0.07078000  0.87942000  1.0
  H  H22  1  0.19719000  0.75511000  0.02661000  1.0
  H  H23  1  0.80281000  0.24489000  0.97339000  1.0
  H  H24  1  0.18702000  0.91351000  0.80503000  1.0
  H  H25  1  0.81298000  0.08649000  0.19497000  1.0
  H  H26  1  0.40635000  0.86573000  0.73210000  1.0
  H  H27  1  0.59365000  0.13427000  0.26790000  1.0
  H  H28  1  0.64400000  0.73254000  0.74423000  1.0
  H  H29  1  0.35600000  0.26746000  0.25577000  1.0
  H  H30  1  0.62192000  0.52703000  0.03604000  1.0
  H  H31  1  0.37809000  0.47297000  0.96396000  1.0
  H  H32  1  0.38652000  0.64823000  0.03879000  1.0
  H  H33  1  0.61347000  0.35177000  0.96121000  1.0
  H  H34  1  0.96413000  0.66199000  0.68448000  1.0
  H  H35  1  0.03587000  0.33801000  0.31552000  1.0
  H  H36  1  0.08364000  0.68044000  0.53376000  1.0
  H  H37  1  0.91636000  0.31956000  0.46624000  1.0
  H  H38  1  0.49620000  0.62509000  0.68592000  1.0
  H  H39  1  0.50380000  0.37491000  0.31408000  1.0
  H  H40  1  0.37375000  0.60975000  0.83554000  1.0
  H  H41  1  0.62625000  0.39025000  0.16446000  1.0
  H  H42  1  0.39492000  0.75324000  0.33706000  1.0
  H  H43  1  0.60508000  0.24677000  0.66294000  1.0
  H  H44  1  0.34468000  0.69660000  0.21447000  1.0
  H  H45  1  0.65532000  0.30339000  0.78553000  1.0
  H  H46  1  0.23405000  0.44027000  0.44880000  1.0
  H  H47  1  0.76595000  0.55973000  0.55121000  1.0
  H  H48  1  0.28207000  0.49677000  0.57042000  1.0
  H  H49  1  0.71794000  0.50322000  0.42958000  1.0
  C  C50  1  0.13113000  0.39101000  0.81562000  1.0
  C  C51  1  0.86887000  0.60899000  0.18438000  1.0
  C  C52  1  0.26299000  0.32495000  0.81093000  1.0
  C  C53  1  0.73701000  0.67505000  0.18907000  1.0
  C  C54  1  0.35285000  0.23999000  0.89908000  1.0
  C  C55  1  0.64715000  0.76001000  0.10092000  1.0
  C  C56  1  0.30150000  0.22766000  0.98927000  1.0
  C  C57  1  0.69851000  0.77234000  0.01073000  1.0
  C  C58  1  0.16913000  0.29756000  0.98793000  1.0
  C  C59  1  0.83088000  0.70244000  0.01208000  1.0
  C  C60  1  0.48953000  0.17164000  0.89176000  1.0
  C  C61  1  0.51047000  0.82836000  0.10824000  1.0
  C  C62  1  0.59033000  0.08903000  0.96854000  1.0
  C  C63  1  0.40967000  0.91097000  0.03146000  1.0
  C  C64  1  0.72872000  0.02253000  0.96091000  1.0
  C  C65  1  0.27128000  0.97747000  0.03909000  1.0
  C  C66  1  0.77529000  0.03558000  0.86897000  1.0
  C  C67  1  0.22471000  0.96441000  0.13103000  1.0
  C  C68  1  0.91041000  0.97266000  0.86513000  1.0
  C  C69  1  0.08960000  0.02734000  0.13487000  1.0
  C  C70  1  0.00617000  0.89270000  0.95324000  1.0
  C  C71  1  0.99383000  0.10730000  0.04676000  1.0
  C  C72  1  0.95821000  0.87734000  0.04511000  1.0
  C  C73  1  0.04179000  0.12266000  0.95489000  1.0
  C  C74  1  0.82339000  0.94136000  0.04869000  1.0
  C  C75  1  0.17661000  0.05864000  0.95132000  1.0
  C  C76  1  0.15022000  0.82549000  0.95435000  1.0
  C  C77  1  0.84978000  0.17451000  0.04565000  1.0
  C  C78  1  0.22968000  0.84231000  0.87744000  1.0
  C  C79  1  0.77032000  0.15769000  0.12256000  1.0
  C  C80  1  0.37263000  0.76947000  0.88422000  1.0
  C  C81  1  0.62737000  0.23053000  0.11578000  1.0
  C  C82  1  0.45090000  0.79185000  0.80183000  1.0
  C  C83  1  0.54910000  0.20815000  0.19817000  1.0
  C  C84  1  0.58283000  0.71803000  0.80759000  1.0
  C  C85  1  0.41717000  0.28196000  0.19241000  1.0
  C  C86  1  0.56951000  0.60333000  0.97058000  1.0
  C  C87  1  0.43049000  0.39667000  0.02942000  1.0
  C  C88  1  0.43823000  0.67227000  0.97121000  1.0
  C  C89  1  0.56176000  0.32773000  0.02879000  1.0
  C  C90  1  0.09160000  0.61803000  0.86201000  1.0
  C  C91  1  0.90840000  0.38197000  0.13798000  1.0
  C  C92  1  0.16165000  0.63434000  0.76989000  1.0
  C  C93  1  0.83835000  0.36567000  0.23011000  1.0
  C  C94  1  0.08018000  0.65506000  0.68412000  1.0
  C  C95  1  0.91982000  0.34494000  0.31587000  1.0
  C  C96  1  0.14695000  0.66445000  0.60029000  1.0
  C  C97  1  0.85305000  0.33555000  0.39971000  1.0
  C  C98  1  0.29723000  0.65231000  0.60255000  1.0
  C  C99  1  0.70277000  0.34769000  0.39745000  1.0
  C  C100  1  0.37980000  0.63322000  0.68657000  1.0
  C  C101  1  0.62020000  0.36678000  0.31343000  1.0
  C  C102  1  0.31118000  0.62461000  0.76944000  1.0
  C  C103  1  0.68882000  0.37539000  0.23056000  1.0
  C  C104  1  0.33739000  0.63008000  0.45886000  1.0
  C  C105  1  0.66261000  0.36992000  0.54114000  1.0
  C  C106  1  0.35826000  0.68542000  0.35950000  1.0
  C  C107  1  0.64174000  0.31458000  0.64050000  1.0
  C  C108  1  0.33110000  0.65366000  0.29257000  1.0
  C  C109  1  0.66890000  0.34634000  0.70742000  1.0
  C  C110  1  0.28382000  0.56610000  0.32406000  1.0
  C  C111  1  0.71618000  0.43390000  0.67594000  1.0
  C  C112  1  0.26763000  0.50959000  0.42464000  1.0
  C  C113  1  0.73236000  0.49041000  0.57536000  1.0
  C  C114  1  0.29411000  0.54080000  0.49227000  1.0
  C  C115  1  0.70588000  0.45920000  0.50773000  1.0
  C  C116  1  0.24747000  0.53558000  0.25065000  1.0
  C  C117  1  0.75253000  0.46442000  0.74935000  1.0
  N  N118  1  0.08434000  0.37837000  0.90272000  1.0
  N  N119  1  0.91566000  0.62163000  0.09728000  1.0
  N  N120  1  0.64097000  0.62397000  0.89013000  1.0
  N  N121  1  0.35903000  0.37603000  0.10987000  1.0
  O  O122  1  0.95729000  0.62258000  0.86104000  1.0
  O  O123  1  0.04270000  0.37742000  0.13895000  1.0
  O  O124  1  0.17232000  0.60015000  0.93693000  1.0
  O  O125  1  0.82768000  0.39985000  0.06307000  1.0
  O  O126  1  0.36996000  0.66523000  0.52074000  1.0
  O  O127  1  0.63004000  0.33477000  0.47926000  1.0
  O  O128  1  0.25736000  0.59348000  0.15881000  1.0
  O  O129  1  0.74264000  0.40652000  0.84119000  1.0
  O  O130  1  0.20468000  0.45577000  0.28056000  1.0
  O  O131  1  0.79532000  0.54423000  0.71944000  1.0
