# generated using pymatgen
data_ZnH15C20N3O4
_symmetry_space_group_name_H-M   'P 1'
_cell_length_a   8.91389000
_cell_length_b   15.03090000
_cell_length_c   16.50940000
_cell_angle_alpha   89.99900000
_cell_angle_beta   89.99970000
_cell_angle_gamma   87.95650000
_symmetry_Int_Tables_number   1
_chemical_formula_structural   ZnH15C20N3O4
_chemical_formula_sum   'Zn4 H60 C80 N12 O16'
_cell_volume   2210.58523654
_cell_formula_units_Z   4
loop_
 _symmetry_equiv_pos_site_id
 _symmetry_equiv_pos_as_xyz
  1  'x, y, z'
loop_
 _atom_site_type_symbol
 _atom_site_label
 _atom_site_symmetry_multiplicity
 _atom_site_fract_x
 _atom_site_fract_y
 _atom_site_fract_z
 _atom_site_occupancy
  Zn  Zn0  1  0.90652000  0.85763000  0.31787000  1.0
  Zn  Zn1  1  0.59349000  0.64238000  0.81787000  1.0
  Zn  Zn2  1  0.09347000  0.14238000  0.68213000  1.0
  Zn  Zn3  1  0.40652000  0.35762000  0.18214000  1.0
  H  H4  1  0.86174000  0.02935000  0.40277000  1.0
  H  H5  1  0.63828000  0.47063000  0.90276000  1.0
  H  H6  1  0.13825000  0.97065000  0.59723000  1.0
  H  H7  1  0.36175000  0.52936000  0.09724000  1.0
  H  H8  1  0.16772000  0.23765000  0.44295000  1.0
  H  H9  1  0.33226000  0.26236000  0.94296000  1.0
  H  H10  1  0.83226000  0.76235000  0.55706000  1.0
  H  H11  1  0.66773000  0.73765000  0.05704000  1.0
  H  H12  1  0.14330000  0.12021000  0.20713000  1.0
  H  H13  1  0.35671000  0.37978000  0.70714000  1.0
  H  H14  1  0.85671000  0.87978000  0.79287000  1.0
  H  H15  1  0.64331000  0.62022000  0.29287000  1.0
  H  H16  1  0.65502000  0.83955000  0.43218000  1.0
  H  H17  1  0.84495000  0.66044000  0.93220000  1.0
  H  H18  1  0.34496000  0.16044000  0.56780000  1.0
  H  H19  1  0.15504000  0.33955000  0.06782000  1.0
  H  H20  1  0.39741000  0.91147000  0.46030000  1.0
  H  H21  1  0.10257000  0.58852000  0.96031000  1.0
  H  H22  1  0.60256000  0.08851000  0.53968000  1.0
  H  H23  1  0.89741000  0.41148000  0.03971000  1.0
  H  H24  1  0.31493000  0.04210000  0.37827000  1.0
  H  H25  1  0.18507000  0.45791000  0.87828000  1.0
  H  H26  1  0.68507000  0.95790000  0.62173000  1.0
  H  H27  1  0.81493000  0.54210000  0.12175000  1.0
  H  H28  1  0.48551000  0.09843000  0.26973000  1.0
  H  H29  1  0.01451000  0.40158000  0.76973000  1.0
  H  H30  1  0.51450000  0.90158000  0.73029000  1.0
  H  H31  1  0.98552000  0.59843000  0.23028000  1.0
  H  H32  1  0.73304000  0.98573000  0.17228000  1.0
  H  H33  1  0.76697000  0.51428000  0.67228000  1.0
  H  H34  1  0.26695000  0.01428000  0.82772000  1.0
  H  H35  1  0.23304000  0.48573000  0.32773000  1.0
  H  H36  1  0.74031000  0.09526000  0.21335000  1.0
  H  H37  1  0.75971000  0.40475000  0.71335000  1.0
  H  H38  1  0.25969000  0.90475000  0.78665000  1.0
  H  H39  1  0.24031000  0.59525000  0.28665000  1.0
  H  H40  1  0.19833000  0.76632000  0.34594000  1.0
  H  H41  1  0.30170000  0.73369000  0.84594000  1.0
  H  H42  1  0.80167000  0.23365000  0.65402000  1.0
  H  H43  1  0.69832000  0.26632000  0.15405000  1.0
  H  H44  1  0.45597000  0.75891000  0.28360000  1.0
  H  H45  1  0.04405000  0.74112000  0.78360000  1.0
  H  H46  1  0.54402000  0.24108000  0.71637000  1.0
  H  H47  1  0.95597000  0.25889000  0.21639000  1.0
  H  H48  1  0.50773000  0.85719000  0.16509000  1.0
  H  H49  1  0.99228000  0.64282000  0.66511000  1.0
  H  H50  1  0.49226000  0.14282000  0.83489000  1.0
  H  H51  1  0.00772000  0.35718000  0.33489000  1.0
  H  H52  1  0.30000000  0.96154000  0.11512000  1.0
  H  H53  1  0.20000000  0.53847000  0.61514000  1.0
  H  H54  1  0.69998000  0.03847000  0.88487000  1.0
  H  H55  1  0.80001000  0.46154000  0.38486000  1.0
  H  H56  1  0.04737000  0.02713000  0.13542000  1.0
  H  H57  1  0.45263000  0.47287000  0.63542000  1.0
  H  H58  1  0.95262000  0.97288000  0.86458000  1.0
  H  H59  1  0.54739000  0.52713000  0.36458000  1.0
  H  H60  1  0.93641000  0.93072000  0.13867000  1.0
  H  H61  1  0.56359000  0.56927000  0.63867000  1.0
  H  H62  1  0.06357000  0.06929000  0.86133000  1.0
  H  H63  1  0.43642000  0.43072000  0.36134000  1.0
  C  C64  1  0.99011000  0.06692000  0.29674000  1.0
  C  C65  1  0.50991000  0.43307000  0.79674000  1.0
  C  C66  1  0.00989000  0.93307000  0.70327000  1.0
  C  C67  1  0.49011000  0.56693000  0.20326000  1.0
  C  C68  1  0.94482000  0.07292000  0.37790000  1.0
  C  C69  1  0.55519000  0.42707000  0.87789000  1.0
  C  C70  1  0.05517000  0.92708000  0.62211000  1.0
  C  C71  1  0.44483000  0.57293000  0.12211000  1.0
  C  C72  1  0.01064000  0.13220000  0.43104000  1.0
  C  C73  1  0.48936000  0.36780000  0.93104000  1.0
  C  C74  1  0.98934000  0.86781000  0.56896000  1.0
  C  C75  1  0.51065000  0.63220000  0.06896000  1.0
  C  C76  1  0.11830000  0.18969000  0.40244000  1.0
  C  C77  1  0.38171000  0.31031000  0.90244000  1.0
  C  C78  1  0.88169000  0.81031000  0.59757000  1.0
  C  C79  1  0.61832000  0.68969000  0.09756000  1.0
  C  C80  1  0.16324000  0.18530000  0.32151000  1.0
  C  C81  1  0.33677000  0.31469000  0.82151000  1.0
  C  C82  1  0.83677000  0.81469000  0.67850000  1.0
  C  C83  1  0.66323000  0.68531000  0.17849000  1.0
  C  C84  1  0.10273000  0.12216000  0.26934000  1.0
  C  C85  1  0.39728000  0.37783000  0.76934000  1.0
  C  C86  1  0.89727000  0.87783000  0.73067000  1.0
  C  C87  1  0.60274000  0.62218000  0.23067000  1.0
  C  C88  1  0.96951000  0.12908000  0.51967000  1.0
  C  C89  1  0.53048000  0.37091000  0.01967000  1.0
  C  C90  1  0.03045000  0.87091000  0.48033000  1.0
  C  C91  1  0.46954000  0.62909000  0.98033000  1.0
  C  C92  1  0.26600000  0.25389000  0.28927000  1.0
  C  C93  1  0.23404000  0.24610000  0.78928000  1.0
  C  C94  1  0.73402000  0.74610000  0.71073000  1.0
  C  C95  1  0.76597000  0.75390000  0.21072000  1.0
  C  C96  1  0.61017000  0.89601000  0.39721000  1.0
  C  C97  1  0.88981000  0.60398000  0.89723000  1.0
  C  C98  1  0.38982000  0.10398000  0.60277000  1.0
  C  C99  1  0.11018000  0.39601000  0.10278000  1.0
  C  C100  1  0.47080000  0.93640000  0.41339000  1.0
  C  C101  1  0.02919000  0.56359000  0.91340000  1.0
  C  C102  1  0.52918000  0.06358000  0.58660000  1.0
  C  C103  1  0.97081000  0.43641000  0.08662000  1.0
  C  C104  1  0.42421000  0.00985000  0.36698000  1.0
  C  C105  1  0.07579000  0.49015000  0.86698000  1.0
  C  C106  1  0.57578000  0.99015000  0.63303000  1.0
  C  C107  1  0.92421000  0.50985000  0.13304000  1.0
  C  C108  1  0.51854000  0.04063000  0.30656000  1.0
  C  C109  1  0.98146000  0.45937000  0.80656000  1.0
  C  C110  1  0.48145000  0.95939000  0.69345000  1.0
  C  C111  1  0.01856000  0.54063000  0.19345000  1.0
  C  C112  1  0.65657000  0.99611000  0.29336000  1.0
  C  C113  1  0.84343000  0.50389000  0.79336000  1.0
  C  C114  1  0.34341000  0.00390000  0.70664000  1.0
  C  C115  1  0.15658000  0.49610000  0.20665000  1.0
  C  C116  1  0.76135000  0.02398000  0.22666000  1.0
  C  C117  1  0.73866000  0.47602000  0.72667000  1.0
  C  C118  1  0.23863000  0.97603000  0.77334000  1.0
  C  C119  1  0.26137000  0.52398000  0.27334000  1.0
  C  C120  1  0.22648000  0.80650000  0.29341000  1.0
  C  C121  1  0.27355000  0.69351000  0.79341000  1.0
  C  C122  1  0.77351000  0.19349000  0.70657000  1.0
  C  C123  1  0.72646000  0.30649000  0.20658000  1.0
  C  C124  1  0.36861000  0.80328000  0.25890000  1.0
  C  C125  1  0.13140000  0.69672000  0.75891000  1.0
  C  C126  1  0.63136000  0.19670000  0.74107000  1.0
  C  C127  1  0.86861000  0.30328000  0.24108000  1.0
  C  C128  1  0.39675000  0.85841000  0.19301000  1.0
  C  C129  1  0.10326000  0.64160000  0.69303000  1.0
  C  C130  1  0.60324000  0.14159000  0.80698000  1.0
  C  C131  1  0.89674000  0.35839000  0.30698000  1.0
  C  C132  1  0.28167000  0.91570000  0.16504000  1.0
  C  C133  1  0.21833000  0.58431000  0.66505000  1.0
  C  C134  1  0.71832000  0.08431000  0.83495000  1.0
  C  C135  1  0.78167000  0.41569000  0.33495000  1.0
  C  C136  1  0.14151000  0.91541000  0.20253000  1.0
  C  C137  1  0.35849000  0.58460000  0.70254000  1.0
  C  C138  1  0.85848000  0.08459000  0.79745000  1.0
  C  C139  1  0.64151000  0.41540000  0.29746000  1.0
  C  C140  1  0.00922000  0.97300000  0.17477000  1.0
  C  C141  1  0.49078000  0.52699000  0.67478000  1.0
  C  C142  1  0.99077000  0.02700000  0.82523000  1.0
  C  C143  1  0.50922000  0.47301000  0.32523000  1.0
  N  N144  1  0.92032000  0.00360000  0.24447000  1.0
  N  N145  1  0.57969000  0.49639000  0.74447000  1.0
  N  N146  1  0.07966000  0.99640000  0.75554000  1.0
  N  N147  1  0.42034000  0.50361000  0.25554000  1.0
  N  N148  1  0.70019000  0.92483000  0.33787000  1.0
  N  N149  1  0.79980000  0.57516000  0.83788000  1.0
  N  N150  1  0.29979000  0.07517000  0.66211000  1.0
  N  N151  1  0.20020000  0.42483000  0.16213000  1.0
  N  N152  1  0.11555000  0.86074000  0.26520000  1.0
  N  N153  1  0.38447000  0.63927000  0.76520000  1.0
  N  N154  1  0.88444000  0.13926000  0.73479000  1.0
  N  N155  1  0.61554000  0.36073000  0.23480000  1.0
  O  O156  1  0.05869000  0.17245000  0.56646000  1.0
  O  O157  1  0.44129000  0.32755000  0.06647000  1.0
  O  O158  1  0.94128000  0.82755000  0.43354000  1.0
  O  O159  1  0.55871000  0.67246000  0.93353000  1.0
  O  O160  1  0.86007000  0.08589000  0.54208000  1.0
  O  O161  1  0.63994000  0.41411000  0.04207000  1.0
  O  O162  1  0.13991000  0.91412000  0.45792000  1.0
  O  O163  1  0.36008000  0.58588000  0.95792000  1.0
  O  O164  1  0.32602000  0.23893000  0.21909000  1.0
  O  O165  1  0.17402000  0.26105000  0.71909000  1.0
  O  O166  1  0.67399000  0.76106000  0.78091000  1.0
  O  O167  1  0.82599000  0.73895000  0.28091000  1.0
  O  O168  1  0.28244000  0.32422000  0.32943000  1.0
  O  O169  1  0.21755000  0.17579000  0.82944000  1.0
  O  O170  1  0.71756000  0.67578000  0.67058000  1.0
  O  O171  1  0.78245000  0.82421000  0.17055000  1.0
