# generated using pymatgen
data_CuPH12C7NO5
_symmetry_space_group_name_H-M   'P 1'
_cell_length_a   7.01627000
_cell_length_b   8.22983000
_cell_length_c   16.86420000
_cell_angle_alpha   90.00000000
_cell_angle_beta   90.00000000
_cell_angle_gamma   90.00000000
_symmetry_Int_Tables_number   1
_chemical_formula_structural   CuPH12C7NO5
_chemical_formula_sum   'Cu4 P4 H48 C28 N4 O20'
_cell_volume   973.78459875
_cell_formula_units_Z   4
loop_
 _symmetry_equiv_pos_site_id
 _symmetry_equiv_pos_as_xyz
  1  'x, y, z'
loop_
 _atom_site_type_symbol
 _atom_site_label
 _atom_site_symmetry_multiplicity
 _atom_site_fract_x
 _atom_site_fract_y
 _atom_site_fract_z
 _atom_site_occupancy
  Cu  Cu0  1  0.77661000  0.07325000  0.00899000  1.0
  Cu  Cu1  1  0.72339000  0.92675000  0.50899000  1.0
  Cu  Cu2  1  0.22340000  0.57325000  0.49102000  1.0
  Cu  Cu3  1  0.27661000  0.42675000  0.99101000  1.0
  P  P4  1  0.06959000  0.82311000  0.04373000  1.0
  P  P5  1  0.43041000  0.17689000  0.54373000  1.0
  P  P6  1  0.93041000  0.32311000  0.45627000  1.0
  P  P7  1  0.56959000  0.67690000  0.95627000  1.0
  H  H8  1  0.78796000  0.75990000  0.11658000  1.0
  H  H9  1  0.71205000  0.24010000  0.61657000  1.0
  H  H10  1  0.21205000  0.25991000  0.38342000  1.0
  H  H11  1  0.28795000  0.74009000  0.88342000  1.0
  H  H12  1  0.97075000  0.81872000  0.18426000  1.0
  H  H13  1  0.52925000  0.18127000  0.68426000  1.0
  H  H14  1  0.02925000  0.31873000  0.31573000  1.0
  H  H15  1  0.47075000  0.68128000  0.81573000  1.0
  H  H16  1  0.08859000  0.12809000  0.12228000  1.0
  H  H17  1  0.41141000  0.87191000  0.62228000  1.0
  H  H18  1  0.91141000  0.62810000  0.37772000  1.0
  H  H19  1  0.58859000  0.37191000  0.87773000  1.0
  H  H20  1  0.99607000  0.09828000  0.21971000  1.0
  H  H21  1  0.50393000  0.90173000  0.71971000  1.0
  H  H22  1  0.00392000  0.59828000  0.28030000  1.0
  H  H23  1  0.49608000  0.40172000  0.78029000  1.0
  H  H24  1  0.85670000  0.34404000  0.09465000  1.0
  H  H25  1  0.64330000  0.65596000  0.59465000  1.0
  H  H26  1  0.14330000  0.84405000  0.40535000  1.0
  H  H27  1  0.35670000  0.15595000  0.90535000  1.0
  H  H28  1  0.98442000  0.38891000  0.18078000  1.0
  H  H29  1  0.51557000  0.61109000  0.68078000  1.0
  H  H30  1  0.01557000  0.88892000  0.31922000  1.0
  H  H31  1  0.48444000  0.11108000  0.81922000  1.0
  H  H32  1  0.62496000  0.43622000  0.19518000  1.0
  H  H33  1  0.87503000  0.56378000  0.69519000  1.0
  H  H34  1  0.37503000  0.93623000  0.30481000  1.0
  H  H35  1  0.12497000  0.06377000  0.80481000  1.0
  H  H36  1  0.71555000  0.29826000  0.26667000  1.0
  H  H37  1  0.78444000  0.70174000  0.76668000  1.0
  H  H38  1  0.28444000  0.79827000  0.23332000  1.0
  H  H39  1  0.21557000  0.20173000  0.73332000  1.0
  H  H40  1  0.42878000  0.17866000  0.21686000  1.0
  H  H41  1  0.07122000  0.82134000  0.71686000  1.0
  H  H42  1  0.57122000  0.67866000  0.28314000  1.0
  H  H43  1  0.92879000  0.32133000  0.78314000  1.0
  H  H44  1  0.67993000  0.98323000  0.23703000  1.0
  H  H45  1  0.82007000  0.01678000  0.73703000  1.0
  H  H46  1  0.32006000  0.48323000  0.26297000  1.0
  H  H47  1  0.17994000  0.51677000  0.76297000  1.0
  H  H48  1  0.54678000  0.92337000  0.15174000  1.0
  H  H49  1  0.95321000  0.07662000  0.65174000  1.0
  H  H50  1  0.45321000  0.42338000  0.34827000  1.0
  H  H51  1  0.04679000  0.57662000  0.84826000  1.0
  H  H52  1  0.38512000  0.86363000  0.03997000  1.0
  H  H53  1  0.11487000  0.13638000  0.53997000  1.0
  H  H54  1  0.61488000  0.36363000  0.46004000  1.0
  H  H55  1  0.88512000  0.63637000  0.96003000  1.0
  C  C56  1  0.90356000  0.84751000  0.12689000  1.0
  C  C57  1  0.59644000  0.15249000  0.62689000  1.0
  C  C58  1  0.09644000  0.34751000  0.37311000  1.0
  C  C59  1  0.40356000  0.65249000  0.87311000  1.0
  C  C60  1  0.95910000  0.13433000  0.15821000  1.0
  C  C61  1  0.54090000  0.86567000  0.65821000  1.0
  C  C62  1  0.04090000  0.63434000  0.34179000  1.0
  C  C63  1  0.45911000  0.36566000  0.84179000  1.0
  C  C64  1  0.87693000  0.30549000  0.15650000  1.0
  C  C65  1  0.62307000  0.69451000  0.65650000  1.0
  C  C66  1  0.12307000  0.80550000  0.34350000  1.0
  C  C67  1  0.37693000  0.19450000  0.84350000  1.0
  C  C68  1  0.69040000  0.31583000  0.20274000  1.0
  C  C69  1  0.80959000  0.68417000  0.70274000  1.0
  C  C70  1  0.30959000  0.81583000  0.29726000  1.0
  C  C71  1  0.19041000  0.18417000  0.79726000  1.0
  C  C72  1  0.54902000  0.18323000  0.17512000  1.0
  C  C73  1  0.95097000  0.81676000  0.67512000  1.0
  C  C74  1  0.45097000  0.68324000  0.32488000  1.0
  C  C75  1  0.04903000  0.31676000  0.82488000  1.0
  C  C76  1  0.64374000  0.01605000  0.17513000  1.0
  C  C77  1  0.85625000  0.98395000  0.67513000  1.0
  C  C78  1  0.35625000  0.51606000  0.32487000  1.0
  C  C79  1  0.14375000  0.48394000  0.82487000  1.0
  C  C80  1  0.46551000  0.23287000  0.09547000  1.0
  C  C81  1  0.03449000  0.76713000  0.59548000  1.0
  C  C82  1  0.53450000  0.73287000  0.40452000  1.0
  C  C83  1  0.96550000  0.26712000  0.90452000  1.0
  N  N84  1  0.82054000  0.01292000  0.12725000  1.0
  N  N85  1  0.67946000  0.98707000  0.62725000  1.0
  N  N86  1  0.17946000  0.51293000  0.37275000  1.0
  N  N87  1  0.32054000  0.48707000  0.87275000  1.0
  O  O88  1  0.31534000  0.31987000  0.09759000  1.0
  O  O89  1  0.18465000  0.68014000  0.59760000  1.0
  O  O90  1  0.68465000  0.81987000  0.40241000  1.0
  O  O91  1  0.81535000  0.18013000  0.90240000  1.0
  O  O92  1  0.54574000  0.19676000  0.02987000  1.0
  O  O93  1  0.95425000  0.80324000  0.52986000  1.0
  O  O94  1  0.45426000  0.69676000  0.47013000  1.0
  O  O95  1  0.04574000  0.30325000  0.97013000  1.0
  O  O96  1  0.00528000  0.94758000  0.98194000  1.0
  O  O97  1  0.49472000  0.05243000  0.48193000  1.0
  O  O98  1  0.99473000  0.44757000  0.51807000  1.0
  O  O99  1  0.50528000  0.55243000  0.01807000  1.0
  O  O100  1  0.05957000  0.64817000  0.01383000  1.0
  O  O101  1  0.44042000  0.35183000  0.51383000  1.0
  O  O102  1  0.94043000  0.14817000  0.48617000  1.0
  O  O103  1  0.55958000  0.85183000  0.98617000  1.0
  O  O104  1  0.27111000  0.86632000  0.07964000  1.0
  O  O105  1  0.22889000  0.13367000  0.57964000  1.0
  O  O106  1  0.72889000  0.36634000  0.42037000  1.0
  O  O107  1  0.77111000  0.63367000  0.92036000  1.0
