# generated using pymatgen
data_Gd2Zn3H36(C2O3)12
_symmetry_space_group_name_H-M   'P 1'
_cell_length_a   14.56365000
_cell_length_b   14.56370000
_cell_length_c   16.05280000
_cell_angle_alpha   90.00040000
_cell_angle_beta   90.00000000
_cell_angle_gamma   120.00034071
_symmetry_Int_Tables_number   1
_chemical_formula_structural   Gd2Zn3H36(C2O3)12
_chemical_formula_sum   'Gd4 Zn6 H72 C48 O72'
_cell_volume   2948.64095290
_cell_formula_units_Z   2
loop_
 _symmetry_equiv_pos_site_id
 _symmetry_equiv_pos_as_xyz
  1  'x, y, z'
loop_
 _atom_site_type_symbol
 _atom_site_label
 _atom_site_symmetry_multiplicity
 _atom_site_fract_x
 _atom_site_fract_y
 _atom_site_fract_z
 _atom_site_occupancy
  Gd  Gd0  1  0.66666667  0.33333333  0.25000000  1.0
  Gd  Gd1  1  0.33333333  0.66666667  0.25000000  1.0
  Gd  Gd2  1  0.33333333  0.66666667  0.75000000  1.0
  Gd  Gd3  1  0.66666667  0.33333333  0.75000000  1.0
  Zn  Zn4  1  0.00000000  0.50000000  0.00000000  1.0
  Zn  Zn5  1  0.50000000  0.50000000  1.00000000  1.0
  Zn  Zn6  1  0.50000000  1.00000000  1.00000000  1.0
  Zn  Zn7  1  0.50000000  1.00000000  0.50000000  1.0
  Zn  Zn8  1  0.50000000  0.50000000  0.50000000  1.0
  Zn  Zn9  1  0.00000000  0.50000000  0.50000000  1.0
  H  H10  1  0.81682000  0.45682000  0.05003000  1.0
  H  H11  1  0.54318000  0.36000000  0.05003000  1.0
  H  H12  1  0.64000000  0.18318000  0.05003000  1.0
  H  H13  1  0.18318000  0.54318000  0.05003000  1.0
  H  H14  1  0.45682000  0.64000000  0.05003000  1.0
  H  H15  1  0.36000000  0.81682000  0.05003000  1.0
  H  H16  1  0.45682000  0.81682000  0.44997000  1.0
  H  H17  1  0.36000000  0.54318000  0.44997000  1.0
  H  H18  1  0.18318000  0.64000000  0.44997000  1.0
  H  H19  1  0.54318000  0.18318000  0.44997000  1.0
  H  H20  1  0.64000000  0.45682000  0.44997000  1.0
  H  H21  1  0.81682000  0.36000000  0.44997000  1.0
  H  H22  1  0.18318000  0.54318000  0.94997000  1.0
  H  H23  1  0.45682000  0.64000000  0.94997000  1.0
  H  H24  1  0.36000000  0.81682000  0.94997000  1.0
  H  H25  1  0.81682000  0.45682000  0.94997000  1.0
  H  H26  1  0.54318000  0.36000000  0.94996000  1.0
  H  H27  1  0.64000000  0.18318000  0.94997000  1.0
  H  H28  1  0.54318000  0.18318000  0.55003000  1.0
  H  H29  1  0.64000000  0.45682000  0.55003000  1.0
  H  H30  1  0.81682000  0.36000000  0.55003000  1.0
  H  H31  1  0.45682000  0.81682000  0.55003000  1.0
  H  H32  1  0.36000000  0.54318000  0.55003000  1.0
  H  H33  1  0.18318000  0.64000000  0.55003000  1.0
  H  H34  1  0.82906000  0.18764000  0.15422000  1.0
  H  H35  1  0.81236000  0.64142000  0.15422000  1.0
  H  H36  1  0.35858000  0.17094000  0.15422000  1.0
  H  H37  1  0.17094000  0.81236000  0.15422000  1.0
  H  H38  1  0.18764000  0.35858000  0.15422000  1.0
  H  H39  1  0.64142000  0.82906000  0.15422000  1.0
  H  H40  1  0.18764000  0.82906000  0.34578000  1.0
  H  H41  1  0.64142000  0.81236000  0.34578000  1.0
  H  H42  1  0.17094000  0.35858000  0.34578000  1.0
  H  H43  1  0.81236000  0.17094000  0.34578000  1.0
  H  H44  1  0.35858000  0.18764000  0.34578000  1.0
  H  H45  1  0.82906000  0.64142000  0.34578000  1.0
  H  H46  1  0.17094000  0.81236000  0.84578000  1.0
  H  H47  1  0.18764000  0.35858000  0.84578000  1.0
  H  H48  1  0.64142000  0.82906000  0.84578000  1.0
  H  H49  1  0.82906000  0.18764000  0.84578000  1.0
  H  H50  1  0.81236000  0.64142000  0.84577000  1.0
  H  H51  1  0.35858000  0.17094000  0.84578000  1.0
  H  H52  1  0.81236000  0.17094000  0.65422000  1.0
  H  H53  1  0.35858000  0.18764000  0.65422000  1.0
  H  H54  1  0.82906000  0.64142000  0.65422000  1.0
  H  H55  1  0.18764000  0.82906000  0.65423000  1.0
  H  H56  1  0.64142000  0.81236000  0.65422000  1.0
  H  H57  1  0.17094000  0.35858000  0.65422000  1.0
  H  H58  1  0.92221000  0.27717000  0.22916000  1.0
  H  H59  1  0.72283000  0.64504000  0.22916000  1.0
  H  H60  1  0.35496000  0.07779000  0.22916000  1.0
  H  H61  1  0.07779000  0.72283000  0.22916000  1.0
  H  H62  1  0.27717000  0.35496000  0.22916000  1.0
  H  H63  1  0.64504000  0.92221000  0.22916000  1.0
  H  H64  1  0.27717000  0.92221000  0.27084000  1.0
  H  H65  1  0.64504000  0.72283000  0.27084000  1.0
  H  H66  1  0.07779000  0.35496000  0.27084000  1.0
  H  H67  1  0.72283000  0.07779000  0.27084000  1.0
  H  H68  1  0.35496000  0.27717000  0.27084000  1.0
  H  H69  1  0.92221000  0.64504000  0.27084000  1.0
  H  H70  1  0.07779000  0.72283000  0.77084000  1.0
  H  H71  1  0.27717000  0.35496000  0.77084000  1.0
  H  H72  1  0.64504000  0.92221000  0.77084000  1.0
  H  H73  1  0.92221000  0.27717000  0.77084000  1.0
  H  H74  1  0.72283000  0.64504000  0.77084000  1.0
  H  H75  1  0.35496000  0.07779000  0.77084000  1.0
  H  H76  1  0.72283000  0.07779000  0.72916000  1.0
  H  H77  1  0.35496000  0.27717000  0.72916000  1.0
  H  H78  1  0.92221000  0.64504000  0.72916000  1.0
  H  H79  1  0.27717000  0.92221000  0.72916000  1.0
  H  H80  1  0.64504000  0.72283000  0.72916000  1.0
  H  H81  1  0.07779000  0.35496000  0.72916000  1.0
  C  C82  1  0.86843000  0.34946000  0.13919000  1.0
  C  C83  1  0.65055000  0.51897000  0.13920000  1.0
  C  C84  1  0.48101000  0.13156000  0.13919000  1.0
  C  C85  1  0.13156000  0.65055000  0.13919000  1.0
  C  C86  1  0.34945000  0.48103000  0.13919000  1.0
  C  C87  1  0.51899000  0.86843000  0.13919000  1.0
  C  C88  1  0.34946000  0.86844000  0.36081000  1.0
  C  C89  1  0.51898000  0.65055000  0.36081000  1.0
  C  C90  1  0.13157000  0.48102000  0.36081000  1.0
  C  C91  1  0.65055000  0.13156000  0.36081000  1.0
  C  C92  1  0.48101000  0.34944000  0.36081000  1.0
  C  C93  1  0.86842000  0.51897000  0.36080000  1.0
  C  C94  1  0.13158000  0.65056000  0.86081000  1.0
  C  C95  1  0.34945000  0.48102000  0.86081000  1.0
  C  C96  1  0.51898000  0.86843000  0.86081000  1.0
  C  C97  1  0.86843000  0.34945000  0.86081000  1.0
  C  C98  1  0.65055000  0.51897000  0.86080000  1.0
  C  C99  1  0.48102000  0.13157000  0.86081000  1.0
  C  C100  1  0.65055000  0.13157000  0.63919000  1.0
  C  C101  1  0.48102000  0.34945000  0.63919000  1.0
  C  C102  1  0.86843000  0.51898000  0.63919000  1.0
  C  C103  1  0.34944000  0.86843000  0.63920000  1.0
  C  C104  1  0.51898000  0.65056000  0.63919000  1.0
  C  C105  1  0.13158000  0.48103000  0.63919000  1.0
  C  C106  1  0.84928000  0.25696000  0.19419000  1.0
  C  C107  1  0.74304000  0.59232000  0.19420000  1.0
  C  C108  1  0.40768000  0.15072000  0.19419000  1.0
  C  C109  1  0.15072000  0.74304000  0.19419000  1.0
  C  C110  1  0.25696000  0.40768000  0.19419000  1.0
  C  C111  1  0.59232000  0.84928000  0.19419000  1.0
  C  C112  1  0.25697000  0.84929000  0.30581000  1.0
  C  C113  1  0.59232000  0.74304000  0.30581000  1.0
  C  C114  1  0.15072000  0.40768000  0.30580000  1.0
  C  C115  1  0.74303000  0.15071000  0.30581000  1.0
  C  C116  1  0.40768000  0.25696000  0.30581000  1.0
  C  C117  1  0.84928000  0.59232000  0.30580000  1.0
  C  C118  1  0.15072000  0.74304000  0.80581000  1.0
  C  C119  1  0.25696000  0.40768000  0.80580000  1.0
  C  C120  1  0.59232000  0.84928000  0.80581000  1.0
  C  C121  1  0.84928000  0.25696000  0.80581000  1.0
  C  C122  1  0.74304000  0.59232000  0.80580000  1.0
  C  C123  1  0.40768000  0.15072000  0.80581000  1.0
  C  C124  1  0.74304000  0.15072000  0.69419000  1.0
  C  C125  1  0.40768000  0.25696000  0.69419000  1.0
  C  C126  1  0.84928000  0.59232000  0.69419000  1.0
  C  C127  1  0.25697000  0.84929000  0.69419000  1.0
  C  C128  1  0.59232000  0.74304000  0.69419000  1.0
  C  C129  1  0.15072000  0.40768000  0.69420000  1.0
  O  O130  1  0.85107000  0.50055000  0.00000000  1.0
  O  O131  1  0.49945000  0.35052000  1.00000000  1.0
  O  O132  1  0.64948000  0.14892000  1.00000000  1.0
  O  O133  1  0.14893000  0.49945000  1.00000000  1.0
  O  O134  1  0.50055000  0.64948000  1.00000000  1.0
  O  O135  1  0.35052000  0.85107000  0.00000000  1.0
  O  O136  1  0.50055000  0.85107000  0.50000000  1.0
  O  O137  1  0.35052000  0.49945000  0.50000000  1.0
  O  O138  1  0.14893000  0.64948000  0.50000000  1.0
  O  O139  1  0.49945000  0.14893000  0.50000000  1.0
  O  O140  1  0.64948000  0.50055000  0.50000000  1.0
  O  O141  1  0.85107000  0.35052000  0.50000000  1.0
  O  O142  1  0.94645000  0.38170000  0.09114000  1.0
  O  O143  1  0.61831000  0.56476000  0.09114000  1.0
  O  O144  1  0.43525000  0.05355000  0.09114000  1.0
  O  O145  1  0.05355000  0.61830000  0.09113000  1.0
  O  O146  1  0.38169000  0.43524000  0.09114000  1.0
  O  O147  1  0.56475000  0.94645000  0.09114000  1.0
  O  O148  1  0.38170000  0.94645000  0.40886000  1.0
  O  O149  1  0.56475000  0.61830000  0.40886000  1.0
  O  O150  1  0.05355000  0.43525000  0.40886000  1.0
  O  O151  1  0.61830000  0.05355000  0.40886000  1.0
  O  O152  1  0.43525000  0.38170000  0.40887000  1.0
  O  O153  1  0.94645000  0.56476000  0.40886000  1.0
  O  O154  1  0.05355000  0.61830000  0.90886000  1.0
  O  O155  1  0.38169000  0.43524000  0.90886000  1.0
  O  O156  1  0.56475000  0.94644000  0.90887000  1.0
  O  O157  1  0.94645000  0.38170000  0.90886000  1.0
  O  O158  1  0.61830000  0.56475000  0.90886000  1.0
  O  O159  1  0.43525000  0.05355000  0.90886000  1.0
  O  O160  1  0.61830000  0.05355000  0.59114000  1.0
  O  O161  1  0.43525000  0.38170000  0.59114000  1.0
  O  O162  1  0.94644000  0.56475000  0.59113000  1.0
  O  O163  1  0.38170000  0.94646000  0.59114000  1.0
  O  O164  1  0.56476000  0.61831000  0.59114000  1.0
  O  O165  1  0.05356000  0.43525000  0.59114000  1.0
  O  O166  1  0.80394000  0.38491000  0.14578000  1.0
  O  O167  1  0.61509000  0.41903000  0.14578000  1.0
  O  O168  1  0.58097000  0.19607000  0.14578000  1.0
  O  O169  1  0.19606000  0.61509000  0.14578000  1.0
  O  O170  1  0.38490000  0.58096000  0.14578000  1.0
  O  O171  1  0.41903000  0.80394000  0.14578000  1.0
  O  O172  1  0.38491000  0.80394000  0.35422000  1.0
  O  O173  1  0.41903000  0.61509000  0.35422000  1.0
  O  O174  1  0.19606000  0.58097000  0.35422000  1.0
  O  O175  1  0.61510000  0.19607000  0.35422000  1.0
  O  O176  1  0.58097000  0.38492000  0.35422000  1.0
  O  O177  1  0.80394000  0.41904000  0.35421000  1.0
  O  O178  1  0.19606000  0.61509000  0.85422000  1.0
  O  O179  1  0.38491000  0.58097000  0.85422000  1.0
  O  O180  1  0.41904000  0.80394000  0.85422000  1.0
  O  O181  1  0.80394000  0.38491000  0.85422000  1.0
  O  O182  1  0.61509000  0.41903000  0.85422000  1.0
  O  O183  1  0.58097000  0.19606000  0.85422000  1.0
  O  O184  1  0.61509000  0.19606000  0.64578000  1.0
  O  O185  1  0.58097000  0.38491000  0.64578000  1.0
  O  O186  1  0.80394000  0.41903000  0.64578000  1.0
  O  O187  1  0.38491000  0.80394000  0.64578000  1.0
  O  O188  1  0.41903000  0.61509000  0.64578000  1.0
  O  O189  1  0.19606000  0.58097000  0.64578000  1.0
  O  O190  1  0.76509000  0.23491000  0.25000000  1.0
  O  O191  1  0.76509000  0.53018000  0.25000000  1.0
  O  O192  1  0.46982000  0.23491000  0.25000000  1.0
  O  O193  1  0.23491000  0.76509000  0.25000000  1.0
  O  O194  1  0.23491000  0.46982000  0.25000000  1.0
  O  O195  1  0.53018000  0.76509000  0.25000000  1.0
  O  O196  1  0.23491000  0.76509000  0.75000000  1.0
  O  O197  1  0.23491000  0.46982000  0.75000000  1.0
  O  O198  1  0.53018000  0.76509000  0.75000000  1.0
  O  O199  1  0.76509000  0.23491000  0.75000000  1.0
  O  O200  1  0.76509000  0.53018000  0.75000000  1.0
  O  O201  1  0.46982000  0.23491000  0.75000000  1.0
