# generated using pymatgen
data_ZnH9C10N3O5
_symmetry_space_group_name_H-M   'P 1'
_cell_length_a   9.14657000
_cell_length_b   9.73075000
_cell_length_c   13.74210000
_cell_angle_alpha   88.32170000
_cell_angle_beta   72.26630000
_cell_angle_gamma   87.44470000
_symmetry_Int_Tables_number   1
_chemical_formula_structural   ZnH9C10N3O5
_chemical_formula_sum   'Zn4 H36 C40 N12 O20'
_cell_volume   1163.65287721
_cell_formula_units_Z   4
loop_
 _symmetry_equiv_pos_site_id
 _symmetry_equiv_pos_as_xyz
  1  'x, y, z'
loop_
 _atom_site_type_symbol
 _atom_site_label
 _atom_site_symmetry_multiplicity
 _atom_site_fract_x
 _atom_site_fract_y
 _atom_site_fract_z
 _atom_site_occupancy
  Zn  Zn0  1  0.55947000  0.62625000  0.31407000  1.0
  Zn  Zn1  1  0.44053000  0.37375000  0.68593000  1.0
  Zn  Zn2  1  0.88925000  0.09403000  0.19039000  1.0
  Zn  Zn3  1  0.11075000  0.90597000  0.80961000  1.0
  H  H4  1  0.57905000  0.37994000  0.40158000  1.0
  H  H5  1  0.42095000  0.62006000  0.59842000  1.0
  H  H6  1  0.67322000  0.38160000  0.27505000  1.0
  H  H7  1  0.32677000  0.61840000  0.72495000  1.0
  H  H8  1  0.83981000  0.35826000  0.38417000  1.0
  H  H9  1  0.16019000  0.64174000  0.61583000  1.0
  H  H10  1  0.48493000  0.91691000  0.59970000  1.0
  H  H11  1  0.51506000  0.08308000  0.40031000  1.0
  H  H12  1  0.56238000  0.64519000  0.97549000  1.0
  H  H13  1  0.43762000  0.35481000  0.02451000  1.0
  H  H14  1  0.05508000  0.36328000  0.39358000  1.0
  H  H15  1  0.94492000  0.63672000  0.60642000  1.0
  H  H16  1  0.31819000  0.40077000  0.40082000  1.0
  H  H17  1  0.68181000  0.59923000  0.59918000  1.0
  H  H18  1  0.29619000  0.81118000  0.31707000  1.0
  H  H19  1  0.70380000  0.18882000  0.68293000  1.0
  H  H20  1  0.03053000  0.79086000  0.30159000  1.0
  H  H21  1  0.96947000  0.20914000  0.69841000  1.0
  H  H22  1  0.63942000  0.81700000  0.12494000  1.0
  H  H23  1  0.36058000  0.18300000  0.87507000  1.0
  H  H24  1  0.90957000  0.85191000  0.08203000  1.0
  H  H25  1  0.09043000  0.14809000  0.91797000  1.0
  H  H26  1  0.82713000  0.83499000  0.20717000  1.0
  H  H27  1  0.17287000  0.16501000  0.79283000  1.0
  H  H28  1  0.90940000  0.87872000  0.48132000  1.0
  H  H29  1  0.09060000  0.12128000  0.51868000  1.0
  H  H30  1  0.43545000  0.83706000  0.08613000  1.0
  H  H31  1  0.56455000  0.16294000  0.91387000  1.0
  H  H32  1  0.16782000  0.87614000  0.08324000  1.0
  H  H33  1  0.83218000  0.12386000  0.91676000  1.0
  H  H34  1  0.40360000  0.23573000  0.22361000  1.0
  H  H35  1  0.59640000  0.76427000  0.77639000  1.0
  H  H36  1  0.93389000  0.55108000  0.11054000  1.0
  H  H37  1  0.06612000  0.44891000  0.88945000  1.0
  H  H38  1  0.13027000  0.25639000  0.21959000  1.0
  H  H39  1  0.86973000  0.74361000  0.78041000  1.0
  C  C40  1  0.86916000  0.56325000  0.32823000  1.0
  C  C41  1  0.13084000  0.43675000  0.67177000  1.0
  C  C42  1  0.02318000  0.57453000  0.34312000  1.0
  C  C43  1  0.97682000  0.42547000  0.65688000  1.0
  C  C44  1  0.52910000  0.81379000  0.45246000  1.0
  C  C45  1  0.47090000  0.18621000  0.54755000  1.0
  C  C46  1  0.50195000  0.93567000  0.51843000  1.0
  C  C47  1  0.49804000  0.06433000  0.48158000  1.0
  C  C48  1  0.54368000  0.53958000  0.12480000  1.0
  C  C49  1  0.45632000  0.46043000  0.87520000  1.0
  C  C50  1  0.52848000  0.55067000  0.01998000  1.0
  C  C51  1  0.47152000  0.44934000  0.98002000  1.0
  C  C52  1  0.10363000  0.46443000  0.37413000  1.0
  C  C53  1  0.89637000  0.53557000  0.62587000  1.0
  C  C54  1  0.25115000  0.48435000  0.37829000  1.0
  C  C55  1  0.74885000  0.51565000  0.62171000  1.0
  C  C56  1  0.23836000  0.71377000  0.33104000  1.0
  C  C57  1  0.76164000  0.28624000  0.66896000  1.0
  C  C58  1  0.09182000  0.70213000  0.32283000  1.0
  C  C59  1  0.90818000  0.29787000  0.67716000  1.0
  C  C60  1  0.60033000  0.02418000  0.16528000  1.0
  C  C61  1  0.39967000  0.97582000  0.83472000  1.0
  C  C62  1  0.44034000  0.03314000  0.15814000  1.0
  C  C63  1  0.55966000  0.96685000  0.84186000  1.0
  C  C64  1  0.90177000  0.08068000  0.40492000  1.0
  C  C65  1  0.09823000  0.91932000  0.59508000  1.0
  C  C66  1  0.93743000  0.33051000  0.07605000  1.0
  C  C67  1  0.06257000  0.66949000  0.92394000  1.0
  C  C68  1  0.95034000  0.98310000  0.47555000  1.0
  C  C69  1  0.04966000  0.01690000  0.52445000  1.0
  C  C70  1  0.37362000  0.93223000  0.11658000  1.0
  C  C71  1  0.62638000  0.06777000  0.88342000  1.0
  C  C72  1  0.22228000  0.95295000  0.11563000  1.0
  C  C73  1  0.77772000  0.04705000  0.88437000  1.0
  C  C74  1  0.35267000  0.15273000  0.19512000  1.0
  C  C75  1  0.64733000  0.84727000  0.80488000  1.0
  C  C76  1  0.96631000  0.47815000  0.04805000  1.0
  C  C77  1  0.03370000  0.52184000  0.95194000  1.0
  C  C78  1  0.20267000  0.16523000  0.19132000  1.0
  C  C79  1  0.79733000  0.83477000  0.80868000  1.0
  N  N80  1  0.65201000  0.43574000  0.34169000  1.0
  N  N81  1  0.34799000  0.56426000  0.65832000  1.0
  N  N82  1  0.79121000  0.44979000  0.36367000  1.0
  N  N83  1  0.20879000  0.55021000  0.63633000  1.0
  N  N84  1  0.31879000  0.60605000  0.35524000  1.0
  N  N85  1  0.68121000  0.39395000  0.64476000  1.0
  N  N86  1  0.68753000  0.91046000  0.13024000  1.0
  N  N87  1  0.31247000  0.08954000  0.86976000  1.0
  N  N88  1  0.83402000  0.90019000  0.14518000  1.0
  N  N89  1  0.16598000  0.09981000  0.85482000  1.0
  N  N90  1  0.13713000  0.06687000  0.15330000  1.0
  N  N91  1  0.86287000  0.93313000  0.84670000  1.0
  O  O92  1  0.53404000  0.82920000  0.35835000  1.0
  O  O93  1  0.46596000  0.17080000  0.64166000  1.0
  O  O94  1  0.81584000  0.65915000  0.28382000  1.0
  O  O95  1  0.18415000  0.34085000  0.71618000  1.0
  O  O96  1  0.57923000  0.65258000  0.16052000  1.0
  O  O97  1  0.42077000  0.34742000  0.83948000  1.0
  O  O98  1  0.54660000  0.69573000  0.49098000  1.0
  O  O99  1  0.45339000  0.30427000  0.50902000  1.0
  O  O100  1  0.52026000  0.42931000  0.17463000  1.0
  O  O101  1  0.47973000  0.57069000  0.82537000  1.0
  O  O102  1  0.90329000  0.30198000  0.17268000  1.0
  O  O103  1  0.09671000  0.69803000  0.82732000  1.0
  O  O104  1  0.65015000  0.12330000  0.20047000  1.0
  O  O105  1  0.34985000  0.87670000  0.79953000  1.0
  O  O106  1  0.86717000  0.02221000  0.33255000  1.0
  O  O107  1  0.13283000  0.97780000  0.66745000  1.0
  O  O108  1  0.94872000  0.23997000  0.00990000  1.0
  O  O109  1  0.05128000  0.76003000  0.99010000  1.0
  O  O110  1  0.90230000  0.20833000  0.41809000  1.0
  O  O111  1  0.09770000  0.79167000  0.58191000  1.0
