# generated using pymatgen
data_TlH4C7BrN4
_symmetry_space_group_name_H-M   'P 1'
_cell_length_a   4.08993000
_cell_length_b   12.92770000
_cell_length_c   18.23558409
_cell_angle_alpha   107.00777099
_cell_angle_beta   96.44982990
_cell_angle_gamma   89.99350000
_symmetry_Int_Tables_number   1
_chemical_formula_structural   TlH4C7BrN4
_chemical_formula_sum   'Tl4 H16 C28 Br4 N16'
_cell_volume   915.62902332
_cell_formula_units_Z   4
loop_
 _symmetry_equiv_pos_site_id
 _symmetry_equiv_pos_as_xyz
  1  'x, y, z'
loop_
 _atom_site_type_symbol
 _atom_site_label
 _atom_site_symmetry_multiplicity
 _atom_site_fract_x
 _atom_site_fract_y
 _atom_site_fract_z
 _atom_site_occupancy
  Tl  Tl0  1  0.99117000  0.09324000  0.92676000  1.0
  Tl  Tl1  1  0.06297000  0.40679000  0.07331000  1.0
  Tl  Tl2  1  0.00881000  0.90676000  0.07324000  1.0
  Tl  Tl3  1  0.93703000  0.59321000  0.92670000  1.0
  H  H4  1  0.78212000  0.76140000  0.69324000  1.0
  H  H5  1  0.08588000  0.73893000  0.30704000  1.0
  H  H6  1  0.21791000  0.23860000  0.30676000  1.0
  H  H7  1  0.91410000  0.26107000  0.69296000  1.0
  H  H8  1  0.89649000  0.60572000  0.58233000  1.0
  H  H9  1  0.31153000  0.89471000  0.41784000  1.0
  H  H10  1  0.10352000  0.39428000  0.41767000  1.0
  H  H11  1  0.68847000  0.10530000  0.58216000  1.0
  H  H12  1  0.45107000  0.38715000  0.68512000  1.0
  H  H13  1  0.76380000  0.11314000  0.31476000  1.0
  H  H14  1  0.54891000  0.61285000  0.31487000  1.0
  H  H15  1  0.23621000  0.88686000  0.68525000  1.0
  H  H16  1  0.33057000  0.54019000  0.79285000  1.0
  H  H17  1  0.53497000  0.96000000  0.20719000  1.0
  H  H18  1  0.66940000  0.45981000  0.20714000  1.0
  H  H19  1  0.46501000  0.04000000  0.79282000  1.0
  C  C20  1  0.49777000  0.75313000  0.81854000  1.0
  C  C21  1  0.67718000  0.74706000  0.18157000  1.0
  C  C22  1  0.50224000  0.24687000  0.18146000  1.0
  C  C23  1  0.32280000  0.25294000  0.81843000  1.0
  C  C24  1  0.55411000  0.66250000  0.75186000  1.0
  C  C25  1  0.79964000  0.83775000  0.24825000  1.0
  C  C26  1  0.44588000  0.33750000  0.24813000  1.0
  C  C27  1  0.20034000  0.16225000  0.75175000  1.0
  C  C28  1  0.70895000  0.67938000  0.69111000  1.0
  C  C29  1  0.01515000  0.82094000  0.30907000  1.0
  C  C30  1  0.29106000  0.32062000  0.30889000  1.0
  C  C31  1  0.98484000  0.17906000  0.69094000  1.0
  C  C32  1  0.77333000  0.59242000  0.62888000  1.0
  C  C33  1  0.14198000  0.90796000  0.37123000  1.0
  C  C34  1  0.22668000  0.40758000  0.37112000  1.0
  C  C35  1  0.85802000  0.09204000  0.62877000  1.0
  C  C36  1  0.68295000  0.48774000  0.62770000  1.0
  C  C37  1  0.05312000  0.01263000  0.37230000  1.0
  C  C38  1  0.31706000  0.51226000  0.37230000  1.0
  C  C39  1  0.94689000  0.98737000  0.62770000  1.0
  C  C40  1  0.52574000  0.46869000  0.68672000  1.0
  C  C41  1  0.83679000  0.03162000  0.31324000  1.0
  C  C42  1  0.47425000  0.53131000  0.31327000  1.0
  C  C43  1  0.16321000  0.96839000  0.68676000  1.0
  C  C44  1  0.46075000  0.55630000  0.74820000  1.0
  C  C45  1  0.70999000  0.94394000  0.25183000  1.0
  C  C46  1  0.53924000  0.44370000  0.25179000  1.0
  C  C47  1  0.29000000  0.05606000  0.74817000  1.0
  Br  Br48  1  0.78187000  0.36709000  0.54520000  1.0
  Br  Br49  1  0.23541000  0.13333000  0.45467000  1.0
  Br  Br50  1  0.21815000  0.63291000  0.45480000  1.0
  Br  Br51  1  0.76463000  0.86668000  0.54532000  1.0
  N  N52  1  0.37656000  0.74239000  0.88238000  1.0
  N  N53  1  0.49261000  0.75770000  0.11763000  1.0
  N  N54  1  0.62343000  0.25761000  0.11761000  1.0
  N  N55  1  0.50739000  0.24230000  0.88238000  1.0
  N  N56  1  0.37751000  0.84297000  0.93102000  1.0
  N  N57  1  0.44563000  0.65709000  0.06900000  1.0
  N  N58  1  0.62249000  0.15703000  0.06898000  1.0
  N  N59  1  0.55437000  0.34291000  0.93100000  1.0
  N  N60  1  0.49396000  0.91195000  0.89766000  1.0
  N  N61  1  0.59552000  0.58820000  0.10245000  1.0
  N  N62  1  0.50604000  0.08804000  0.10234000  1.0
  N  N63  1  0.40448000  0.41180000  0.89755000  1.0
  N  N64  1  0.57183000  0.85813000  0.82727000  1.0
  N  N65  1  0.74310000  0.64211000  0.17290000  1.0
  N  N66  1  0.42818000  0.14187000  0.17273000  1.0
  N  N67  1  0.25688000  0.35789000  0.82710000  1.0
