# generated using pymatgen
data_ZnH8C13NO4
_symmetry_space_group_name_H-M   'P 1'
_cell_length_a   10.97160000
_cell_length_b   11.01900000
_cell_length_c   14.06170000
_cell_angle_alpha   90.18360000
_cell_angle_beta   92.42320000
_cell_angle_gamma   74.10500000
_symmetry_Int_Tables_number   1
_chemical_formula_structural   ZnH8C13NO4
_chemical_formula_sum   'Zn4 H32 C52 N4 O16'
_cell_volume   1633.48075510
_cell_formula_units_Z   4
loop_
 _symmetry_equiv_pos_site_id
 _symmetry_equiv_pos_as_xyz
  1  'x, y, z'
loop_
 _atom_site_type_symbol
 _atom_site_label
 _atom_site_symmetry_multiplicity
 _atom_site_fract_x
 _atom_site_fract_y
 _atom_site_fract_z
 _atom_site_occupancy
  Zn  Zn0  1  0.34550000  0.73563000  0.88899000  1.0
  Zn  Zn1  1  0.33405000  0.73733000  0.68388000  1.0
  Zn  Zn2  1  0.65450000  0.26437000  0.11101000  1.0
  Zn  Zn3  1  0.66594000  0.26267000  0.31612000  1.0
  H  H4  1  0.36372000  0.34334000  0.93992000  1.0
  H  H5  1  0.35074000  0.12037000  0.93962000  1.0
  H  H6  1  0.32817000  0.35318000  0.63439000  1.0
  H  H7  1  0.71246000  0.74049000  0.63341000  1.0
  H  H8  1  0.74259000  0.72706000  0.93867000  1.0
  H  H9  1  0.96278000  0.75282000  0.93483000  1.0
  H  H10  1  0.93388000  0.76579000  0.62963000  1.0
  H  H11  1  0.31604000  0.12907000  0.63436000  1.0
  H  H12  1  0.30723000  0.93053000  0.53249000  1.0
  H  H13  1  0.30454000  0.94113000  0.35593000  1.0
  H  H14  1  0.37402000  0.53365000  0.35643000  1.0
  H  H15  1  0.36648000  0.54392000  0.53238000  1.0
  H  H16  1  0.32181000  0.93921000  0.21507000  1.0
  H  H17  1  0.35069000  0.53844000  0.21631000  1.0
  H  H18  1  0.32616000  0.92780000  0.03941000  1.0
  H  H19  1  0.35628000  0.54502000  0.04102000  1.0
  H  H20  1  0.63630000  0.65666000  0.06008000  1.0
  H  H21  1  0.64926000  0.87962000  0.06037000  1.0
  H  H22  1  0.67184000  0.64682000  0.36561000  1.0
  H  H23  1  0.28753000  0.25952000  0.36660000  1.0
  H  H24  1  0.25742000  0.27293000  0.06134000  1.0
  H  H25  1  0.03723000  0.24717000  0.06517000  1.0
  H  H26  1  0.06611000  0.23420000  0.37037000  1.0
  H  H27  1  0.68395000  0.87094000  0.36564000  1.0
  H  H28  1  0.69277000  0.06948000  0.46750000  1.0
  H  H29  1  0.69546000  0.05888000  0.64406000  1.0
  H  H30  1  0.62598000  0.46636000  0.64357000  1.0
  H  H31  1  0.63352000  0.45609000  0.46762000  1.0
  H  H32  1  0.67819000  0.06079000  0.78492000  1.0
  H  H33  1  0.64931000  0.46156000  0.78369000  1.0
  H  H34  1  0.67384000  0.07219000  0.96058000  1.0
  H  H35  1  0.64372000  0.45498000  0.95899000  1.0
  C  C36  1  0.35453000  0.49524000  0.78656000  1.0
  C  C37  1  0.34620000  0.36178000  0.78700000  1.0
  C  C38  1  0.35187000  0.29656000  0.87319000  1.0
  C  C39  1  0.34490000  0.17243000  0.87309000  1.0
  C  C40  1  0.33296000  0.30125000  0.70086000  1.0
  C  C41  1  0.58443000  0.71367000  0.78837000  1.0
  C  C42  1  0.71512000  0.73132000  0.78620000  1.0
  C  C43  1  0.76827000  0.74380000  0.69890000  1.0
  C  C44  1  0.78482000  0.73635000  0.87134000  1.0
  C  C45  1  0.09595000  0.76648000  0.78060000  1.0
  C  C46  1  0.96068000  0.76093000  0.78207000  1.0
  C  C47  1  0.90668000  0.75091000  0.86932000  1.0
  C  C48  1  0.89027000  0.75843000  0.69682000  1.0
  C  C49  1  0.32663000  0.97721000  0.78713000  1.0
  C  C50  1  0.33179000  0.11181000  0.78701000  1.0
  C  C51  1  0.32607000  0.17719000  0.70083000  1.0
  C  C52  1  0.32012000  0.84579000  0.48945000  1.0
  C  C53  1  0.31933000  0.84993000  0.39081000  1.0
  C  C54  1  0.33693000  0.73802000  0.33855000  1.0
  C  C55  1  0.35608000  0.62521000  0.39075000  1.0
  C  C56  1  0.35396000  0.62903000  0.48936000  1.0
  C  C57  1  0.33581000  0.73868000  0.23327000  1.0
  C  C58  1  0.32813000  0.84911000  0.18093000  1.0
  C  C59  1  0.34397000  0.62797000  0.18136000  1.0
  C  C60  1  0.33112000  0.84432000  0.08244000  1.0
  C  C61  1  0.34724000  0.63018000  0.08290000  1.0
  C  C62  1  0.64548000  0.50476000  0.21343000  1.0
  C  C63  1  0.65382000  0.63821000  0.21301000  1.0
  C  C64  1  0.64815000  0.70343000  0.12681000  1.0
  C  C65  1  0.65511000  0.82756000  0.12691000  1.0
  C  C66  1  0.66705000  0.69874000  0.29915000  1.0
  C  C67  1  0.41557000  0.28633000  0.21165000  1.0
  C  C68  1  0.28487000  0.26868000  0.21380000  1.0
  C  C69  1  0.23172000  0.25620000  0.30111000  1.0
  C  C70  1  0.21518000  0.26365000  0.12867000  1.0
  C  C71  1  0.90406000  0.23351000  0.21940000  1.0
  C  C72  1  0.03931000  0.23907000  0.21793000  1.0
  C  C73  1  0.09333000  0.24908000  0.13069000  1.0
  C  C74  1  0.10973000  0.24156000  0.30318000  1.0
  C  C75  1  0.67335000  0.02280000  0.21286000  1.0
  C  C76  1  0.66821000  0.88819000  0.21299000  1.0
  C  C77  1  0.67393000  0.82281000  0.29917000  1.0
  C  C78  1  0.67988000  0.15422000  0.51055000  1.0
  C  C79  1  0.68067000  0.15008000  0.60919000  1.0
  C  C80  1  0.66307000  0.26199000  0.66145000  1.0
  C  C81  1  0.64392000  0.37480000  0.60924000  1.0
  C  C82  1  0.64604000  0.37098000  0.51063000  1.0
  C  C83  1  0.66419000  0.26132000  0.76673000  1.0
  C  C84  1  0.67187000  0.15090000  0.81907000  1.0
  C  C85  1  0.65603000  0.37203000  0.81863000  1.0
  C  C86  1  0.66888000  0.15568000  0.91755000  1.0
  C  C87  1  0.65276000  0.36982000  0.91710000  1.0
  N  N88  1  0.33627000  0.73726000  0.53823000  1.0
  N  N89  1  0.34135000  0.73658000  0.03405000  1.0
  N  N90  1  0.66374000  0.26275000  0.46177000  1.0
  N  N91  1  0.65864000  0.26342000  0.96595000  1.0
  O  O92  1  0.36315000  0.54648000  0.86693000  1.0
  O  O93  1  0.35265000  0.54742000  0.70553000  1.0
  O  O94  1  0.53776000  0.71161000  0.86967000  1.0
  O  O95  1  0.52974000  0.70177000  0.70834000  1.0
  O  O96  1  0.15407000  0.76465000  0.86097000  1.0
  O  O97  1  0.14276000  0.76872000  0.69941000  1.0
  O  O98  1  0.32734000  0.92515000  0.86783000  1.0
  O  O99  1  0.32411000  0.92466000  0.70641000  1.0
  O  O100  1  0.63685000  0.45353000  0.13307000  1.0
  O  O101  1  0.64736000  0.45257000  0.29447000  1.0
  O  O102  1  0.46225000  0.28838000  0.13035000  1.0
  O  O103  1  0.47025000  0.29824000  0.29168000  1.0
  O  O104  1  0.84593000  0.23534000  0.13903000  1.0
  O  O105  1  0.85723000  0.23126000  0.30059000  1.0
  O  O106  1  0.67266000  0.07484000  0.13215000  1.0
  O  O107  1  0.67586000  0.07535000  0.29357000  1.0
