# generated using pymatgen
data_CoH8C8S2(N2O)2
_symmetry_space_group_name_H-M   'P 1'
_cell_length_a   8.38246000
_cell_length_b   8.56112000
_cell_length_c   8.56227000
_cell_angle_alpha   113.93600000
_cell_angle_beta   96.27080000
_cell_angle_gamma   96.27490000
_symmetry_Int_Tables_number   1
_chemical_formula_structural   CoH8C8S2(N2O)2
_chemical_formula_sum   'Co2 H16 C16 S4 N8 O4'
_cell_volume   550.21476996
_cell_formula_units_Z   2
loop_
 _symmetry_equiv_pos_site_id
 _symmetry_equiv_pos_as_xyz
  1  'x, y, z'
loop_
 _atom_site_type_symbol
 _atom_site_label
 _atom_site_symmetry_multiplicity
 _atom_site_fract_x
 _atom_site_fract_y
 _atom_site_fract_z
 _atom_site_occupancy
  Co  Co0  1  0.75000000  0.72760000  0.27239000  1.0
  Co  Co1  1  0.25001000  0.27240000  0.72762000  1.0
  H  H2  1  0.09873000  0.52404000  0.35886000  1.0
  H  H3  1  0.40125000  0.64115000  0.47596000  1.0
  H  H4  1  0.90127000  0.47596000  0.64113000  1.0
  H  H5  1  0.59874000  0.35885000  0.52404000  1.0
  H  H6  1  0.12299000  0.75443000  0.89859000  1.0
  H  H7  1  0.37704000  0.10146000  0.24557000  1.0
  H  H8  1  0.87701000  0.24557000  0.10141000  1.0
  H  H9  1  0.62296000  0.89854000  0.75443000  1.0
  H  H10  1  0.10386000  0.95942000  0.05948000  1.0
  H  H11  1  0.39616000  0.94056000  0.04061000  1.0
  H  H12  1  0.89614000  0.04058000  0.94052000  1.0
  H  H13  1  0.60384000  0.05944000  0.95939000  1.0
  H  H14  1  0.94810000  0.77568000  0.00348000  1.0
  H  H15  1  0.55191000  0.99656000  0.22431000  1.0
  H  H16  1  0.05190000  0.22432000  0.99652000  1.0
  H  H17  1  0.44809000  0.00344000  0.77570000  1.0
  C  C18  1  0.16777000  0.77718000  0.15528000  1.0
  C  C19  1  0.33224000  0.84474000  0.22282000  1.0
  C  C20  1  0.83223000  0.22282000  0.84472000  1.0
  C  C21  1  0.66776000  0.15526000  0.77718000  1.0
  C  C22  1  0.16889000  0.61505000  0.32322000  1.0
  C  C23  1  0.33109000  0.67678000  0.38495000  1.0
  C  C24  1  0.83111000  0.38495000  0.67677000  1.0
  C  C25  1  0.66891000  0.32322000  0.61505000  1.0
  C  C26  1  0.02732000  0.91311000  0.62745000  1.0
  C  C27  1  0.47264000  0.37253000  0.08687000  1.0
  C  C28  1  0.97269000  0.08689000  0.37255000  1.0
  C  C29  1  0.52736000  0.62747000  0.91314000  1.0
  C  C30  1  0.07894000  0.81952000  0.02178000  1.0
  C  C31  1  0.42108000  0.97826000  0.18048000  1.0
  C  C32  1  0.92106000  0.18048000  0.97821000  1.0
  C  C33  1  0.57892000  0.02174000  0.81952000  1.0
  S  S34  1  0.87910000  0.74866000  0.56233000  1.0
  S  S35  1  0.62085000  0.43764000  0.25132000  1.0
  S  S36  1  0.12091000  0.25135000  0.43767000  1.0
  S  S37  1  0.37915000  0.56236000  0.74868000  1.0
  N  N38  1  0.36851000  0.32697000  0.96517000  1.0
  N  N39  1  0.13147000  0.03483000  0.67302000  1.0
  N  N40  1  0.63149000  0.67303000  0.03484000  1.0
  N  N41  1  0.86853000  0.96517000  0.32698000  1.0
  N  N42  1  0.08721000  0.66538000  0.21001000  1.0
  N  N43  1  0.41279000  0.79001000  0.33460000  1.0
  N  N44  1  0.91279000  0.33461000  0.78999000  1.0
  N  N45  1  0.58721000  0.20999000  0.66540000  1.0
  O  O46  1  0.93105000  0.60326000  0.15320000  1.0
  O  O47  1  0.56896000  0.84682000  0.39671000  1.0
  O  O48  1  0.06895000  0.39674000  0.84680000  1.0
  O  O49  1  0.43104000  0.15318000  0.60329000  1.0
