# generated using pymatgen
data_YH12(C5O3)3
_symmetry_space_group_name_H-M   'P 1'
_cell_length_a   10.01260000
_cell_length_b   12.17480000
_cell_length_c   13.78700000
_cell_angle_alpha   105.39200000
_cell_angle_beta   90.00000000
_cell_angle_gamma   90.00000000
_symmetry_Int_Tables_number   1
_chemical_formula_structural   YH12(C5O3)3
_chemical_formula_sum   'Y4 H48 C60 O36'
_cell_volume   1620.37371124
_cell_formula_units_Z   4
loop_
 _symmetry_equiv_pos_site_id
 _symmetry_equiv_pos_as_xyz
  1  'x, y, z'
loop_
 _atom_site_type_symbol
 _atom_site_label
 _atom_site_symmetry_multiplicity
 _atom_site_fract_x
 _atom_site_fract_y
 _atom_site_fract_z
 _atom_site_occupancy
  Y  Y0  1  0.21097000  0.94098000  0.42264000  1.0
  Y  Y1  1  0.71097000  0.55902000  0.57737000  1.0
  Y  Y2  1  0.78903000  0.05902000  0.57737000  1.0
  Y  Y3  1  0.28903000  0.44098000  0.42264000  1.0
  H  H4  1  0.22799000  0.57400000  0.16559000  1.0
  H  H5  1  0.72799000  0.92601000  0.83441000  1.0
  H  H6  1  0.77201000  0.42601000  0.83441000  1.0
  H  H7  1  0.27201000  0.07399000  0.16559000  1.0
  H  H8  1  0.25684000  0.45628000  0.98903000  1.0
  H  H9  1  0.75684000  0.04372000  0.01097000  1.0
  H  H10  1  0.74316000  0.54372000  0.01097000  1.0
  H  H11  1  0.24316000  0.95628000  0.98903000  1.0
  H  H12  1  0.41871000  0.74647000  0.90588000  1.0
  H  H13  1  0.91871000  0.75353000  0.09412000  1.0
  H  H14  1  0.58129000  0.25353000  0.09412000  1.0
  H  H15  1  0.08129000  0.24647000  0.90588000  1.0
  H  H16  1  0.38637000  0.86579000  0.08368000  1.0
  H  H17  1  0.88637000  0.63422000  0.91631000  1.0
  H  H18  1  0.61363000  0.13422000  0.91631000  1.0
  H  H19  1  0.11363000  0.36578000  0.08369000  1.0
  H  H20  1  0.47978000  0.34124000  0.79562000  1.0
  H  H21  1  0.97978000  0.15876000  0.20438000  1.0
  H  H22  1  0.52022000  0.65876000  0.20438000  1.0
  H  H23  1  0.02022000  0.84124000  0.79562000  1.0
  H  H24  1  0.37553000  0.15463000  0.70196000  1.0
  H  H25  1  0.87553000  0.34537000  0.29804000  1.0
  H  H26  1  0.62447000  0.84537000  0.29804000  1.0
  H  H27  1  0.12447000  0.65463000  0.70196000  1.0
  H  H28  1  0.99511000  0.32133000  0.71000000  1.0
  H  H29  1  0.49511000  0.17867000  0.29000000  1.0
  H  H30  1  0.00489000  0.67867000  0.29000000  1.0
  H  H31  1  0.50489000  0.82133000  0.71000000  1.0
  H  H32  1  0.09954000  0.50732000  0.80051000  1.0
  H  H33  1  0.59954000  0.99268000  0.19949000  1.0
  H  H34  1  0.90046000  0.49268000  0.19949000  1.0
  H  H35  1  0.40046000  0.00732000  0.80051000  1.0
  H  H36  1  0.12637000  0.72640000  0.48348000  1.0
  H  H37  1  0.62637000  0.77360000  0.51652000  1.0
  H  H38  1  0.87363000  0.27360000  0.51652000  1.0
  H  H39  1  0.37363000  0.22640000  0.48348000  1.0
  H  H40  1  0.20122000  0.81044000  0.57348000  1.0
  H  H41  1  0.70122000  0.68956000  0.42652000  1.0
  H  H42  1  0.79878000  0.18956000  0.42652000  1.0
  H  H43  1  0.29878000  0.31044000  0.57348000  1.0
  H  H44  1  0.16367000  0.16009000  0.36098000  1.0
  H  H45  1  0.66367000  0.33991000  0.63902000  1.0
  H  H46  1  0.83633000  0.83991000  0.63902000  1.0
  H  H47  1  0.33633000  0.66009000  0.36098000  1.0
  H  H48  1  0.03051000  0.13980000  0.41877000  1.0
  H  H49  1  0.53052000  0.36020000  0.58123000  1.0
  H  H50  1  0.96948000  0.86020000  0.58123000  1.0
  H  H51  1  0.46948000  0.63980000  0.41877000  1.0
  C  C52  1  0.28385000  0.79995000  0.23863000  1.0
  C  C53  1  0.78385000  0.70006000  0.76137000  1.0
  C  C54  1  0.71615000  0.20005000  0.76137000  1.0
  C  C55  1  0.21615000  0.29995000  0.23863000  1.0
  C  C56  1  0.30289000  0.72814000  0.13486000  1.0
  C  C57  1  0.80289000  0.77186000  0.86514000  1.0
  C  C58  1  0.69711000  0.27186000  0.86514000  1.0
  C  C59  1  0.19711000  0.22814000  0.13486000  1.0
  C  C60  1  0.26725000  0.61244000  0.10839000  1.0
  C  C61  1  0.76725000  0.88756000  0.89161000  1.0
  C  C62  1  0.73275000  0.38756000  0.89161000  1.0
  C  C63  1  0.23275000  0.11244000  0.10839000  1.0
  C  C64  1  0.28337000  0.54628000  0.00991000  1.0
  C  C65  1  0.78337000  0.95372000  0.99008000  1.0
  C  C66  1  0.71663000  0.45372000  0.99008000  1.0
  C  C67  1  0.21663000  0.04628000  0.00991000  1.0
  C  C68  1  0.33692000  0.59626000  0.93791000  1.0
  C  C69  1  0.83692000  0.90374000  0.06209000  1.0
  C  C70  1  0.66308000  0.40374000  0.06209000  1.0
  C  C71  1  0.16308000  0.09626000  0.93791000  1.0
  C  C72  1  0.37581000  0.71100000  0.96361000  1.0
  C  C73  1  0.87581000  0.78900000  0.03639000  1.0
  C  C74  1  0.62420000  0.28900000  0.03639000  1.0
  C  C75  1  0.12419000  0.21100000  0.96361000  1.0
  C  C76  1  0.35773000  0.77620000  0.06163000  1.0
  C  C77  1  0.85773000  0.72380000  0.93837000  1.0
  C  C78  1  0.64227000  0.22380000  0.93837000  1.0
  C  C79  1  0.14227000  0.27620000  0.06163000  1.0
  C  C80  1  0.29551000  0.43287000  0.80125000  1.0
  C  C81  1  0.79551000  0.06713000  0.19875000  1.0
  C  C82  1  0.70449000  0.56713000  0.19875000  1.0
  C  C83  1  0.20449000  0.93287000  0.80125000  1.0
  C  C84  1  0.37413000  0.33483000  0.77635000  1.0
  C  C85  1  0.87413000  0.16517000  0.22365000  1.0
  C  C86  1  0.62587000  0.66517000  0.22365000  1.0
  C  C87  1  0.12587000  0.83483000  0.77635000  1.0
  C  C88  1  0.31593000  0.23205000  0.72502000  1.0
  C  C89  1  0.81593000  0.26795000  0.27498000  1.0
  C  C90  1  0.68407000  0.76795000  0.27498000  1.0
  C  C91  1  0.18407000  0.73205000  0.72502000  1.0
  C  C92  1  0.17987000  0.22720000  0.69992000  1.0
  C  C93  1  0.67988000  0.27280000  0.30007000  1.0
  C  C94  1  0.82013000  0.77280000  0.30008000  1.0
  C  C95  1  0.32013000  0.72720000  0.69993000  1.0
  C  C96  1  0.10089000  0.32592000  0.72967000  1.0
  C  C97  1  0.60089000  0.17408000  0.27033000  1.0
  C  C98  1  0.89911000  0.67408000  0.27033000  1.0
  C  C99  1  0.39911000  0.82592000  0.72967000  1.0
  C  C100  1  0.15870000  0.42936000  0.78015000  1.0
  C  C101  1  0.65870000  0.07064000  0.21985000  1.0
  C  C102  1  0.84130000  0.57064000  0.21985000  1.0
  C  C103  1  0.34130000  0.92936000  0.78015000  1.0
  C  C104  1  0.12195000  0.11992000  0.63493000  1.0
  C  C105  1  0.62195000  0.38008000  0.36508000  1.0
  C  C106  1  0.87805000  0.88008000  0.36508000  1.0
  C  C107  1  0.37805000  0.61992000  0.63493000  1.0
  C  C108  1  0.50376000  0.94072000  0.51074000  1.0
  C  C109  1  0.00375000  0.55928000  0.48926000  1.0
  C  C110  1  0.49625000  0.05928000  0.48927000  1.0
  C  C111  1  0.99625000  0.44072000  0.51074000  1.0
  O  O112  1  0.29720000  0.90836000  0.25810000  1.0
  O  O113  1  0.79720000  0.59164000  0.74190000  1.0
  O  O114  1  0.70280000  0.09164000  0.74190000  1.0
  O  O115  1  0.20280000  0.40836000  0.25810000  1.0
  O  O116  1  0.25137000  0.75422000  0.30971000  1.0
  O  O117  1  0.75137000  0.74578000  0.69028000  1.0
  O  O118  1  0.74863000  0.24578000  0.69028000  1.0
  O  O119  1  0.24863000  0.25422000  0.30971000  1.0
  O  O120  1  0.35951000  0.53650000  0.83996000  1.0
  O  O121  1  0.85951000  0.96350000  0.16004000  1.0
  O  O122  1  0.64049000  0.46350000  0.16004000  1.0
  O  O123  1  0.14049000  0.03650000  0.83996000  1.0
  O  O124  1  0.99617000  0.11365000  0.62442000  1.0
  O  O125  1  0.49616000  0.38635000  0.37559000  1.0
  O  O126  1  0.00384000  0.88635000  0.37559000  1.0
  O  O127  1  0.50384000  0.61365000  0.62442000  1.0
  O  O128  1  0.20200000  0.04198000  0.58953000  1.0
  O  O129  1  0.70200000  0.45802000  0.41047000  1.0
  O  O130  1  0.79800000  0.95802000  0.41047000  1.0
  O  O131  1  0.29800000  0.54198000  0.58953000  1.0
  O  O132  1  0.40643000  0.87408000  0.48297000  1.0
  O  O133  1  0.90644000  0.62592000  0.51702000  1.0
  O  O134  1  0.59356000  0.12591000  0.51703000  1.0
  O  O135  1  0.09356000  0.37409000  0.48297000  1.0
  O  O136  1  0.60874000  0.91890000  0.55403000  1.0
  O  O137  1  0.10874000  0.58110000  0.44597000  1.0
  O  O138  1  0.39126000  0.08110000  0.44597000  1.0
  O  O139  1  0.89126000  0.41890000  0.55403000  1.0
  O  O140  1  0.13717000  0.80912000  0.51972000  1.0
  O  O141  1  0.63717000  0.69088000  0.48028000  1.0
  O  O142  1  0.86283000  0.19088000  0.48028000  1.0
  O  O143  1  0.36283000  0.30912000  0.51972000  1.0
  O  O144  1  0.11664000  0.10561000  0.39164000  1.0
  O  O145  1  0.61664000  0.39438000  0.60836000  1.0
  O  O146  1  0.88336000  0.89439000  0.60836000  1.0
  O  O147  1  0.38336000  0.60562000  0.39164000  1.0
