# generated using pymatgen
data_CdH12C14S2(N2O)2
_symmetry_space_group_name_H-M   'P 1'
_cell_length_a   8.24234000
_cell_length_b   8.74162000
_cell_length_c   22.25790000
_cell_angle_alpha   90.00000000
_cell_angle_beta   90.00000000
_cell_angle_gamma   90.00000000
_symmetry_Int_Tables_number   1
_chemical_formula_structural   CdH12C14S2(N2O)2
_chemical_formula_sum   'Cd4 H48 C56 S8 N16 O8'
_cell_volume   1603.71294934
_cell_formula_units_Z   4
loop_
 _symmetry_equiv_pos_site_id
 _symmetry_equiv_pos_as_xyz
  1  'x, y, z'
loop_
 _atom_site_type_symbol
 _atom_site_label
 _atom_site_symmetry_multiplicity
 _atom_site_fract_x
 _atom_site_fract_y
 _atom_site_fract_z
 _atom_site_occupancy
  Cd  Cd0  1  0.05938000  0.32231000  0.60043000  1.0
  Cd  Cd1  1  0.44063000  0.67770000  0.10043000  1.0
  Cd  Cd2  1  0.94063000  0.82230000  0.89956000  1.0
  Cd  Cd3  1  0.55937000  0.17770000  0.39956000  1.0
  H  H4  1  0.00527000  0.40248000  0.45038000  1.0
  H  H5  1  0.49471000  0.59752000  0.95038000  1.0
  H  H6  1  0.99471000  0.90247000  0.04962000  1.0
  H  H7  1  0.50528000  0.09753000  0.54962000  1.0
  H  H8  1  0.88174000  0.60026000  0.38446000  1.0
  H  H9  1  0.61825000  0.39975000  0.88446000  1.0
  H  H10  1  0.11824000  0.10025000  0.11554000  1.0
  H  H11  1  0.38175000  0.89975000  0.61554000  1.0
  H  H12  1  0.71088000  0.80783000  0.43310000  1.0
  H  H13  1  0.78912000  0.19218000  0.93309000  1.0
  H  H14  1  0.28911000  0.30783000  0.06691000  1.0
  H  H15  1  0.21089000  0.69217000  0.56691000  1.0
  H  H16  1  0.66831000  0.79881000  0.54413000  1.0
  H  H17  1  0.83169000  0.20119000  0.04413000  1.0
  H  H18  1  0.33168000  0.29881000  0.95587000  1.0
  H  H19  1  0.16832000  0.70119000  0.45587000  1.0
  H  H20  1  0.81365000  0.84946000  0.68471000  1.0
  H  H21  1  0.68634000  0.15054000  0.18471000  1.0
  H  H22  1  0.18635000  0.34947000  0.81529000  1.0
  H  H23  1  0.31366000  0.65053000  0.31529000  1.0
  H  H24  1  0.06526000  0.93728000  0.73923000  1.0
  H  H25  1  0.43473000  0.06273000  0.23924000  1.0
  H  H26  1  0.93474000  0.43729000  0.76077000  1.0
  H  H27  1  0.56527000  0.56272000  0.26077000  1.0
  H  H28  1  0.30766000  0.76402000  0.74160000  1.0
  H  H29  1  0.19233000  0.23599000  0.24160000  1.0
  H  H30  1  0.69234000  0.26403000  0.75840000  1.0
  H  H31  1  0.80767000  0.73598000  0.25840000  1.0
  H  H32  1  0.29355000  0.51472000  0.68652000  1.0
  H  H33  1  0.20645000  0.48528000  0.18652000  1.0
  H  H34  1  0.70645000  0.01472000  0.81348000  1.0
  H  H35  1  0.79356000  0.98527000  0.31348000  1.0
  H  H36  1  0.52141000  0.38525000  0.63836000  1.0
  H  H37  1  0.97858000  0.61474000  0.13836000  1.0
  H  H38  1  0.47859000  0.88525000  0.86164000  1.0
  H  H39  1  0.02142000  0.11475000  0.36164000  1.0
  H  H40  1  0.64540000  0.22025000  0.62986000  1.0
  H  H41  1  0.85460000  0.77974000  0.12986000  1.0
  H  H42  1  0.35460000  0.72025000  0.87014000  1.0
  H  H43  1  0.14541000  0.27975000  0.37014000  1.0
  H  H44  1  0.62111000  0.34990000  0.56762000  1.0
  H  H45  1  0.87888000  0.65009000  0.06762000  1.0
  H  H46  1  0.37888000  0.84990000  0.93239000  1.0
  H  H47  1  0.12114000  0.15009000  0.43239000  1.0
  H  H48  1  0.55607000  0.64264000  0.61203000  1.0
  H  H49  1  0.94393000  0.35735000  0.11203000  1.0
  H  H50  1  0.44393000  0.14264000  0.88797000  1.0
  H  H51  1  0.05608000  0.85736000  0.38797000  1.0
  C  C52  1  0.92763000  0.49097000  0.46933000  1.0
  C  C53  1  0.57236000  0.50904000  0.96933000  1.0
  C  C54  1  0.07236000  0.99096000  0.03067000  1.0
  C  C55  1  0.42763000  0.00904000  0.53067000  1.0
  C  C56  1  0.85916000  0.60339000  0.43279000  1.0
  C  C57  1  0.64083000  0.39661000  0.93279000  1.0
  C  C58  1  0.14083000  0.10338000  0.06721000  1.0
  C  C59  1  0.35917000  0.89661000  0.56721000  1.0
  C  C60  1  0.76483000  0.71640000  0.45967000  1.0
  C  C61  1  0.73516000  0.28361000  0.95967000  1.0
  C  C62  1  0.23515000  0.21640000  0.04033000  1.0
  C  C63  1  0.26484000  0.78360000  0.54033000  1.0
  C  C64  1  0.73956000  0.71137000  0.52156000  1.0
  C  C65  1  0.76043000  0.28863000  0.02156000  1.0
  C  C66  1  0.26043000  0.21137000  0.97844000  1.0
  C  C67  1  0.23958000  0.78863000  0.47844000  1.0
  C  C68  1  0.80744000  0.59154000  0.55440000  1.0
  C  C69  1  0.69255000  0.40846000  0.05440000  1.0
  C  C70  1  0.19256000  0.09153000  0.94560000  1.0
  C  C71  1  0.30745000  0.90846000  0.44560000  1.0
  C  C72  1  0.78025000  0.57650000  0.62248000  1.0
  C  C73  1  0.71975000  0.42350000  0.12248000  1.0
  C  C74  1  0.21975000  0.07650000  0.87752000  1.0
  C  C75  1  0.28026000  0.92350000  0.37752000  1.0
  C  C76  1  0.92644000  0.63947000  0.65646000  1.0
  C  C77  1  0.57355000  0.36053000  0.15646000  1.0
  C  C78  1  0.07356000  0.13948000  0.84354000  1.0
  C  C79  1  0.42645000  0.86052000  0.34354000  1.0
  C  C80  1  0.92332000  0.78040000  0.68563000  1.0
  C  C81  1  0.57667000  0.21959000  0.18563000  1.0
  C  C82  1  0.07668000  0.28041000  0.81438000  1.0
  C  C83  1  0.42333000  0.71959000  0.31437000  1.0
  C  C84  1  0.06232000  0.82753000  0.71621000  1.0
  C  C85  1  0.43768000  0.17247000  0.21621000  1.0
  C  C86  1  0.93768000  0.32754000  0.78379000  1.0
  C  C87  1  0.56232000  0.67246000  0.28379000  1.0
  C  C88  1  0.19782000  0.73217000  0.71761000  1.0
  C  C89  1  0.30218000  0.26783000  0.21761000  1.0
  C  C90  1  0.80219000  0.23218000  0.78239000  1.0
  C  C91  1  0.69782000  0.76783000  0.28239000  1.0
  C  C92  1  0.19136000  0.59407000  0.68666000  1.0
  C  C93  1  0.30863000  0.40593000  0.18666000  1.0
  C  C94  1  0.80864000  0.09408000  0.81334000  1.0
  C  C95  1  0.69137000  0.90592000  0.31334000  1.0
  C  C96  1  0.63128000  0.34022000  0.61681000  1.0
  C  C97  1  0.86871000  0.65977000  0.11680000  1.0
  C  C98  1  0.36871000  0.84022000  0.88320000  1.0
  C  C99  1  0.13130000  0.15978000  0.38320000  1.0
  C  C100  1  0.32268000  0.13548000  0.68927000  1.0
  C  C101  1  0.17733000  0.86452000  0.18927000  1.0
  C  C102  1  0.67733000  0.63548000  0.81072000  1.0
  C  C103  1  0.82267000  0.36451000  0.31073000  1.0
  C  C104  1  0.34211000  0.40091000  0.49188000  1.0
  C  C105  1  0.15789000  0.59909000  0.99188000  1.0
  C  C106  1  0.65789000  0.90090000  0.00812000  1.0
  C  C107  1  0.84211000  0.09910000  0.50812000  1.0
  S  S108  1  0.47382000  0.03487000  0.71301000  1.0
  S  S109  1  0.02618000  0.96513000  0.21301000  1.0
  S  S110  1  0.52618000  0.53487000  0.78699000  1.0
  S  S111  1  0.97382000  0.46512000  0.28700000  1.0
  S  S112  1  0.44170000  0.44426000  0.43080000  1.0
  S  S113  1  0.05830000  0.55574000  0.93080000  1.0
  S  S114  1  0.55830000  0.94425000  0.06919000  1.0
  S  S115  1  0.94170000  0.05575000  0.56920000  1.0
  N  N116  1  0.90303000  0.48497000  0.52890000  1.0
  N  N117  1  0.59696000  0.51503000  0.02890000  1.0
  N  N118  1  0.09696000  0.98496000  0.97110000  1.0
  N  N119  1  0.40304000  0.01504000  0.47110000  1.0
  N  N120  1  0.05900000  0.54975000  0.65599000  1.0
  N  N121  1  0.44099000  0.45025000  0.15599000  1.0
  N  N122  1  0.94100000  0.04975000  0.84401000  1.0
  N  N123  1  0.55901000  0.95024000  0.34401000  1.0
  N  N124  1  0.20977000  0.20812000  0.67182000  1.0
  N  N125  1  0.29024000  0.79188000  0.17182000  1.0
  N  N126  1  0.79024000  0.70812000  0.82818000  1.0
  N  N127  1  0.70975000  0.29188000  0.32818000  1.0
  N  N128  1  0.27056000  0.37517000  0.53679000  1.0
  N  N129  1  0.22943000  0.62484000  0.03679000  1.0
  N  N130  1  0.72944000  0.87515000  0.96321000  1.0
  N  N131  1  0.77056000  0.12486000  0.46321000  1.0
  O  O132  1  0.77297000  0.41769000  0.63891000  1.0
  O  O133  1  0.72702000  0.58230000  0.13891000  1.0
  O  O134  1  0.22703000  0.91769000  0.86109000  1.0
  O  O135  1  0.27298000  0.08230000  0.36109000  1.0
  O  O136  1  0.64336000  0.65889000  0.64090000  1.0
  O  O137  1  0.85663000  0.34111000  0.14090000  1.0
  O  O138  1  0.35664000  0.15889000  0.85910000  1.0
  O  O139  1  0.14337000  0.84111000  0.35910000  1.0
