# generated using pymatgen
data_ZnH8C11(N2O)2
_symmetry_space_group_name_H-M   'P 1'
_cell_length_a   9.55425000
_cell_length_b   9.60010000
_cell_length_c   12.23720000
_cell_angle_alpha   90.00000000
_cell_angle_beta   90.00000000
_cell_angle_gamma   98.84190000
_symmetry_Int_Tables_number   1
_chemical_formula_structural   ZnH8C11(N2O)2
_chemical_formula_sum   'Zn4 H32 C44 N16 O8'
_cell_volume   1109.07892542
_cell_formula_units_Z   4
loop_
 _symmetry_equiv_pos_site_id
 _symmetry_equiv_pos_as_xyz
  1  'x, y, z'
loop_
 _atom_site_type_symbol
 _atom_site_label
 _atom_site_symmetry_multiplicity
 _atom_site_fract_x
 _atom_site_fract_y
 _atom_site_fract_z
 _atom_site_occupancy
  Zn  Zn0  1  0.08316000  0.38463000  0.06162000  1.0
  Zn  Zn1  1  0.58316000  0.88462000  0.43838000  1.0
  Zn  Zn2  1  0.91684000  0.61538000  0.93838000  1.0
  Zn  Zn3  1  0.41684000  0.11538000  0.56162000  1.0
  H  H4  1  0.09844000  0.66497000  0.75569000  1.0
  H  H5  1  0.59845000  0.16497000  0.74431000  1.0
  H  H6  1  0.90155000  0.33503000  0.24431000  1.0
  H  H7  1  0.40156000  0.83503000  0.25569000  1.0
  H  H8  1  0.29391000  0.73057000  0.62583000  1.0
  H  H9  1  0.79392000  0.23057000  0.87417000  1.0
  H  H10  1  0.70608000  0.26943000  0.37418000  1.0
  H  H11  1  0.20609000  0.76943000  0.12582000  1.0
  H  H12  1  0.51670000  0.62611000  0.64199000  1.0
  H  H13  1  0.01670000  0.12611000  0.85801000  1.0
  H  H14  1  0.48330000  0.37389000  0.35801000  1.0
  H  H15  1  0.98330000  0.87389000  0.14198000  1.0
  H  H16  1  0.53725000  0.45412000  0.79243000  1.0
  H  H17  1  0.03725000  0.95411000  0.70757000  1.0
  H  H18  1  0.46275000  0.54588000  0.20757000  1.0
  H  H19  1  0.96275000  0.04588000  0.29243000  1.0
  H  H20  1  0.56826000  0.25286000  0.08525000  1.0
  H  H21  1  0.06826000  0.75286000  0.41475000  1.0
  H  H22  1  0.43174000  0.74714000  0.91475000  1.0
  H  H23  1  0.93174000  0.24714000  0.58525000  1.0
  H  H24  1  0.49075000  0.10929000  0.99991000  1.0
  H  H25  1  0.99075000  0.60930000  0.50008000  1.0
  H  H26  1  0.50925000  0.89070000  0.00009000  1.0
  H  H27  1  0.00925000  0.39070000  0.49991000  1.0
  H  H28  1  0.26471000  0.11184000  0.08613000  1.0
  H  H29  1  0.76471000  0.61184000  0.41387000  1.0
  H  H30  1  0.73528000  0.88816000  0.91387000  1.0
  H  H31  1  0.23528000  0.38816000  0.58614000  1.0
  H  H32  1  0.34406000  0.24899000  0.17395000  1.0
  H  H33  1  0.84406000  0.74899000  0.32605000  1.0
  H  H34  1  0.65593000  0.75101000  0.82605000  1.0
  H  H35  1  0.15593000  0.25101000  0.67395000  1.0
  C  C36  1  0.20554000  0.52701000  0.85378000  1.0
  C  C37  1  0.70554000  0.02701000  0.64622000  1.0
  C  C38  1  0.79446000  0.47299000  0.14622000  1.0
  C  C39  1  0.29446000  0.97299000  0.35378000  1.0
  C  C40  1  0.19583000  0.62056000  0.76512000  1.0
  C  C41  1  0.69583000  0.12056000  0.73488000  1.0
  C  C42  1  0.80417000  0.37944000  0.23488000  1.0
  C  C43  1  0.30417000  0.87944000  0.26512000  1.0
  C  C44  1  0.30568000  0.65628000  0.69139000  1.0
  C  C45  1  0.80569000  0.15628000  0.80861000  1.0
  C  C46  1  0.69431000  0.34372000  0.30861000  1.0
  C  C47  1  0.19432000  0.84372000  0.19139000  1.0
  C  C48  1  0.43105000  0.59788000  0.70036000  1.0
  C  C49  1  0.93105000  0.09788000  0.79964000  1.0
  C  C50  1  0.56895000  0.40212000  0.29964000  1.0
  C  C51  1  0.06895000  0.90212000  0.20036000  1.0
  C  C52  1  0.44190000  0.50224000  0.78349000  1.0
  C  C53  1  0.94190000  0.00225000  0.71651000  1.0
  C  C54  1  0.55810000  0.49775000  0.21651000  1.0
  C  C55  1  0.05810000  0.99775000  0.28349000  1.0
  C  C56  1  0.33255000  0.46459000  0.86050000  1.0
  C  C57  1  0.83255000  0.96459000  0.63950000  1.0
  C  C58  1  0.66745000  0.53541000  0.13950000  1.0
  C  C59  1  0.16745000  0.03541000  0.36050000  1.0
  C  C60  1  0.35482000  0.36333000  0.94445000  1.0
  C  C61  1  0.85482000  0.86333000  0.55555000  1.0
  C  C62  1  0.64518000  0.63667000  0.05555000  1.0
  C  C63  1  0.14518000  0.13667000  0.44445000  1.0
  C  C64  1  0.47776000  0.21250000  0.03314000  1.0
  C  C65  1  0.97775000  0.71250000  0.46686000  1.0
  C  C66  1  0.52224000  0.78750000  0.96686000  1.0
  C  C67  1  0.02224000  0.28750000  0.53314000  1.0
  C  C68  1  0.33353000  0.21452000  0.08837000  1.0
  C  C69  1  0.83353000  0.71452000  0.41163000  1.0
  C  C70  1  0.66647000  0.78548000  0.91163000  1.0
  C  C71  1  0.16647000  0.28548000  0.58837000  1.0
  C  C72  1  0.85727000  0.11788000  0.08706000  1.0
  C  C73  1  0.35727000  0.61788000  0.41294000  1.0
  C  C74  1  0.14274000  0.88212000  0.91294000  1.0
  C  C75  1  0.64273000  0.38212000  0.58706000  1.0
  C  C76  1  0.70035000  0.98921000  0.20426000  1.0
  C  C77  1  0.20035000  0.48921000  0.29574000  1.0
  C  C78  1  0.29965000  0.01079000  0.79574000  1.0
  C  C79  1  0.79965000  0.51080000  0.70426000  1.0
  N  N80  1  0.26992000  0.31714000  0.02352000  1.0
  N  N81  1  0.76992000  0.81714000  0.47647000  1.0
  N  N82  1  0.73008000  0.68286000  0.97647000  1.0
  N  N83  1  0.23008000  0.18286000  0.52353000  1.0
  N  N84  1  0.95525000  0.19898000  0.05819000  1.0
  N  N85  1  0.45526000  0.69897000  0.44180000  1.0
  N  N86  1  0.04475000  0.80102000  0.94181000  1.0
  N  N87  1  0.54475000  0.30103000  0.55819000  1.0
  N  N88  1  0.74886000  0.02463000  0.10825000  1.0
  N  N89  1  0.24885000  0.52463000  0.39175000  1.0
  N  N90  1  0.25115000  0.97537000  0.89176000  1.0
  N  N91  1  0.75115000  0.47538000  0.60825000  1.0
  N  N92  1  0.64647000  0.94839000  0.28696000  1.0
  N  N93  1  0.14647000  0.44839000  0.21304000  1.0
  N  N94  1  0.35353000  0.05161000  0.71304000  1.0
  N  N95  1  0.85352000  0.55161000  0.78696000  1.0
  O  O96  1  0.09998000  0.50314000  0.92501000  1.0
  O  O97  1  0.59997000  0.00314000  0.57499000  1.0
  O  O98  1  0.90003000  0.49686000  0.07499000  1.0
  O  O99  1  0.40002000  0.99686000  0.42501000  1.0
  O  O100  1  0.47834000  0.30910000  0.94031000  1.0
  O  O101  1  0.97834000  0.80909000  0.55969000  1.0
  O  O102  1  0.52166000  0.69090000  0.05969000  1.0
  O  O103  1  0.02166000  0.19090000  0.44031000  1.0
