# generated using pymatgen
data_Zn2H28C31(NO2)4
_symmetry_space_group_name_H-M   'P 1'
_cell_length_a   13.44130000
_cell_length_b   14.65630000
_cell_length_c   19.63390000
_cell_angle_alpha   89.99980000
_cell_angle_beta   75.34900000
_cell_angle_gamma   89.99900000
_symmetry_Int_Tables_number   1
_chemical_formula_structural   Zn2H28C31(NO2)4
_chemical_formula_sum   'Zn8 H112 C124 N16 O32'
_cell_volume   3742.10675634
_cell_formula_units_Z   4
loop_
 _symmetry_equiv_pos_site_id
 _symmetry_equiv_pos_as_xyz
  1  'x, y, z'
loop_
 _atom_site_type_symbol
 _atom_site_label
 _atom_site_symmetry_multiplicity
 _atom_site_fract_x
 _atom_site_fract_y
 _atom_site_fract_z
 _atom_site_occupancy
  Zn  Zn0  1  0.27946000  0.31577000  0.73548000  1.0
  Zn  Zn1  1  0.72054000  0.81577000  0.76452000  1.0
  Zn  Zn2  1  0.72053000  0.68422000  0.26453000  1.0
  Zn  Zn3  1  0.27947000  0.18423000  0.23548000  1.0
  Zn  Zn4  1  0.75549000  0.36743000  0.74874000  1.0
  Zn  Zn5  1  0.24451000  0.86743000  0.75125000  1.0
  Zn  Zn6  1  0.24451000  0.63257000  0.25125000  1.0
  Zn  Zn7  1  0.75550000  0.13256000  0.24875000  1.0
  H  H8  1  0.76369000  0.21738000  0.80614000  1.0
  H  H9  1  0.23631000  0.71738000  0.69386000  1.0
  H  H10  1  0.23631000  0.78263000  0.19386000  1.0
  H  H11  1  0.76369000  0.28262000  0.30614000  1.0
  H  H12  1  0.57881000  0.35644000  0.71540000  1.0
  H  H13  1  0.42119000  0.85644000  0.78459000  1.0
  H  H14  1  0.42118000  0.64356000  0.28460000  1.0
  H  H15  1  0.57883000  0.14355000  0.21540000  1.0
  H  H16  1  0.08703000  0.24243000  0.83464000  1.0
  H  H17  1  0.91296000  0.74242000  0.66536000  1.0
  H  H18  1  0.91296000  0.75755000  0.16536000  1.0
  H  H19  1  0.08704000  0.25757000  0.33463000  1.0
  H  H20  1  0.91719000  0.18191000  0.82548000  1.0
  H  H21  1  0.08280000  0.68190000  0.67452000  1.0
  H  H22  1  0.08280000  0.81809000  0.17452000  1.0
  H  H23  1  0.91720000  0.31808000  0.32548000  1.0
  H  H24  1  0.00375000  0.25588000  0.60482000  1.0
  H  H25  1  0.99625000  0.75590000  0.89518000  1.0
  H  H26  1  0.99624000  0.74412000  0.39519000  1.0
  H  H27  1  0.00375000  0.24411000  0.10481000  1.0
  H  H28  1  0.17053000  0.31310000  0.62360000  1.0
  H  H29  1  0.82946000  0.81311000  0.87640000  1.0
  H  H30  1  0.82947000  0.68690000  0.37640000  1.0
  H  H31  1  0.17054000  0.18690000  0.12359000  1.0
  H  H32  1  0.83788000  0.19363000  0.65155000  1.0
  H  H33  1  0.16213000  0.69363000  0.84845000  1.0
  H  H34  1  0.16212000  0.80637000  0.34846000  1.0
  H  H35  1  0.83787000  0.30635000  0.15155000  1.0
  H  H36  1  0.84085000  0.10411000  0.71217000  1.0
  H  H37  1  0.15915000  0.60411000  0.78783000  1.0
  H  H38  1  0.15914000  0.89589000  0.28784000  1.0
  H  H39  1  0.84085000  0.39588000  0.21216000  1.0
  H  H40  1  0.65669000  0.19058000  0.69487000  1.0
  H  H41  1  0.34332000  0.69058000  0.80513000  1.0
  H  H42  1  0.34330000  0.80943000  0.30514000  1.0
  H  H43  1  0.65669000  0.30942000  0.19487000  1.0
  H  H44  1  0.68818000  0.04401000  0.75377000  1.0
  H  H45  1  0.31183000  0.54401000  0.74623000  1.0
  H  H46  1  0.31180000  0.95600000  0.24623000  1.0
  H  H47  1  0.68818000  0.45598000  0.25377000  1.0
  H  H48  1  0.55681000  0.07288000  0.78124000  1.0
  H  H49  1  0.44320000  0.57289000  0.71876000  1.0
  H  H50  1  0.44318000  0.92713000  0.21877000  1.0
  H  H51  1  0.55681000  0.42711000  0.28124000  1.0
  H  H52  1  0.63755000  0.09563000  0.83786000  1.0
  H  H53  1  0.36247000  0.59562000  0.66213000  1.0
  H  H54  1  0.36245000  0.90437000  0.16214000  1.0
  H  H55  1  0.63754000  0.40436000  0.33786000  1.0
  H  H56  1  0.57373000  0.25763000  0.84618000  1.0
  H  H57  1  0.42628000  0.75764000  0.65381000  1.0
  H  H58  1  0.42627000  0.74238000  0.15382000  1.0
  H  H59  1  0.57373000  0.24236000  0.34618000  1.0
  H  H60  1  0.49826000  0.23591000  0.78496000  1.0
  H  H61  1  0.50175000  0.73592000  0.71504000  1.0
  H  H62  1  0.50173000  0.76409000  0.21505000  1.0
  H  H63  1  0.49826000  0.26407000  0.28496000  1.0
  H  H64  1  0.53311000  0.40055000  0.86521000  1.0
  H  H65  1  0.46689000  0.90056000  0.63478000  1.0
  H  H66  1  0.46689000  0.59946000  0.13479000  1.0
  H  H67  1  0.53311000  0.09944000  0.36521000  1.0
  H  H68  1  0.45348000  0.41572000  0.80621000  1.0
  H  H69  1  0.54651000  0.91572000  0.69379000  1.0
  H  H70  1  0.54651000  0.58429000  0.19380000  1.0
  H  H71  1  0.45349000  0.08427000  0.30620000  1.0
  H  H72  1  0.64698000  0.49579000  0.68477000  1.0
  H  H73  1  0.35302000  0.99579000  0.81523000  1.0
  H  H74  1  0.35303000  0.50422000  0.31523000  1.0
  H  H75  1  0.64699000  0.00420000  0.18477000  1.0
  H  H76  1  0.71548000  0.65527000  0.67024000  1.0
  H  H77  1  0.28452000  0.15527000  0.82976000  1.0
  H  H78  1  0.28453000  0.34474000  0.32977000  1.0
  H  H79  1  0.71547000  0.84471000  0.17024000  1.0
  H  H80  1  0.50926000  0.56023000  0.90359000  1.0
  H  H81  1  0.49073000  0.06023000  0.59641000  1.0
  H  H82  1  0.49072000  0.43977000  0.09642000  1.0
  H  H83  1  0.50928000  0.93977000  0.40359000  1.0
  H  H84  1  0.58124000  0.71708000  0.87922000  1.0
  H  H85  1  0.41875000  0.21708000  0.62078000  1.0
  H  H86  1  0.41873000  0.28294000  0.12079000  1.0
  H  H87  1  0.58125000  0.78292000  0.37923000  1.0
  H  H88  1  0.30755000  0.54149000  0.86874000  1.0
  H  H89  1  0.69246000  0.04147000  0.63125000  1.0
  H  H90  1  0.69244000  0.45851000  0.13125000  1.0
  H  H91  1  0.30754000  0.95851000  0.36874000  1.0
  H  H92  1  0.30929000  0.64486000  0.97128000  1.0
  H  H93  1  0.69073000  0.14485000  0.52871000  1.0
  H  H94  1  0.69071000  0.35514000  0.02871000  1.0
  H  H95  1  0.30929000  0.85514000  0.47129000  1.0
  H  H96  1  0.19889000  0.42435000  0.11394000  1.0
  H  H97  1  0.80109000  0.92433000  0.38606000  1.0
  H  H98  1  0.80110000  0.57566000  0.88606000  1.0
  H  H99  1  0.19892000  0.07566000  0.61393000  1.0
  H  H100  1  0.19643000  0.32126000  0.01134000  1.0
  H  H101  1  0.80355000  0.82123000  0.48866000  1.0
  H  H102  1  0.80355000  0.67874000  0.98866000  1.0
  H  H103  1  0.19646000  0.17875000  0.51134000  1.0
  H  H104  1  0.61980000  0.43816000  0.56721000  1.0
  H  H105  1  0.38021000  0.93817000  0.93279000  1.0
  H  H106  1  0.38017000  0.56187000  0.43280000  1.0
  H  H107  1  0.61984000  0.06186000  0.06719000  1.0
  H  H108  1  0.31248000  0.46993000  0.54217000  1.0
  H  H109  1  0.68753000  0.96993000  0.95782000  1.0
  H  H110  1  0.68750000  0.53009000  0.45783000  1.0
  H  H111  1  0.31251000  0.03009000  0.04217000  1.0
  H  H112  1  0.02445000  0.49382000  0.62129000  1.0
  H  H113  1  0.97553000  0.99381000  0.87871000  1.0
  H  H114  1  0.97554000  0.50619000  0.37870000  1.0
  H  H115  1  0.02446000  0.00616000  0.12129000  1.0
  H  H116  1  0.84061000  0.43404000  0.47747000  1.0
  H  H117  1  0.15939000  0.93403000  0.02253000  1.0
  H  H118  1  0.15938000  0.56597000  0.52253000  1.0
  H  H119  1  0.84061000  0.06596000  0.97747000  1.0
  C  C120  1  0.06454000  0.24357000  0.78497000  1.0
  C  C121  1  0.93546000  0.74357000  0.71503000  1.0
  C  C122  1  0.93545000  0.75642000  0.21503000  1.0
  C  C123  1  0.06455000  0.25642000  0.28496000  1.0
  C  C124  1  0.97059000  0.20999000  0.77884000  1.0
  C  C125  1  0.02941000  0.70999000  0.72117000  1.0
  C  C126  1  0.02941000  0.79001000  0.22117000  1.0
  C  C127  1  0.97059000  0.29000000  0.27883000  1.0
  C  C128  1  0.94654000  0.21321000  0.71352000  1.0
  C  C129  1  0.05345000  0.71321000  0.78648000  1.0
  C  C130  1  0.05345000  0.78679000  0.28648000  1.0
  C  C131  1  0.94654000  0.28678000  0.21352000  1.0
  C  C132  1  0.01929000  0.25058000  0.65653000  1.0
  C  C133  1  0.98071000  0.75059000  0.84347000  1.0
  C  C134  1  0.98071000  0.74942000  0.34347000  1.0
  C  C135  1  0.01929000  0.24941000  0.15653000  1.0
  C  C136  1  0.11179000  0.28277000  0.66636000  1.0
  C  C137  1  0.88821000  0.78277000  0.83363000  1.0
  C  C138  1  0.88821000  0.71723000  0.33364000  1.0
  C  C139  1  0.11180000  0.21723000  0.16636000  1.0
  C  C140  1  0.84495000  0.17889000  0.70500000  1.0
  C  C141  1  0.15506000  0.67889000  0.79500000  1.0
  C  C142  1  0.15505000  0.82111000  0.29500000  1.0
  C  C143  1  0.84494000  0.32110000  0.20500000  1.0
  C  C144  1  0.65594000  0.19041000  0.75119000  1.0
  C  C145  1  0.34407000  0.69041000  0.74880000  1.0
  C  C146  1  0.34405000  0.80959000  0.24881000  1.0
  C  C147  1  0.65593000  0.30958000  0.25120000  1.0
  C  C148  1  0.63414000  0.09527000  0.78247000  1.0
  C  C149  1  0.36587000  0.59527000  0.71753000  1.0
  C  C150  1  0.36585000  0.90474000  0.21754000  1.0
  C  C151  1  0.63413000  0.40473000  0.28247000  1.0
  C  C152  1  0.57434000  0.25772000  0.79005000  1.0
  C  C153  1  0.42566000  0.75772000  0.70995000  1.0
  C  C154  1  0.42565000  0.74228000  0.20996000  1.0
  C  C155  1  0.57434000  0.24227000  0.29005000  1.0
  C  C156  1  0.53373000  0.41877000  0.81079000  1.0
  C  C157  1  0.46627000  0.91877000  0.68920000  1.0
  C  C158  1  0.46626000  0.58125000  0.18922000  1.0
  C  C159  1  0.53374000  0.08123000  0.31079000  1.0
  C  C160  1  0.57339000  0.51415000  0.79640000  1.0
  C  C161  1  0.42661000  0.01416000  0.70360000  1.0
  C  C162  1  0.42661000  0.48585000  0.20361000  1.0
  C  C163  1  0.57339000  0.98584000  0.29640000  1.0
  C  C164  1  0.63085000  0.54199000  0.72981000  1.0
  C  C165  1  0.36914000  0.04199000  0.77019000  1.0
  C  C166  1  0.36914000  0.45802000  0.27020000  1.0
  C  C167  1  0.63086000  0.95800000  0.22980000  1.0
  C  C168  1  0.66934000  0.63035000  0.72079000  1.0
  C  C169  1  0.33065000  0.13036000  0.77921000  1.0
  C  C170  1  0.33066000  0.36966000  0.27922000  1.0
  C  C171  1  0.66934000  0.86964000  0.22079000  1.0
  C  C172  1  0.55388000  0.57846000  0.85085000  1.0
  C  C173  1  0.44612000  0.07846000  0.64915000  1.0
  C  C174  1  0.44611000  0.42154000  0.14915000  1.0
  C  C175  1  0.55388000  0.92154000  0.35086000  1.0
  C  C176  1  0.59386000  0.66565000  0.83788000  1.0
  C  C177  1  0.40614000  0.16565000  0.66212000  1.0
  C  C178  1  0.40612000  0.33436000  0.16213000  1.0
  C  C179  1  0.59387000  0.83435000  0.33789000  1.0
  C  C180  1  0.24847000  0.36393000  0.87399000  1.0
  C  C181  1  0.75153000  0.86393000  0.62601000  1.0
  C  C182  1  0.75153000  0.63606000  0.12602000  1.0
  C  C183  1  0.24847000  0.13606000  0.37398000  1.0
  C  C184  1  0.25130000  0.42562000  0.93434000  1.0
  C  C185  1  0.74870000  0.92560000  0.56565000  1.0
  C  C186  1  0.74869000  0.57438000  0.06565000  1.0
  C  C187  1  0.25130000  0.07438000  0.43435000  1.0
  C  C188  1  0.28368000  0.51666000  0.92272000  1.0
  C  C189  1  0.71633000  0.01665000  0.57728000  1.0
  C  C190  1  0.71631000  0.48334000  0.07728000  1.0
  C  C191  1  0.28368000  0.98334000  0.42272000  1.0
  C  C192  1  0.28508000  0.57373000  0.97917000  1.0
  C  C193  1  0.71493000  0.07371000  0.52083000  1.0
  C  C194  1  0.71492000  0.42627000  0.02083000  1.0
  C  C195  1  0.28508000  0.92628000  0.47917000  1.0
  C  C196  1  0.25421000  0.54038000  0.04822000  1.0
  C  C197  1  0.74579000  0.04035000  0.45177000  1.0
  C  C198  1  0.74579000  0.45963000  0.95177000  1.0
  C  C199  1  0.25422000  0.95964000  0.54822000  1.0
  C  C200  1  0.22255000  0.44912000  0.05991000  1.0
  C  C201  1  0.77744000  0.94909000  0.44009000  1.0
  C  C202  1  0.77745000  0.55088000  0.94008000  1.0
  C  C203  1  0.22257000  0.05090000  0.55991000  1.0
  C  C204  1  0.22102000  0.39223000  0.00343000  1.0
  C  C205  1  0.77896000  0.89221000  0.49657000  1.0
  C  C206  1  0.77896000  0.60778000  0.99657000  1.0
  C  C207  1  0.22104000  0.10778000  0.50343000  1.0
  C  C208  1  0.25582000  0.60216000  0.10917000  1.0
  C  C209  1  0.74418000  0.10214000  0.39082000  1.0
  C  C210  1  0.74418000  0.39784000  0.89082000  1.0
  C  C211  1  0.25582000  0.89785000  0.60918000  1.0
  C  C212  1  0.42053000  0.39749000  0.62805000  1.0
  C  C213  1  0.57947000  0.89749000  0.87194000  1.0
  C  C214  1  0.57945000  0.60252000  0.37196000  1.0
  C  C215  1  0.42057000  0.10253000  0.12805000  1.0
  C  C216  1  0.46165000  0.44967000  0.56150000  1.0
  C  C217  1  0.53835000  0.94968000  0.93850000  1.0
  C  C218  1  0.53832000  0.55035000  0.43851000  1.0
  C  C219  1  0.46169000  0.05034000  0.06149000  1.0
  C  C220  1  0.56765000  0.46604000  0.53798000  1.0
  C  C221  1  0.43235000  0.96605000  0.96202000  1.0
  C  C222  1  0.43232000  0.53398000  0.46203000  1.0
  C  C223  1  0.56769000  0.03398000  0.03796000  1.0
  C  C224  1  0.39453000  0.48361000  0.52317000  1.0
  C  C225  1  0.60548000  0.98362000  0.97682000  1.0
  C  C226  1  0.60545000  0.51641000  0.47683000  1.0
  C  C227  1  0.39456000  0.01641000  0.02317000  1.0
  C  C228  1  0.84381000  0.41798000  0.61328000  1.0
  C  C229  1  0.15619000  0.91799000  0.88671000  1.0
  C  C230  1  0.15618000  0.58203000  0.38672000  1.0
  C  C231  1  0.84381000  0.08201000  0.11329000  1.0
  C  C232  1  0.92490000  0.46010000  0.55480000  1.0
  C  C233  1  0.07509000  0.96010000  0.94520000  1.0
  C  C234  1  0.07510000  0.53991000  0.44520000  1.0
  C  C235  1  0.92490000  0.03988000  0.05480000  1.0
  C  C236  1  0.01476000  0.49698000  0.56788000  1.0
  C  C237  1  0.98523000  0.99698000  0.93212000  1.0
  C  C238  1  0.98523000  0.50303000  0.43212000  1.0
  C  C239  1  0.01477000  0.00300000  0.06788000  1.0
  C  C240  1  0.91078000  0.46335000  0.48650000  1.0
  C  C241  1  0.08921000  0.96334000  0.01350000  1.0
  C  C242  1  0.08921000  0.53666000  0.51350000  1.0
  C  C243  1  0.91078000  0.03665000  0.98650000  1.0
  N  N244  1  0.13403000  0.27933000  0.72954000  1.0
  N  N245  1  0.86596000  0.77932000  0.77046000  1.0
  N  N246  1  0.86596000  0.72067000  0.27047000  1.0
  N  N247  1  0.13404000  0.22067000  0.22953000  1.0
  N  N248  1  0.75875000  0.22487000  0.75497000  1.0
  N  N249  1  0.24125000  0.72487000  0.74503000  1.0
  N  N250  1  0.24124000  0.77514000  0.24503000  1.0
  N  N251  1  0.75875000  0.27512000  0.25497000  1.0
  N  N252  1  0.59763000  0.35155000  0.76315000  1.0
  N  N253  1  0.40237000  0.85155000  0.73685000  1.0
  N  N254  1  0.40236000  0.64846000  0.23686000  1.0
  N  N255  1  0.59764000  0.14844000  0.26315000  1.0
  N  N256  1  0.65160000  0.69119000  0.77404000  1.0
  N  N257  1  0.34840000  0.19119000  0.72596000  1.0
  N  N258  1  0.34840000  0.30883000  0.22597000  1.0
  N  N259  1  0.65160000  0.80880000  0.27405000  1.0
  O  O260  1  0.28218000  0.40032000  0.81161000  1.0
  O  O261  1  0.71780000  0.90032000  0.68839000  1.0
  O  O262  1  0.71783000  0.59966000  0.18839000  1.0
  O  O263  1  0.28219000  0.09967000  0.31160000  1.0
  O  O264  1  0.21635000  0.28372000  0.88422000  1.0
  O  O265  1  0.78366000  0.78371000  0.61579000  1.0
  O  O266  1  0.78365000  0.71627000  0.11579000  1.0
  O  O267  1  0.21634000  0.21628000  0.38422000  1.0
  O  O268  1  0.22373000  0.56392000  0.17046000  1.0
  O  O269  1  0.77629000  0.06390000  0.32953000  1.0
  O  O270  1  0.77627000  0.43609000  0.82953000  1.0
  O  O271  1  0.22371000  0.93609000  0.67047000  1.0
  O  O272  1  0.28733000  0.68282000  0.09898000  1.0
  O  O273  1  0.71266000  0.18279000  0.40101000  1.0
  O  O274  1  0.71268000  0.31718000  0.90101000  1.0
  O  O275  1  0.28735000  0.81719000  0.59899000  1.0
  O  O276  1  0.32321000  0.37740000  0.64280000  1.0
  O  O277  1  0.67679000  0.87740000  0.85719000  1.0
  O  O278  1  0.67677000  0.62259000  0.35720000  1.0
  O  O279  1  0.32324000  0.12262000  0.14280000  1.0
  O  O280  1  0.47795000  0.37517000  0.66681000  1.0
  O  O281  1  0.52205000  0.87518000  0.83319000  1.0
  O  O282  1  0.52203000  0.62485000  0.33320000  1.0
  O  O283  1  0.47799000  0.12484000  0.16680000  1.0
  O  O284  1  0.86347000  0.42114000  0.67488000  1.0
  O  O285  1  0.13651000  0.92114000  0.82511000  1.0
  O  O286  1  0.13653000  0.57887000  0.32511000  1.0
  O  O287  1  0.86349000  0.07886000  0.17489000  1.0
  O  O288  1  0.76409000  0.38331000  0.60231000  1.0
  O  O289  1  0.23593000  0.88333000  0.89767000  1.0
  O  O290  1  0.23589000  0.61672000  0.39770000  1.0
  O  O291  1  0.76409000  0.11669000  0.10231000  1.0
