# generated using pymatgen
data_CdH8C16(NO2)2
_symmetry_space_group_name_H-M   'P 1'
_cell_length_a   8.30169000
_cell_length_b   9.62703000
_cell_length_c   17.25260000
_cell_angle_alpha   90.00070000
_cell_angle_beta   90.00030000
_cell_angle_gamma   88.94710000
_symmetry_Int_Tables_number   1
_chemical_formula_structural   CdH8C16(NO2)2
_chemical_formula_sum   'Cd4 H32 C64 N8 O16'
_cell_volume   1378.60565652
_cell_formula_units_Z   4
loop_
 _symmetry_equiv_pos_site_id
 _symmetry_equiv_pos_as_xyz
  1  'x, y, z'
loop_
 _atom_site_type_symbol
 _atom_site_label
 _atom_site_symmetry_multiplicity
 _atom_site_fract_x
 _atom_site_fract_y
 _atom_site_fract_z
 _atom_site_occupancy
  Cd  Cd0  1  0.70042000  0.21893000  0.85148000  1.0
  Cd  Cd1  1  0.79957000  0.78107000  0.35148000  1.0
  Cd  Cd2  1  0.29958000  0.78107000  0.14852000  1.0
  Cd  Cd3  1  0.20043000  0.21893000  0.64851000  1.0
  H  H4  1  0.06709000  0.14350000  0.92333000  1.0
  H  H5  1  0.43291000  0.85651000  0.42333000  1.0
  H  H6  1  0.93291000  0.85651000  0.07667000  1.0
  H  H7  1  0.56709000  0.14350000  0.57667000  1.0
  H  H8  1  0.31775000  0.26749000  0.96275000  1.0
  H  H9  1  0.18225000  0.73252000  0.46275000  1.0
  H  H10  1  0.68225000  0.73252000  0.03725000  1.0
  H  H11  1  0.81775000  0.26748000  0.53725000  1.0
  H  H12  1  0.32106000  0.52805000  0.95176000  1.0
  H  H13  1  0.17894000  0.47196000  0.45176000  1.0
  H  H14  1  0.67894000  0.47196000  0.04824000  1.0
  H  H15  1  0.82106000  0.52804000  0.54824000  1.0
  H  H16  1  0.18049000  0.74664000  0.91209000  1.0
  H  H17  1  0.31951000  0.25336000  0.41209000  1.0
  H  H18  1  0.81951000  0.25336000  0.08791000  1.0
  H  H19  1  0.68049000  0.74664000  0.58791000  1.0
  H  H20  1  0.92823000  0.87036000  0.87179000  1.0
  H  H21  1  0.57176000  0.12965000  0.37178000  1.0
  H  H22  1  0.07177000  0.12965000  0.12822000  1.0
  H  H23  1  0.42823000  0.87036000  0.62821000  1.0
  H  H24  1  0.64221000  0.86028000  0.83120000  1.0
  H  H25  1  0.85779000  0.13972000  0.33120000  1.0
  H  H26  1  0.35779000  0.13972000  0.16880000  1.0
  H  H27  1  0.14221000  0.86028000  0.66880000  1.0
  H  H28  1  0.40319000  0.71610000  0.79749000  1.0
  H  H29  1  0.09681000  0.28390000  0.29749000  1.0
  H  H30  1  0.59682000  0.28390000  0.20251000  1.0
  H  H31  1  0.90319000  0.71610000  0.70251000  1.0
  H  H32  1  0.43521000  0.45494000  0.79880000  1.0
  H  H33  1  0.06479000  0.54506000  0.29880000  1.0
  H  H34  1  0.56479000  0.54506000  0.20120000  1.0
  H  H35  1  0.93521000  0.45494000  0.70120000  1.0
  C  C36  1  0.07414000  0.25610000  0.91804000  1.0
  C  C37  1  0.42586000  0.74390000  0.41804000  1.0
  C  C38  1  0.92586000  0.74390000  0.08196000  1.0
  C  C39  1  0.57414000  0.25610000  0.58196000  1.0
  C  C40  1  0.21410000  0.32599000  0.94049000  1.0
  C  C41  1  0.28590000  0.67402000  0.44049000  1.0
  C  C42  1  0.78590000  0.67402000  0.05951000  1.0
  C  C43  1  0.71410000  0.32598000  0.55951000  1.0
  C  C44  1  0.21645000  0.46893000  0.93383000  1.0
  C  C45  1  0.28355000  0.53107000  0.43383000  1.0
  C  C46  1  0.78356000  0.53107000  0.06617000  1.0
  C  C47  1  0.71645000  0.46893000  0.56617000  1.0
  C  C48  1  0.07963000  0.54144000  0.90473000  1.0
  C  C49  1  0.42037000  0.45856000  0.40473000  1.0
  C  C50  1  0.92038000  0.45856000  0.09527000  1.0
  C  C51  1  0.57963000  0.54144000  0.59527000  1.0
  C  C52  1  0.07286000  0.68944000  0.89766000  1.0
  C  C53  1  0.42714000  0.31057000  0.39766000  1.0
  C  C54  1  0.92714000  0.31057000  0.10234000  1.0
  C  C55  1  0.57286000  0.68943000  0.60234000  1.0
  C  C56  1  0.93525000  0.75734000  0.87466000  1.0
  C  C57  1  0.56475000  0.24266000  0.37466000  1.0
  C  C58  1  0.06475000  0.24266000  0.12534000  1.0
  C  C59  1  0.43525000  0.75734000  0.62534000  1.0
  C  C60  1  0.79466000  0.68118000  0.85486000  1.0
  C  C61  1  0.70534000  0.31882000  0.35486000  1.0
  C  C62  1  0.20534000  0.31882000  0.14514000  1.0
  C  C63  1  0.29466000  0.68118000  0.64514000  1.0
  C  C64  1  0.64869000  0.74731000  0.83274000  1.0
  C  C65  1  0.85130000  0.25269000  0.33274000  1.0
  C  C66  1  0.35131000  0.25269000  0.16726000  1.0
  C  C67  1  0.14870000  0.74731000  0.66726000  1.0
  C  C68  1  0.51778000  0.66773000  0.81354000  1.0
  C  C69  1  0.98222000  0.33227000  0.31354000  1.0
  C  C70  1  0.48222000  0.33227000  0.18646000  1.0
  C  C71  1  0.01778000  0.66773000  0.68646000  1.0
  C  C72  1  0.53394000  0.52234000  0.81482000  1.0
  C  C73  1  0.96605000  0.47766000  0.31482000  1.0
  C  C74  1  0.46606000  0.47766000  0.18518000  1.0
  C  C75  1  0.03395000  0.52234000  0.68518000  1.0
  C  C76  1  0.79906000  0.53349000  0.85729000  1.0
  C  C77  1  0.70094000  0.46651000  0.35729000  1.0
  C  C78  1  0.20094000  0.46652000  0.14272000  1.0
  C  C79  1  0.29906000  0.53348000  0.64271000  1.0
  C  C80  1  0.94356000  0.46219000  0.88401000  1.0
  C  C81  1  0.55644000  0.53781000  0.38401000  1.0
  C  C82  1  0.05644000  0.53781000  0.11599000  1.0
  C  C83  1  0.44356000  0.46219000  0.61599000  1.0
  C  C84  1  0.65902000  0.10970000  0.99799000  1.0
  C  C85  1  0.84097000  0.89031000  0.49798000  1.0
  C  C86  1  0.34097000  0.89031000  0.00202000  1.0
  C  C87  1  0.15903000  0.10967000  0.50201000  1.0
  C  C88  1  0.64867000  0.04441000  0.07332000  1.0
  C  C89  1  0.85133000  0.95560000  0.57331000  1.0
  C  C90  1  0.35132000  0.95559000  0.92669000  1.0
  C  C91  1  0.14867000  0.04438000  0.42669000  1.0
  C  C92  1  0.64191000  0.98581000  0.13586000  1.0
  C  C93  1  0.85809000  0.01420000  0.63585000  1.0
  C  C94  1  0.35807000  0.01419000  0.86415000  1.0
  C  C95  1  0.14190000  0.98579000  0.36415000  1.0
  C  C96  1  0.64546000  0.90110000  0.20516000  1.0
  C  C97  1  0.85455000  0.09891000  0.70515000  1.0
  C  C98  1  0.35454000  0.09890000  0.79484000  1.0
  C  C99  1  0.14545000  0.90108000  0.29484000  1.0
  N  N100  1  0.94379000  0.32190000  0.89073000  1.0
  N  N101  1  0.55621000  0.67811000  0.39073000  1.0
  N  N102  1  0.05621000  0.67811000  0.10927000  1.0
  N  N103  1  0.44379000  0.32190000  0.60927000  1.0
  N  N104  1  0.67005000  0.45760000  0.83623000  1.0
  N  N105  1  0.82995000  0.54240000  0.33623000  1.0
  N  N106  1  0.32995000  0.54240000  0.16377000  1.0
  N  N107  1  0.17006000  0.45760000  0.66377000  1.0
  O  O108  1  0.74148000  0.04405000  0.94683000  1.0
  O  O109  1  0.75851000  0.95596000  0.44683000  1.0
  O  O110  1  0.25851000  0.95596000  0.05317000  1.0
  O  O111  1  0.24150000  0.04403000  0.55317000  1.0
  O  O112  1  0.58899000  0.22659000  0.98751000  1.0
  O  O113  1  0.91100000  0.77342000  0.48751000  1.0
  O  O114  1  0.41101000  0.77342000  0.01249000  1.0
  O  O115  1  0.08900000  0.22657000  0.51249000  1.0
  O  O116  1  0.55701000  0.79498000  0.20769000  1.0
  O  O117  1  0.94299000  0.20504000  0.70768000  1.0
  O  O118  1  0.44299000  0.20502000  0.79232000  1.0
  O  O119  1  0.05700000  0.79496000  0.29231000  1.0
  O  O120  1  0.74395000  0.93824000  0.25760000  1.0
  O  O121  1  0.75605000  0.06177000  0.75760000  1.0
  O  O122  1  0.25604000  0.06176000  0.74240000  1.0
  O  O123  1  0.24394000  0.93823000  0.24240000  1.0
