# generated using pymatgen
data_ZnH14C15(N3O2)2
_symmetry_space_group_name_H-M   'P 1'
_cell_length_a   10.48790000
_cell_length_b   10.74050000
_cell_length_c   11.51270000
_cell_angle_alpha   68.48040000
_cell_angle_beta   65.66540000
_cell_angle_gamma   61.87180000
_symmetry_Int_Tables_number   1
_chemical_formula_structural   ZnH14C15(N3O2)2
_chemical_formula_sum   'Zn2 H28 C30 N12 O8'
_cell_volume   1017.76494815
_cell_formula_units_Z   2
loop_
 _symmetry_equiv_pos_site_id
 _symmetry_equiv_pos_as_xyz
  1  'x, y, z'
loop_
 _atom_site_type_symbol
 _atom_site_label
 _atom_site_symmetry_multiplicity
 _atom_site_fract_x
 _atom_site_fract_y
 _atom_site_fract_z
 _atom_site_occupancy
  Zn  Zn0  1  0.93999000  0.21487000  0.85181000  1.0
  Zn  Zn1  1  0.06001000  0.78512000  0.14819000  1.0
  H  H2  1  0.92845000  0.14997000  0.37142000  1.0
  H  H3  1  0.07155000  0.85004000  0.62858000  1.0
  H  H4  1  0.94839000  0.31652000  0.33580000  1.0
  H  H5  1  0.05162000  0.68348000  0.66420000  1.0
  H  H6  1  0.13007000  0.11672000  0.44880000  1.0
  H  H7  1  0.86993000  0.88327000  0.55120000  1.0
  H  H8  1  0.20326000  0.01454000  0.32828000  1.0
  H  H9  1  0.79674000  0.98546000  0.67172000  1.0
  H  H10  1  0.37544000  0.12564000  0.30246000  1.0
  H  H11  1  0.62456000  0.87436000  0.69754000  1.0
  H  H12  1  0.31189000  0.19155000  0.16239000  1.0
  H  H13  1  0.68811000  0.80844000  0.83761000  1.0
  H  H14  1  0.11344000  0.37469000  0.87668000  1.0
  H  H15  1  0.88657000  0.62530000  0.12332000  1.0
  H  H16  1  0.90831000  0.09969000  0.17893000  1.0
  H  H17  1  0.09169000  0.90031000  0.82107000  1.0
  H  H18  1  0.09220000  0.58283000  0.43178000  1.0
  H  H19  1  0.90780000  0.41717000  0.56822000  1.0
  H  H20  1  0.23637000  0.45764000  0.07842000  1.0
  H  H21  1  0.76364000  0.54236000  0.92158000  1.0
  H  H22  1  0.46238000  0.23006000  0.53784000  1.0
  H  H23  1  0.53762000  0.76994000  0.46216000  1.0
  H  H24  1  0.29648000  0.90254000  0.61615000  1.0
  H  H25  1  0.70352000  0.09746000  0.38385000  1.0
  H  H26  1  0.68257000  0.94740000  0.11283000  1.0
  H  H27  1  0.31743000  0.05260000  0.88717000  1.0
  H  H28  1  0.50941000  0.16748000  0.78205000  1.0
  H  H29  1  0.49058000  0.83252000  0.21795000  1.0
  C  C30  1  0.00414000  0.20885000  0.31269000  1.0
  C  C31  1  0.99586000  0.79115000  0.68731000  1.0
  C  C32  1  0.15520000  0.12491000  0.34417000  1.0
  C  C33  1  0.84480000  0.87509000  0.65583000  1.0
  C  C34  1  0.27591000  0.19021000  0.26649000  1.0
  C  C35  1  0.72409000  0.80979000  0.73351000  1.0
  C  C36  1  0.06880000  0.31800000  0.97353000  1.0
  C  C37  1  0.93120000  0.68200000  0.02647000  1.0
  C  C38  1  0.96342000  0.17704000  0.12414000  1.0
  C  C39  1  0.03658000  0.82296000  0.87585000  1.0
  C  C40  1  0.13730000  0.51701000  0.36123000  1.0
  C  C41  1  0.86270000  0.48299000  0.63877000  1.0
  C  C42  1  0.21023000  0.45818000  0.17955000  1.0
  C  C43  1  0.78978000  0.54181000  0.82045000  1.0
  C  C44  1  0.36546000  0.07418000  0.58628000  1.0
  C  C45  1  0.63454000  0.92582000  0.41372000  1.0
  C  C46  1  0.48054000  0.12896000  0.52058000  1.0
  C  C47  1  0.51946000  0.87104000  0.47941000  1.0
  C  C48  1  0.38639000  0.94444000  0.56496000  1.0
  C  C49  1  0.61361000  0.05556000  0.43504000  1.0
  C  C50  1  0.22251000  0.15616000  0.67707000  1.0
  C  C51  1  0.77749000  0.84383000  0.32294000  1.0
  C  C52  1  0.60773000  0.06387000  0.94131000  1.0
  C  C53  1  0.39226000  0.93613000  0.05869000  1.0
  C  C54  1  0.60214000  0.96965000  0.06426000  1.0
  C  C55  1  0.39785000  0.03035000  0.93575000  1.0
  C  C56  1  0.50437000  0.09426000  0.87760000  1.0
  C  C57  1  0.49563000  0.90575000  0.12240000  1.0
  C  C58  1  0.72697000  0.12744000  0.87617000  1.0
  C  C59  1  0.27302000  0.87256000  0.12383000  1.0
  N  N60  1  0.01547000  0.23068000  0.17629000  1.0
  N  N61  1  0.98453000  0.76933000  0.82371000  1.0
  N  N62  1  0.08223000  0.32148000  0.08143000  1.0
  N  N63  1  0.91777000  0.67852000  0.91857000  1.0
  N  N64  1  0.99547000  0.23137000  0.99520000  1.0
  N  N65  1  0.00453000  0.76863000  0.00480000  1.0
  N  N66  1  0.22416000  0.33930000  0.27580000  1.0
  N  N67  1  0.77584000  0.66070000  0.72420000  1.0
  N  N68  1  0.17754000  0.37476000  0.39279000  1.0
  N  N69  1  0.82246000  0.62524000  0.60721000  1.0
  N  N70  1  0.15485000  0.57328000  0.23071000  1.0
  N  N71  1  0.84515000  0.42671000  0.76929000  1.0
  O  O72  1  0.11790000  0.10161000  0.72960000  1.0
  O  O73  1  0.88210000  0.89839000  0.27040000  1.0
  O  O74  1  0.20941000  0.26772000  0.69914000  1.0
  O  O75  1  0.79059000  0.73228000  0.30086000  1.0
  O  O76  1  0.79052000  0.12500000  0.95377000  1.0
  O  O77  1  0.20947000  0.87499000  0.04623000  1.0
  O  O78  1  0.76200000  0.17537000  0.75525000  1.0
  O  O79  1  0.23800000  0.82463000  0.24475000  1.0
