# generated using pymatgen
data_Cu3P4H20C14(NO8)2
_symmetry_space_group_name_H-M   'P 1'
_cell_length_a   6.20135000
_cell_length_b   12.70770000
_cell_length_c   15.25750000
_cell_angle_alpha   106.74900000
_cell_angle_beta   89.99980000
_cell_angle_gamma   90.00000000
_symmetry_Int_Tables_number   1
_chemical_formula_structural   Cu3P4H20C14(NO8)2
_chemical_formula_sum   'Cu6 P8 H40 C28 N4 O32'
_cell_volume   1151.35699907
_cell_formula_units_Z   2
loop_
 _symmetry_equiv_pos_site_id
 _symmetry_equiv_pos_as_xyz
  1  'x, y, z'
loop_
 _atom_site_type_symbol
 _atom_site_label
 _atom_site_symmetry_multiplicity
 _atom_site_fract_x
 _atom_site_fract_y
 _atom_site_fract_z
 _atom_site_occupancy
  Cu  Cu0  1  0.00037000  0.00004000  0.00009000  1.0
  Cu  Cu1  1  0.49964000  0.00004000  0.50008000  1.0
  Cu  Cu2  1  0.61902000  0.70037000  0.97645000  1.0
  Cu  Cu3  1  0.11880000  0.29979000  0.52349000  1.0
  Cu  Cu4  1  0.38121000  0.29980000  0.02349000  1.0
  Cu  Cu5  1  0.88098000  0.70036000  0.47644000  1.0
  P  P6  1  0.11993000  0.76261000  0.00569000  1.0
  P  P7  1  0.61976000  0.23716000  0.49434000  1.0
  P  P8  1  0.88024000  0.23717000  0.99434000  1.0
  P  P9  1  0.38007000  0.76260000  0.50569000  1.0
  P  P10  1  0.81700000  0.88919000  0.14637000  1.0
  P  P11  1  0.31652000  0.11107000  0.35369000  1.0
  P  P12  1  0.18348000  0.11107000  0.85369000  1.0
  P  P13  1  0.68300000  0.88919000  0.64637000  1.0
  H  H14  1  0.68426000  0.43465000  0.15871000  1.0
  H  H15  1  0.18431000  0.56541000  0.34120000  1.0
  H  H16  1  0.31567000  0.56542000  0.84121000  1.0
  H  H17  1  0.81575000  0.43464000  0.65871000  1.0
  H  H18  1  0.68276000  0.62197000  0.27421000  1.0
  H  H19  1  0.18299000  0.37802000  0.22580000  1.0
  H  H20  1  0.31699000  0.37802000  0.72581000  1.0
  H  H21  1  0.81725000  0.62196000  0.77421000  1.0
  H  H22  1  0.37159000  0.74736000  0.27700000  1.0
  H  H23  1  0.87193000  0.25260000  0.22305000  1.0
  H  H24  1  0.62806000  0.25261000  0.72305000  1.0
  H  H25  1  0.12842000  0.74735000  0.77700000  1.0
  H  H26  1  0.08328000  0.48752000  0.06221000  1.0
  H  H27  1  0.58332000  0.51253000  0.43766000  1.0
  H  H28  1  0.91667000  0.51254000  0.93767000  1.0
  H  H29  1  0.41671000  0.48751000  0.56221000  1.0
  H  H30  1  0.95259000  0.73127000  0.23487000  1.0
  H  H31  1  0.45280000  0.26874000  0.26514000  1.0
  H  H32  1  0.04720000  0.26874000  0.76514000  1.0
  H  H33  1  0.54741000  0.73127000  0.73487000  1.0
  H  H34  1  0.88527000  0.65177000  0.12224000  1.0
  H  H35  1  0.38544000  0.34829000  0.37775000  1.0
  H  H36  1  0.11455000  0.34830000  0.87775000  1.0
  H  H37  1  0.61473000  0.65177000  0.62224000  1.0
  H  H38  1  0.75144000  0.01190000  0.28128000  1.0
  H  H39  1  0.25166000  0.98804000  0.21884000  1.0
  H  H40  1  0.24834000  0.98804000  0.71884000  1.0
  H  H41  1  0.74856000  0.01190000  0.78128000  1.0
  H  H42  1  0.37916000  0.84010000  0.14651000  1.0
  H  H43  1  0.87902000  0.15993000  0.35332000  1.0
  H  H44  1  0.62098000  0.15993000  0.85331000  1.0
  H  H45  1  0.12084000  0.84009000  0.64651000  1.0
  H  H46  1  0.41807000  0.85825000  0.91416000  1.0
  H  H47  1  0.91808000  0.14166000  0.58582000  1.0
  H  H48  1  0.58192000  0.14166000  0.08582000  1.0
  H  H49  1  0.08192000  0.85824000  0.41415000  1.0
  H  H50  1  0.62583000  0.86651000  0.85543000  1.0
  H  H51  1  0.12584000  0.13344000  0.64457000  1.0
  H  H52  1  0.37416000  0.13344000  0.14456000  1.0
  H  H53  1  0.87416000  0.86651000  0.35543000  1.0
  C  C54  1  0.55130000  0.49186000  0.16394000  1.0
  C  C55  1  0.05143000  0.50817000  0.33602000  1.0
  C  C56  1  0.44856000  0.50818000  0.83602000  1.0
  C  C57  1  0.94869000  0.49185000  0.66394000  1.0
  C  C58  1  0.55037000  0.59613000  0.22619000  1.0
  C  C59  1  0.05059000  0.40387000  0.27383000  1.0
  C  C60  1  0.44940000  0.40388000  0.77384000  1.0
  C  C61  1  0.94963000  0.59612000  0.72619000  1.0
  C  C62  1  0.37647000  0.66593000  0.22779000  1.0
  C  C63  1  0.87672000  0.33403000  0.27225000  1.0
  C  C64  1  0.62326000  0.33404000  0.77225000  1.0
  C  C65  1  0.12354000  0.66593000  0.72779000  1.0
  C  C66  1  0.20651000  0.62980000  0.16602000  1.0
  C  C67  1  0.70671000  0.37019000  0.33400000  1.0
  C  C68  1  0.79329000  0.37019000  0.83400000  1.0
  C  C69  1  0.29349000  0.62979000  0.66602000  1.0
  C  C70  1  0.21625000  0.52265000  0.10794000  1.0
  C  C71  1  0.71636000  0.47738000  0.39198000  1.0
  C  C72  1  0.78362000  0.47739000  0.89199000  1.0
  C  C73  1  0.28376000  0.52264000  0.60794000  1.0
  C  C74  1  0.01388000  0.70056000  0.16446000  1.0
  C  C75  1  0.51405000  0.29945000  0.33556000  1.0
  C  C76  1  0.98594000  0.29945000  0.83556000  1.0
  C  C77  1  0.48612000  0.70056000  0.66446000  1.0
  C  C78  1  0.05971000  0.80137000  0.12966000  1.0
  C  C79  1  0.55962000  0.19864000  0.37037000  1.0
  C  C80  1  0.94038000  0.19864000  0.87037000  1.0
  C  C81  1  0.44029000  0.80136000  0.62966000  1.0
  N  N82  1  0.38403000  0.45550000  0.10694000  1.0
  N  N83  1  0.88404000  0.54457000  0.39295000  1.0
  N  N84  1  0.61595000  0.54458000  0.89295000  1.0
  N  N85  1  0.11597000  0.45548000  0.60694000  1.0
  O  O86  1  0.31309000  0.68463000  0.99077000  1.0
  O  O87  1  0.81272000  0.31530000  0.50961000  1.0
  O  O88  1  0.68729000  0.31530000  0.00961000  1.0
  O  O89  1  0.18692000  0.68462000  0.49077000  1.0
  O  O90  1  0.17747000  0.87021000  0.98327000  1.0
  O  O91  1  0.67794000  0.12942000  0.51643000  1.0
  O  O92  1  0.82207000  0.12942000  0.01643000  1.0
  O  O93  1  0.32253000  0.87020000  0.48327000  1.0
  O  O94  1  0.92435000  0.70221000  0.95397000  1.0
  O  O95  1  0.42392000  0.29714000  0.54612000  1.0
  O  O96  1  0.07609000  0.29714000  0.04612000  1.0
  O  O97  1  0.57566000  0.70221000  0.45396000  1.0
  O  O98  1  0.62767000  0.81480000  0.10193000  1.0
  O  O99  1  0.12735000  0.18585000  0.39773000  1.0
  O  O100  1  0.37266000  0.18585000  0.89772000  1.0
  O  O101  1  0.87233000  0.81479000  0.60193000  1.0
  O  O102  1  0.86083000  0.98834000  0.11210000  1.0
  O  O103  1  0.35947000  0.01209000  0.38826000  1.0
  O  O104  1  0.14054000  0.01210000  0.88826000  1.0
  O  O105  1  0.63917000  0.98833000  0.61210000  1.0
  O  O106  1  0.77750000  0.92855000  0.25354000  1.0
  O  O107  1  0.27732000  0.07141000  0.24650000  1.0
  O  O108  1  0.22268000  0.07141000  0.74650000  1.0
  O  O109  1  0.72250000  0.92854000  0.75353000  1.0
  O  O110  1  0.23740000  0.86495000  0.17836000  1.0
  O  O111  1  0.73712000  0.13493000  0.32162000  1.0
  O  O112  1  0.76289000  0.13493000  0.82162000  1.0
  O  O113  1  0.26260000  0.86495000  0.67836000  1.0
  O  O114  1  0.55391000  0.82113000  0.88865000  1.0
  O  O115  1  0.05386000  0.17882000  0.61136000  1.0
  O  O116  1  0.44615000  0.17882000  0.11136000  1.0
  O  O117  1  0.94608000  0.82112000  0.38865000  1.0
