# generated using pymatgen
data_Al4H19C32O24F
_symmetry_space_group_name_H-M   'P 1'
_cell_length_a   6.72587000
_cell_length_b   14.07190000
_cell_length_c   15.97370000
_cell_angle_alpha   89.08460000
_cell_angle_beta   89.29820000
_cell_angle_gamma   88.28180000
_symmetry_Int_Tables_number   1
_chemical_formula_structural   Al4H19C32O24F
_chemical_formula_sum   'Al4 H19 C32 O24 F1'
_cell_volume   1510.86575536
_cell_formula_units_Z   1
loop_
 _symmetry_equiv_pos_site_id
 _symmetry_equiv_pos_as_xyz
  1  'x, y, z'
loop_
 _atom_site_type_symbol
 _atom_site_label
 _atom_site_symmetry_multiplicity
 _atom_site_fract_x
 _atom_site_fract_y
 _atom_site_fract_z
 _atom_site_occupancy
  Al  Al0  1  0.90444000  0.50094000  0.50007000  1.0
  Al  Al1  1  0.40402000  0.50190000  0.49854000  1.0
  Al  Al2  1  0.36363000  0.00593000  0.00056000  1.0
  Al  Al3  1  0.86638000  0.00268000  0.99958000  1.0
  H  H4  1  0.43539000  0.79688000  0.81612000  1.0
  H  H5  1  0.97898000  0.80100000  0.80002000  1.0
  H  H6  1  0.44459000  0.68183000  0.70106000  1.0
  H  H7  1  0.98714000  0.70331000  0.69775000  1.0
  H  H8  1  0.83581000  0.78070000  0.16427000  1.0
  H  H9  1  0.84535000  0.65805000  0.28040000  1.0
  H  H10  1  0.43226000  0.74285000  0.34460000  1.0
  H  H11  1  0.42299000  0.86508000  0.22818000  1.0
  H  H12  1  0.91828000  0.36576000  0.74359000  1.0
  H  H13  1  0.34099000  0.15258000  0.76554000  1.0
  H  H14  1  0.36690000  0.27022000  0.64590000  1.0
  H  H15  1  0.31501000  0.19352000  0.21271000  1.0
  H  H16  1  0.34144000  0.31205000  0.32445000  1.0
  H  H17  1  0.93488000  0.27606000  0.00568000  1.0
  H  H18  1  0.20296000  0.18259000  0.08766000  1.0
  H  H19  1  0.64968000  0.62325000  0.47448000  1.0
  H  H20  1  0.15974000  0.38377000  0.46540000  1.0
  H  H21  1  0.61530000  0.88222000  0.98512000  1.0
  H  H22  1  0.11262000  0.11539000  0.95027000  1.0
  C  C23  1  0.66139000  0.38821000  0.61273000  1.0
  C  C24  1  0.65930000  0.39071000  0.38439000  1.0
  C  C25  1  0.14267000  0.62114000  0.38842000  1.0
  C  C26  1  0.15139000  0.61051000  0.61287000  1.0
  C  C27  1  0.29339000  0.77710000  0.78986000  1.0
  C  C28  1  0.12595000  0.81686000  0.82324000  1.0
  C  C29  1  0.29908000  0.70986000  0.72174000  1.0
  C  C30  1  0.13807000  0.67882000  0.68186000  1.0
  C  C31  1  0.96514000  0.77181000  0.20438000  1.0
  C  C32  1  0.97039000  0.70409000  0.26867000  1.0
  C  C33  1  0.13927000  0.69352000  0.31909000  1.0
  C  C34  1  0.30271000  0.75147000  0.30460000  1.0
  C  C35  1  0.29781000  0.81916000  0.24020000  1.0
  C  C36  1  0.12897000  0.82944000  0.18982000  1.0
  C  C37  1  0.79194000  0.31922000  0.74897000  1.0
  C  C38  1  0.77193000  0.25778000  0.81779000  1.0
  C  C39  1  0.61180000  0.19525000  0.82152000  1.0
  C  C40  1  0.46560000  0.19998000  0.76005000  1.0
  C  C41  1  0.48091000  0.26448000  0.69370000  1.0
  C  C42  1  0.64636000  0.32244000  0.68678000  1.0
  C  C43  1  0.82448000  0.28782000  0.26905000  1.0
  C  C44  1  0.81211000  0.22320000  0.20404000  1.0
  C  C45  1  0.62435000  0.19240000  0.18049000  1.0
  C  C46  1  0.45678000  0.22373000  0.22559000  1.0
  C  C47  1  0.47300000  0.28760000  0.29002000  1.0
  C  C48  1  0.65707000  0.32251000  0.31320000  1.0
  C  C49  1  0.61024000  0.12470000  0.10963000  1.0
  C  C50  1  0.60637000  0.11904000  0.88709000  1.0
  C  C51  1  0.12342000  0.88422000  0.89283000  1.0
  C  C52  1  0.12531000  0.89961000  0.11906000  1.0
  C  C53  1  0.91947000  0.25838000  0.88749000  1.0
  C  C54  1  0.99976000  0.17691000  0.17118000  1.0
  O  O55  1  0.48892000  0.42557000  0.40502000  1.0
  O  O56  1  0.83072000  0.42091000  0.59357000  1.0
  O  O57  1  0.98639000  0.59203000  0.57880000  1.0
  O  O58  1  0.82371000  0.40696000  0.41930000  1.0
  O  O59  1  0.97639000  0.58553000  0.40886000  1.0
  O  O60  1  0.50065000  0.40522000  0.57326000  1.0
  O  O61  1  0.65122000  0.55956000  0.49844000  1.0
  O  O62  1  0.31015000  0.60123000  0.42230000  1.0
  O  O63  1  0.32193000  0.57614000  0.59204000  1.0
  O  O64  1  0.15771000  0.44252000  0.49633000  1.0
  O  O65  1  0.77476000  0.09214000  0.91632000  1.0
  O  O66  1  0.44074000  0.10872000  0.07787000  1.0
  O  O67  1  0.29038000  0.93465000  0.09670000  1.0
  O  O68  1  0.43896000  0.08557000  0.90769000  1.0
  O  O69  1  0.28778000  0.90627000  0.92565000  1.0
  O  O70  1  0.77435000  0.08793000  0.08474000  1.0
  O  O71  1  0.61651000  0.94744000  0.00361000  1.0
  O  O72  1  0.94955000  0.91495000  0.91491000  1.0
  O  O73  1  0.95832000  0.91746000  0.08451000  1.0
  O  O74  1  0.11163000  0.06439000  0.99278000  1.0
  O  O75  1  0.09695000  0.23753000  0.87922000  1.0
  O  O76  1  0.83568000  0.28613000  0.96072000  1.0
  O  O77  1  0.07662000  0.10893000  0.20810000  1.0
  O  O78  1  0.08258000  0.22171000  0.10442000  1.0
  F  F79  1  0.00918000  0.31644000  0.28874000  1.0
