# generated using pymatgen
data_ZnH24C12S2(NO4)2
_symmetry_space_group_name_H-M   'P 1'
_cell_length_a   8.82874000
_cell_length_b   10.74550000
_cell_length_c   14.66820000
_cell_angle_alpha   91.92430000
_cell_angle_beta   92.10690000
_cell_angle_gamma   90.70350000
_symmetry_Int_Tables_number   1
_chemical_formula_structural   ZnH24C12S2(NO4)2
_chemical_formula_sum   'Zn3 H72 C36 S6 N6 O24'
_cell_volume   1389.70861808
_cell_formula_units_Z   3
loop_
 _symmetry_equiv_pos_site_id
 _symmetry_equiv_pos_as_xyz
  1  'x, y, z'
loop_
 _atom_site_type_symbol
 _atom_site_label
 _atom_site_symmetry_multiplicity
 _atom_site_fract_x
 _atom_site_fract_y
 _atom_site_fract_z
 _atom_site_occupancy
  Zn  Zn0  1  0.19602000  0.39391000  0.30403000  1.0
  Zn  Zn1  1  0.80398000  0.60609000  0.69597000  1.0
  Zn  Zn2  1  0.00000000  0.00000000  0.00000000  1.0
  H  H3  1  0.89335000  0.28523000  0.33711000  1.0
  H  H4  1  0.10665000  0.71477000  0.66289000  1.0
  H  H5  1  0.59195000  0.32306000  0.46532000  1.0
  H  H6  1  0.40805000  0.67694000  0.53468000  1.0
  H  H7  1  0.65961000  0.24697000  0.36502000  1.0
  H  H8  1  0.34039000  0.75303000  0.63498000  1.0
  H  H9  1  0.54225000  0.38106000  0.35629000  1.0
  H  H10  1  0.45775000  0.61895000  0.64371000  1.0
  H  H11  1  0.68874000  0.53776000  0.50329000  1.0
  H  H12  1  0.31126000  0.46224000  0.49671000  1.0
  H  H13  1  0.67984000  0.59850000  0.39145000  1.0
  H  H14  1  0.32016000  0.40150000  0.60855000  1.0
  H  H15  1  0.85900000  0.58837000  0.45226000  1.0
  H  H16  1  0.14100000  0.41163000  0.54774000  1.0
  H  H17  1  0.91399000  0.32449000  0.99825000  1.0
  H  H18  1  0.08601000  0.67551000  0.00175000  1.0
  H  H19  1  0.00817000  0.53588000  0.13534000  1.0
  H  H20  1  0.99183000  0.46412000  0.86466000  1.0
  H  H21  1  0.82754000  0.46061000  0.12742000  1.0
  H  H22  1  0.17246000  0.53939000  0.87258000  1.0
  H  H23  1  0.17666000  0.33541000  0.94921000  1.0
  H  H24  1  0.82334000  0.66459000  0.05079000  1.0
  H  H25  1  0.21900000  0.46083000  0.02879000  1.0
  H  H26  1  0.78100000  0.53918000  0.97121000  1.0
  H  H27  1  0.17150000  0.02230000  0.31870000  1.0
  H  H28  1  0.82850000  0.97770000  0.68130000  1.0
  H  H29  1  0.12508000  0.91728000  0.46705000  1.0
  H  H30  1  0.87491000  0.08272000  0.53295000  1.0
  H  H31  1  0.32420000  0.90760000  0.48677000  1.0
  H  H32  1  0.67580000  0.09239000  0.51323000  1.0
  H  H33  1  0.21322000  0.70647000  0.42059000  1.0
  H  H34  1  0.78678000  0.29353000  0.57941000  1.0
  H  H35  1  0.14030000  0.78470000  0.32522000  1.0
  H  H36  1  0.85970000  0.21530000  0.67479000  1.0
  H  H37  1  0.47679000  0.75740000  0.37812000  1.0
  H  H38  1  0.52321000  0.24259000  0.62188000  1.0
  H  H39  1  0.32956000  0.88497000  0.21387000  1.0
  H  H40  1  0.67044000  0.11502000  0.78613000  1.0
  H  H41  1  0.52642000  0.86955000  0.23763000  1.0
  H  H42  1  0.47358000  0.13045000  0.76237000  1.0
  H  H43  1  0.50493000  0.00198000  0.38113000  1.0
  H  H44  1  0.49507000  0.99802000  0.61887000  1.0
  H  H45  1  0.43696000  0.08237000  0.28422000  1.0
  H  H46  1  0.56304000  0.91763000  0.71578000  1.0
  H  H47  1  0.94535000  0.04331000  0.19406000  1.0
  H  H48  1  0.05465000  0.95669000  0.80594000  1.0
  H  H49  1  0.90222000  0.70957000  0.31817000  1.0
  H  H50  1  0.09778000  0.29043000  0.68183000  1.0
  H  H51  1  0.96215000  0.70659000  0.20321000  1.0
  H  H52  1  0.03785000  0.29341000  0.79679000  1.0
  H  H53  1  0.76363000  0.71283000  0.22690000  1.0
  H  H54  1  0.23637000  0.28717000  0.77310000  1.0
  H  H55  1  0.72030000  0.92336000  0.34492000  1.0
  H  H56  1  0.27970000  0.07664000  0.65508000  1.0
  H  H57  1  0.85294000  0.04673000  0.32519000  1.0
  H  H58  1  0.14706000  0.95326000  0.67481000  1.0
  H  H59  1  0.90495000  0.91906000  0.39452000  1.0
  H  H60  1  0.09505000  0.08094000  0.60548000  1.0
  H  H61  1  0.25730000  0.81556000  0.06544000  1.0
  H  H62  1  0.74269000  0.18444000  0.93457000  1.0
  H  H63  1  0.51517000  0.63670000  0.95773000  1.0
  H  H64  1  0.48483000  0.36330000  0.04227000  1.0
  H  H65  1  0.43780000  0.67836000  0.06586000  1.0
  H  H66  1  0.56219000  0.32164000  0.93414000  1.0
  H  H67  1  0.61097000  0.74856000  0.03225000  1.0
  H  H68  1  0.38903000  0.25144000  0.96775000  1.0
  H  H69  1  0.59426000  0.86686000  0.88592000  1.0
  H  H70  1  0.40574000  0.13314000  0.11409000  1.0
  H  H71  1  0.41915000  0.94867000  0.86743000  1.0
  H  H72  1  0.58085000  0.05133000  0.13257000  1.0
  H  H73  1  0.43853000  0.79249000  0.82355000  1.0
  H  H74  1  0.56147000  0.20751000  0.17645000  1.0
  C  C75  1  0.89373000  0.38145000  0.36421000  1.0
  C  C76  1  0.10627000  0.61855000  0.63579000  1.0
  C  C77  1  0.63265000  0.33743000  0.39663000  1.0
  C  C78  1  0.36735000  0.66257000  0.60337000  1.0
  C  C79  1  0.74808000  0.54365000  0.43916000  1.0
  C  C80  1  0.25192000  0.45635000  0.56083000  1.0
  C  C81  1  0.99785000  0.37804000  0.04152000  1.0
  C  C82  1  0.00215000  0.62196000  0.95848000  1.0
  C  C83  1  0.92390000  0.49027000  0.08776000  1.0
  C  C84  1  0.07610000  0.50973000  0.91224000  1.0
  C  C85  1  0.12954000  0.41754000  0.98362000  1.0
  C  C86  1  0.87046000  0.58246000  0.01638000  1.0
  C  C87  1  0.26280000  0.01707000  0.37169000  1.0
  C  C88  1  0.73720000  0.98293000  0.62831000  1.0
  C  C89  1  0.23345000  0.90803000  0.43326000  1.0
  C  C90  1  0.76655000  0.09196000  0.56674000  1.0
  C  C91  1  0.23363000  0.78529000  0.37679000  1.0
  C  C92  1  0.76637000  0.21471000  0.62321000  1.0
  C  C93  1  0.38271000  0.76944000  0.32796000  1.0
  C  C94  1  0.61730000  0.23056000  0.67204000  1.0
  C  C95  1  0.41654000  0.88115000  0.26953000  1.0
  C  C96  1  0.58347000  0.11886000  0.73047000  1.0
  C  C97  1  0.41537000  0.00286000  0.32699000  1.0
  C  C98  1  0.58463000  0.99714000  0.67301000  1.0
  C  C99  1  0.94656000  0.94130000  0.18452000  1.0
  C  C100  1  0.05344000  0.05870000  0.81548000  1.0
  C  C101  1  0.87853000  0.74389000  0.24969000  1.0
  C  C102  1  0.12147000  0.25611000  0.75031000  1.0
  C  C103  1  0.83917000  0.94635000  0.33371000  1.0
  C  C104  1  0.16083000  0.05365000  0.66630000  1.0
  C  C105  1  0.29026000  0.85831000  0.00161000  1.0
  C  C106  1  0.70974000  0.14169000  0.99839000  1.0
  C  C107  1  0.49894000  0.71304000  0.00806000  1.0
  C  C108  1  0.50106000  0.28696000  0.99194000  1.0
  C  C109  1  0.47019000  0.85834000  0.88034000  1.0
  C  C110  1  0.52981000  0.14166000  0.11966000  1.0
  S  S111  1  0.05985000  0.26976000  0.12584000  1.0
  S  S112  1  0.94015000  0.73024000  0.87416000  1.0
  S  S113  1  0.25090000  0.16417000  0.43369000  1.0
  S  S114  1  0.74909000  0.83583000  0.56631000  1.0
  S  S115  1  0.38009000  0.62856000  0.25738000  1.0
  S  S116  1  0.61991000  0.37144000  0.74262000  1.0
  N  N117  1  0.76672000  0.41808000  0.40095000  1.0
  N  N118  1  0.23328000  0.58192000  0.59905000  1.0
  N  N119  1  0.89094000  0.87942000  0.25303000  1.0
  N  N120  1  0.10906000  0.12058000  0.74697000  1.0
  N  N121  1  0.41451000  0.81227000  0.96526000  1.0
  N  N122  1  0.58549000  0.18773000  0.03474000  1.0
  O  O123  1  0.00948000  0.45242000  0.35870000  1.0
  O  O124  1  0.99052000  0.54758000  0.64130000  1.0
  O  O125  1  0.19265000  0.33347000  0.17571000  1.0
  O  O126  1  0.80735000  0.66654000  0.82429000  1.0
  O  O127  1  0.93405000  0.24730000  0.18549000  1.0
  O  O128  1  0.06595000  0.75270000  0.81451000  1.0
  O  O129  1  0.11464000  0.15746000  0.07743000  1.0
  O  O130  1  0.88536000  0.84254000  0.92257000  1.0
  O  O131  1  0.29899000  0.25758000  0.36539000  1.0
  O  O132  1  0.70101000  0.74242000  0.63461000  1.0
  O  O133  1  0.36136000  0.16340000  0.51023000  1.0
  O  O134  1  0.63864000  0.83661000  0.48977000  1.0
  O  O135  1  0.09270000  0.18037000  0.45749000  1.0
  O  O136  1  0.90730000  0.81963000  0.54250000  1.0
  O  O137  1  0.25829000  0.63797000  0.18749000  1.0
  O  O138  1  0.74171000  0.36203000  0.81251000  1.0
  O  O139  1  0.53192000  0.61218000  0.22302000  1.0
  O  O140  1  0.46808000  0.38782000  0.77697000  1.0
  O  O141  1  0.34510000  0.52890000  0.32490000  1.0
  O  O142  1  0.65490000  0.47110000  0.67510000  1.0
  O  O143  1  0.99664000  0.88957000  0.11323000  1.0
  O  O144  1  0.00335000  0.11043000  0.88677000  1.0
  O  O145  1  0.21493000  0.94442000  0.96632000  1.0
  O  O146  1  0.78507000  0.05558000  0.03368000  1.0
