# generated using pymatgen
data_AgH6(C5N2)2
_symmetry_space_group_name_H-M   'P 1'
_cell_length_a   5.23050000
_cell_length_b   7.79699000
_cell_length_c   24.34810000
_cell_angle_alpha   97.14110000
_cell_angle_beta   93.12340000
_cell_angle_gamma   103.95700000
_symmetry_Int_Tables_number   1
_chemical_formula_structural   AgH6(C5N2)2
_chemical_formula_sum   'Ag4 H24 C40 N16'
_cell_volume   952.49167380
_cell_formula_units_Z   4
loop_
 _symmetry_equiv_pos_site_id
 _symmetry_equiv_pos_as_xyz
  1  'x, y, z'
loop_
 _atom_site_type_symbol
 _atom_site_label
 _atom_site_symmetry_multiplicity
 _atom_site_fract_x
 _atom_site_fract_y
 _atom_site_fract_z
 _atom_site_occupancy
  Ag  Ag0  1  0.72737000  0.35766000  0.54439000  1.0
  Ag  Ag1  1  0.27263000  0.64234000  0.45562000  1.0
  Ag  Ag2  1  0.20298000  0.32967000  0.95452000  1.0
  Ag  Ag3  1  0.79702000  0.67033000  0.04548000  1.0
  H  H4  1  0.25796000  0.02578000  0.48367000  1.0
  H  H5  1  0.74204000  0.97422000  0.51633000  1.0
  H  H6  1  0.95532000  0.91752000  0.39642000  1.0
  H  H7  1  0.04468000  0.08248000  0.60358000  1.0
  H  H8  1  0.56808000  0.21205000  0.30791000  1.0
  H  H9  1  0.43192000  0.78795000  0.69209000  1.0
  H  H10  1  0.85298000  0.29759000  0.39852000  1.0
  H  H11  1  0.14702000  0.70241000  0.60148000  1.0
  H  H12  1  0.64645000  0.97700000  0.10900000  1.0
  H  H13  1  0.35355000  0.02301000  0.89100000  1.0
  H  H14  1  0.77568000  0.09884000  0.02110000  1.0
  H  H15  1  0.22432000  0.90116000  0.97890000  1.0
  H  H16  1  0.53636000  0.34003000  0.09057000  1.0
  H  H17  1  0.46364000  0.65997000  0.90943000  1.0
  H  H18  1  0.43772000  0.23030000  0.18212000  1.0
  H  H19  1  0.56229000  0.76971000  0.81788000  1.0
  H  H20  1  0.27249000  0.71682000  0.16509000  1.0
  H  H21  1  0.72750000  0.28317000  0.83491000  1.0
  H  H22  1  0.84713000  0.49190000  0.16817000  1.0
  H  H23  1  0.15286000  0.50810000  0.83183000  1.0
  H  H24  1  0.05731000  0.41785000  0.32846000  1.0
  H  H25  1  0.94270000  0.58216000  0.67154000  1.0
  H  H26  1  0.48852000  0.64277000  0.33249000  1.0
  H  H27  1  0.51148000  0.35724000  0.66750000  1.0
  C  C28  1  0.35083000  0.37036000  0.55350000  1.0
  C  C29  1  0.64916000  0.62964000  0.44650000  1.0
  C  C30  1  0.81935000  0.33438000  0.94444000  1.0
  C  C31  1  0.18065000  0.66562000  0.05556000  1.0
  C  C32  1  0.32220000  0.06153000  0.44375000  1.0
  C  C33  1  0.67780000  0.93847000  0.55625000  1.0
  C  C34  1  0.15244000  0.00276000  0.39555000  1.0
  C  C35  1  0.84756000  0.99724000  0.60445000  1.0
  C  C36  1  0.23933000  0.05579000  0.34546000  1.0
  C  C37  1  0.76067000  0.94420000  0.65454000  1.0
  C  C38  1  0.49532000  0.16521000  0.34592000  1.0
  C  C39  1  0.50468000  0.83479000  0.65408000  1.0
  C  C40  1  0.65208000  0.21346000  0.39626000  1.0
  C  C41  1  0.34792000  0.78654000  0.60374000  1.0
  C  C42  1  0.06023000  0.99755000  0.29386000  1.0
  C  C43  1  0.93977000  0.00244000  0.70614000  1.0
  C  C44  1  0.66876000  0.83344000  0.24906000  1.0
  C  C45  1  0.33125000  0.16656000  0.75094000  1.0
  C  C46  1  0.96168000  0.01814000  0.20356000  1.0
  C  C47  1  0.03832000  0.98186000  0.79644000  1.0
  C  C48  1  0.03383000  0.09232000  0.15191000  1.0
  C  C49  1  0.96617000  0.90768000  0.84809000  1.0
  C  C50  1  0.84584000  0.05587000  0.10606000  1.0
  C  C51  1  0.15417000  0.94414000  0.89394000  1.0
  C  C52  1  0.91842000  0.12372000  0.05743000  1.0
  C  C53  1  0.08158000  0.87628000  0.94257000  1.0
  C  C54  1  0.34125000  0.25780000  0.09627000  1.0
  C  C55  1  0.65875000  0.74220000  0.90373000  1.0
  C  C56  1  0.28745000  0.19744000  0.14701000  1.0
  C  C57  1  0.71256000  0.80256000  0.85299000  1.0
  C  C58  1  0.41474000  0.69872000  0.24888000  1.0
  C  C59  1  0.58526000  0.30128000  0.75112000  1.0
  C  C60  1  0.23029000  0.65415000  0.20220000  1.0
  C  C61  1  0.76971000  0.34584000  0.79780000  1.0
  C  C62  1  0.99354000  0.52734000  0.20416000  1.0
  C  C63  1  0.00646000  0.47266000  0.79584000  1.0
  C  C64  1  0.10948000  0.48677000  0.29270000  1.0
  C  C65  1  0.89053000  0.51323000  0.70730000  1.0
  C  C66  1  0.35135000  0.61236000  0.29529000  1.0
  C  C67  1  0.64866000  0.38764000  0.70471000  1.0
  N  N68  1  0.12602000  0.36875000  0.55199000  1.0
  N  N69  1  0.87398000  0.63125000  0.44801000  1.0
  N  N70  1  0.59522000  0.33303000  0.94564000  1.0
  N  N71  1  0.40478000  0.66698000  0.05436000  1.0
  N  N72  1  0.56937000  0.16435000  0.44457000  1.0
  N  N73  1  0.43063000  0.83565000  0.55544000  1.0
  N  N74  1  0.82919000  0.87842000  0.29634000  1.0
  N  N75  1  0.17081000  0.12158000  0.70366000  1.0
  N  N76  1  0.72352000  0.90300000  0.20198000  1.0
  N  N77  1  0.27648000  0.09700000  0.79802000  1.0
  N  N78  1  0.13887000  0.06812000  0.24818000  1.0
  N  N79  1  0.86113000  0.93188000  0.75182000  1.0
  N  N80  1  0.16234000  0.22140000  0.05197000  1.0
  N  N81  1  0.83766000  0.77860000  0.94803000  1.0
  N  N82  1  0.93045000  0.44293000  0.24830000  1.0
  N  N83  1  0.06955000  0.55708000  0.75170000  1.0
