# generated using pymatgen
data_Al2H4C18ClO10F3
_symmetry_space_group_name_H-M   'P 1'
_cell_length_a   6.69200000
_cell_length_b   16.77550000
_cell_length_c   18.54880000
_cell_angle_alpha   74.44020000
_cell_angle_beta   89.79470000
_cell_angle_gamma   89.65170000
_symmetry_Int_Tables_number   1
_chemical_formula_structural   Al2H4C18ClO10F3
_chemical_formula_sum   'Al4 H8 C36 Cl2 O20 F6'
_cell_volume   2005.96275233
_cell_formula_units_Z   2
loop_
 _symmetry_equiv_pos_site_id
 _symmetry_equiv_pos_as_xyz
  1  'x, y, z'
loop_
 _atom_site_type_symbol
 _atom_site_label
 _atom_site_symmetry_multiplicity
 _atom_site_fract_x
 _atom_site_fract_y
 _atom_site_fract_z
 _atom_site_occupancy
  Al  Al0  1  0.10514000  0.49965000  0.49955000  1.0
  Al  Al1  1  0.60615000  0.50051000  0.49798000  1.0
  Al  Al2  1  0.62764000  0.00019000  0.99741000  1.0
  Al  Al3  1  0.12770000  0.99884000  0.99899000  1.0
  H  H4  1  0.59513000  0.63961000  0.26209000  1.0
  H  H5  1  0.33614000  0.71575000  0.32896000  1.0
  H  H6  1  0.84435000  0.17068000  0.78910000  1.0
  H  H7  1  0.83831000  0.29675000  0.68142000  1.0
  H  H8  1  0.35341000  0.60295000  0.50246000  1.0
  H  H9  1  0.85336000  0.39022000  0.52185000  1.0
  H  H10  1  0.38248000  0.89466000  0.04123000  1.0
  H  H11  1  0.87713000  0.09801000  0.01221000  1.0
  C  C12  1  0.35476000  0.41037000  0.41684000  1.0
  C  C13  1  0.36008000  0.39375000  0.61580000  1.0
  C  C14  1  0.85618000  0.59151000  0.58008000  1.0
  C  C15  1  0.85326000  0.60696000  0.38244000  1.0
  C  C16  1  0.01492000  0.73299000  0.29741000  1.0
  C  C17  1  0.86227000  0.67447000  0.31141000  1.0
  C  C18  1  0.71726000  0.68370000  0.25558000  1.0
  C  C19  1  0.72792000  0.74856000  0.19005000  1.0
  C  C20  1  0.87529000  0.81041000  0.17626000  1.0
  C  C21  1  0.01762000  0.79902000  0.23327000  1.0
  C  C22  1  0.20027000  0.83645000  0.25981000  1.0
  C  C23  1  0.20696000  0.75658000  0.32903000  1.0
  C  C24  1  0.87964000  0.87087000  0.85526000  1.0
  C  C25  1  0.87577000  0.82729000  0.81175000  1.0
  C  C26  1  0.87036000  0.77926000  0.76454000  1.0
  C  C27  1  0.86397000  0.73462000  0.72148000  1.0
  C  C28  1  0.85814000  0.68630000  0.67451000  1.0
  C  C29  1  0.85343000  0.64226000  0.63138000  1.0
  C  C30  1  0.35801000  0.35943000  0.36559000  1.0
  C  C31  1  0.36254000  0.31562000  0.32224000  1.0
  C  C32  1  0.36677000  0.26758000  0.27496000  1.0
  C  C33  1  0.36999000  0.22323000  0.23159000  1.0
  C  C34  1  0.37262000  0.17551000  0.18402000  1.0
  C  C35  1  0.37463000  0.13228000  0.14016000  1.0
  C  C36  1  0.52102000  0.26900000  0.70361000  1.0
  C  C37  1  0.36547000  0.32676000  0.68731000  1.0
  C  C38  1  0.21487000  0.31337000  0.74187000  1.0
  C  C39  1  0.21874000  0.24608000  0.80626000  1.0
  C  C40  1  0.37322000  0.18685000  0.82077000  1.0
  C  C41  1  0.52429000  0.20192000  0.76668000  1.0
  C  C42  1  0.72623000  0.17119000  0.74827000  1.0
  C  C43  1  0.72603000  0.25091000  0.67755000  1.0
  C  C44  1  0.37520000  0.11433000  0.88813000  1.0
  C  C45  1  0.37593000  0.08400000  0.08667000  1.0
  C  C46  1  0.87758000  0.88238000  0.10839000  1.0
  C  C47  1  0.87872000  0.91911000  0.90879000  1.0
  Cl  Cl48  1  0.75107000  0.23606000  0.58663000  1.0
  Cl  Cl49  1  0.73145000  0.07321000  0.72928000  1.0
  O  O50  1  0.52968000  0.42077000  0.58974000  1.0
  O  O51  1  0.18387000  0.43319000  0.43440000  1.0
  O  O52  1  0.02020000  0.58548000  0.41431000  1.0
  O  O53  1  0.18994000  0.41454000  0.58644000  1.0
  O  O54  1  0.02768000  0.56729000  0.56437000  1.0
  O  O55  1  0.52367000  0.42742000  0.44010000  1.0
  O  O56  1  0.35485000  0.55013000  0.49031000  1.0
  O  O57  1  0.68825000  0.57611000  0.55454000  1.0
  O  O58  1  0.68199000  0.57874000  0.40535000  1.0
  O  O59  1  0.85588000  0.45041000  0.50862000  1.0
  O  O60  1  0.20550000  0.06572000  0.06530000  1.0
  O  O61  1  0.54654000  0.08819000  0.91327000  1.0
  O  O62  1  0.70795000  0.93908000  0.92883000  1.0
  O  O63  1  0.54715000  0.06572000  0.06507000  1.0
  O  O64  1  0.70944000  0.90945000  0.08071000  1.0
  O  O65  1  0.20745000  0.08555000  0.91420000  1.0
  O  O66  1  0.37877000  0.94988000  0.00721000  1.0
  O  O67  1  0.04928000  0.91012000  0.08493000  1.0
  O  O68  1  0.04801000  0.93571000  0.93206000  1.0
  O  O69  1  0.87738000  0.04874000  0.99427000  1.0
  F  F70  1  0.58758000  0.74944000  0.13739000  1.0
  F  F71  1  0.16624000  0.90854000  0.27932000  1.0
  F  F72  1  0.36640000  0.84885000  0.21448000  1.0
  F  F73  1  0.19593000  0.77196000  0.39905000  1.0
  F  F74  1  0.05911000  0.36663000  0.73556000  1.0
  F  F75  1  0.06616000  0.24200000  0.85513000  1.0
