# generated using pymatgen
data_ZnH20C18(NO)6
_symmetry_space_group_name_H-M   'P 1'
_cell_length_a   8.83946000
_cell_length_b   9.21828000
_cell_length_c   12.53020000
_cell_angle_alpha   89.99930000
_cell_angle_beta   89.99970000
_cell_angle_gamma   71.08300000
_symmetry_Int_Tables_number   1
_chemical_formula_structural   ZnH20C18(NO)6
_chemical_formula_sum   'Zn2 H40 C36 N12 O12'
_cell_volume   965.87253231
_cell_formula_units_Z   2
loop_
 _symmetry_equiv_pos_site_id
 _symmetry_equiv_pos_as_xyz
  1  'x, y, z'
loop_
 _atom_site_type_symbol
 _atom_site_label
 _atom_site_symmetry_multiplicity
 _atom_site_fract_x
 _atom_site_fract_y
 _atom_site_fract_z
 _atom_site_occupancy
  Zn  Zn0  1  0.50000000  0.00000000  0.00000000  1.0
  Zn  Zn1  1  0.00000000  0.00000000  0.50000000  1.0
  H  H2  1  0.85949000  0.54487000  0.84074000  1.0
  H  H3  1  0.64050000  0.45514000  0.34074000  1.0
  H  H4  1  0.14051000  0.45514000  0.15926000  1.0
  H  H5  1  0.35949000  0.54486000  0.65925000  1.0
  H  H6  1  0.01827000  0.71892000  0.81355000  1.0
  H  H7  1  0.48172000  0.28110000  0.31355000  1.0
  H  H8  1  0.98173000  0.28109000  0.18646000  1.0
  H  H9  1  0.51827000  0.71891000  0.68644000  1.0
  H  H10  1  0.30850000  0.63741000  0.85347000  1.0
  H  H11  1  0.19149000  0.36260000  0.35347000  1.0
  H  H12  1  0.69151000  0.36258000  0.14655000  1.0
  H  H13  1  0.80850000  0.63741000  0.64654000  1.0
  H  H14  1  0.45230000  0.37252000  0.92319000  1.0
  H  H15  1  0.04769000  0.62749000  0.42319000  1.0
  H  H16  1  0.54770000  0.62747000  0.07682000  1.0
  H  H17  1  0.95231000  0.37252000  0.57681000  1.0
  H  H18  1  0.83874000  0.17401000  0.99050000  1.0
  H  H19  1  0.66125000  0.82599000  0.49050000  1.0
  H  H20  1  0.16125000  0.82598000  0.00950000  1.0
  H  H21  1  0.33875000  0.17400000  0.50950000  1.0
  H  H22  1  0.77890000  0.32665000  0.89724000  1.0
  H  H23  1  0.72110000  0.67335000  0.39724000  1.0
  H  H24  1  0.22109000  0.67334000  0.10275000  1.0
  H  H25  1  0.27890000  0.32665000  0.60275000  1.0
  H  H26  1  0.98224000  0.99880000  0.83651000  1.0
  H  H27  1  0.51777000  0.00122000  0.33651000  1.0
  H  H28  1  0.01776000  0.00120000  0.16348000  1.0
  H  H29  1  0.48224000  0.99879000  0.66349000  1.0
  H  H30  1  0.88065000  0.14340000  0.74702000  1.0
  H  H31  1  0.61935000  0.85662000  0.24702000  1.0
  H  H32  1  0.11935000  0.85660000  0.25297000  1.0
  H  H33  1  0.38066000  0.14339000  0.75298000  1.0
  H  H34  1  0.39387000  0.87756000  0.82228000  1.0
  H  H35  1  0.10614000  0.12243000  0.32227000  1.0
  H  H36  1  0.60613000  0.12244000  0.17772000  1.0
  H  H37  1  0.89388000  0.87756000  0.67772000  1.0
  H  H38  1  0.57855000  0.86252000  0.82605000  1.0
  H  H39  1  0.92146000  0.13748000  0.32605000  1.0
  H  H40  1  0.42145000  0.13748000  0.17395000  1.0
  H  H41  1  0.07856000  0.86252000  0.67395000  1.0
  C  C42  1  0.06927000  0.36021000  0.89634000  1.0
  C  C43  1  0.43072000  0.63979000  0.39634000  1.0
  C  C44  1  0.93072000  0.63978000  0.10366000  1.0
  C  C45  1  0.56928000  0.36021000  0.60365000  1.0
  C  C46  1  0.98716000  0.50719000  0.85750000  1.0
  C  C47  1  0.51283000  0.49281000  0.35749000  1.0
  C  C48  1  0.01284000  0.49281000  0.14251000  1.0
  C  C49  1  0.48716000  0.50719000  0.64250000  1.0
  C  C50  1  0.07777000  0.60348000  0.84307000  1.0
  C  C51  1  0.42222000  0.39653000  0.34307000  1.0
  C  C52  1  0.92223000  0.39652000  0.15693000  1.0
  C  C53  1  0.57777000  0.60348000  0.65692000  1.0
  C  C54  1  0.24369000  0.55644000  0.86631000  1.0
  C  C55  1  0.25630000  0.44357000  0.36632000  1.0
  C  C56  1  0.75631000  0.44355000  0.13370000  1.0
  C  C57  1  0.74370000  0.55644000  0.63368000  1.0
  C  C58  1  0.32492000  0.41116000  0.90542000  1.0
  C  C59  1  0.17508000  0.58884000  0.40542000  1.0
  C  C60  1  0.67508000  0.58882000  0.09458000  1.0
  C  C61  1  0.82492000  0.41116000  0.59457000  1.0
  C  C62  1  0.23456000  0.31229000  0.92042000  1.0
  C  C63  1  0.26543000  0.68772000  0.42042000  1.0
  C  C64  1  0.76543000  0.68770000  0.07958000  1.0
  C  C65  1  0.73457000  0.31229000  0.57957000  1.0
  C  C66  1  0.86769000  0.21449000  0.91335000  1.0
  C  C67  1  0.63231000  0.78551000  0.41335000  1.0
  C  C68  1  0.13230000  0.78550000  0.08665000  1.0
  C  C69  1  0.36770000  0.21449000  0.58665000  1.0
  C  C70  1  0.87252000  0.09712000  0.82685000  1.0
  C  C71  1  0.62748000  0.90288000  0.32685000  1.0
  C  C72  1  0.12747000  0.90287000  0.17315000  1.0
  C  C73  1  0.37253000  0.09712000  0.67315000  1.0
  C  C74  1  0.73126000  0.03803000  0.83258000  1.0
  C  C75  1  0.76875000  0.96197000  0.33258000  1.0
  C  C76  1  0.26874000  0.96197000  0.16742000  1.0
  C  C77  1  0.23125000  0.03803000  0.66742000  1.0
  N  N78  1  0.02311000  0.23678000  0.92272000  1.0
  N  N79  1  0.47688000  0.76323000  0.42271000  1.0
  N  N80  1  0.97688000  0.76322000  0.07729000  1.0
  N  N81  1  0.52312000  0.23678000  0.57728000  1.0
  N  N82  1  0.14746000  0.12113000  0.95951000  1.0
  N  N83  1  0.35254000  0.87888000  0.45950000  1.0
  N  N84  1  0.85253000  0.87887000  0.04050000  1.0
  N  N85  1  0.64747000  0.12112000  0.54049000  1.0
  N  N86  1  0.27494000  0.16433000  0.95847000  1.0
  N  N87  1  0.22505000  0.83568000  0.45847000  1.0
  N  N88  1  0.72505000  0.83566000  0.04153000  1.0
  N  N89  1  0.77495000  0.16433000  0.54153000  1.0
  O  O90  1  0.61765000  0.10788000  0.89538000  1.0
  O  O91  1  0.88235000  0.89212000  0.39538000  1.0
  O  O92  1  0.38235000  0.89211000  0.10462000  1.0
  O  O93  1  0.11766000  0.10789000  0.60463000  1.0
  O  O94  1  0.73663000  0.92140000  0.77587000  1.0
  O  O95  1  0.76338000  0.07860000  0.27587000  1.0
  O  O96  1  0.26337000  0.07860000  0.22413000  1.0
  O  O97  1  0.23663000  0.92140000  0.72414000  1.0
  O  O98  1  0.49030000  0.84592000  0.86921000  1.0
  O  O99  1  0.00971000  0.15408000  0.36921000  1.0
  O  O100  1  0.50970000  0.15408000  0.13079000  1.0
  O  O101  1  0.99030000  0.84591000  0.63079000  1.0
