# generated using pymatgen
data_TbH18C28S3N3O8
_symmetry_space_group_name_H-M   'P 1'
_cell_length_a   8.48790000
_cell_length_b   15.07040000
_cell_length_c   28.88370000
_cell_angle_alpha   89.99980000
_cell_angle_beta   88.09860000
_cell_angle_gamma   89.99530000
_symmetry_Int_Tables_number   1
_chemical_formula_structural   TbH18C28S3N3O8
_chemical_formula_sum   'Tb4 H72 C112 S12 N12 O32'
_cell_volume   3692.65447254
_cell_formula_units_Z   4
loop_
 _symmetry_equiv_pos_site_id
 _symmetry_equiv_pos_as_xyz
  1  'x, y, z'
loop_
 _atom_site_type_symbol
 _atom_site_label
 _atom_site_symmetry_multiplicity
 _atom_site_fract_x
 _atom_site_fract_y
 _atom_site_fract_z
 _atom_site_occupancy
  Tb  Tb0  1  0.77593000  0.00166000  0.28383000  1.0
  Tb  Tb1  1  0.27585000  0.49836000  0.78387000  1.0
  Tb  Tb2  1  0.72415000  0.50164000  0.21613000  1.0
  Tb  Tb3  1  0.22408000  0.99834000  0.71617000  1.0
  H  H4  1  0.56696000  0.15479000  0.41966000  1.0
  H  H5  1  0.44240000  0.28609000  0.46047000  1.0
  H  H6  1  0.28766000  0.38507000  0.33021000  1.0
  H  H7  1  0.40613000  0.25247000  0.28963000  1.0
  H  H8  1  0.43808000  0.40255000  0.54244000  1.0
  H  H9  1  0.45977000  0.41291000  0.62893000  1.0
  H  H10  1  0.08310000  0.60339000  0.63414000  1.0
  H  H11  1  0.07760000  0.60283000  0.54741000  1.0
  H  H12  1  0.07788000  0.71288000  0.45563000  1.0
  H  H13  1  0.96370000  0.84094000  0.41198000  1.0
  H  H14  1  0.00281000  0.68994000  0.28558000  1.0
  H  H15  1  0.11123000  0.56224000  0.32941000  1.0
  H  H16  1  0.18571000  0.91547000  0.26469000  1.0
  H  H17  1  0.37106000  0.97182000  0.25027000  1.0
  H  H18  1  0.19153000  0.00108000  0.22158000  1.0
  H  H19  1  0.23616000  0.05253000  0.37648000  1.0
  H  H20  1  0.36940000  0.98019000  0.34415000  1.0
  H  H21  1  0.16381000  0.95039000  0.35304000  1.0
  H  H22  1  0.06680000  0.34522000  0.91967000  1.0
  H  H23  1  0.94225000  0.21391000  0.96046000  1.0
  H  H24  1  0.78777000  0.11492000  0.83019000  1.0
  H  H25  1  0.90626000  0.24751000  0.78961000  1.0
  H  H26  1  0.93812000  0.09741000  0.04240000  1.0
  H  H27  1  0.95985000  0.08704000  0.12889000  1.0
  H  H28  1  0.58308000  0.89664000  0.13412000  1.0
  H  H29  1  0.57757000  0.89722000  0.04738000  1.0
  H  H30  1  0.57783000  0.78715000  0.95564000  1.0
  H  H31  1  0.46360000  0.65910000  0.91200000  1.0
  H  H32  1  0.50284000  0.81003000  0.78558000  1.0
  H  H33  1  0.61129000  0.93773000  0.82939000  1.0
  H  H34  1  0.68560000  0.58457000  0.76475000  1.0
  H  H35  1  0.87096000  0.52822000  0.75033000  1.0
  H  H36  1  0.69143000  0.49897000  0.72165000  1.0
  H  H37  1  0.73606000  0.44750000  0.87654000  1.0
  H  H38  1  0.86937000  0.51979000  0.84421000  1.0
  H  H39  1  0.66381000  0.54967000  0.85309000  1.0
  H  H40  1  0.93316000  0.65479000  0.08034000  1.0
  H  H41  1  0.05772000  0.78609000  0.03954000  1.0
  H  H42  1  0.21227000  0.88506000  0.16981000  1.0
  H  H43  1  0.09378000  0.75247000  0.21038000  1.0
  H  H44  1  0.06189000  0.90259000  0.95760000  1.0
  H  H45  1  0.04014000  0.91296000  0.87111000  1.0
  H  H46  1  0.41687000  0.10338000  0.86588000  1.0
  H  H47  1  0.42241000  0.10280000  0.95262000  1.0
  H  H48  1  0.42215000  0.21284000  0.04437000  1.0
  H  H49  1  0.53637000  0.34089000  0.08800000  1.0
  H  H50  1  0.49718000  0.18996000  0.21442000  1.0
  H  H51  1  0.38873000  0.06225000  0.17061000  1.0
  H  H52  1  0.31440000  0.41543000  0.23525000  1.0
  H  H53  1  0.12905000  0.47178000  0.24967000  1.0
  H  H54  1  0.30858000  0.50102000  0.27836000  1.0
  H  H55  1  0.26394000  0.55253000  0.12347000  1.0
  H  H56  1  0.13064000  0.48023000  0.15579000  1.0
  H  H57  1  0.33620000  0.45037000  0.14691000  1.0
  H  H58  1  0.43306000  0.84521000  0.58034000  1.0
  H  H59  1  0.55760000  0.71391000  0.53953000  1.0
  H  H60  1  0.71232000  0.61492000  0.66979000  1.0
  H  H61  1  0.59387000  0.74752000  0.71037000  1.0
  H  H62  1  0.56191000  0.59744000  0.45756000  1.0
  H  H63  1  0.54021000  0.58709000  0.37107000  1.0
  H  H64  1  0.91689000  0.39661000  0.36585000  1.0
  H  H65  1  0.92240000  0.39717000  0.45259000  1.0
  H  H66  1  0.92217000  0.28712000  0.54436000  1.0
  H  H67  1  0.03636000  0.15907000  0.58802000  1.0
  H  H68  1  0.99720000  0.31007000  0.71441000  1.0
  H  H69  1  0.88876000  0.43776000  0.67059000  1.0
  H  H70  1  0.81432000  0.08452000  0.73531000  1.0
  H  H71  1  0.62895000  0.02819000  0.74974000  1.0
  H  H72  1  0.80849000  0.99892000  0.77842000  1.0
  H  H73  1  0.76382000  0.94746000  0.62352000  1.0
  H  H74  1  0.63061000  0.01980000  0.65586000  1.0
  H  H75  1  0.83620000  0.04959000  0.64696000  1.0
  C  C76  1  0.57188000  0.11871000  0.32936000  1.0
  C  C77  1  0.49129000  0.19543000  0.35260000  1.0
  C  C78  1  0.50281000  0.20493000  0.40071000  1.0
  C  C79  1  0.43526000  0.27757000  0.42316000  1.0
  C  C80  1  0.35779000  0.34289000  0.39763000  1.0
  C  C81  1  0.34637000  0.33333333  0.34950000  1.0
  C  C82  1  0.41162000  0.25966000  0.32708000  1.0
  C  C83  1  0.29286000  0.42171000  0.42186000  1.0
  C  C84  1  0.24633000  0.49711000  0.48916000  1.0
  C  C85  1  0.17302000  0.55657000  0.42074000  1.0
  C  C86  1  0.25705000  0.50239000  0.53999000  1.0
  C  C87  1  0.36374000  0.44777000  0.56289000  1.0
  C  C88  1  0.37448000  0.45272000  0.61068000  1.0
  C  C89  1  0.27332000  0.50899000  0.63643000  1.0
  C  C90  1  0.16470000  0.56219000  0.61370000  1.0
  C  C91  1  0.15951000  0.56079000  0.56567000  1.0
  C  C92  1  0.28033000  0.51019000  0.68788000  1.0
  C  C93  1  0.10416000  0.63076000  0.39487000  1.0
  C  C94  1  0.06126000  0.70910000  0.41847000  1.0
  C  C95  1  0.99901000  0.77981000  0.39437000  1.0
  C  C96  1  0.97986000  0.77385000  0.34635000  1.0
  C  C97  1  0.02082000  0.69544000  0.32271000  1.0
  C  C98  1  0.08189000  0.62418000  0.34699000  1.0
  C  C99  1  0.91363000  0.85231000  0.32221000  1.0
  C  C100  1  0.24250000  0.97782000  0.25381000  1.0
  C  C101  1  0.24823000  0.00484000  0.34796000  1.0
  C  C102  1  0.66728000  0.66874000  0.23478000  1.0
  C  C103  1  0.61128000  0.74429000  0.25910000  1.0
  C  C104  1  0.07181000  0.38131000  0.82938000  1.0
  C  C105  1  0.99126000  0.30456000  0.85260000  1.0
  C  C106  1  0.00271000  0.29508000  0.90071000  1.0
  C  C107  1  0.93516000  0.22243000  0.92316000  1.0
  C  C108  1  0.85776000  0.15712000  0.89761000  1.0
  C  C109  1  0.84643000  0.16659000  0.84949000  1.0
  C  C110  1  0.91166000  0.24033000  0.82707000  1.0
  C  C111  1  0.79282000  0.07830000  0.92184000  1.0
  C  C112  1  0.74629000  0.00291000  0.98914000  1.0
  C  C113  1  0.67300000  0.94344000  0.92072000  1.0
  C  C114  1  0.75703000  0.99762000  0.03996000  1.0
  C  C115  1  0.86378000  0.05221000  0.06286000  1.0
  C  C116  1  0.87453000  0.04725000  0.11065000  1.0
  C  C117  1  0.77335000  0.99102000  0.13639000  1.0
  C  C118  1  0.66472000  0.93783000  0.11368000  1.0
  C  C119  1  0.65948000  0.93924000  0.06564000  1.0
  C  C120  1  0.78036000  0.98982000  0.18784000  1.0
  C  C121  1  0.60414000  0.86924000  0.89487000  1.0
  C  C122  1  0.56121000  0.79093000  0.91848000  1.0
  C  C123  1  0.49895000  0.72022000  0.89438000  1.0
  C  C124  1  0.47981000  0.72617000  0.84637000  1.0
  C  C125  1  0.52081000  0.80454000  0.82271000  1.0
  C  C126  1  0.58190000  0.87581000  0.84699000  1.0
  C  C127  1  0.41352000  0.64771000  0.82224000  1.0
  C  C128  1  0.74240000  0.52223000  0.75387000  1.0
  C  C129  1  0.74818000  0.49519000  0.84801000  1.0
  C  C130  1  0.16728000  0.83123000  0.73484000  1.0
  C  C131  1  0.11129000  0.75568000  0.75915000  1.0
  C  C132  1  0.92819000  0.61870000  0.17063000  1.0
  C  C133  1  0.00874000  0.69543000  0.14740000  1.0
  C  C134  1  0.99727000  0.70493000  0.09929000  1.0
  C  C135  1  0.06483000  0.77757000  0.07685000  1.0
  C  C136  1  0.14225000  0.84288000  0.10239000  1.0
  C  C137  1  0.15361000  0.83340000  0.15051000  1.0
  C  C138  1  0.08836000  0.75966000  0.17293000  1.0
  C  C139  1  0.20718000  0.92170000  0.07816000  1.0
  C  C140  1  0.25370000  0.99709000  0.01087000  1.0
  C  C141  1  0.32699000  0.05655000  0.07928000  1.0
  C  C142  1  0.24296000  0.00239000  0.96004000  1.0
  C  C143  1  0.13622000  0.94780000  0.93714000  1.0
  C  C144  1  0.12546000  0.95276000  0.88935000  1.0
  C  C145  1  0.22663000  0.00900000  0.86361000  1.0
  C  C146  1  0.33526000  0.06219000  0.88632000  1.0
  C  C147  1  0.34049000  0.06078000  0.93436000  1.0
  C  C148  1  0.21962000  0.01019000  0.81216000  1.0
  C  C149  1  0.39586000  0.13076000  0.10513000  1.0
  C  C150  1  0.43877000  0.20907000  0.08153000  1.0
  C  C151  1  0.50104000  0.27977000  0.10562000  1.0
  C  C152  1  0.52018000  0.27383000  0.15363000  1.0
  C  C153  1  0.47920000  0.19545000  0.17730000  1.0
  C  C154  1  0.41811000  0.12419000  0.15302000  1.0
  C  C155  1  0.58645000  0.35229000  0.17776000  1.0
  C  C156  1  0.25761000  0.47777000  0.24614000  1.0
  C  C157  1  0.25182000  0.50483000  0.15199000  1.0
  C  C158  1  0.83271000  0.16877000  0.26515000  1.0
  C  C159  1  0.88870000  0.24433000  0.24084000  1.0
  C  C160  1  0.42813000  0.88129000  0.67064000  1.0
  C  C161  1  0.50873000  0.80456000  0.64740000  1.0
  C  C162  1  0.49720000  0.79507000  0.59929000  1.0
  C  C163  1  0.56475000  0.72242000  0.57683000  1.0
  C  C164  1  0.64220000  0.65711000  0.60237000  1.0
  C  C165  1  0.65363000  0.66659000  0.65049000  1.0
  C  C166  1  0.58839000  0.74033000  0.67292000  1.0
  C  C167  1  0.70712000  0.57828000  0.57814000  1.0
  C  C168  1  0.75366000  0.50289000  0.51084000  1.0
  C  C169  1  0.82698000  0.44343000  0.57926000  1.0
  C  C170  1  0.74294000  0.49761000  0.46001000  1.0
  C  C171  1  0.63625000  0.55222000  0.43711000  1.0
  C  C172  1  0.62550000  0.54727000  0.38932000  1.0
  C  C173  1  0.72667000  0.49101000  0.36357000  1.0
  C  C174  1  0.83528000  0.43781000  0.38629000  1.0
  C  C175  1  0.84049000  0.43921000  0.43433000  1.0
  C  C176  1  0.71966000  0.48981000  0.31212000  1.0
  C  C177  1  0.89586000  0.36923000  0.60512000  1.0
  C  C178  1  0.93878000  0.29091000  0.58153000  1.0
  C  C179  1  0.00104000  0.22020000  0.60563000  1.0
  C  C180  1  0.02017000  0.22616000  0.65364000  1.0
  C  C181  1  0.97920000  0.30456000  0.67729000  1.0
  C  C182  1  0.91812000  0.37582000  0.65300000  1.0
  C  C183  1  0.08637000  0.14770000  0.67779000  1.0
  C  C184  1  0.75752000  0.02218000  0.74619000  1.0
  C  C185  1  0.75177000  0.99515000  0.65205000  1.0
  C  C186  1  0.33274000  0.33125000  0.76521000  1.0
  C  C187  1  0.38875000  0.25570000  0.74090000  1.0
  S  S188  1  0.19773000  0.06277000  0.29584000  1.0
  S  S189  1  0.55162000  0.78885000  0.30847000  1.0
  S  S190  1  0.67922000  0.76947000  0.20420000  1.0
  S  S191  1  0.69768000  0.43725000  0.79590000  1.0
  S  S192  1  0.05155000  0.71112000  0.80850000  1.0
  S  S193  1  0.17933000  0.73052000  0.70427000  1.0
  S  S194  1  0.30232000  0.56275000  0.20411000  1.0
  S  S195  1  0.94846000  0.28889000  0.19149000  1.0
  S  S196  1  0.82063000  0.26948000  0.29572000  1.0
  S  S197  1  0.80227000  0.93722000  0.70416000  1.0
  S  S198  1  0.44840000  0.21113000  0.69154000  1.0
  S  S199  1  0.32078000  0.23053000  0.79580000  1.0
  N  N200  1  0.30512000  0.42424000  0.46813000  1.0
  N  N201  1  0.17911000  0.56507000  0.46706000  1.0
  N  N202  1  0.22751000  0.48601000  0.39655000  1.0
  N  N203  1  0.80506000  0.07577000  0.96811000  1.0
  N  N204  1  0.67906000  0.93495000  0.96705000  1.0
  N  N205  1  0.72750000  0.01399000  0.89653000  1.0
  N  N206  1  0.19496000  0.92423000  0.03189000  1.0
  N  N207  1  0.32093000  0.06505000  0.03296000  1.0
  N  N208  1  0.27250000  0.98601000  0.10347000  1.0
  N  N209  1  0.69487000  0.57575000  0.53186000  1.0
  N  N210  1  0.82090000  0.43493000  0.53294000  1.0
  N  N211  1  0.77247000  0.51398000  0.60344000  1.0
  O  O212  1  0.68207000  0.07985000  0.35049000  1.0
  O  O213  1  0.53529000  0.09452000  0.28843000  1.0
  O  O214  1  0.40257000  0.48101000  0.70737000  1.0
  O  O215  1  0.16142000  0.53980000  0.71206000  1.0
  O  O216  1  0.85994000  0.91625000  0.34713000  1.0
  O  O217  1  0.91094000  0.85594000  0.27778000  1.0
  O  O218  1  0.01700000  0.06718000  0.29994000  1.0
  O  O219  1  0.55380000  0.88904000  0.30532000  1.0
  O  O220  1  0.18193000  0.42018000  0.85052000  1.0
  O  O221  1  0.03526000  0.40550000  0.78844000  1.0
  O  O222  1  0.90258000  0.01903000  0.20733000  1.0
  O  O223  1  0.66147000  0.96021000  0.21203000  1.0
  O  O224  1  0.35985000  0.58377000  0.84717000  1.0
  O  O225  1  0.41080000  0.64406000  0.77781000  1.0
  O  O226  1  0.51695000  0.43285000  0.80000000  1.0
  O  O227  1  0.05375000  0.61093000  0.80536000  1.0
  O  O228  1  0.81807000  0.57982000  0.14948000  1.0
  O  O229  1  0.96474000  0.59451000  0.21156000  1.0
  O  O230  1  0.09741000  0.98098000  0.79267000  1.0
  O  O231  1  0.33851000  0.03981000  0.78797000  1.0
  O  O232  1  0.64010000  0.41623000  0.15284000  1.0
  O  O233  1  0.58918000  0.35593000  0.22219000  1.0
  O  O234  1  0.48305000  0.56716000  0.20001000  1.0
  O  O235  1  0.94623000  0.38908000  0.19463000  1.0
  O  O236  1  0.31793000  0.92014000  0.64951000  1.0
  O  O237  1  0.46472000  0.90547000  0.71157000  1.0
  O  O238  1  0.59743000  0.51901000  0.29263000  1.0
  O  O239  1  0.83855000  0.46019000  0.28794000  1.0
  O  O240  1  0.14002000  0.08374000  0.65287000  1.0
  O  O241  1  0.08909000  0.14407000  0.72222000  1.0
  O  O242  1  0.98300000  0.93281000  0.70006000  1.0
  O  O243  1  0.44620000  0.11094000  0.69468000  1.0
