# generated using pymatgen
data_Al2H17C26O10F
_symmetry_space_group_name_H-M   'P 1'
_cell_length_a   6.72323000
_cell_length_b   11.13030000
_cell_length_c   17.67121655
_cell_angle_alpha   102.47059065
_cell_angle_beta   98.66945539
_cell_angle_gamma   106.94720000
_symmetry_Int_Tables_number   1
_chemical_formula_structural   Al2H17C26O10F
_chemical_formula_sum   'Al2 H17 C26 O10 F1'
_cell_volume   1202.33996804
_cell_formula_units_Z   1
loop_
 _symmetry_equiv_pos_site_id
 _symmetry_equiv_pos_as_xyz
  1  'x, y, z'
loop_
 _atom_site_type_symbol
 _atom_site_label
 _atom_site_symmetry_multiplicity
 _atom_site_fract_x
 _atom_site_fract_y
 _atom_site_fract_z
 _atom_site_occupancy
  Al  Al0  1  0.99917000  0.49814000  0.50056000  1.0
  Al  Al1  1  0.49782000  0.49574000  0.50019000  1.0
  H  H2  1  0.35154000  0.65907000  0.55612000  1.0
  H  H3  1  0.65682000  0.38090000  0.40664000  1.0
  H  H4  1  0.36836000  0.10453000  0.49120000  1.0
  H  H5  1  0.74943000  0.12815000  0.51001000  1.0
  H  H6  1  0.24053000  0.87094000  0.49445000  1.0
  H  H7  1  0.18435000  0.58373000  0.73911000  1.0
  H  H8  1  0.27106000  0.58110000  0.88090000  1.0
  H  H9  1  0.59661000  0.43662000  0.87171000  1.0
  H  H10  1  0.40660000  0.56717000  0.13068000  1.0
  H  H11  1  0.81273000  0.40816000  0.25800000  1.0
  H  H12  1  0.73083000  0.41404000  0.11698000  1.0
  H  H13  1  0.40182000  0.49960000  0.69758000  1.0
  H  H14  1  0.40605000  0.34039000  0.66843000  1.0
  H  H15  1  0.34094000  0.39520000  0.76100000  1.0
  H  H16  1  0.65869000  0.61341000  0.24281000  1.0
  H  H17  1  0.58725000  0.65708000  0.33564000  1.0
  H  H18  1  0.60247000  0.50132000  0.30137000  1.0
  C  C19  1  0.81305000  0.51433000  0.64078000  1.0
  C  C20  1  0.85939000  0.72783000  0.50631000  1.0
  C  C21  1  0.18221000  0.47726000  0.35817000  1.0
  C  C22  1  0.13741000  0.26928000  0.49695000  1.0
  C  C23  1  0.92641000  0.86761000  0.50486000  1.0
  C  C24  1  0.06649000  0.13018000  0.49970000  1.0
  C  C25  1  0.79206000  0.94352000  0.50952000  1.0
  C  C26  1  0.20593000  0.05799000  0.49597000  1.0
  C  C27  1  0.85794000  0.07222000  0.50653000  1.0
  C  C28  1  0.13518000  0.92871000  0.49806000  1.0
  C  C29  1  0.84565000  0.51244000  0.72581000  1.0
  C  C30  1  0.05740000  0.55227000  0.76941000  1.0
  C  C31  1  0.10573000  0.55079000  0.84812000  1.0
  C  C32  1  0.93830000  0.50815000  0.88591000  1.0
  C  C33  1  0.72569000  0.46964000  0.84231000  1.0
  C  C34  1  0.67467000  0.47069000  0.76283000  1.0
  C  C35  1  0.98268000  0.50273000  0.96570000  1.0
  C  C36  1  0.02201000  0.49718000  0.03441000  1.0
  C  C37  1  0.06454000  0.49104000  0.11409000  1.0
  C  C38  1  0.27623000  0.53133000  0.15893000  1.0
  C  C39  1  0.32476000  0.52841000  0.23811000  1.0
  C  C40  1  0.15235000  0.48276000  0.27374000  1.0
  C  C41  1  0.94154000  0.44228000  0.22902000  1.0
  C  C42  1  0.89553000  0.44548000  0.15059000  1.0
  C  C43  1  0.44328000  0.42413000  0.72070000  1.0
  C  C44  1  0.55565000  0.57778000  0.28144000  1.0
  O  O45  1  0.96901000  0.51407000  0.60759000  1.0
  O  O46  1  0.66397000  0.67181000  0.50455000  1.0
  O  O47  1  0.35898000  0.47006000  0.39144000  1.0
  O  O48  1  0.99568000  0.32382000  0.49399000  1.0
  O  O49  1  0.02585000  0.47858000  0.39121000  1.0
  O  O50  1  0.33312000  0.32181000  0.49760000  1.0
  O  O51  1  0.63440000  0.51762000  0.60681000  1.0
  O  O52  1  0.00486000  0.67556000  0.50880000  1.0
  O  O53  1  0.29598000  0.56446000  0.53703000  1.0
  O  O54  1  0.70275000  0.43277000  0.46164000  1.0
  F  F55  1  0.58905000  0.89348000  0.51816000  1.0
