# generated using pymatgen
data_Zn2H37C43(N2O)4
_symmetry_space_group_name_H-M   'P 1'
_cell_length_a   19.61120000
_cell_length_b   19.87550000
_cell_length_c   19.91030000
_cell_angle_alpha   110.79400000
_cell_angle_beta   105.08400000
_cell_angle_gamma   112.21600000
_symmetry_Int_Tables_number   1
_chemical_formula_structural   Zn2H37C43(N2O)4
_chemical_formula_sum   'Zn4 H74 C86 N16 O8'
_cell_volume   5978.37374253
_cell_formula_units_Z   2
loop_
 _symmetry_equiv_pos_site_id
 _symmetry_equiv_pos_as_xyz
  1  'x, y, z'
loop_
 _atom_site_type_symbol
 _atom_site_label
 _atom_site_symmetry_multiplicity
 _atom_site_fract_x
 _atom_site_fract_y
 _atom_site_fract_z
 _atom_site_occupancy
  Zn  Zn0  1  0.11914000  0.10898000  0.50464000  1.0
  Zn  Zn1  1  0.89406000  0.89320000  0.50266000  1.0
  Zn  Zn2  1  0.99332000  0.90085000  0.39089000  1.0
  Zn  Zn3  1  0.01859000  0.10085000  0.61343000  1.0
  H  H4  1  0.22953000  0.67823000  0.59833000  1.0
  H  H5  1  0.39006000  0.27712000  0.01925000  1.0
  H  H6  1  0.95268000  0.15995000  0.12561000  1.0
  H  H7  1  0.75769000  0.88799000  0.86659000  1.0
  H  H8  1  0.94520000  0.15219000  0.99647000  1.0
  H  H9  1  0.76539000  0.89559000  0.99567000  1.0
  H  H10  1  0.74502000  0.88146000  0.37581000  1.0
  H  H11  1  0.28782000  0.11206000  0.49356000  1.0
  H  H12  1  0.85553000  0.70962000  0.22626000  1.0
  H  H13  1  0.14031000  0.09449000  0.75736000  1.0
  H  H14  1  0.04709000  0.29436000  0.68947000  1.0
  H  H15  1  0.97616000  0.52210000  0.61483000  1.0
  H  H16  1  0.12895000  0.86725000  0.47848000  1.0
  H  H17  1  0.13686000  0.28690000  0.51151000  1.0
  H  H18  1  0.99701000  0.85589000  0.62225000  1.0
  H  H19  1  0.91080000  0.15335000  0.51292000  1.0
  H  H20  1  0.11172000  0.85147000  0.30503000  1.0
  H  H21  1  0.85200000  0.88973000  0.24917000  1.0
  H  H22  1  0.98176000  0.13443000  0.77228000  1.0
  H  H23  1  0.13544000  0.23305000  0.33070000  1.0
  H  H24  1  0.07916000  0.12165000  0.26342000  1.0
  H  H25  1  0.22022000  0.21716000  0.43540000  1.0
  H  H26  1  0.51488000  0.88220000  0.29119000  1.0
  H  H27  1  0.16265000  0.10652000  0.37016000  1.0
  H  H28  1  0.21714000  0.12230000  0.27233000  1.0
  H  H29  1  0.29830000  0.16889000  0.36915000  1.0
  H  H30  1  0.27592000  0.23382000  0.33650000  1.0
  H  H31  1  0.75466000  0.74658000  0.63341000  1.0
  H  H32  1  0.79988000  0.84658000  0.72147000  1.0
  H  H33  1  0.89417000  0.77239000  0.65172000  1.0
  H  H34  1  0.94146000  0.87533000  0.73479000  1.0
  H  H35  1  0.88649000  0.81513000  0.81385000  1.0
  H  H36  1  0.94648000  0.77506000  0.78205000  1.0
  H  H37  1  0.50114000  0.12788000  0.45556000  1.0
  H  H38  1  0.83692000  0.71112000  0.73101000  1.0
  H  H39  1  0.87684000  0.44853000  0.46346000  1.0
  H  H40  1  0.93655000  0.43009000  0.41319000  1.0
  H  H41  1  0.81659000  0.48895000  0.36773000  1.0
  H  H42  1  0.87632000  0.47134000  0.31861000  1.0
  H  H43  1  0.80267000  0.31734000  0.27934000  1.0
  H  H44  1  0.73146000  0.34533000  0.24209000  1.0
  H  H45  1  0.74224000  0.33455000  0.32838000  1.0
  H  H46  1  0.31566000  0.74489000  0.84955000  1.0
  H  H47  1  0.27988000  0.76926000  0.77492000  1.0
  H  H48  1  0.38039000  0.86243000  0.28639000  1.0
  H  H49  1  0.39289000  0.69644000  0.78149000  1.0
  H  H50  1  0.36187000  0.72600000  0.71065000  1.0
  H  H51  1  0.43584000  0.87783000  0.82423000  1.0
  H  H52  1  0.50520000  0.84102000  0.82225000  1.0
  H  H53  1  0.46773000  0.84788000  0.89503000  1.0
  H  H54  1  0.62116000  0.58100000  0.30534000  1.0
  H  H55  1  0.62123000  0.66829000  0.29899000  1.0
  H  H56  1  0.62138000  0.72504000  0.43440000  1.0
  H  H57  1  0.53370000  0.62117000  0.36482000  1.0
  H  H58  1  0.62062000  0.63755000  0.44047000  1.0
  H  H59  1  0.63573000  0.14777000  0.46056000  1.0
  H  H60  1  0.40720000  0.18630000  0.70940000  1.0
  H  H61  1  0.39577000  0.27428000  0.75266000  1.0
  H  H62  1  0.41845000  0.31193000  0.64941000  1.0
  H  H63  1  0.50375000  0.30877000  0.70411000  1.0
  H  H64  1  0.42957000  0.22378000  0.60466000  1.0
  H  H65  1  0.16457000  0.57643000  0.44178000  1.0
  H  H66  1  0.05504000  0.52975000  0.39540000  1.0
  H  H67  1  0.03714000  0.38824000  0.31564000  1.0
  H  H68  1  0.10082000  0.46387000  0.29688000  1.0
  H  H69  1  0.14645000  0.43438000  0.36247000  1.0
  H  H70  1  0.53408000  0.30944000  0.88982000  1.0
  H  H71  1  0.14551000  0.66105000  0.81271000  1.0
  H  H72  1  0.03648000  0.61688000  0.76486000  1.0
  H  H73  1  0.05606000  0.75725000  0.85220000  1.0
  H  H74  1  0.09863000  0.72125000  0.91219000  1.0
  H  H75  1  0.16508000  0.80157000  0.89992000  1.0
  H  H76  1  0.50933000  0.40540000  0.14472000  1.0
  H  H77  1  0.65304000  0.43808000  0.01515000  1.0
  C  C78  1  0.00816000  0.08559000  0.34607000  1.0
  C  C79  1  0.17036000  0.62446000  0.67213000  1.0
  C  C80  1  0.10189000  0.54842000  0.53875000  1.0
  C  C81  1  0.10368000  0.65151000  0.67416000  1.0
  C  C82  1  0.09262000  0.39634000  0.61028000  1.0
  C  C83  1  0.10276000  0.79261000  0.58460000  1.0
  C  C84  1  0.03199000  0.55737000  0.61113000  1.0
  C  C85  1  0.17366000  0.64264000  0.60184000  1.0
  C  C86  1  0.09775000  0.53010000  0.60909000  1.0
  C  C87  1  0.10789000  0.67001000  0.60380000  1.0
  C  C88  1  0.09358000  0.45811000  0.61049000  1.0
  C  C89  1  0.86269000  0.92887000  0.65327000  1.0
  C  C90  1  0.11012000  0.73961000  0.59778000  1.0
  C  C91  1  0.43642000  0.92483000  0.32405000  1.0
  C  C92  1  0.57957000  0.08553000  0.42195000  1.0
  C  C93  1  0.79666000  0.94612000  0.41503000  1.0
  C  C94  1  0.23375000  0.04984000  0.44985000  1.0
  C  C95  1  0.43161000  0.99365000  0.37126000  1.0
  C  C96  1  0.58495000  0.01620000  0.37678000  1.0
  C  C97  1  0.50459000  0.07442000  0.41935000  1.0
  C  C98  1  0.51142000  0.93594000  0.32665000  1.0
  C  C99  1  0.35690000  0.98309000  0.37299000  1.0
  C  C100  1  0.79843000  0.02161000  0.42859000  1.0
  C  C101  1  0.66217000  0.02445000  0.38627000  1.0
  C  C102  1  0.72818000  0.02745000  0.40218000  1.0
  C  C103  1  0.29461000  0.97705000  0.37876000  1.0
  C  C104  1  0.59544000  0.40250000  0.01589000  1.0
  C  C105  1  0.44790000  0.31219000  0.01864000  1.0
  C  C106  1  0.58879000  0.43255000  0.08833000  1.0
  C  C107  1  0.45240000  0.28581000  0.94480000  1.0
  C  C108  1  0.51460000  0.38405000  0.08877000  1.0
  C  C109  1  0.52882000  0.33056000  0.94579000  1.0
  C  C110  1  0.65256000  0.51152000  0.15665000  1.0
  C  C111  1  0.22838000  0.97913000  0.39191000  1.0
  C  C112  1  0.38095000  0.22303000  0.87062000  1.0
  C  C113  1  0.31931000  0.18234000  0.80549000  1.0
  C  C114  1  0.70458000  0.58315000  0.21274000  1.0
  C  C115  1  0.90586000  0.09617000  0.99662000  1.0
  C  C116  1  0.80464000  0.95169000  0.99562000  1.0
  C  C117  1  0.83691000  0.72116000  0.27403000  1.0
  C  C118  1  0.16558000  0.10707000  0.71775000  1.0
  C  C119  1  0.85347000  0.01868000  0.92274000  1.0
  C  C120  1  0.86242000  0.02738000  0.07020000  1.0
  C  C121  1  0.80039000  0.94745000  0.92351000  1.0
  C  C122  1  0.76581000  0.66606000  0.27433000  1.0
  C  C123  1  0.91009000  0.10044000  0.06873000  1.0
  C  C124  1  0.85900000  0.01148000  0.85146000  1.0
  C  C125  1  0.87809000  0.02791000  0.14386000  1.0
  C  C126  1  0.90024000  0.02443000  0.20531000  1.0
  C  C127  1  0.87126000  0.00376000  0.79273000  1.0
  C  C128  1  0.07009000  0.28064000  0.64530000  1.0
  C  C129  1  0.09056000  0.87098000  0.50864000  1.0
  C  C130  1  0.77434000  0.71489000  0.35159000  1.0
  C  C131  1  0.24459000  0.14638000  0.66060000  1.0
  C  C132  1  0.11683000  0.27710000  0.55489000  1.0
  C  C133  1  0.24930000  0.14497000  0.73269000  1.0
  C  C134  1  0.02311000  0.86551000  0.58227000  1.0
  C  C135  1  0.88127000  0.08536000  0.48534000  1.0
  C  C136  1  0.14377000  0.91649000  0.35337000  1.0
  C  C137  1  0.90671000  0.95260000  0.28816000  1.0
  C  C138  1  0.94577000  0.06801000  0.72636000  1.0
  C  C139  1  0.93321000  0.02105000  0.27469000  1.0
  C  C140  1  0.89065000  0.99943000  0.72892000  1.0
  C  C141  1  0.11514000  0.17184000  0.32746000  1.0
  C  C142  1  0.18746000  0.16684000  0.37144000  1.0
  C  C143  1  0.24793000  0.17362000  0.33529000  1.0
  C  C144  1  0.09303000  0.32402000  0.60488000  1.0
  C  C145  1  0.80900000  0.81091000  0.67153000  1.0
  C  C146  1  0.88817000  0.81040000  0.70311000  1.0
  C  C147  1  0.88945000  0.77599000  0.76070000  1.0
  C  C148  1  0.90683000  0.46692000  0.42779000  1.0
  C  C149  1  0.84393000  0.45020000  0.35135000  1.0
  C  C150  1  0.77641000  0.35679000  0.29738000  1.0
  C  C151  1  0.30118000  0.72870000  0.78659000  1.0
  C  C152  1  0.37724000  0.74169000  0.77358000  1.0
  C  C153  1  0.45049000  0.83199000  0.83189000  1.0
  C  C154  1  0.63905000  0.64702000  0.34111000  1.0
  C  C155  1  0.07881000  0.84350000  0.56323000  1.0
  C  C156  1  0.60154000  0.65847000  0.39870000  1.0
  C  C157  1  0.38853000  0.22782000  0.69646000  1.0
  C  C158  1  0.43757000  0.27033000  0.66122000  1.0
  C  C159  1  0.10488000  0.51716000  0.41392000  1.0
  C  C160  1  0.09685000  0.44668000  0.34304000  1.0
  C  C161  1  0.09714000  0.67595000  0.79600000  1.0
  C  C162  1  0.10467000  0.74308000  0.86931000  1.0
  C  C163  1  0.03504000  0.57501000  0.54067000  1.0
  N  N164  1  0.02316000  0.05684000  0.39654000  1.0
  N  N165  1  0.16541000  0.11128000  0.60896000  1.0
  N  N166  1  0.10903000  0.21198000  0.56521000  1.0
  N  N167  1  0.00233000  0.90081000  0.54062000  1.0
  N  N168  1  0.92365000  0.04967000  0.50483000  1.0
  N  N169  1  0.10299000  0.94834000  0.38553000  1.0
  N  N170  1  0.96119000  0.97488000  0.36077000  1.0
  N  N171  1  0.94942000  0.04124000  0.65623000  1.0
  N  N172  1  0.89809000  0.95460000  0.61086000  1.0
  N  N173  1  0.87148000  0.96444000  0.46162000  1.0
  N  N174  1  0.15904000  0.03105000  0.44538000  1.0
  N  N175  1  0.88312000  0.79459000  0.34417000  1.0
  N  N176  1  0.11678000  0.08802000  0.64445000  1.0
  N  N177  1  0.08005000  0.21400000  0.62149000  1.0
  N  N178  1  0.04347000  0.90436000  0.49530000  1.0
  N  N179  1  0.84388000  0.79077000  0.39215000  1.0
  O  O180  1  0.06011000  0.16531000  0.36538000  1.0
  O  O181  1  0.80799000  0.84569000  0.61836000  1.0
  O  O182  1  0.96906000  0.55588000  0.47575000  1.0
  O  O183  1  0.23484000  0.64119000  0.73666000  1.0
  O  O184  1  0.72831000  0.69858000  0.38997000  1.0
  O  O185  1  0.30217000  0.17737000  0.63719000  1.0
  O  O186  1  0.10023000  0.49155000  0.47278000  1.0
  O  O187  1  0.10530000  0.70694000  0.74116000  1.0
