# generated using pymatgen
data_KH26C20NO4
_symmetry_space_group_name_H-M   'P 1'
_cell_length_a   10.13210000
_cell_length_b   10.61860000
_cell_length_c   12.77110000
_cell_angle_alpha   70.30920000
_cell_angle_beta   85.96600000
_cell_angle_gamma   67.01940000
_symmetry_Int_Tables_number   1
_chemical_formula_structural   KH26C20NO4
_chemical_formula_sum   'K2 H52 C40 N2 O8'
_cell_volume   1188.03705834
_cell_formula_units_Z   2
loop_
 _symmetry_equiv_pos_site_id
 _symmetry_equiv_pos_as_xyz
  1  'x, y, z'
loop_
 _atom_site_type_symbol
 _atom_site_label
 _atom_site_symmetry_multiplicity
 _atom_site_fract_x
 _atom_site_fract_y
 _atom_site_fract_z
 _atom_site_occupancy
  K  K0  1  0.81442000  0.59457000  0.06869000  1.0
  K  K1  1  0.18558000  0.40543000  0.93131000  1.0
  H  H2  1  0.03546000  0.66666667  0.98093000  1.0
  H  H3  1  0.96454000  0.33333333  0.01907000  1.0
  H  H4  1  0.05478000  0.88940000  0.98147000  1.0
  H  H5  1  0.94522000  0.11060000  0.01853000  1.0
  H  H6  1  0.16210000  0.89484000  0.15099000  1.0
  H  H7  1  0.83790000  0.10516000  0.84901000  1.0
  H  H8  1  0.25237000  0.66875000  0.31644000  1.0
  H  H9  1  0.74764000  0.33125000  0.68356000  1.0
  H  H10  1  0.22952000  0.44573000  0.31879000  1.0
  H  H11  1  0.77048000  0.55427000  0.68120000  1.0
  H  H12  1  0.97802000  0.23386000  0.21263000  1.0
  H  H13  1  0.02197000  0.76615000  0.78737000  1.0
  H  H14  1  0.09369000  0.97291000  0.32369000  1.0
  H  H15  1  0.90629000  0.02709000  0.67631000  1.0
  H  H16  1  0.35061000  0.86311000  0.39407000  1.0
  H  H17  1  0.64938000  0.13689000  0.60592000  1.0
  H  H18  1  0.49088000  0.02237000  0.35058000  1.0
  H  H19  1  0.50912000  0.97763000  0.64941000  1.0
  H  H20  1  0.37629000  0.28211000  0.24022000  1.0
  H  H21  1  0.62371000  0.71789000  0.75978000  1.0
  H  H22  1  0.82575000  0.53628000  0.41564000  1.0
  H  H23  1  0.17425000  0.46372000  0.58436000  1.0
  H  H24  1  0.95081000  0.42552000  0.34350000  1.0
  H  H25  1  0.04919000  0.57448000  0.65650000  1.0
  H  H26  1  0.85841000  0.23137000  0.42568000  1.0
  H  H27  1  0.14159000  0.76862000  0.57432000  1.0
  H  H28  1  0.90255000  0.27922000  0.53670000  1.0
  H  H29  1  0.09745000  0.72078000  0.46330000  1.0
  H  H30  1  0.47846000  0.43573000  0.43550000  1.0
  H  H31  1  0.52154000  0.56427000  0.56450000  1.0
  H  H32  1  0.60678000  0.32414000  0.36586000  1.0
  H  H33  1  0.39322000  0.67585000  0.63414000  1.0
  H  H34  1  0.52618000  0.58342000  0.24459000  1.0
  H  H35  1  0.47382000  0.41657000  0.75541000  1.0
  H  H36  1  0.56952000  0.62972000  0.35686000  1.0
  H  H37  1  0.43048000  0.37028000  0.64314000  1.0
  H  H38  1  0.47213000  0.42852000  0.15876000  1.0
  H  H39  1  0.52787000  0.57148000  0.84124000  1.0
  H  H40  1  0.66406000  0.33733000  0.16024000  1.0
  H  H41  1  0.33594000  0.66268000  0.83976000  1.0
  H  H42  1  0.47586000  0.74896000  0.94010000  1.0
  H  H43  1  0.52414000  0.25104000  0.05990000  1.0
  H  H44  1  0.35996000  0.67346000  0.02811000  1.0
  H  H45  1  0.64004000  0.32655000  0.97189000  1.0
  H  H46  1  0.55320000  0.97666000  0.15197000  1.0
  H  H47  1  0.44679000  0.02334000  0.84804000  1.0
  H  H48  1  0.50581000  0.82354000  0.17891000  1.0
  H  H49  1  0.49419000  0.17646000  0.82110000  1.0
  H  H50  1  0.70707000  0.93511000  0.89412000  1.0
  H  H51  1  0.29293000  0.06489000  0.10589000  1.0
  H  H52  1  0.67379000  0.04258000  0.98305000  1.0
  H  H53  1  0.32622000  0.95742000  0.01696000  1.0
  C  C54  1  0.12868000  0.53547000  0.15040000  1.0
  C  C55  1  0.87132000  0.46454000  0.84960000  1.0
  C  C56  1  0.08210000  0.66616000  0.05582000  1.0
  C  C57  1  0.91790000  0.33385000  0.94418000  1.0
  C  C58  1  0.09302000  0.79272000  0.05607000  1.0
  C  C59  1  0.90698000  0.20728000  0.94393000  1.0
  C  C60  1  0.15379000  0.79615000  0.14968000  1.0
  C  C61  1  0.84622000  0.20385000  0.85032000  1.0
  C  C62  1  0.20386000  0.66872000  0.24273000  1.0
  C  C63  1  0.79615000  0.33128000  0.75727000  1.0
  C  C64  1  0.19264000  0.54167000  0.24378000  1.0
  C  C65  1  0.80737000  0.45833000  0.75621000  1.0
  C  C66  1  0.16659000  0.28122000  0.21672000  1.0
  C  C67  1  0.83340000  0.71878000  0.78327000  1.0
  C  C68  1  0.09093000  0.18729000  0.24281000  1.0
  C  C69  1  0.90906000  0.81272000  0.75718000  1.0
  C  C70  1  0.15638000  0.04035000  0.30548000  1.0
  C  C71  1  0.84361000  0.95965000  0.69451000  1.0
  C  C72  1  0.30092000  0.97826000  0.34527000  1.0
  C  C73  1  0.69907000  0.02174000  0.65472000  1.0
  C  C74  1  0.37780000  0.06815000  0.32095000  1.0
  C  C75  1  0.62220000  0.93185000  0.67905000  1.0
  C  C76  1  0.31310000  0.21547000  0.25883000  1.0
  C  C77  1  0.68689000  0.78453000  0.74116000  1.0
  C  C78  1  0.84424000  0.45247000  0.37692000  1.0
  C  C79  1  0.15576000  0.54753000  0.62308000  1.0
  C  C80  1  0.83069000  0.31886000  0.46191000  1.0
  C  C81  1  0.16931000  0.68114000  0.53810000  1.0
  C  C82  1  0.58614000  0.40882000  0.40407000  1.0
  C  C83  1  0.41386000  0.59118000  0.59593000  1.0
  C  C84  1  0.59800000  0.54327000  0.31936000  1.0
  C  C85  1  0.40201000  0.45673000  0.68064000  1.0
  C  C86  1  0.56510000  0.41120000  0.10669000  1.0
  C  C87  1  0.43490000  0.58880000  0.89331000  1.0
  C  C88  1  0.45561000  0.64953000  0.97962000  1.0
  C  C89  1  0.54439000  0.35047000  0.02038000  1.0
  C  C90  1  0.51412000  0.91775000  0.11330000  1.0
  C  C91  1  0.48588000  0.08225000  0.88670000  1.0
  C  C92  1  0.63057000  0.98212000  0.94939000  1.0
  C  C93  1  0.36943000  0.01787000  0.05061000  1.0
  N  N94  1  0.09800000  0.42215000  0.14694000  1.0
  N  N95  1  0.90200000  0.57786000  0.85306000  1.0
  O  O96  1  0.74140000  0.51139000  0.28317000  1.0
  O  O97  1  0.25860000  0.48860000  0.71683000  1.0
  O  O98  1  0.68720000  0.35291000  0.49808000  1.0
  O  O99  1  0.31281000  0.64709000  0.50192000  1.0
  O  O100  1  0.57986000  0.54722000  0.05399000  1.0
  O  O101  1  0.42014000  0.45278000  0.94601000  1.0
  O  O102  1  0.61731000  0.86325000  0.03969000  1.0
  O  O103  1  0.38269000  0.13675000  0.96031000  1.0
