# generated using pymatgen
data_ZnH12C18(NO2)2
_symmetry_space_group_name_H-M   'P 1'
_cell_length_a   9.22262000
_cell_length_b   11.20050000
_cell_length_c   16.68220000
_cell_angle_alpha   101.05200000
_cell_angle_beta   94.38270000
_cell_angle_gamma   109.51500000
_symmetry_Int_Tables_number   1
_chemical_formula_structural   ZnH12C18(NO2)2
_chemical_formula_sum   'Zn4 H48 C72 N8 O16'
_cell_volume   1575.63850826
_cell_formula_units_Z   4
loop_
 _symmetry_equiv_pos_site_id
 _symmetry_equiv_pos_as_xyz
  1  'x, y, z'
loop_
 _atom_site_type_symbol
 _atom_site_label
 _atom_site_symmetry_multiplicity
 _atom_site_fract_x
 _atom_site_fract_y
 _atom_site_fract_z
 _atom_site_occupancy
  Zn  Zn0  1  0.20538000  0.15737000  0.49565000  1.0
  Zn  Zn1  1  0.79461000  0.84262000  0.50436000  1.0
  Zn  Zn2  1  0.22892000  0.47627000  0.15297000  1.0
  Zn  Zn3  1  0.77108000  0.52373000  0.84703000  1.0
  H  H4  1  0.01253000  0.33493000  0.52492000  1.0
  H  H5  1  0.98747000  0.66506000  0.47509000  1.0
  H  H6  1  0.06138000  0.57051000  0.59199000  1.0
  H  H7  1  0.93862000  0.42948000  0.40801000  1.0
  H  H8  1  0.33655000  0.71788000  0.65015000  1.0
  H  H9  1  0.66344000  0.28211000  0.34985000  1.0
  H  H10  1  0.54832000  0.62840000  0.63940000  1.0
  H  H11  1  0.45168000  0.37160000  0.36059000  1.0
  H  H12  1  0.70443000  0.53192000  0.65013000  1.0
  H  H13  1  0.29557000  0.46809000  0.34986000  1.0
  H  H14  1  0.87816000  0.40552000  0.64423000  1.0
  H  H15  1  0.12184000  0.59448000  0.35577000  1.0
  H  H16  1  0.78212000  0.17449000  0.55714000  1.0
  H  H17  1  0.21788000  0.82551000  0.44285000  1.0
  H  H18  1  0.50715000  0.08307000  0.48158000  1.0
  H  H19  1  0.49284000  0.91692000  0.51842000  1.0
  H  H20  1  0.24166000  0.19720000  0.20658000  1.0
  H  H21  1  0.75834000  0.80281000  0.79343000  1.0
  H  H22  1  0.23776000  0.08786000  0.05974000  1.0
  H  H23  1  0.76224000  0.91214000  0.94026000  1.0
  H  H24  1  0.22341000  0.85628000  0.02545000  1.0
  H  H25  1  0.77659000  0.14373000  0.97455000  1.0
  H  H26  1  0.20626000  0.84312000  0.28062000  1.0
  H  H27  1  0.79375000  0.15688000  0.71938000  1.0
  H  H28  1  0.57554000  0.94761000  0.31221000  1.0
  H  H29  1  0.42446000  0.05239000  0.68779000  1.0
  H  H30  1  0.48932000  0.01669000  0.18909000  1.0
  H  H31  1  0.51068000  0.98331000  0.81092000  1.0
  H  H32  1  0.68162000  0.18386000  0.13284000  1.0
  H  H33  1  0.31839000  0.81614000  0.86716000  1.0
  H  H34  1  0.03718000  0.22675000  0.32961000  1.0
  H  H35  1  0.96282000  0.77324000  0.67039000  1.0
  H  H36  1  0.52071000  0.69459000  0.27321000  1.0
  H  H37  1  0.47929000  0.30541000  0.72679000  1.0
  H  H38  1  0.80754000  0.74611000  0.29452000  1.0
  H  H39  1  0.19246000  0.25389000  0.70548000  1.0
  H  H40  1  0.91713000  0.60000000  0.20134000  1.0
  H  H41  1  0.08288000  0.40001000  0.79866000  1.0
  H  H42  1  0.73886000  0.42284000  0.08859000  1.0
  H  H43  1  0.26114000  0.57717000  0.91141000  1.0
  H  H44  1  0.57733000  0.29342000  0.98847000  1.0
  H  H45  1  0.42267000  0.70657000  0.01153000  1.0
  H  H46  1  0.36821000  0.13541000  0.87776000  1.0
  H  H47  1  0.63179000  0.86459000  0.12224000  1.0
  H  H48  1  0.09268000  0.12722000  0.87978000  1.0
  H  H49  1  0.90732000  0.87278000  0.12022000  1.0
  H  H50  1  0.03907000  0.27844000  0.99743000  1.0
  H  H51  1  0.96093000  0.72157000  0.00257000  1.0
  C  C52  1  0.12835000  0.40385000  0.55255000  1.0
  C  C53  1  0.87164000  0.59615000  0.44745000  1.0
  C  C54  1  0.15682000  0.53390000  0.58907000  1.0
  C  C55  1  0.84317000  0.46610000  0.41093000  1.0
  C  C56  1  0.30947000  0.61537000  0.62156000  1.0
  C  C57  1  0.69053000  0.38463000  0.37845000  1.0
  C  C58  1  0.42797000  0.56451000  0.61656000  1.0
  C  C59  1  0.57203000  0.43549000  0.38344000  1.0
  C  C60  1  0.39033000  0.43260000  0.57969000  1.0
  C  C61  1  0.60966000  0.56740000  0.42031000  1.0
  C  C62  1  0.50870000  0.37005000  0.57330000  1.0
  C  C63  1  0.49130000  0.62995000  0.42670000  1.0
  C  C64  1  0.66238000  0.43204000  0.61353000  1.0
  C  C65  1  0.33761000  0.56795000  0.38647000  1.0
  C  C66  1  0.76111000  0.36094000  0.60940000  1.0
  C  C67  1  0.23889000  0.63906000  0.39060000  1.0
  C  C68  1  0.70861000  0.23338000  0.56184000  1.0
  C  C69  1  0.29139000  0.76662000  0.43816000  1.0
  C  C70  1  0.55553000  0.18099000  0.52127000  1.0
  C  C71  1  0.44446000  0.81901000  0.47873000  1.0
  C  C72  1  0.23313000  0.09358000  0.34016000  1.0
  C  C73  1  0.76687000  0.90642000  0.65984000  1.0
  C  C74  1  0.22617000  0.02718000  0.25234000  1.0
  C  C75  1  0.77383000  0.97281000  0.74766000  1.0
  C  C76  1  0.23446000  0.09612000  0.18990000  1.0
  C  C77  1  0.76554000  0.90388000  0.81010000  1.0
  C  C78  1  0.23197000  0.03467000  0.10833000  1.0
  C  C79  1  0.76803000  0.96533000  0.89167000  1.0
  C  C80  1  0.22343000  0.90535000  0.08868000  1.0
  C  C81  1  0.77657000  0.09466000  0.91132000  1.0
  C  C82  1  0.21309000  0.83558000  0.15082000  1.0
  C  C83  1  0.78691000  0.16442000  0.84917000  1.0
  C  C84  1  0.21305000  0.89667000  0.23223000  1.0
  C  C85  1  0.78694000  0.10333000  0.76776000  1.0
  C  C86  1  0.20815000  0.69809000  0.13114000  1.0
  C  C87  1  0.79185000  0.30191000  0.86885000  1.0
  C  C88  1  0.86379000  0.04203000  0.40349000  1.0
  C  C89  1  0.13621000  0.95797000  0.59652000  1.0
  C  C90  1  0.81154000  0.08312000  0.32905000  1.0
  C  C91  1  0.18846000  0.91688000  0.67095000  1.0
  C  C92  1  0.65743000  0.02320000  0.28857000  1.0
  C  C93  1  0.34257000  0.97679000  0.71143000  1.0
  C  C94  1  0.60960000  0.06133000  0.21934000  1.0
  C  C95  1  0.39041000  0.93867000  0.78067000  1.0
  C  C96  1  0.71613000  0.15525000  0.18801000  1.0
  C  C97  1  0.28387000  0.84474000  0.81199000  1.0
  C  C98  1  0.87090000  0.21448000  0.22730000  1.0
  C  C99  1  0.12911000  0.78551000  0.77270000  1.0
  C  C100  1  0.91694000  0.18062000  0.29906000  1.0
  C  C101  1  0.08307000  0.81938000  0.70094000  1.0
  C  C102  1  0.98577000  0.31058000  0.19057000  1.0
  C  C103  1  0.01424000  0.68942000  0.80943000  1.0
  C  C104  1  0.57351000  0.63618000  0.23407000  1.0
  C  C105  1  0.42650000  0.36382000  0.76593000  1.0
  C  C106  1  0.73365000  0.66371000  0.24560000  1.0
  C  C107  1  0.26635000  0.33630000  0.75440000  1.0
  C  C108  1  0.79290000  0.58382000  0.19381000  1.0
  C  C109  1  0.20711000  0.41618000  0.80618000  1.0
  C  C110  1  0.69206000  0.48329000  0.13024000  1.0
  C  C111  1  0.30795000  0.51671000  0.86976000  1.0
  C  C112  1  0.53288000  0.46342000  0.12152000  1.0
  C  C113  1  0.46712000  0.53657000  0.87848000  1.0
  C  C114  1  0.41675000  0.36486000  0.05340000  1.0
  C  C115  1  0.58325000  0.63514000  0.94660000  1.0
  C  C116  1  0.45645000  0.28513000  0.99035000  1.0
  C  C117  1  0.54355000  0.71486000  0.00965000  1.0
  C  C118  1  0.33963000  0.19845000  0.92740000  1.0
  C  C119  1  0.66037000  0.80154000  0.07260000  1.0
  C  C120  1  0.18658000  0.19330000  0.92818000  1.0
  C  C121  1  0.81342000  0.80670000  0.07181000  1.0
  C  C122  1  0.15521000  0.27594000  0.99264000  1.0
  C  C123  1  0.84480000  0.72406000  0.00736000  1.0
  N  N124  1  0.47557000  0.53728000  0.17481000  1.0
  N  N125  1  0.52443000  0.46272000  0.82519000  1.0
  N  N126  1  0.26754000  0.35859000  0.05347000  1.0
  N  N127  1  0.73246000  0.64141000  0.94653000  1.0
  N  N128  1  0.24196000  0.35425000  0.54842000  1.0
  N  N129  1  0.75804000  0.64575000  0.45158000  1.0
  N  N130  1  0.45755000  0.24611000  0.52869000  1.0
  N  N131  1  0.54245000  0.75388000  0.47131000  1.0
  O  O132  1  0.26014000  0.21438000  0.35893000  1.0
  O  O133  1  0.73987000  0.78562000  0.64107000  1.0
  O  O134  1  0.20782000  0.02256000  0.39382000  1.0
  O  O135  1  0.79218000  0.97744000  0.60618000  1.0
  O  O136  1  0.21919000  0.64423000  0.05993000  1.0
  O  O137  1  0.78081000  0.35577000  0.94007000  1.0
  O  O138  1  0.19540000  0.64111000  0.19264000  1.0
  O  O139  1  0.80460000  0.35889000  0.80735000  1.0
  O  O140  1  0.79345000  0.92320000  0.40544000  1.0
  O  O141  1  0.20655000  0.07680000  0.59456000  1.0
  O  O142  1  0.96956000  0.12655000  0.45874000  1.0
  O  O143  1  0.03044000  0.87345000  0.54127000  1.0
  O  O144  1  0.12734000  0.36437000  0.22960000  1.0
  O  O145  1  0.87266000  0.63563000  0.77040000  1.0
  O  O146  1  0.94499000  0.33487000  0.12356000  1.0
  O  O147  1  0.05501000  0.66512000  0.87644000  1.0
