# generated using pymatgen
data_CuPH4C4SBrO4
_symmetry_space_group_name_H-M   'P 1'
_cell_length_a   7.68151000
_cell_length_b   7.89393000
_cell_length_c   13.31740000
_cell_angle_alpha   90.00020000
_cell_angle_beta   85.11600000
_cell_angle_gamma   89.99990000
_symmetry_Int_Tables_number   1
_chemical_formula_structural   CuPH4C4SBrO4
_chemical_formula_sum   'Cu4 P4 H16 C16 S4 Br4 O16'
_cell_volume   804.59915198
_cell_formula_units_Z   4
loop_
 _symmetry_equiv_pos_site_id
 _symmetry_equiv_pos_as_xyz
  1  'x, y, z'
loop_
 _atom_site_type_symbol
 _atom_site_label
 _atom_site_symmetry_multiplicity
 _atom_site_fract_x
 _atom_site_fract_y
 _atom_site_fract_z
 _atom_site_occupancy
  Cu  Cu0  1  0.70593000  0.10426000  0.52292000  1.0
  Cu  Cu1  1  0.79407000  0.60426000  0.47708000  1.0
  Cu  Cu2  1  0.29408000  0.89574000  0.47708000  1.0
  Cu  Cu3  1  0.20593000  0.39574000  0.52292000  1.0
  P  P4  1  0.47798000  0.65552000  0.61734000  1.0
  P  P5  1  0.02204000  0.15552000  0.38266000  1.0
  P  P6  1  0.52204000  0.34449000  0.38266000  1.0
  P  P7  1  0.97798000  0.84449000  0.61734000  1.0
  H  H8  1  0.35569000  0.72501000  0.99647000  1.0
  H  H9  1  0.14428000  0.22501000  0.00353000  1.0
  H  H10  1  0.64428000  0.27499000  0.00353000  1.0
  H  H11  1  0.85568000  0.77499000  0.99648000  1.0
  H  H12  1  0.47003000  0.01609000  0.70231000  1.0
  H  H13  1  0.02997000  0.51608000  0.29769000  1.0
  H  H14  1  0.52998000  0.98392000  0.29770000  1.0
  H  H15  1  0.97004000  0.48393000  0.70230000  1.0
  H  H16  1  0.85478000  0.86328000  0.36402000  1.0
  H  H17  1  0.64522000  0.36328000  0.63598000  1.0
  H  H18  1  0.14522000  0.13672000  0.63598000  1.0
  H  H19  1  0.35478000  0.63672000  0.36402000  1.0
  H  H20  1  0.77313000  0.70512000  0.30542000  1.0
  H  H21  1  0.72687000  0.20511000  0.69459000  1.0
  H  H22  1  0.22687000  0.29488000  0.69458000  1.0
  H  H23  1  0.27314000  0.79489000  0.30541000  1.0
  C  C24  1  0.45044000  0.74408000  0.74203000  1.0
  C  C25  1  0.04956000  0.24409000  0.25797000  1.0
  C  C26  1  0.54957000  0.25592000  0.25797000  1.0
  C  C27  1  0.95044000  0.75592000  0.74203000  1.0
  C  C28  1  0.41350000  0.65614000  0.83573000  1.0
  C  C29  1  0.08651000  0.15613000  0.16427000  1.0
  C  C30  1  0.58649000  0.34387000  0.16427000  1.0
  C  C31  1  0.91351000  0.84387000  0.83573000  1.0
  C  C32  1  0.38463000  0.75984000  0.91811000  1.0
  C  C33  1  0.11536000  0.25984000  0.08189000  1.0
  C  C34  1  0.61535000  0.24016000  0.08190000  1.0
  C  C35  1  0.88462000  0.74016000  0.91810000  1.0
  C  C36  1  0.44799000  0.91665000  0.75812000  1.0
  C  C37  1  0.05200000  0.41668000  0.24188000  1.0
  C  C38  1  0.55200000  0.08333000  0.24188000  1.0
  C  C39  1  0.94801000  0.58334000  0.75812000  1.0
  S  S40  1  0.40273000  0.96793000  0.88224000  1.0
  S  S41  1  0.09725000  0.46792000  0.11775000  1.0
  S  S42  1  0.59725000  0.03206000  0.11775000  1.0
  S  S43  1  0.90274000  0.53206000  0.88224000  1.0
  Br  Br44  1  0.40482000  0.41698000  0.85021000  1.0
  Br  Br45  1  0.09518000  0.91697000  0.14979000  1.0
  Br  Br46  1  0.59517000  0.58301000  0.14979000  1.0
  Br  Br47  1  0.90482000  0.08301000  0.85021000  1.0
  O  O48  1  0.65352000  0.55518000  0.60521000  1.0
  O  O49  1  0.84648000  0.05519000  0.39479000  1.0
  O  O50  1  0.34648000  0.44481000  0.39480000  1.0
  O  O51  1  0.15352000  0.94482000  0.60520000  1.0
  O  O52  1  0.48891000  0.80121000  0.53982000  1.0
  O  O53  1  0.01109000  0.30122000  0.46018000  1.0
  O  O54  1  0.51109000  0.19878000  0.46018000  1.0
  O  O55  1  0.98891000  0.69879000  0.53982000  1.0
  O  O56  1  0.32031000  0.53873000  0.61301000  1.0
  O  O57  1  0.17971000  0.03872000  0.38699000  1.0
  O  O58  1  0.67971000  0.46128000  0.38699000  1.0
  O  O59  1  0.82031000  0.96127000  0.61301000  1.0
  O  O60  1  0.86237000  0.73636000  0.35041000  1.0
  O  O61  1  0.63763000  0.23636000  0.64960000  1.0
  O  O62  1  0.13763000  0.26364000  0.64959000  1.0
  O  O63  1  0.36238000  0.76365000  0.35040000  1.0
