# generated using pymatgen
data_ZnH15C17NO5
_symmetry_space_group_name_H-M   'P 1'
_cell_length_a   10.16800000
_cell_length_b   12.90770000
_cell_length_c   17.19490000
_cell_angle_alpha   89.99980000
_cell_angle_beta   89.99970000
_cell_angle_gamma   67.06000000
_symmetry_Int_Tables_number   1
_chemical_formula_structural   ZnH15C17NO5
_chemical_formula_sum   'Zn4 H60 C68 N4 O20'
_cell_volume   2078.27447898
_cell_formula_units_Z   4
loop_
 _symmetry_equiv_pos_site_id
 _symmetry_equiv_pos_as_xyz
  1  'x, y, z'
loop_
 _atom_site_type_symbol
 _atom_site_label
 _atom_site_symmetry_multiplicity
 _atom_site_fract_x
 _atom_site_fract_y
 _atom_site_fract_z
 _atom_site_occupancy
  Zn  Zn0  1  0.41982000  0.35926000  0.06847000  1.0
  Zn  Zn1  1  0.58019000  0.14074000  0.56847000  1.0
  Zn  Zn2  1  0.58019000  0.64074000  0.93153000  1.0
  Zn  Zn3  1  0.41981000  0.85926000  0.43153000  1.0
  H  H4  1  0.22757000  0.55836000  0.03298000  1.0
  H  H5  1  0.77243000  0.94164000  0.53298000  1.0
  H  H6  1  0.77243000  0.44164000  0.96702000  1.0
  H  H7  1  0.22757000  0.05836000  0.46702000  1.0
  H  H8  1  0.34110000  0.54337000  0.96422000  1.0
  H  H9  1  0.65890000  0.95663000  0.46422000  1.0
  H  H10  1  0.65890000  0.45663000  0.03578000  1.0
  H  H11  1  0.34110000  0.04337000  0.53577000  1.0
  H  H12  1  0.28705000  0.13760000  0.23746000  1.0
  H  H13  1  0.71294000  0.36240000  0.73746000  1.0
  H  H14  1  0.71296000  0.86240000  0.76254000  1.0
  H  H15  1  0.28705000  0.63760000  0.26254000  1.0
  H  H16  1  0.04357000  0.26720000  0.12399000  1.0
  H  H17  1  0.95643000  0.23280000  0.62399000  1.0
  H  H18  1  0.95644000  0.73279000  0.87601000  1.0
  H  H19  1  0.04356000  0.76721000  0.37600000  1.0
  H  H20  1  0.82512000  0.24079000  0.13366000  1.0
  H  H21  1  0.17488000  0.25922000  0.63366000  1.0
  H  H22  1  0.17489000  0.75921000  0.86633000  1.0
  H  H23  1  0.82511000  0.74079000  0.36633000  1.0
  H  H24  1  0.67581000  0.14891000  0.18931000  1.0
  H  H25  1  0.32419000  0.35110000  0.68930000  1.0
  H  H26  1  0.32420000  0.85110000  0.81069000  1.0
  H  H27  1  0.67581000  0.64890000  0.31070000  1.0
  H  H28  1  0.02184000  0.95816000  0.34369000  1.0
  H  H29  1  0.97815000  0.54184000  0.84369000  1.0
  H  H30  1  0.97816000  0.04184000  0.65631000  1.0
  H  H31  1  0.02184000  0.45815000  0.15631000  1.0
  H  H32  1  0.16892000  0.05155000  0.28980000  1.0
  H  H33  1  0.83108000  0.44845000  0.78980000  1.0
  H  H34  1  0.83109000  0.94845000  0.71020000  1.0
  H  H35  1  0.16892000  0.55155000  0.21019000  1.0
  H  H36  1  0.80449000  0.93508000  0.35500000  1.0
  H  H37  1  0.19551000  0.56492000  0.85500000  1.0
  H  H38  1  0.19551000  0.06492000  0.64500000  1.0
  H  H39  1  0.80449000  0.43507000  0.14501000  1.0
  H  H40  1  0.55782000  0.06133000  0.24197000  1.0
  H  H41  1  0.44218000  0.43867000  0.74197000  1.0
  H  H42  1  0.44218000  0.93867000  0.75803000  1.0
  H  H43  1  0.55782000  0.56132000  0.25803000  1.0
  H  H44  1  0.64791000  0.12540000  0.06079000  1.0
  H  H45  1  0.35210000  0.37460000  0.56079000  1.0
  H  H46  1  0.35209000  0.87460000  0.93921000  1.0
  H  H47  1  0.64790000  0.62539000  0.43921000  1.0
  H  H48  1  0.76997000  0.98226000  0.95763000  1.0
  H  H49  1  0.23003000  0.51774000  0.45764000  1.0
  H  H50  1  0.23003000  0.01774000  0.04236000  1.0
  H  H51  1  0.76997000  0.48226000  0.54236000  1.0
  H  H52  1  0.69707000  0.03092000  0.81791000  1.0
  H  H53  1  0.30293000  0.46908000  0.31792000  1.0
  H  H54  1  0.30293000  0.96908000  0.18209000  1.0
  H  H55  1  0.69707000  0.53092000  0.68209000  1.0
  H  H56  1  0.50604000  0.21797000  0.78753000  1.0
  H  H57  1  0.49395000  0.28203000  0.28753000  1.0
  H  H58  1  0.49396000  0.78203000  0.21247000  1.0
  H  H59  1  0.50605000  0.71797000  0.71247000  1.0
  H  H60  1  0.39003000  0.34872000  0.89793000  1.0
  H  H61  1  0.60997000  0.15129000  0.39794000  1.0
  H  H62  1  0.60997000  0.65128000  0.10207000  1.0
  H  H63  1  0.39003000  0.84871000  0.60207000  1.0
  C  C64  1  0.30777000  0.25189000  0.14949000  1.0
  C  C65  1  0.69222000  0.24812000  0.64949000  1.0
  C  C66  1  0.69224000  0.74811000  0.85051000  1.0
  C  C67  1  0.30777000  0.75188000  0.35051000  1.0
  C  C68  1  0.22820000  0.19525000  0.19140000  1.0
  C  C69  1  0.77180000  0.30475000  0.69141000  1.0
  C  C70  1  0.77181000  0.80475000  0.80859000  1.0
  C  C71  1  0.22820000  0.69525000  0.30859000  1.0
  C  C72  1  0.09360000  0.20926000  0.17182000  1.0
  C  C73  1  0.90639000  0.29074000  0.67182000  1.0
  C  C74  1  0.90641000  0.79074000  0.82818000  1.0
  C  C75  1  0.09360000  0.70926000  0.32818000  1.0
  C  C76  1  0.00913000  0.15283000  0.20664000  1.0
  C  C77  1  0.99087000  0.34717000  0.70664000  1.0
  C  C78  1  0.99088000  0.84716000  0.79336000  1.0
  C  C79  1  0.00912000  0.65284000  0.29335000  1.0
  C  C80  1  0.86923000  0.17770000  0.17913000  1.0
  C  C81  1  0.13076000  0.32230000  0.67913000  1.0
  C  C82  1  0.13078000  0.82230000  0.82086000  1.0
  C  C83  1  0.86923000  0.67770000  0.32086000  1.0
  C  C84  1  0.78492000  0.12552000  0.21010000  1.0
  C  C85  1  0.21507000  0.37448000  0.71009000  1.0
  C  C86  1  0.21509000  0.87448000  0.78990000  1.0
  C  C87  1  0.78492000  0.62552000  0.28990000  1.0
  C  C88  1  0.83806000  0.04487000  0.26978000  1.0
  C  C89  1  0.16193000  0.45514000  0.76978000  1.0
  C  C90  1  0.16195000  0.95513000  0.73022000  1.0
  C  C91  1  0.83806000  0.54486000  0.23022000  1.0
  C  C92  1  0.97769000  0.02010000  0.29753000  1.0
  C  C93  1  0.02231000  0.47990000  0.79754000  1.0
  C  C94  1  0.02231000  0.97989000  0.70247000  1.0
  C  C95  1  0.97769000  0.52010000  0.20246000  1.0
  C  C96  1  0.06140000  0.07310000  0.26696000  1.0
  C  C97  1  0.93860000  0.42691000  0.76697000  1.0
  C  C98  1  0.93861000  0.92690000  0.73304000  1.0
  C  C99  1  0.06139000  0.57310000  0.23303000  1.0
  C  C100  1  0.75296000  0.99075000  0.30649000  1.0
  C  C101  1  0.24703000  0.50926000  0.80649000  1.0
  C  C102  1  0.24704000  0.00925000  0.69351000  1.0
  C  C103  1  0.75297000  0.49074000  0.19351000  1.0
  C  C104  1  0.61636000  0.00682000  0.28959000  1.0
  C  C105  1  0.38363000  0.49319000  0.78959000  1.0
  C  C106  1  0.38364000  0.99318000  0.71041000  1.0
  C  C107  1  0.61636000  0.50681000  0.21041000  1.0
  C  C108  1  0.53305000  0.95972000  0.33702000  1.0
  C  C109  1  0.46694000  0.54028000  0.83702000  1.0
  C  C110  1  0.46694000  0.04028000  0.66298000  1.0
  C  C111  1  0.53306000  0.45972000  0.16299000  1.0
  C  C112  1  0.62050000  0.14193000  0.99952000  1.0
  C  C113  1  0.37950000  0.35807000  0.49952000  1.0
  C  C114  1  0.37950000  0.85807000  0.00048000  1.0
  C  C115  1  0.62050000  0.64193000  0.50048000  1.0
  C  C116  1  0.68748000  0.06332000  0.94195000  1.0
  C  C117  1  0.31252000  0.43668000  0.44195000  1.0
  C  C118  1  0.31252000  0.93668000  0.05805000  1.0
  C  C119  1  0.68748000  0.56332000  0.55805000  1.0
  C  C120  1  0.64695000  0.08998000  0.86457000  1.0
  C  C121  1  0.35305000  0.41002000  0.36457000  1.0
  C  C122  1  0.35305000  0.91002000  0.13543000  1.0
  C  C123  1  0.64695000  0.58998000  0.63543000  1.0
  C  C124  1  0.53920000  0.19390000  0.84733000  1.0
  C  C125  1  0.46079000  0.30611000  0.34734000  1.0
  C  C126  1  0.46080000  0.80610000  0.15266000  1.0
  C  C127  1  0.53921000  0.69389000  0.65267000  1.0
  C  C128  1  0.47585000  0.26729000  0.90821000  1.0
  C  C129  1  0.52414000  0.23271000  0.40821000  1.0
  C  C130  1  0.52415000  0.73271000  0.09179000  1.0
  C  C131  1  0.47586000  0.76729000  0.59179000  1.0
  N  N132  1  0.51643000  0.24263000  0.98281000  1.0
  N  N133  1  0.48357000  0.25737000  0.48281000  1.0
  N  N134  1  0.48357000  0.75737000  0.01719000  1.0
  N  N135  1  0.51643000  0.74263000  0.51719000  1.0
  O  O136  1  0.44190000  0.21979000  0.16098000  1.0
  O  O137  1  0.55810000  0.28021000  0.66098000  1.0
  O  O138  1  0.55811000  0.78020000  0.83902000  1.0
  O  O139  1  0.44190000  0.71979000  0.33903000  1.0
  O  O140  1  0.24223000  0.33215000  0.10119000  1.0
  O  O141  1  0.75777000  0.16785000  0.60118000  1.0
  O  O142  1  0.75778000  0.66784000  0.89882000  1.0
  O  O143  1  0.24222000  0.83215000  0.39881000  1.0
  O  O144  1  0.40668000  0.97553000  0.31836000  1.0
  O  O145  1  0.59332000  0.52447000  0.81836000  1.0
  O  O146  1  0.59332000  0.02447000  0.68164000  1.0
  O  O147  1  0.40668000  0.47553000  0.18164000  1.0
  O  O148  1  0.58902000  0.90240000  0.40054000  1.0
  O  O149  1  0.41097000  0.59761000  0.90054000  1.0
  O  O150  1  0.41097000  0.09760000  0.59946000  1.0
  O  O151  1  0.58903000  0.40239000  0.09946000  1.0
  O  O152  1  0.29974000  0.50257000  0.00122000  1.0
  O  O153  1  0.70026000  0.99743000  0.50122000  1.0
  O  O154  1  0.70026000  0.49743000  0.99878000  1.0
  O  O155  1  0.29974000  0.00257000  0.49878000  1.0
