# generated using pymatgen
data_Ni2H31C34N6O13
_symmetry_space_group_name_H-M   'P 1'
_cell_length_a   13.20110000
_cell_length_b   13.20510000
_cell_length_c   26.18191964
_cell_angle_alpha   95.80057537
_cell_angle_beta   102.08065151
_cell_angle_gamma   112.61600000
_symmetry_Int_Tables_number   1
_chemical_formula_structural   Ni2H31C34N6O13
_chemical_formula_sum   'Ni8 H124 C136 N24 O52'
_cell_volume   4035.62484611
_cell_formula_units_Z   4
loop_
 _symmetry_equiv_pos_site_id
 _symmetry_equiv_pos_as_xyz
  1  'x, y, z'
loop_
 _atom_site_type_symbol
 _atom_site_label
 _atom_site_symmetry_multiplicity
 _atom_site_fract_x
 _atom_site_fract_y
 _atom_site_fract_z
 _atom_site_occupancy
  Ni  Ni0  1  0.92234000  0.66737000  0.24655000  1.0
  Ni  Ni1  1  0.42082000  0.17595000  0.25348000  1.0
  Ni  Ni2  1  0.07766000  0.33263000  0.75345000  1.0
  Ni  Ni3  1  0.57919000  0.82406000  0.74652000  1.0
  Ni  Ni4  1  0.20325000  0.30242000  0.54046000  1.0
  Ni  Ni5  1  0.76206000  0.16290000  0.95961000  1.0
  Ni  Ni6  1  0.79675000  0.69758000  0.45954000  1.0
  Ni  Ni7  1  0.23794000  0.83710000  0.04039000  1.0
  H  H8  1  0.29422000  0.28767000  0.64072000  1.0
  H  H9  1  0.64690000  0.15348000  0.85925000  1.0
  H  H10  1  0.70578000  0.71234000  0.35929000  1.0
  H  H11  1  0.35310000  0.84652000  0.14075000  1.0
  H  H12  1  0.33828000  0.40919000  0.62792000  1.0
  H  H13  1  0.78125000  0.21050000  0.87207000  1.0
  H  H14  1  0.66172000  0.59081000  0.37208000  1.0
  H  H15  1  0.21876000  0.78951000  0.12794000  1.0
  H  H16  1  0.35895000  0.49294000  0.55622000  1.0
  H  H17  1  0.93670000  0.30269000  0.94382000  1.0
  H  H18  1  0.64105000  0.50706000  0.44378000  1.0
  H  H19  1  0.06331000  0.69732000  0.05619000  1.0
  H  H20  1  0.28331000  0.45088000  0.49504000  1.0
  H  H21  1  0.95597000  0.28837000  0.00502000  1.0
  H  H22  1  0.71669000  0.54912000  0.50496000  1.0
  H  H23  1  0.04403000  0.71163000  0.99498000  1.0
  H  H24  1  0.05190000  0.63707000  0.19662000  1.0
  H  H25  1  0.44061000  0.35560000  0.30335000  1.0
  H  H26  1  0.94810000  0.36293000  0.80338000  1.0
  H  H27  1  0.55939000  0.64441000  0.69665000  1.0
  H  H28  1  0.06811000  0.75720000  0.18459000  1.0
  H  H29  1  0.57281000  0.38386000  0.31542000  1.0
  H  H30  1  0.93190000  0.24280000  0.81541000  1.0
  H  H31  1  0.42719000  0.61614000  0.68458000  1.0
  H  H32  1  0.07788000  0.26285000  0.59298000  1.0
  H  H33  1  0.66997000  0.98504000  0.90711000  1.0
  H  H34  1  0.92212000  0.73715000  0.40702000  1.0
  H  H35  1  0.33003000  0.01496000  0.09289000  1.0
  H  H36  1  0.11217000  0.16685000  0.60638000  1.0
  H  H37  1  0.56044000  0.00573000  0.89367000  1.0
  H  H38  1  0.88783000  0.83315000  0.39362000  1.0
  H  H39  1  0.43956000  0.99427000  0.10633000  1.0
  H  H40  1  0.71112000  0.57346000  0.26340000  1.0
  H  H41  1  0.30994000  0.94776000  0.23673000  1.0
  H  H42  1  0.28888000  0.42654000  0.73660000  1.0
  H  H43  1  0.69006000  0.05224000  0.76327000  1.0
  H  H44  1  0.78896000  0.69782000  0.29849000  1.0
  H  H45  1  0.39904000  0.99050000  0.20156000  1.0
  H  H46  1  0.21104000  0.30218000  0.70151000  1.0
  H  H47  1  0.60096000  0.00950000  0.79844000  1.0
  H  H48  1  0.33640000  0.65909000  0.43755000  1.0
  H  H49  1  0.22142000  0.39869000  0.06237000  1.0
  H  H50  1  0.66360000  0.34091000  0.56245000  1.0
  H  H51  1  0.77858000  0.60131000  0.93763000  1.0
  H  H52  1  0.84625000  0.04121000  0.33927000  1.0
  H  H53  1  0.70210000  0.00715000  0.16104000  1.0
  H  H54  1  0.15375000  0.95879000  0.66073000  1.0
  H  H55  1  0.29790000  0.99285000  0.83896000  1.0
  H  H56  1  0.47243000  0.09206000  0.58013000  1.0
  H  H57  1  0.51225000  0.39245000  0.91994000  1.0
  H  H58  1  0.52757000  0.90794000  0.41987000  1.0
  H  H59  1  0.48775000  0.60755000  0.08006000  1.0
  H  H60  1  0.13476000  0.00226000  0.30441000  1.0
  H  H61  1  0.69779000  0.33036000  0.19565000  1.0
  H  H62  1  0.86525000  0.99775000  0.69560000  1.0
  H  H63  1  0.30221000  0.66964000  0.80435000  1.0
  H  H64  1  0.16914000  0.83010000  0.55491000  1.0
  H  H65  1  0.27514000  0.11398000  0.94512000  1.0
  H  H66  1  0.83086000  0.16990000  0.44509000  1.0
  H  H67  1  0.72485000  0.88602000  0.05488000  1.0
  H  H68  1  0.43975000  0.73741000  0.53257000  1.0
  H  H69  1  0.20461000  0.40676000  0.96733000  1.0
  H  H70  1  0.56025000  0.26259000  0.46743000  1.0
  H  H71  1  0.79539000  0.59325000  0.03267000  1.0
  H  H72  1  0.06050000  0.77485000  0.37026000  1.0
  H  H73  1  0.40452000  0.19012000  0.12973000  1.0
  H  H74  1  0.93950000  0.22515000  0.62975000  1.0
  H  H75  1  0.59548000  0.80988000  0.87027000  1.0
  H  H76  1  0.71872000  0.33288000  0.30170000  1.0
  H  H77  1  0.03116000  0.91679000  0.19822000  1.0
  H  H78  1  0.28128000  0.66712000  0.69830000  1.0
  H  H79  1  0.96884000  0.08321000  0.80178000  1.0
  H  H80  1  0.46507000  0.73627000  0.62157000  1.0
  H  H81  1  0.11469000  0.34327000  0.87839000  1.0
  H  H82  1  0.53493000  0.26372000  0.37843000  1.0
  H  H83  1  0.88531000  0.65673000  0.12161000  1.0
  H  H84  1  0.40082000  0.21732000  0.55802000  1.0
  H  H85  1  0.65929000  0.34286000  0.94206000  1.0
  H  H86  1  0.59918000  0.78268000  0.44198000  1.0
  H  H87  1  0.34072000  0.65715000  0.05794000  1.0
  H  H88  1  0.09429000  0.10478000  0.43681000  1.0
  H  H89  1  0.66813000  0.15761000  0.06324000  1.0
  H  H90  1  0.90571000  0.89522000  0.56319000  1.0
  H  H91  1  0.33187000  0.84239000  0.93677000  1.0
  H  H92  1  0.80939000  0.20505000  0.28403000  1.0
  H  H93  1  0.92115000  0.02523000  0.21601000  1.0
  H  H94  1  0.19061000  0.79495000  0.71597000  1.0
  H  H95  1  0.07885000  0.97476000  0.78399000  1.0
  H  H96  1  0.18054000  0.52035000  0.37317000  1.0
  H  H97  1  0.14736000  0.30765000  0.12689000  1.0
  H  H98  1  0.81946000  0.47965000  0.62683000  1.0
  H  H99  1  0.85264000  0.69235000  0.87311000  1.0
  H  H100  1  0.37848000  0.97825000  0.40953000  1.0
  H  H101  1  0.56835000  0.46886000  0.09050000  1.0
  H  H102  1  0.62152000  0.02175000  0.59047000  1.0
  H  H103  1  0.43165000  0.53114000  0.90950000  1.0
  H  H104  1  0.15511000  0.33172000  0.34941000  1.0
  H  H105  1  0.98230000  0.30565000  0.15059000  1.0
  H  H106  1  0.84489000  0.66828000  0.65059000  1.0
  H  H107  1  0.01771000  0.69436000  0.84942000  1.0
  H  H108  1  0.06876000  0.75448000  0.46115000  1.0
  H  H109  1  0.29331000  0.10754000  0.03888000  1.0
  H  H110  1  0.93124000  0.24552000  0.53885000  1.0
  H  H111  1  0.70668000  0.89245000  0.96111000  1.0
  H  H112  1  0.97560000  0.49228000  0.45122000  1.0
  H  H113  1  0.04129000  0.02461000  0.04882000  1.0
  H  H114  1  0.02440000  0.50772000  0.54878000  1.0
  H  H115  1  0.95871000  0.97539000  0.95118000  1.0
  H  H116  1  0.04182000  0.49186000  0.27194000  1.0
  H  H117  1  0.21999000  0.27006000  0.22808000  1.0
  H  H118  1  0.95818000  0.50814000  0.72806000  1.0
  H  H119  1  0.78003000  0.72995000  0.77193000  1.0
  H  H120  1  0.44538000  0.99336000  0.72271000  1.0
  H  H121  1  0.27088000  0.22265000  0.77728000  1.0
  H  H122  1  0.55462000  0.00664000  0.27729000  1.0
  H  H123  1  0.72912000  0.77735000  0.22272000  1.0
  H  H124  1  0.31009000  0.96400000  0.62092000  1.0
  H  H125  1  0.34319000  0.18905000  0.87908000  1.0
  H  H126  1  0.68991000  0.03600000  0.37908000  1.0
  H  H127  1  0.65681000  0.81095000  0.12092000  1.0
  H  H128  1  0.20835000  0.97387000  0.41518000  1.0
  H  H129  1  0.55879000  0.29318000  0.08493000  1.0
  H  H130  1  0.79165000  0.02613000  0.58482000  1.0
  H  H131  1  0.44121000  0.70682000  0.91507000  1.0
  C  C132  1  0.98744000  0.35310000  0.40595000  1.0
  C  C133  1  0.94746000  0.08171000  0.09417000  1.0
  C  C134  1  0.01256000  0.64691000  0.59405000  1.0
  C  C135  1  0.05254000  0.91829000  0.90583000  1.0
  C  C136  1  0.30088000  0.69795000  0.46330000  1.0
  C  C137  1  0.23450000  0.33739000  0.03664000  1.0
  C  C138  1  0.69912000  0.30205000  0.53670000  1.0
  C  C139  1  0.76550000  0.66261000  0.96336000  1.0
  C  C140  1  0.93375000  0.07849000  0.33640000  1.0
  C  C141  1  0.74224000  0.09746000  0.16380000  1.0
  C  C142  1  0.06625000  0.92152000  0.66360000  1.0
  C  C143  1  0.25776000  0.90254000  0.83620000  1.0
  C  C144  1  0.99402000  0.19532000  0.34620000  1.0
  C  C145  1  0.84924000  0.14787000  0.15394000  1.0
  C  C146  1  0.00598000  0.80468000  0.65380000  1.0
  C  C147  1  0.15076000  0.85212000  0.84606000  1.0
  C  C148  1  0.48532000  0.05315000  0.54482000  1.0
  C  C149  1  0.50851000  0.44057000  0.95524000  1.0
  C  C150  1  0.51468000  0.94685000  0.45518000  1.0
  C  C151  1  0.49149000  0.55943000  0.04476000  1.0
  C  C152  1  0.93984000  0.27094000  0.35867000  1.0
  C  C153  1  0.91244000  0.08129000  0.14143000  1.0
  C  C154  1  0.06015000  0.72905000  0.64132000  1.0
  C  C155  1  0.08756000  0.91871000  0.85857000  1.0
  C  C156  1  0.09626000  0.05628000  0.31719000  1.0
  C  C157  1  0.73906000  0.27908000  0.18287000  1.0
  C  C158  1  0.90374000  0.94373000  0.68281000  1.0
  C  C159  1  0.26094000  0.72092000  0.81713000  1.0
  C  C160  1  0.20906000  0.79710000  0.52926000  1.0
  C  C161  1  0.26771000  0.17951000  0.97074000  1.0
  C  C162  1  0.79095000  0.20290000  0.47074000  1.0
  C  C163  1  0.73229000  0.82049000  0.02926000  1.0
  C  C164  1  0.35835000  0.74122000  0.51687000  1.0
  C  C165  1  0.22416000  0.34115000  0.98306000  1.0
  C  C166  1  0.64165000  0.25879000  0.48313000  1.0
  C  C167  1  0.77584000  0.65885000  0.01694000  1.0
  C  C168  1  0.07059000  0.69990000  0.35689000  1.0
  C  C169  1  0.34298000  0.21367000  0.14312000  1.0
  C  C170  1  0.92941000  0.30009000  0.64311000  1.0
  C  C171  1  0.65701000  0.78633000  0.85688000  1.0
  C  C172  1  0.19782000  0.70499000  0.44248000  1.0
  C  C173  1  0.26248000  0.25527000  0.05751000  1.0
  C  C174  1  0.80217000  0.29500000  0.55751000  1.0
  C  C175  1  0.73752000  0.74473000  0.94249000  1.0
  C  C176  1  0.79320000  0.33836000  0.33127000  1.0
  C  C177  1  0.00715000  0.96183000  0.16870000  1.0
  C  C178  1  0.20680000  0.66164000  0.66873000  1.0
  C  C179  1  0.99285000  0.03817000  0.83130000  1.0
  C  C180  1  0.78777000  0.49748000  0.39132000  1.0
  C  C181  1  0.10592000  0.89612000  0.10857000  1.0
  C  C182  1  0.21223000  0.50252000  0.60868000  1.0
  C  C183  1  0.89409000  0.10388000  0.89143000  1.0
  C  C184  1  0.31297000  0.79186000  0.54982000  1.0
  C  C185  1  0.24190000  0.26281000  0.95014000  1.0
  C  C186  1  0.68703000  0.20813000  0.45017000  1.0
  C  C187  1  0.75810000  0.73719000  0.04986000  1.0
  C  C188  1  0.44449000  0.80401000  0.63560000  1.0
  C  C189  1  0.16845000  0.30870000  0.86436000  1.0
  C  C190  1  0.55551000  0.19599000  0.36440000  1.0
  C  C191  1  0.83155000  0.69130000  0.13564000  1.0
  C  C192  1  0.41514000  0.03952000  0.49421000  1.0
  C  C193  1  0.54528000  0.42091000  0.00584000  1.0
  C  C194  1  0.58486000  0.96048000  0.50579000  1.0
  C  C195  1  0.45472000  0.57909000  0.99416000  1.0
  C  C196  1  0.33184000  0.16758000  0.52292000  1.0
  C  C197  1  0.64463000  0.30893000  0.97715000  1.0
  C  C198  1  0.66816000  0.83241000  0.47708000  1.0
  C  C199  1  0.35537000  0.69106000  0.02285000  1.0
  C  C200  1  0.17462000  0.10719000  0.45882000  1.0
  C  C201  1  0.64841000  0.21586000  0.04124000  1.0
  C  C202  1  0.82538000  0.89281000  0.54118000  1.0
  C  C203  1  0.35158000  0.78413000  0.95876000  1.0
  C  C204  1  0.84345000  0.26567000  0.32156000  1.0
  C  C205  1  0.94422000  0.02183000  0.17846000  1.0
  C  C206  1  0.15655000  0.73433000  0.67844000  1.0
  C  C207  1  0.05578000  0.97816000  0.82154000  1.0
  C  C208  1  0.09171000  0.36350000  0.44704000  1.0
  C  C209  1  0.91682000  0.14493000  0.05307000  1.0
  C  C210  1  0.90829000  0.63650000  0.55296000  1.0
  C  C211  1  0.08318000  0.85507000  0.94693000  1.0
  C  C212  1  0.13715000  0.56903000  0.35633000  1.0
  C  C213  1  0.21285000  0.28105000  0.14370000  1.0
  C  C214  1  0.86283000  0.43096000  0.64366000  1.0
  C  C215  1  0.78715000  0.71895000  0.85630000  1.0
  C  C216  1  0.43007000  0.98607000  0.44930000  1.0
  C  C217  1  0.53657000  0.48070000  0.05071000  1.0
  C  C218  1  0.56992000  0.01393000  0.55070000  1.0
  C  C219  1  0.46343000  0.51930000  0.94929000  1.0
  C  C220  1  0.15726000  0.17212000  0.32700000  1.0
  C  C221  1  0.84513000  0.33026000  0.17305000  1.0
  C  C222  1  0.84274000  0.82788000  0.67300000  1.0
  C  C223  1  0.15487000  0.66974000  0.82695000  1.0
  C  C224  1  0.84041000  0.41971000  0.37847000  1.0
  C  C225  1  0.04128000  0.96184000  0.12149000  1.0
  C  C226  1  0.15959000  0.58029000  0.62153000  1.0
  C  C227  1  0.95872000  0.03816000  0.87851000  1.0
  C  C228  1  0.10654000  0.24131000  0.34219000  1.0
  C  C229  1  0.89915000  0.26436000  0.15786000  1.0
  C  C230  1  0.89346000  0.75869000  0.65781000  1.0
  C  C231  1  0.10085000  0.73564000  0.84214000  1.0
  C  C232  1  0.15152000  0.75356000  0.47571000  1.0
  C  C233  1  0.27777000  0.17569000  0.02430000  1.0
  C  C234  1  0.84848000  0.24644000  0.52429000  1.0
  C  C235  1  0.72223000  0.82431000  0.97570000  1.0
  C  C236  1  0.98528000  0.00865000  0.32246000  1.0
  C  C237  1  0.68621000  0.16289000  0.17764000  1.0
  C  C238  1  0.01472000  0.99135000  0.67754000  1.0
  C  C239  1  0.31379000  0.83712000  0.82236000  1.0
  C  C240  1  0.93852000  0.42760000  0.41504000  1.0
  C  C241  1  0.01279000  0.02361000  0.08501000  1.0
  C  C242  1  0.06148000  0.57240000  0.58496000  1.0
  C  C243  1  0.98721000  0.97639000  0.91499000  1.0
  C  C244  1  0.06594000  0.55497000  0.30732000  1.0
  C  C245  1  0.24771000  0.25876000  0.19270000  1.0
  C  C246  1  0.93406000  0.44503000  0.69268000  1.0
  C  C247  1  0.75228000  0.74124000  0.80730000  1.0
  C  C248  1  0.43082000  0.93648000  0.68635000  1.0
  C  C249  1  0.25028000  0.24438000  0.81363000  1.0
  C  C250  1  0.56917000  0.06351000  0.31364000  1.0
  C  C251  1  0.74972000  0.75562000  0.18637000  1.0
  C  C252  1  0.36285000  0.92252000  0.63641000  1.0
  C  C253  1  0.28618000  0.22626000  0.86357000  1.0
  C  C254  1  0.63715000  0.07748000  0.36359000  1.0
  C  C255  1  0.71382000  0.77374000  0.13643000  1.0
  C  C256  1  0.27322000  0.22045000  0.31702000  1.0
  C  C257  1  0.90332000  0.45622000  0.18302000  1.0
  C  C258  1  0.72678000  0.77955000  0.68298000  1.0
  C  C259  1  0.09668000  0.54378000  0.81698000  1.0
  C  C260  1  0.23058000  0.04297000  0.44750000  1.0
  C  C261  1  0.59543000  0.28304000  0.05256000  1.0
  C  C262  1  0.76942000  0.95703000  0.55250000  1.0
  C  C263  1  0.40457000  0.71697000  0.94744000  1.0
  C  C264  1  0.92526000  0.88319000  0.31086000  1.0
  C  C265  1  0.57224000  0.11445000  0.18920000  1.0
  C  C266  1  0.07474000  0.11682000  0.68914000  1.0
  C  C267  1  0.42776000  0.88555000  0.81080000  1.0
  N  N268  1  0.02533000  0.63711000  0.30819000  1.0
  N  N269  1  0.32891000  0.21718000  0.19182000  1.0
  N  N270  1  0.97467000  0.36290000  0.69181000  1.0
  N  N271  1  0.67109000  0.78282000  0.80818000  1.0
  N  N272  1  0.23871000  0.18413000  0.50574000  1.0
  N  N273  1  0.67841000  0.23302000  0.99431000  1.0
  N  N274  1  0.76129000  0.81587000  0.49426000  1.0
  N  N275  1  0.32159000  0.76698000  0.00569000  1.0
  N  N276  1  0.48072000  0.86175000  0.68526000  1.0
  N  N277  1  0.17665000  0.29539000  0.81472000  1.0
  N  N278  1  0.51928000  0.13824000  0.31474000  1.0
  N  N279  1  0.82335000  0.70461000  0.18528000  1.0
  N  N280  1  0.37182000  0.83781000  0.60438000  1.0
  N  N281  1  0.23341000  0.26718000  0.89559000  1.0
  N  N282  1  0.62819000  0.16219000  0.39562000  1.0
  N  N283  1  0.76659000  0.73282000  0.10441000  1.0
  N  N284  1  0.13911000  0.66114000  0.38783000  1.0
  N  N285  1  0.27336000  0.25135000  0.11218000  1.0
  N  N286  1  0.86089000  0.33886000  0.61217000  1.0
  N  N287  1  0.72664000  0.74865000  0.88782000  1.0
  N  N288  1  0.33038000  0.08134000  0.48856000  1.0
  N  N289  1  0.59271000  0.34178000  0.01151000  1.0
  N  N290  1  0.66962000  0.91867000  0.51144000  1.0
  N  N291  1  0.40729000  0.65822000  0.98849000  1.0
  O  O292  1  0.68077000  0.46787000  0.37256000  1.0
  O  O293  1  0.09479000  0.80780000  0.12727000  1.0
  O  O294  1  0.31923000  0.53213000  0.62744000  1.0
  O  O295  1  0.90521000  0.19220000  0.87273000  1.0
  O  O296  1  0.97475000  0.83236000  0.28944000  1.0
  O  O297  1  0.54276000  0.18535000  0.21057000  1.0
  O  O298  1  0.02525000  0.16764000  0.71056000  1.0
  O  O299  1  0.45724000  0.81465000  0.78943000  1.0
  O  O300  1  0.33011000  0.33095000  0.61626000  1.0
  O  O301  1  0.71462000  0.21383000  0.88373000  1.0
  O  O302  1  0.66989000  0.66905000  0.38374000  1.0
  O  O303  1  0.28539000  0.78617000  0.11627000  1.0
  O  O304  1  0.07914000  0.28506000  0.47339000  1.0
  O  O305  1  0.81200000  0.10588000  0.02668000  1.0
  O  O306  1  0.92085000  0.71494000  0.52661000  1.0
  O  O307  1  0.18800000  0.89411000  0.97332000  1.0
  O  O308  1  0.33541000  0.43388000  0.52476000  1.0
  O  O309  1  0.90918000  0.31067000  0.97531000  1.0
  O  O310  1  0.66459000  0.56611000  0.47524000  1.0
  O  O311  1  0.09082000  0.68933000  0.02469000  1.0
  O  O312  1  0.85404000  0.59102000  0.42304000  1.0
  O  O313  1  0.16784000  0.93063000  0.07688000  1.0
  O  O314  1  0.14595000  0.40898000  0.57696000  1.0
  O  O315  1  0.83217000  0.06937000  0.92312000  1.0
  O  O316  1  0.06770000  0.71586000  0.21413000  1.0
  O  O317  1  0.50191000  0.35384000  0.28587000  1.0
  O  O318  1  0.93230000  0.28414000  0.78587000  1.0
  O  O319  1  0.49809000  0.64616000  0.71413000  1.0
  O  O320  1  0.07658000  0.19215000  0.57603000  1.0
  O  O321  1  0.61611000  0.00055000  0.92403000  1.0
  O  O322  1  0.92342000  0.80785000  0.42397000  1.0
  O  O323  1  0.38389000  0.99945000  0.07597000  1.0
  O  O324  1  0.30164000  0.14732000  0.29543000  1.0
  O  O325  1  0.85170000  0.50616000  0.20461000  1.0
  O  O326  1  0.69836000  0.85268000  0.70457000  1.0
  O  O327  1  0.14830000  0.49384000  0.79539000  1.0
  O  O328  1  0.83080000  0.83532000  0.32345000  1.0
  O  O329  1  0.51176000  0.00745000  0.17661000  1.0
  O  O330  1  0.16920000  0.16468000  0.67655000  1.0
  O  O331  1  0.48824000  0.99255000  0.82339000  1.0
  O  O332  1  0.33048000  0.32546000  0.32788000  1.0
  O  O333  1  0.99745000  0.50263000  0.17212000  1.0
  O  O334  1  0.66953000  0.67454000  0.67212000  1.0
  O  O335  1  0.00256000  0.49737000  0.82788000  1.0
  O  O336  1  0.78509000  0.62059000  0.28816000  1.0
  O  O337  1  0.33213000  0.99690000  0.21192000  1.0
  O  O338  1  0.21491000  0.37941000  0.71184000  1.0
  O  O339  1  0.66787000  0.00310000  0.78808000  1.0
  O  O340  1  0.18269000  0.44977000  0.45244000  1.0
  O  O341  1  0.99769000  0.23055000  0.04771000  1.0
  O  O342  1  0.81731000  0.55023000  0.54756000  1.0
  O  O343  1  0.00231000  0.76945000  0.95229000  1.0
