# generated using pymatgen
data_ZnH2C19N4(OF)4
_symmetry_space_group_name_H-M   'P 1'
_cell_length_a   9.56252000
_cell_length_b   10.97340000
_cell_length_c   13.83310000
_cell_angle_alpha   83.98760000
_cell_angle_beta   82.64640000
_cell_angle_gamma   83.44900000
_symmetry_Int_Tables_number   1
_chemical_formula_structural   ZnH2C19N4(OF)4
_chemical_formula_sum   'Zn2 H4 C38 N8 O8 F8'
_cell_volume   1424.21728042
_cell_formula_units_Z   2
loop_
 _symmetry_equiv_pos_site_id
 _symmetry_equiv_pos_as_xyz
  1  'x, y, z'
loop_
 _atom_site_type_symbol
 _atom_site_label
 _atom_site_symmetry_multiplicity
 _atom_site_fract_x
 _atom_site_fract_y
 _atom_site_fract_z
 _atom_site_occupancy
  Zn  Zn0  1  0.86109000  0.52034000  0.47684000  1.0
  Zn  Zn1  1  0.13891000  0.47965000  0.52317000  1.0
  H  H2  1  0.06415000  0.90434000  0.34224000  1.0
  H  H3  1  0.93586000  0.09565000  0.65775000  1.0
  H  H4  1  0.32814000  0.60138000  0.62063000  1.0
  H  H5  1  0.67186000  0.39863000  0.37936000  1.0
  C  C6  1  0.99863000  0.26440000  0.50127000  1.0
  C  C7  1  0.00139000  0.73560000  0.49873000  1.0
  C  C8  1  0.43604000  0.45965000  0.88756000  1.0
  C  C9  1  0.56397000  0.54036000  0.11245000  1.0
  C  C10  1  0.30921000  0.41467000  0.92295000  1.0
  C  C11  1  0.69079000  0.58534000  0.07705000  1.0
  C  C12  1  0.03379000  0.07127000  0.41470000  1.0
  C  C13  1  0.96621000  0.92873000  0.58530000  1.0
  C  C14  1  0.03616000  0.94512000  0.41153000  1.0
  C  C15  1  0.96385000  0.05487000  0.58847000  1.0
  C  C16  1  0.00186000  0.87223000  0.49857000  1.0
  C  C17  1  0.99814000  0.12776000  0.50144000  1.0
  C  C18  1  0.40488000  0.55585000  0.56695000  1.0
  C  C19  1  0.59512000  0.44415000  0.43304000  1.0
  C  C20  1  0.54800000  0.57849000  0.55418000  1.0
  C  C21  1  0.45199000  0.42152000  0.44581000  1.0
  C  C22  1  0.05622000  0.50390000  0.31091000  1.0
  C  C23  1  0.94379000  0.49609000  0.68910000  1.0
  C  C24  1  0.11868000  0.47699000  0.20927000  1.0
  C  C25  1  0.88131000  0.52302000  0.79073000  1.0
  C  C26  1  0.11369000  0.38175000  0.05781000  1.0
  C  C27  1  0.88630000  0.61826000  0.94219000  1.0
  C  C28  1  0.05252000  0.40513000  0.15322000  1.0
  C  C29  1  0.94747000  0.59489000  0.84678000  1.0
  C  C30  1  0.24699000  0.51959000  0.16937000  1.0
  C  C31  1  0.75302000  0.48042000  0.83064000  1.0
  C  C32  1  0.32609000  0.48118000  0.08232000  1.0
  C  C33  1  0.67391000  0.51884000  0.91768000  1.0
  C  C34  1  0.24960000  0.42073000  0.02175000  1.0
  C  C35  1  0.75040000  0.57929000  0.97826000  1.0
  C  C36  1  0.47060000  0.50640000  0.04960000  1.0
  C  C37  1  0.52941000  0.49361000  0.95041000  1.0
  C  C38  1  0.08094000  0.63907000  0.81031000  1.0
  C  C39  1  0.91905000  0.36094000  0.18969000  1.0
  C  C40  1  0.03208000  0.32378000  0.00012000  1.0
  C  C41  1  0.96792000  0.67625000  0.99987000  1.0
  C  C42  1  0.59254000  0.66289000  0.61312000  1.0
  C  C43  1  0.40746000  0.33712000  0.38686000  1.0
  N  N44  1  0.64142000  0.52190000  0.48699000  1.0
  N  N45  1  0.35857000  0.47811000  0.51301000  1.0
  N  N46  1  0.19075000  0.67571000  0.78421000  1.0
  N  N47  1  0.80925000  0.32431000  0.21579000  1.0
  N  N48  1  0.95605000  0.27964000  0.95722000  1.0
  N  N49  1  0.04395000  0.72040000  0.04277000  1.0
  N  N50  1  0.61687000  0.73373000  0.66445000  1.0
  N  N51  1  0.38313000  0.26627000  0.33553000  1.0
  O  O52  1  0.88832000  0.33121000  0.47826000  1.0
  O  O53  1  0.11169000  0.66879000  0.52172000  1.0
  O  O54  1  0.11004000  0.30099000  0.52461000  1.0
  O  O55  1  0.88996000  0.69900000  0.47541000  1.0
  O  O56  1  0.92259000  0.52247000  0.32829000  1.0
  O  O57  1  0.07740000  0.47756000  0.67171000  1.0
  O  O58  1  0.14529000  0.50075000  0.37194000  1.0
  O  O59  1  0.85470000  0.49922000  0.62806000  1.0
  F  F60  1  0.23475000  0.37445000  0.85860000  1.0
  F  F61  1  0.76526000  0.62557000  0.14140000  1.0
  F  F62  1  0.70759000  0.39193000  0.78621000  1.0
  F  F63  1  0.29241000  0.60807000  0.21380000  1.0
  F  F64  1  0.46579000  0.47366000  0.78955000  1.0
  F  F65  1  0.53422000  0.52635000  0.21045000  1.0
  F  F66  1  0.06850000  0.14277000  0.33016000  1.0
  F  F67  1  0.93148000  0.85723000  0.66983000  1.0
