# generated using pymatgen
data_AlH6C24(NO3)6
_symmetry_space_group_name_H-M   'P 1'
_cell_length_a   3.94194000
_cell_length_b   29.13038058
_cell_length_c   29.12950000
_cell_angle_alpha   120.00100000
_cell_angle_beta   90.00060000
_cell_angle_gamma   89.99800006
_symmetry_Int_Tables_number   1
_chemical_formula_structural   AlH6C24(NO3)6
_chemical_formula_sum   'Al2 H12 C48 N12 O36'
_cell_volume   2896.77960048
_cell_formula_units_Z   2
loop_
 _symmetry_equiv_pos_site_id
 _symmetry_equiv_pos_as_xyz
  1  'x, y, z'
loop_
 _atom_site_type_symbol
 _atom_site_label
 _atom_site_symmetry_multiplicity
 _atom_site_fract_x
 _atom_site_fract_y
 _atom_site_fract_z
 _atom_site_occupancy
  Al  Al0  1  0.00000000  0.50000000  0.00000000  1.0
  Al  Al1  1  0.99961000  0.83334000  0.66668000  1.0
  H  H2  1  0.45937000  0.68525000  0.51885000  1.0
  H  H3  1  0.54016000  0.83360000  0.51883000  1.0
  H  H4  1  0.54039000  0.49973000  0.14784000  1.0
  H  H5  1  0.45967000  0.64810000  0.14784000  1.0
  H  H6  1  0.45937000  0.83359000  0.81477000  1.0
  H  H7  1  0.54010000  0.68523000  0.66641000  1.0
  H  H8  1  0.54037000  0.64810000  0.00027000  1.0
  H  H9  1  0.45968000  0.49973000  0.85190000  1.0
  H  H10  1  0.45940000  0.98117000  0.66641000  1.0
  H  H11  1  0.54019000  0.98120000  0.81479000  1.0
  H  H12  1  0.54036000  0.35217000  0.85188000  1.0
  H  H13  1  0.45967000  0.35217000  0.00026000  1.0
  C  C14  1  0.50002000  0.41847000  0.95923000  1.0
  C  C15  1  0.50002000  0.54077000  0.08155000  1.0
  C  C16  1  0.50001000  0.54077000  0.95923000  1.0
  C  C17  1  0.49963000  0.79258000  0.58513000  1.0
  C  C18  1  0.49962000  0.79255000  0.70744000  1.0
  C  C19  1  0.49963000  0.91489000  0.70746000  1.0
  C  C20  1  0.49978000  0.76305000  0.52609000  1.0
  C  C21  1  0.47824000  0.70775000  0.49830000  1.0
  C  C22  1  0.49611000  0.68066000  0.44340000  1.0
  C  C23  1  0.49979000  0.70661000  0.41321000  1.0
  C  C24  1  0.50344000  0.76273000  0.44338000  1.0
  C  C25  1  0.52133000  0.79056000  0.49830000  1.0
  C  C26  1  0.49984000  0.67872000  0.35745000  1.0
  C  C27  1  0.49980000  0.65459000  0.30920000  1.0
  C  C28  1  0.49988000  0.62672000  0.25346000  1.0
  C  C29  1  0.50335000  0.57059000  0.22326000  1.0
  C  C30  1  0.52141000  0.54277000  0.16836000  1.0
  C  C31  1  0.50001000  0.57028000  0.14057000  1.0
  C  C32  1  0.47856000  0.62558000  0.16837000  1.0
  C  C33  1  0.49652000  0.65265000  0.22326000  1.0
  C  C34  1  0.49977000  0.76304000  0.73697000  1.0
  C  C35  1  0.47825000  0.79054000  0.79226000  1.0
  C  C36  1  0.49611000  0.76272000  0.81934000  1.0
  C  C37  1  0.49975000  0.70659000  0.79340000  1.0
  C  C38  1  0.50337000  0.68065000  0.73727000  1.0
  C  C39  1  0.52126000  0.70774000  0.70946000  1.0
  C  C40  1  0.49983000  0.67871000  0.82127000  1.0
  C  C41  1  0.49981000  0.65458000  0.84540000  1.0
  C  C42  1  0.49989000  0.62672000  0.87328000  1.0
  C  C43  1  0.50336000  0.65265000  0.92940000  1.0
  C  C44  1  0.52142000  0.62558000  0.95723000  1.0
  C  C45  1  0.50001000  0.57028000  0.92972000  1.0
  C  C46  1  0.47857000  0.54277000  0.87442000  1.0
  C  C47  1  0.49651000  0.57059000  0.84734000  1.0
  C  C48  1  0.49980000  0.97393000  0.73698000  1.0
  C  C49  1  0.47826000  0.00171000  0.70945000  1.0
  C  C50  1  0.49611000  0.05661000  0.73726000  1.0
  C  C51  1  0.49978000  0.08681000  0.79339000  1.0
  C  C52  1  0.50343000  0.05663000  0.81935000  1.0
  C  C53  1  0.52131000  0.00173000  0.79227000  1.0
  C  C54  1  0.49984000  0.14257000  0.82127000  1.0
  C  C55  1  0.49977000  0.19081000  0.84538000  1.0
  C  C56  1  0.49984000  0.24656000  0.87326000  1.0
  C  C57  1  0.50332000  0.27675000  0.84733000  1.0
  C  C58  1  0.52140000  0.33166000  0.87442000  1.0
  C  C59  1  0.49999000  0.35944000  0.92971000  1.0
  C  C60  1  0.47855000  0.33165000  0.95721000  1.0
  C  C61  1  0.49648000  0.27675000  0.92939000  1.0
  N  N62  1  0.48078000  0.79483000  0.41697000  1.0
  N  N63  1  0.51887000  0.62216000  0.41699000  1.0
  N  N64  1  0.51916000  0.71114000  0.24969000  1.0
  N  N65  1  0.48078000  0.53853000  0.24969000  1.0
  N  N66  1  0.48072000  0.62214000  0.70517000  1.0
  N  N67  1  0.51885000  0.79481000  0.87786000  1.0
  N  N68  1  0.51914000  0.53853000  0.78885000  1.0
  N  N69  1  0.48078000  0.71114000  0.96146000  1.0
  N  N70  1  0.48082000  0.08307000  0.87787000  1.0
  N  N71  1  0.51886000  0.08302000  0.70516000  1.0
  N  N72  1  0.51913000  0.25033000  0.96146000  1.0
  N  N73  1  0.48077000  0.25033000  0.78884000  1.0
  O  O74  1  0.73508000  0.55148000  0.99317000  1.0
  O  O75  1  0.73511000  0.44169000  0.94852000  1.0
  O  O76  1  0.73511000  0.50683000  0.05831000  1.0
  O  O77  1  0.26491000  0.50684000  0.94853000  1.0
  O  O78  1  0.26492000  0.55148000  0.05832000  1.0
  O  O79  1  0.26493000  0.44170000  0.99317000  1.0
  O  O80  1  0.73461000  0.89164000  0.71816000  1.0
  O  O81  1  0.73459000  0.82652000  0.60837000  1.0
  O  O82  1  0.73462000  0.78185000  0.67349000  1.0
  O  O83  1  0.26449000  0.89167000  0.67354000  1.0
  O  O84  1  0.26449000  0.82648000  0.71815000  1.0
  O  O85  1  0.26447000  0.78187000  0.60835000  1.0
  O  O86  1  0.28201000  0.77912000  0.37940000  1.0
  O  O87  1  0.65601000  0.83544000  0.43598000  1.0
  O  O88  1  0.71778000  0.60031000  0.37943000  1.0
  O  O89  1  0.34366000  0.60055000  0.43600000  1.0
  O  O90  1  0.71784000  0.73299000  0.28728000  1.0
  O  O91  1  0.34403000  0.73275000  0.23067000  1.0
  O  O92  1  0.28212000  0.55427000  0.28728000  1.0
  O  O93  1  0.65595000  0.49791000  0.23068000  1.0
  O  O94  1  0.28198000  0.60027000  0.72088000  1.0
  O  O95  1  0.65596000  0.60054000  0.66455000  1.0
  O  O96  1  0.71767000  0.77909000  0.89970000  1.0
  O  O97  1  0.34366000  0.83543000  0.89947000  1.0
  O  O98  1  0.71782000  0.55427000  0.76701000  1.0
  O  O99  1  0.34401000  0.49790000  0.76723000  1.0
  O  O100  1  0.28212000  0.73299000  0.94572000  1.0
  O  O101  1  0.65595000  0.73275000  0.00209000  1.0
  O  O102  1  0.28212000  0.12065000  0.89973000  1.0
  O  O103  1  0.65603000  0.06406000  0.89948000  1.0
  O  O104  1  0.71773000  0.12057000  0.72086000  1.0
  O  O105  1  0.34365000  0.06400000  0.66454000  1.0
  O  O106  1  0.71783000  0.21274000  0.94571000  1.0
  O  O107  1  0.34402000  0.26934000  0.00208000  1.0
  O  O108  1  0.28214000  0.21274000  0.76699000  1.0
  O  O109  1  0.65598000  0.26934000  0.76723000  1.0
