# generated using pymatgen
data_Zn4H26C29S2O15
_symmetry_space_group_name_H-M   'P 1'
_cell_length_a   17.84680000
_cell_length_b   18.64330000
_cell_length_c   19.30480000
_cell_angle_alpha   61.15800000
_cell_angle_beta   64.07200000
_cell_angle_gamma   89.93040000
_symmetry_Int_Tables_number   1
_chemical_formula_structural   Zn4H26C29S2O15
_chemical_formula_sum   'Zn8 H52 C58 S4 O30'
_cell_volume   4877.47715395
_cell_formula_units_Z   2
loop_
 _symmetry_equiv_pos_site_id
 _symmetry_equiv_pos_as_xyz
  1  'x, y, z'
loop_
 _atom_site_type_symbol
 _atom_site_label
 _atom_site_symmetry_multiplicity
 _atom_site_fract_x
 _atom_site_fract_y
 _atom_site_fract_z
 _atom_site_occupancy
  Zn  Zn0  1  0.13141000  0.54259000  0.92095000  1.0
  Zn  Zn1  1  0.96531000  0.55243000  0.06654000  1.0
  Zn  Zn2  1  0.96963000  0.38109000  0.06338000  1.0
  Zn  Zn3  1  0.95230000  0.54328000  0.91001000  1.0
  Zn  Zn4  1  0.37763000  0.97015000  0.06646000  1.0
  Zn  Zn5  1  0.54179000  0.12891000  0.91312000  1.0
  Zn  Zn6  1  0.53635000  0.95784000  0.91408000  1.0
  Zn  Zn7  1  0.56068000  0.96523000  0.06613000  1.0
  H  H8  1  0.20994000  0.82711000  0.36028000  1.0
  H  H9  1  0.68057000  0.30671000  0.61092000  1.0
  H  H10  1  0.21616000  0.31933000  0.87789000  1.0
  H  H11  1  0.13039000  0.23394000  0.98185000  1.0
  H  H12  1  0.21964000  0.14276000  0.97806000  1.0
  H  H13  1  0.30525000  0.22880000  0.87458000  1.0
  H  H14  1  0.19875000  0.10936000  0.12837000  1.0
  H  H15  1  0.27032000  0.16916000  0.13372000  1.0
  H  H16  1  0.11085000  0.20220000  0.13300000  1.0
  H  H17  1  0.18471000  0.26306000  0.13475000  1.0
  H  H18  1  0.32021000  0.40858000  0.88103000  1.0
  H  H19  1  0.30696000  0.38650000  0.98580000  1.0
  H  H20  1  0.39484000  0.29382000  0.98498000  1.0
  H  H21  1  0.40916000  0.31705000  0.87959000  1.0
  H  H22  1  0.90657000  0.81463000  0.87280000  1.0
  H  H23  1  0.88776000  0.78753000  0.98158000  1.0
  H  H24  1  0.79940000  0.87996000  0.98222000  1.0
  H  H25  1  0.81838000  0.90615000  0.87365000  1.0
  H  H26  1  0.67574000  0.75809000  0.12486000  1.0
  H  H27  1  0.60496000  0.69777000  0.11908000  1.0
  H  H28  1  0.76270000  0.66420000  0.12443000  1.0
  H  H29  1  0.69252000  0.60572000  0.11646000  1.0
  H  H30  1  0.80759000  0.72952000  0.86084000  1.0
  H  H31  1  0.72062000  0.64342000  0.95998000  1.0
  H  H32  1  0.63110000  0.73441000  0.96316000  1.0
  H  H33  1  0.71747000  0.82009000  0.86318000  1.0
  H  H34  1  0.17540000  0.80637000  0.91394000  1.0
  H  H35  1  0.26707000  0.77724000  0.85875000  1.0
  H  H36  1  0.35451000  0.87328000  0.85541000  1.0
  H  H37  1  0.26216000  0.90091000  0.91190000  1.0
  H  H38  1  0.40186000  0.75242000  0.94627000  1.0
  H  H39  1  0.34448000  0.69550000  0.06670000  1.0
  H  H40  1  0.31298000  0.65605000  0.95090000  1.0
  H  H41  1  0.25545000  0.60053000  0.07122000  1.0
  H  H42  1  0.09139000  0.72595000  0.08729000  1.0
  H  H43  1  0.12349000  0.64140000  0.15171000  1.0
  H  H44  1  0.21273000  0.73586000  0.14844000  1.0
  H  H45  1  0.17967000  0.82019000  0.08509000  1.0
  H  H46  1  0.91109000  0.28122000  0.90255000  1.0
  H  H47  1  0.87491000  0.36477000  0.84094000  1.0
  H  H48  1  0.78734000  0.26767000  0.84578000  1.0
  H  H49  1  0.82223000  0.18424000  0.90940000  1.0
  H  H50  1  0.65707000  0.30842000  0.92744000  1.0
  H  H51  1  0.59977000  0.25277000  0.04772000  1.0
  H  H52  1  0.74613000  0.40416000  0.92336000  1.0
  H  H53  1  0.68846000  0.34772000  0.04363000  1.0
  H  H54  1  0.82896000  0.19831000  0.07585000  1.0
  H  H55  1  0.73877000  0.22546000  0.13438000  1.0
  H  H56  1  0.64818000  0.13123000  0.13875000  1.0
  H  H57  1  0.73839000  0.10263000  0.08217000  1.0
  H  H58  1  0.37897000  0.78432000  0.57571000  1.0
  H  H59  1  0.71331000  0.13160000  0.41974000  1.0
  C  C60  1  0.14204000  0.63715000  0.00342000  1.0
  C  C61  1  0.88099000  0.38064000  0.23338000  1.0
  C  C62  1  0.14675000  0.36599000  0.99918000  1.0
  C  C63  1  0.86415000  0.37033000  0.98282000  1.0
  C  C64  1  0.12783000  0.62651000  0.74726000  1.0
  C  C65  1  0.86155000  0.64349000  0.98588000  1.0
  C  C66  1  0.36262000  0.14470000  0.99372000  1.0
  C  C67  1  0.61978000  0.12780000  0.74419000  1.0
  C  C68  1  0.35733000  0.86528000  0.99670000  1.0
  C  C69  1  0.64514000  0.86563000  0.98867000  1.0
  C  C70  1  0.39034000  0.88232000  0.23554000  1.0
  C  C71  1  0.64724000  0.14217000  0.99052000  1.0
  C  C72  1  0.26991000  0.69468000  0.59374000  1.0
  C  C73  1  0.25190000  0.80798000  0.38954000  1.0
  C  C74  1  0.18045000  0.67309000  0.64690000  1.0
  C  C75  1  0.34082000  0.83055000  0.33610000  1.0
  C  C76  1  0.22602000  0.75882000  0.48310000  1.0
  C  C77  1  0.29602000  0.74458000  0.49954000  1.0
  C  C78  1  0.80857000  0.24181000  0.39195000  1.0
  C  C79  1  0.69736000  0.26432000  0.58615000  1.0
  C  C80  1  0.83330000  0.32963000  0.33385000  1.0
  C  C81  1  0.67155000  0.17697000  0.64404000  1.0
  C  C82  1  0.74657000  0.28810000  0.49432000  1.0
  C  C83  1  0.75783000  0.21807000  0.48412000  1.0
  C  C84  1  0.19833000  0.26811000  0.94757000  1.0
  C  C85  1  0.25760000  0.20748000  0.94539000  1.0
  C  C86  1  0.30565000  0.20521000  0.99631000  1.0
  C  C87  1  0.23729000  0.17376000  0.09573000  1.0
  C  C88  1  0.17922000  0.23543000  0.09752000  1.0
  C  C89  1  0.20652000  0.30782000  0.99923000  1.0
  C  C90  1  0.30117000  0.35662000  0.95063000  1.0
  C  C91  1  0.35975000  0.29560000  0.94969000  1.0
  C  C92  1  0.85565000  0.79165000  0.94301000  1.0
  C  C93  1  0.79681000  0.85290000  0.94359000  1.0
  C  C94  1  0.70218000  0.80475000  0.98749000  1.0
  C  C95  1  0.67293000  0.73138000  0.08602000  1.0
  C  C96  1  0.73118000  0.66987000  0.08500000  1.0
  C  C97  1  0.80134000  0.70160000  0.98609000  1.0
  C  C98  1  0.75776000  0.70735000  0.93107000  1.0
  C  C99  1  0.69843000  0.76780000  0.93266000  1.0
  C  C100  1  0.23142000  0.78389000  0.91740000  1.0
  C  C101  1  0.28958000  0.84716000  0.91550000  1.0
  C  C102  1  0.29754000  0.80186000  0.00257000  1.0
  C  C103  1  0.33687000  0.72713000  0.00601000  1.0
  C  C104  1  0.27789000  0.66373000  0.00878000  1.0
  C  C105  1  0.19873000  0.69542000  0.00632000  1.0
  C  C106  1  0.14825000  0.70435000  0.08854000  1.0
  C  C107  1  0.20704000  0.76703000  0.08663000  1.0
  C  C108  1  0.85310000  0.30170000  0.90325000  1.0
  C  C109  1  0.79419000  0.23745000  0.90682000  1.0
  C  C110  1  0.70334000  0.20203000  0.99234000  1.0
  C  C111  1  0.66485000  0.27744000  0.98784000  1.0
  C  C112  1  0.72394000  0.34074000  0.98513000  1.0
  C  C113  1  0.80301000  0.30895000  0.98747000  1.0
  C  C114  1  0.77232000  0.22025000  0.07443000  1.0
  C  C115  1  0.71257000  0.15719000  0.07782000  1.0
  C  C116  1  0.33152000  0.66573000  0.62870000  1.0
  C  C117  1  0.83526000  0.17917000  0.36449000  1.0
  S  S118  1  0.12862000  0.71124000  0.58343000  1.0
  S  S119  1  0.39372000  0.79168000  0.39873000  1.0
  S  S120  1  0.79752000  0.38274000  0.39035000  1.0
  S  S121  1  0.70743000  0.12294000  0.58825000  1.0
  O  O122  1  0.00429000  0.50589000  0.98876000  1.0
  O  O123  1  0.18054000  0.61148000  0.94978000  1.0
  O  O124  1  0.90519000  0.46078000  0.19687000  1.0
  O  O125  1  0.06586000  0.32989000  0.05229000  1.0
  O  O126  1  0.06044000  0.62062000  0.05233000  1.0
  O  O127  1  0.18124000  0.44580000  0.94495000  1.0
  O  O128  1  0.89211000  0.34090000  0.19300000  1.0
  O  O129  1  0.90199000  0.33700000  0.02883000  1.0
  O  O130  1  0.04613000  0.60342000  0.78098000  1.0
  O  O131  1  0.87477000  0.44998000  0.93222000  1.0
  O  O132  1  0.16885000  0.61521000  0.78996000  1.0
  O  O133  1  0.88748000  0.62264000  0.04344000  1.0
  O  O134  1  0.88262000  0.62126000  0.92833000  1.0
  O  O135  1  0.50417000  0.00465000  0.99158000  1.0
  O  O136  1  0.32481000  0.06523000  0.04380000  1.0
  O  O137  1  0.59709000  0.17001000  0.78239000  1.0
  O  O138  1  0.43643000  0.89085000  0.93423000  1.0
  O  O139  1  0.44388000  0.17765000  0.94103000  1.0
  O  O140  1  0.32464000  0.88882000  0.05313000  1.0
  O  O141  1  0.60275000  0.04698000  0.78323000  1.0
  O  O142  1  0.61111000  0.88383000  0.93841000  1.0
  O  O143  1  0.47256000  0.89602000  0.19778000  1.0
  O  O144  1  0.63594000  0.89404000  0.03961000  1.0
  O  O145  1  0.34558000  0.90843000  0.19618000  1.0
  O  O146  1  0.62618000  0.17689000  0.92869000  1.0
  O  O147  1  0.62658000  0.06272000  0.04891000  1.0
  O  O148  1  0.39157000  0.73025000  0.60617000  1.0
  O  O149  1  0.33348000  0.59262000  0.66902000  1.0
  O  O150  1  0.76763000  0.11857000  0.39205000  1.0
  O  O151  1  0.90912000  0.17694000  0.32605000  1.0
