# generated using pymatgen
data_YbH6C7O9
_symmetry_space_group_name_H-M   'P 1'
_cell_length_a   9.77519000
_cell_length_b   9.77644000
_cell_length_c   12.95290000
_cell_angle_alpha   108.87200000
_cell_angle_beta   95.55140000
_cell_angle_gamma   116.29200000
_symmetry_Int_Tables_number   1
_chemical_formula_structural   YbH6C7O9
_chemical_formula_sum   'Yb4 H24 C28 O36'
_cell_volume   1007.24201275
_cell_formula_units_Z   4
loop_
 _symmetry_equiv_pos_site_id
 _symmetry_equiv_pos_as_xyz
  1  'x, y, z'
loop_
 _atom_site_type_symbol
 _atom_site_label
 _atom_site_symmetry_multiplicity
 _atom_site_fract_x
 _atom_site_fract_y
 _atom_site_fract_z
 _atom_site_occupancy
  Yb  Yb0  1  0.26396000  0.53943000  0.99781000  1.0
  Yb  Yb1  1  0.54171000  0.76616000  0.50223000  1.0
  Yb  Yb2  1  0.73603000  0.46057000  0.00219000  1.0
  Yb  Yb3  1  0.45830000  0.23384000  0.49778000  1.0
  H  H4  1  0.07119000  0.31246000  0.76747000  1.0
  H  H5  1  0.54490000  0.80341000  0.73252000  1.0
  H  H6  1  0.92880000  0.68754000  0.23253000  1.0
  H  H7  1  0.45510000  0.19659000  0.26748000  1.0
  H  H8  1  0.95241000  0.36235000  0.81912000  1.0
  H  H9  1  0.54315000  0.63304000  0.68076000  1.0
  H  H10  1  0.04758000  0.63765000  0.18089000  1.0
  H  H11  1  0.45685000  0.36696000  0.31924000  1.0
  H  H12  1  0.16193000  0.21554000  0.14813000  1.0
  H  H13  1  0.06723000  0.51383000  0.35195000  1.0
  H  H14  1  0.83807000  0.78445000  0.85187000  1.0
  H  H15  1  0.93277000  0.48616000  0.64804000  1.0
  H  H16  1  0.02320000  0.94516000  0.19943000  1.0
  H  H17  1  0.74565000  0.32364000  0.30061000  1.0
  H  H18  1  0.97680000  0.05482000  0.80057000  1.0
  H  H19  1  0.25436000  0.67635000  0.69938000  1.0
  H  H20  1  0.46346000  0.76604000  0.91781000  1.0
  H  H21  1  0.84843000  0.04573000  0.58210000  1.0
  H  H22  1  0.53652000  0.23396000  0.08219000  1.0
  H  H23  1  0.15157000  0.95428000  0.41790000  1.0
  H  H24  1  0.48145000  0.60926000  0.86170000  1.0
  H  H25  1  0.74782000  0.11974000  0.63839000  1.0
  H  H26  1  0.51855000  0.39075000  0.13830000  1.0
  H  H27  1  0.25218000  0.88026000  0.36162000  1.0
  C  C28  1  0.91404000  0.26119000  0.03112000  1.0
  C  C29  1  0.23006000  0.38309000  0.46903000  1.0
  C  C30  1  0.08597000  0.73881000  0.96888000  1.0
  C  C31  1  0.76994000  0.61690000  0.53097000  1.0
  C  C32  1  0.80082000  0.92424000  0.11863000  1.0
  C  C33  1  0.80562000  0.18222000  0.38154000  1.0
  C  C34  1  0.19918000  0.07576000  0.88137000  1.0
  C  C35  1  0.19439000  0.81779000  0.61846000  1.0
  C  C36  1  0.03584000  0.13254000  0.13159000  1.0
  C  C37  1  0.00085000  0.40431000  0.36853000  1.0
  C  C38  1  0.96415000  0.86745000  0.86841000  1.0
  C  C39  1  0.99916000  0.59568000  0.63146000  1.0
  C  C40  1  0.66305000  0.76754000  0.10669000  1.0
  C  C41  1  0.66084000  0.05640000  0.39343000  1.0
  C  C42  1  0.33695000  0.23246000  0.89331000  1.0
  C  C43  1  0.33917000  0.94361000  0.60657000  1.0
  C  C44  1  0.96292000  0.99143000  0.15768000  1.0
  C  C45  1  0.83369000  0.30524000  0.34246000  1.0
  C  C46  1  0.03707000  0.00856000  0.84231000  1.0
  C  C47  1  0.16632000  0.69476000  0.65754000  1.0
  C  C48  1  0.32047000  0.66436000  0.26359000  1.0
  C  C49  1  0.40088000  0.55704000  0.23650000  1.0
  C  C50  1  0.67952000  0.33565000  0.73640000  1.0
  C  C51  1  0.59911000  0.44296000  0.76349000  1.0
  C  C52  1  0.91462000  0.14364000  0.07816000  1.0
  C  C53  1  0.06546000  0.33658000  0.42197000  1.0
  C  C54  1  0.08538000  0.85635000  0.92183000  1.0
  C  C55  1  0.93455000  0.66341000  0.57802000  1.0
  O  O56  1  0.04359000  0.35660000  0.01716000  1.0
  O  O57  1  0.33934000  0.52660000  0.48295000  1.0
  O  O58  1  0.95641000  0.64339000  0.98284000  1.0
  O  O59  1  0.66067000  0.47341000  0.51705000  1.0
  O  O60  1  0.78474000  0.26162000  0.00890000  1.0
  O  O61  1  0.25271000  0.27599000  0.49118000  1.0
  O  O62  1  0.21526000  0.73838000  0.99110000  1.0
  O  O63  1  0.74729000  0.72401000  0.50882000  1.0
  O  O64  1  0.24596000  0.66791000  0.17983000  1.0
  O  O65  1  0.48825000  0.56631000  0.32026000  1.0
  O  O66  1  0.75404000  0.33209000  0.82018000  1.0
  O  O67  1  0.51176000  0.43370000  0.67975000  1.0
  O  O68  1  0.69273000  0.65507000  0.11297000  1.0
  O  O69  1  0.54206000  0.07974000  0.38709000  1.0
  O  O70  1  0.30727000  0.34493000  0.88704000  1.0
  O  O71  1  0.45795000  0.92026000  0.61291000  1.0
  O  O72  1  0.77015000  0.01820000  0.07136000  1.0
  O  O73  1  0.94689000  0.19893000  0.42884000  1.0
  O  O74  1  0.22985000  0.98180000  0.92863000  1.0
  O  O75  1  0.05312000  0.80108000  0.57116000  1.0
  O  O76  1  0.52573000  0.75125000  0.08749000  1.0
  O  O77  1  0.66372000  0.93823000  0.41258000  1.0
  O  O78  1  0.47427000  0.24875000  0.91252000  1.0
  O  O79  1  0.33629000  0.06177000  0.58742000  1.0
  O  O80  1  0.32981000  0.73609000  0.36692000  1.0
  O  O81  1  0.36935000  0.46309000  0.13319000  1.0
  O  O82  1  0.67020000  0.26392000  0.63309000  1.0
  O  O83  1  0.63065000  0.53691000  0.86682000  1.0
  O  O84  1  0.06483000  0.40684000  0.81752000  1.0
  O  O85  1  0.58920000  0.74706000  0.68238000  1.0
  O  O86  1  0.93516000  0.59316000  0.18248000  1.0
  O  O87  1  0.41080000  0.25295000  0.31762000  1.0
  O  O88  1  0.40290000  0.64790000  0.86535000  1.0
  O  O89  1  0.78288000  0.03760000  0.63466000  1.0
  O  O90  1  0.59709000  0.35210000  0.13465000  1.0
  O  O91  1  0.21712000  0.96241000  0.36534000  1.0
