# generated using pymatgen
data_GdZnH16C26N2ClO11
_symmetry_space_group_name_H-M   'P 1'
_cell_length_a   8.27900000
_cell_length_b   12.84130000
_cell_length_c   13.30420000
_cell_angle_alpha   106.68100000
_cell_angle_beta   104.51300000
_cell_angle_gamma   93.57330000
_symmetry_Int_Tables_number   1
_chemical_formula_structural   GdZnH16C26N2ClO11
_chemical_formula_sum   'Gd2 Zn2 H32 C52 N4 Cl2 O22'
_cell_volume   1297.83697487
_cell_formula_units_Z   2
loop_
 _symmetry_equiv_pos_site_id
 _symmetry_equiv_pos_as_xyz
  1  'x, y, z'
loop_
 _atom_site_type_symbol
 _atom_site_label
 _atom_site_symmetry_multiplicity
 _atom_site_fract_x
 _atom_site_fract_y
 _atom_site_fract_z
 _atom_site_occupancy
  Gd  Gd0  1  0.75395000  0.51004000  0.51054000  1.0
  Gd  Gd1  1  0.24605000  0.48997000  0.48946000  1.0
  Zn  Zn2  1  0.67649000  0.78127000  0.33397000  1.0
  Zn  Zn3  1  0.32351000  0.21873000  0.66603000  1.0
  H  H4  1  0.99758000  0.41733000  0.64050000  1.0
  H  H5  1  0.00242000  0.58267000  0.35950000  1.0
  H  H6  1  0.85845000  0.41656000  0.70525000  1.0
  H  H7  1  0.14155000  0.58344000  0.29475000  1.0
  H  H8  1  0.57244000  0.25572000  0.94169000  1.0
  H  H9  1  0.42755000  0.74428000  0.05830000  1.0
  H  H10  1  0.35311000  0.14599000  0.97848000  1.0
  H  H11  1  0.64688000  0.85401000  0.02152000  1.0
  H  H12  1  0.26134000  0.22045000  0.14934000  1.0
  H  H13  1  0.73866000  0.77955000  0.85067000  1.0
  H  H14  1  0.70590000  0.49933000  0.89419000  1.0
  H  H15  1  0.29410000  0.50067000  0.10580000  1.0
  H  H16  1  0.95278000  0.30848000  0.08937000  1.0
  H  H17  1  0.04721000  0.69151000  0.91062000  1.0
  H  H18  1  0.08951000  0.22849000  0.93812000  1.0
  H  H19  1  0.91049000  0.77151000  0.06188000  1.0
  H  H20  1  0.02219000  0.28752000  0.77346000  1.0
  H  H21  1  0.97781000  0.71248000  0.22654000  1.0
  H  H22  1  0.95763000  0.01633000  0.89692000  1.0
  H  H23  1  0.04237000  0.98367000  0.10309000  1.0
  H  H24  1  0.23981000  0.95481000  0.95227000  1.0
  H  H25  1  0.76019000  0.04519000  0.04774000  1.0
  H  H26  1  0.32677000  0.80699000  0.81616000  1.0
  H  H27  1  0.67324000  0.19301000  0.18384000  1.0
  H  H28  1  0.48426000  0.04146000  0.71784000  1.0
  H  H29  1  0.51574000  0.95854000  0.28216000  1.0
  H  H30  1  0.92764000  0.01705000  0.60102000  1.0
  H  H31  1  0.07237000  0.98295000  0.39898000  1.0
  H  H32  1  0.84861000  0.16788000  0.52342000  1.0
  H  H33  1  0.15139000  0.83212000  0.47658000  1.0
  H  H34  1  0.58820000  0.25079000  0.54740000  1.0
  H  H35  1  0.41180000  0.74921000  0.45260000  1.0
  C  C36  1  0.43674000  0.36926000  0.20715000  1.0
  C  C37  1  0.56326000  0.63074000  0.79285000  1.0
  C  C38  1  0.56672000  0.43054000  0.18895000  1.0
  C  C39  1  0.43328000  0.56946000  0.81104000  1.0
  C  C40  1  0.61506000  0.38815000  0.09300000  1.0
  C  C41  1  0.38494000  0.61185000  0.90699000  1.0
  C  C42  1  0.53762000  0.28643000  0.01737000  1.0
  C  C43  1  0.46237000  0.71357000  0.98263000  1.0
  C  C44  1  0.41253000  0.22500000  0.03862000  1.0
  C  C45  1  0.58747000  0.77500000  0.96138000  1.0
  C  C46  1  0.36089000  0.26614000  0.13223000  1.0
  C  C47  1  0.63911000  0.73386000  0.86777000  1.0
  C  C48  1  0.37033000  0.41234000  0.30273000  1.0
  C  C49  1  0.62967000  0.58766000  0.69727000  1.0
  C  C50  1  0.65472000  0.54141000  0.26646000  1.0
  C  C51  1  0.34528000  0.45859000  0.73354000  1.0
  C  C52  1  0.78907000  0.43857000  0.90498000  1.0
  C  C53  1  0.21093000  0.56143000  0.09502000  1.0
  C  C54  1  0.81662000  0.40649000  0.99866000  1.0
  C  C55  1  0.18338000  0.59351000  0.00134000  1.0
  C  C56  1  0.92640000  0.33079000  0.01429000  1.0
  C  C57  1  0.07359000  0.66921000  0.98570000  1.0
  C  C58  1  0.00144000  0.28720000  0.93174000  1.0
  C  C59  1  0.99855000  0.71280000  0.06826000  1.0
  C  C60  1  0.96550000  0.32156000  0.83922000  1.0
  C  C61  1  0.03450000  0.67844000  0.16078000  1.0
  C  C62  1  0.09473000  0.78242000  0.69052000  1.0
  C  C63  1  0.90527000  0.21758000  0.30948000  1.0
  C  C64  1  0.93624000  0.81602000  0.65944000  1.0
  C  C65  1  0.06376000  0.18399000  0.34056000  1.0
  C  C66  1  0.89202000  0.90129000  0.73507000  1.0
  C  C67  1  0.10798000  0.09871000  0.26493000  1.0
  C  C68  1  0.99836000  0.95057000  0.84048000  1.0
  C  C69  1  0.00165000  0.04943000  0.15953000  1.0
  C  C70  1  0.15503000  0.91641000  0.87031000  1.0
  C  C71  1  0.84497000  0.08359000  0.12969000  1.0
  C  C72  1  0.20425000  0.83395000  0.79489000  1.0
  C  C73  1  0.79575000  0.16605000  0.20512000  1.0
  C  C74  1  0.14329000  0.68657000  0.61619000  1.0
  C  C75  1  0.85671000  0.31343000  0.38381000  1.0
  C  C76  1  0.81818000  0.76983000  0.54534000  1.0
  C  C77  1  0.18183000  0.23017000  0.45466000  1.0
  C  C78  1  0.56838000  0.06757000  0.67543000  1.0
  C  C79  1  0.43162000  0.93243000  0.32457000  1.0
  C  C80  1  0.71029000  0.01752000  0.66446000  1.0
  C  C81  1  0.28971000  0.98248000  0.33554000  1.0
  C  C82  1  0.81472000  0.05339000  0.60962000  1.0
  C  C83  1  0.18528000  0.94661000  0.39038000  1.0
  C  C84  1  0.76991000  0.13775000  0.56639000  1.0
  C  C85  1  0.23009000  0.86224000  0.43360000  1.0
  C  C86  1  0.62668000  0.18466000  0.57981000  1.0
  C  C87  1  0.37332000  0.81534000  0.42019000  1.0
  N  N88  1  0.86290000  0.39648000  0.82615000  1.0
  N  N89  1  0.13711000  0.60351000  0.17385000  1.0
  N  N90  1  0.52880000  0.14994000  0.63443000  1.0
  N  N91  1  0.47120000  0.85006000  0.36557000  1.0
  Cl  Cl92  1  0.77299000  0.87442000  0.23869000  1.0
  Cl  Cl93  1  0.22701000  0.12558000  0.76131000  1.0
  O  O94  1  0.21976000  0.38137000  0.29603000  1.0
  O  O95  1  0.78024000  0.61863000  0.70397000  1.0
  O  O96  1  0.46630000  0.48356000  0.39264000  1.0
  O  O97  1  0.53370000  0.51644000  0.60736000  1.0
  O  O98  1  0.78202000  0.54394000  0.34457000  1.0
  O  O99  1  0.21798000  0.45606000  0.65543000  1.0
  O  O100  1  0.59694000  0.62438000  0.24558000  1.0
  O  O101  1  0.40306000  0.37562000  0.75443000  1.0
  O  O102  1  0.73807000  0.45482000  0.07758000  1.0
  O  O103  1  0.26192000  0.54518000  0.92242000  1.0
  O  O104  1  0.29409000  0.68123000  0.61391000  1.0
  O  O105  1  0.70592000  0.31878000  0.38610000  1.0
  O  O106  1  0.02619000  0.60580000  0.55526000  1.0
  O  O107  1  0.97381000  0.39420000  0.44474000  1.0
  O  O108  1  0.69780000  0.69366000  0.52162000  1.0
  O  O109  1  0.30220000  0.30634000  0.47838000  1.0
  O  O110  1  0.84935000  0.81705000  0.47842000  1.0
  O  O111  1  0.15065000  0.18296000  0.52158000  1.0
  O  O112  1  0.73226000  0.93256000  0.70813000  1.0
  O  O113  1  0.26774000  0.06745000  0.29187000  1.0
  O  O114  1  0.87474000  0.41144000  0.63064000  1.0
  O  O115  1  0.12526000  0.58857000  0.36936000  1.0
