# generated using pymatgen
data_CuH8C13NO4
_symmetry_space_group_name_H-M   'P 1'
_cell_length_a   10.90740000
_cell_length_b   14.02580000
_cell_length_c   21.85430000
_cell_angle_alpha   87.34540000
_cell_angle_beta   86.44890000
_cell_angle_gamma   88.06370000
_symmetry_Int_Tables_number   1
_chemical_formula_structural   CuH8C13NO4
_chemical_formula_sum   'Cu8 H64 C104 N8 O32'
_cell_volume   3331.77658600
_cell_formula_units_Z   8
loop_
 _symmetry_equiv_pos_site_id
 _symmetry_equiv_pos_as_xyz
  1  'x, y, z'
loop_
 _atom_site_type_symbol
 _atom_site_label
 _atom_site_symmetry_multiplicity
 _atom_site_fract_x
 _atom_site_fract_y
 _atom_site_fract_z
 _atom_site_occupancy
  Cu  Cu0  1  0.22913000  0.30299000  0.66755000  1.0
  Cu  Cu1  1  0.23748000  0.11750000  0.67274000  1.0
  Cu  Cu2  1  0.19863000  0.30030000  0.16838000  1.0
  Cu  Cu3  1  0.20684000  0.11593000  0.17398000  1.0
  Cu  Cu4  1  0.77087000  0.69701000  0.33245000  1.0
  Cu  Cu5  1  0.76252000  0.88250000  0.32726000  1.0
  Cu  Cu6  1  0.80144000  0.69907000  0.83162000  1.0
  Cu  Cu7  1  0.79321000  0.88470000  0.82599000  1.0
  H  H8  1  0.20437000  0.36401000  0.85886000  1.0
  H  H9  1  0.19313000  0.36387000  0.97419000  1.0
  H  H10  1  0.24807000  0.05906000  0.98249000  1.0
  H  H11  1  0.25852000  0.05887000  0.86765000  1.0
  H  H12  1  0.85344000  0.05765000  0.68359000  1.0
  H  H13  1  0.62535000  0.05632000  0.67892000  1.0
  H  H14  1  0.61125000  0.36262000  0.66014000  1.0
  H  H15  1  0.84067000  0.36422000  0.66421000  1.0
  H  H16  1  0.26141000  0.06154000  0.48093000  1.0
  H  H17  1  0.24731000  0.06046000  0.36694000  1.0
  H  H18  1  0.16709000  0.36266000  0.36103000  1.0
  H  H19  1  0.18005000  0.36352000  0.47545000  1.0
  H  H20  1  0.82354000  0.05510000  0.18569000  1.0
  H  H21  1  0.59519000  0.05319000  0.18316000  1.0
  H  H22  1  0.58075000  0.35911000  0.15915000  1.0
  H  H23  1  0.81076000  0.36095000  0.16014000  1.0
  H  H24  1  0.39540000  0.46222000  0.61213000  1.0
  H  H25  1  0.40524000  0.64037000  0.60943000  1.0
  H  H26  1  0.06169000  0.64406000  0.71985000  1.0
  H  H27  1  0.06395000  0.46635000  0.71350000  1.0
  H  H28  1  0.42742000  0.95056000  0.66532000  1.0
  H  H29  1  0.43525000  0.77282000  0.66239000  1.0
  H  H30  1  0.03780000  0.78495000  0.67019000  1.0
  H  H31  1  0.04771000  0.96148000  0.67586000  1.0
  H  H32  1  0.39754000  0.94795000  0.16879000  1.0
  H  H33  1  0.40520000  0.77040000  0.16424000  1.0
  H  H34  1  0.00835000  0.78395000  0.16417000  1.0
  H  H35  1  0.01821000  0.95997000  0.17218000  1.0
  H  H36  1  0.36996000  0.45921000  0.11503000  1.0
  H  H37  1  0.38044000  0.63729000  0.11176000  1.0
  H  H38  1  0.02599000  0.64331000  0.21250000  1.0
  H  H39  1  0.02789000  0.46566000  0.20637000  1.0
  H  H40  1  0.79562000  0.63601000  0.14111000  1.0
  H  H41  1  0.80687000  0.63612000  0.02581000  1.0
  H  H42  1  0.75193000  0.94094000  0.01751000  1.0
  H  H43  1  0.74148000  0.94110000  0.13232000  1.0
  H  H44  1  0.14656000  0.94236000  0.31641000  1.0
  H  H45  1  0.37465000  0.94368000  0.32108000  1.0
  H  H46  1  0.38875000  0.63738000  0.33986000  1.0
  H  H47  1  0.15933000  0.63578000  0.33579000  1.0
  H  H48  1  0.73860000  0.93843000  0.51911000  1.0
  H  H49  1  0.75270000  0.93955000  0.63306000  1.0
  H  H50  1  0.83291000  0.63732000  0.63897000  1.0
  H  H51  1  0.81994000  0.63650000  0.52457000  1.0
  H  H52  1  0.17649000  0.94488000  0.81432000  1.0
  H  H53  1  0.40478000  0.94678000  0.81684000  1.0
  H  H54  1  0.41922000  0.64091000  0.84085000  1.0
  H  H55  1  0.18928000  0.63907000  0.83985000  1.0
  H  H56  1  0.60460000  0.53778000  0.38787000  1.0
  H  H57  1  0.59476000  0.35963000  0.39057000  1.0
  H  H58  1  0.93831000  0.35593000  0.28016000  1.0
  H  H59  1  0.93605000  0.53364000  0.28650000  1.0
  H  H60  1  0.57258000  0.04944000  0.33468000  1.0
  H  H61  1  0.56475000  0.22718000  0.33762000  1.0
  H  H62  1  0.96220000  0.21504000  0.32980000  1.0
  H  H63  1  0.95229000  0.03852000  0.32414000  1.0
  H  H64  1  0.60246000  0.05205000  0.83121000  1.0
  H  H65  1  0.59479000  0.22961000  0.83576000  1.0
  H  H66  1  0.99165000  0.21605000  0.83583000  1.0
  H  H67  1  0.98179000  0.04004000  0.82782000  1.0
  H  H68  1  0.63004000  0.54079000  0.88497000  1.0
  H  H69  1  0.61956000  0.36270000  0.88824000  1.0
  H  H70  1  0.97401000  0.35669000  0.78750000  1.0
  H  H71  1  0.97211000  0.53434000  0.79364000  1.0
  C  C72  1  0.23330000  0.21053000  0.78792000  1.0
  C  C73  1  0.99757000  0.21194000  0.67531000  1.0
  C  C74  1  0.22987000  0.21299000  0.55287000  1.0
  C  C75  1  0.46839000  0.20836000  0.66613000  1.0
  C  C76  1  0.19988000  0.21023000  0.28920000  1.0
  C  C77  1  0.96735000  0.20915000  0.17334000  1.0
  C  C78  1  0.21287000  0.21112000  0.05329000  1.0
  C  C79  1  0.43797000  0.20537000  0.16952000  1.0
  C  C80  1  0.23174000  0.21135000  0.85652000  1.0
  C  C81  1  0.21403000  0.29771000  0.88636000  1.0
  C  C82  1  0.20793000  0.29772000  0.95014000  1.0
  C  C83  1  0.22004000  0.21149000  0.98467000  1.0
  C  C84  1  0.23882000  0.12532000  0.95492000  1.0
  C  C85  1  0.24460000  0.12535000  0.89121000  1.0
  C  C86  1  0.86071000  0.21109000  0.67349000  1.0
  C  C87  1  0.80034000  0.12415000  0.67752000  1.0
  C  C88  1  0.67341000  0.12334000  0.67495000  1.0
  C  C89  1  0.60525000  0.20931000  0.66818000  1.0
  C  C90  1  0.66553000  0.29633000  0.66464000  1.0
  C  C91  1  0.79254000  0.29725000  0.66718000  1.0
  C  C92  1  0.22245000  0.21277000  0.48458000  1.0
  C  C93  1  0.24110000  0.12705000  0.45425000  1.0
  C  C94  1  0.23319000  0.12649000  0.39102000  1.0
  C  C95  1  0.20690000  0.21145000  0.35734000  1.0
  C  C96  1  0.18787000  0.29720000  0.38772000  1.0
  C  C97  1  0.19539000  0.29778000  0.45104000  1.0
  C  C98  1  0.83065000  0.20812000  0.17212000  1.0
  C  C99  1  0.77025000  0.12128000  0.17860000  1.0
  C  C100  1  0.64307000  0.12023000  0.17749000  1.0
  C  C101  1  0.57486000  0.20605000  0.17009000  1.0
  C  C102  1  0.63523000  0.29302000  0.16414000  1.0
  C  C103  1  0.76249000  0.29406000  0.16496000  1.0
  C  C104  1  0.32321000  0.50591000  0.63495000  1.0
  C  C105  1  0.32866000  0.60491000  0.63434000  1.0
  C  C106  1  0.23411000  0.65796000  0.66483000  1.0
  C  C107  1  0.13674000  0.60727000  0.69428000  1.0
  C  C108  1  0.13840000  0.50837000  0.69193000  1.0
  C  C109  1  0.34327000  0.91046000  0.66647000  1.0
  C  C110  1  0.34681000  0.81147000  0.66413000  1.0
  C  C111  1  0.23617000  0.76294000  0.66608000  1.0
  C  C112  1  0.12658000  0.81816000  0.66988000  1.0
  C  C113  1  0.13132000  0.91675000  0.67234000  1.0
  C  C114  1  0.31344000  0.90817000  0.16805000  1.0
  C  C115  1  0.31695000  0.80929000  0.16474000  1.0
  C  C116  1  0.20639000  0.76112000  0.16411000  1.0
  C  C117  1  0.09699000  0.81667000  0.16617000  1.0
  C  C118  1  0.10175000  0.91506000  0.16990000  1.0
  C  C119  1  0.29552000  0.50339000  0.13557000  1.0
  C  C120  1  0.30122000  0.60243000  0.13463000  1.0
  C  C121  1  0.20396000  0.65617000  0.16240000  1.0
  C  C122  1  0.10339000  0.60605000  0.18909000  1.0
  C  C123  1  0.10489000  0.50713000  0.18704000  1.0
  C  C124  1  0.76670000  0.78947000  0.21208000  1.0
  C  C125  1  0.00243000  0.78806000  0.32468000  1.0
  C  C126  1  0.77013000  0.78701000  0.44713000  1.0
  C  C127  1  0.53161000  0.79164000  0.33387000  1.0
  C  C128  1  0.80013000  0.78979000  0.71102000  1.0
  C  C129  1  0.03242000  0.79083000  0.82666000  1.0
  C  C130  1  0.78715000  0.78891000  0.94646000  1.0
  C  C131  1  0.56228000  0.79464000  0.83049000  1.0
  C  C132  1  0.76826000  0.78865000  0.14346000  1.0
  C  C133  1  0.78597000  0.70231000  0.11360000  1.0
  C  C134  1  0.79208000  0.70230000  0.04980000  1.0
  C  C135  1  0.78001000  0.78850000  0.01521000  1.0
  C  C136  1  0.76120000  0.87465000  0.04502000  1.0
  C  C137  1  0.75541000  0.87462000  0.10875000  1.0
  C  C138  1  0.13929000  0.78891000  0.32651000  1.0
  C  C139  1  0.19966000  0.87585000  0.32247000  1.0
  C  C140  1  0.32659000  0.87666000  0.32505000  1.0
  C  C141  1  0.39475000  0.79069000  0.33182000  1.0
  C  C142  1  0.33447000  0.70367000  0.33536000  1.0
  C  C143  1  0.20746000  0.70275000  0.33282000  1.0
  C  C144  1  0.77755000  0.78723000  0.51544000  1.0
  C  C145  1  0.75889000  0.87292000  0.54580000  1.0
  C  C146  1  0.76685000  0.87348000  0.60903000  1.0
  C  C147  1  0.79323000  0.78855000  0.64276000  1.0
  C  C148  1  0.81216000  0.70282000  0.61233000  1.0
  C  C149  1  0.80462000  0.70224000  0.54900000  1.0
  C  C150  1  0.16928000  0.79188000  0.82784000  1.0
  C  C151  1  0.22974000  0.87870000  0.82139000  1.0
  C  C152  1  0.35695000  0.87974000  0.82251000  1.0
  C  C153  1  0.42521000  0.79395000  0.82991000  1.0
  C  C154  1  0.36478000  0.70701000  0.83587000  1.0
  C  C155  1  0.23750000  0.70597000  0.83502000  1.0
  C  C156  1  0.67679000  0.49409000  0.36505000  1.0
  C  C157  1  0.67134000  0.39509000  0.36566000  1.0
  C  C158  1  0.76589000  0.34204000  0.33517000  1.0
  C  C159  1  0.86326000  0.39273000  0.30571000  1.0
  C  C160  1  0.86160000  0.49163000  0.30806000  1.0
  C  C161  1  0.65673000  0.08954000  0.33353000  1.0
  C  C162  1  0.65319000  0.18853000  0.33587000  1.0
  C  C163  1  0.76383000  0.23706000  0.33392000  1.0
  C  C164  1  0.87343000  0.18184000  0.33012000  1.0
  C  C165  1  0.86869000  0.08325000  0.32766000  1.0
  C  C166  1  0.68654000  0.09186000  0.83195000  1.0
  C  C167  1  0.68305000  0.19073000  0.83527000  1.0
  C  C168  1  0.79361000  0.23889000  0.83589000  1.0
  C  C169  1  0.90301000  0.18335000  0.83383000  1.0
  C  C170  1  0.89827000  0.08497000  0.83010000  1.0
  C  C171  1  0.70447000  0.49659000  0.86444000  1.0
  C  C172  1  0.69878000  0.39756000  0.86537000  1.0
  C  C173  1  0.79604000  0.34382000  0.83760000  1.0
  C  C174  1  0.89661000  0.39394000  0.81091000  1.0
  C  C175  1  0.89512000  0.49285000  0.81296000  1.0
  N  N176  1  0.22984000  0.45795000  0.66330000  1.0
  N  N177  1  0.23773000  0.96267000  0.67086000  1.0
  N  N178  1  0.20798000  0.96060000  0.17112000  1.0
  N  N179  1  0.19931000  0.45599000  0.16152000  1.0
  N  N180  1  0.77016000  0.54205000  0.33670000  1.0
  N  N181  1  0.76227000  0.03733000  0.32914000  1.0
  N  N182  1  0.79202000  0.03945000  0.82887000  1.0
  N  N183  1  0.80070000  0.54397000  0.83848000  1.0
  O  O184  1  0.23125000  0.29177000  0.75908000  1.0
  O  O185  1  0.23453000  0.12899000  0.76433000  1.0
  O  O186  1  0.04604000  0.29345000  0.67607000  1.0
  O  O187  1  0.05462000  0.13109000  0.67543000  1.0
  O  O188  1  0.22318000  0.29427000  0.57699000  1.0
  O  O189  1  0.24139000  0.13186000  0.58091000  1.0
  O  O190  1  0.41219000  0.28928000  0.66090000  1.0
  O  O191  1  0.41933000  0.12681000  0.67051000  1.0
  O  O192  1  0.19520000  0.29126000  0.26008000  1.0
  O  O193  1  0.19898000  0.12861000  0.26576000  1.0
  O  O194  1  0.01600000  0.29069000  0.17390000  1.0
  O  O195  1  0.02489000  0.12844000  0.17377000  1.0
  O  O196  1  0.20157000  0.29221000  0.07760000  1.0
  O  O197  1  0.21867000  0.12999000  0.08181000  1.0
  O  O198  1  0.38159000  0.28630000  0.16469000  1.0
  O  O199  1  0.38823000  0.12401000  0.17426000  1.0
  O  O200  1  0.76875000  0.70823000  0.24091000  1.0
  O  O201  1  0.76546000  0.87101000  0.23567000  1.0
  O  O202  1  0.95395000  0.70655000  0.32393000  1.0
  O  O203  1  0.94538000  0.86891000  0.32457000  1.0
  O  O204  1  0.77683000  0.70573000  0.42301000  1.0
  O  O205  1  0.75862000  0.86814000  0.41909000  1.0
  O  O206  1  0.58781000  0.71073000  0.33910000  1.0
  O  O207  1  0.58067000  0.87319000  0.32949000  1.0
  O  O208  1  0.80464000  0.70868000  0.74001000  1.0
  O  O209  1  0.80083000  0.87150000  0.73430000  1.0
  O  O210  1  0.98418000  0.70918000  0.82615000  1.0
  O  O211  1  0.97520000  0.87161000  0.82630000  1.0
  O  O212  1  0.79839000  0.70770000  0.92234000  1.0
  O  O213  1  0.78126000  0.87012000  0.91814000  1.0
  O  O214  1  0.61828000  0.71361000  0.83533000  1.0
  O  O215  1  0.61161000  0.87609000  0.82572000  1.0
