# generated using pymatgen
data_NdH20C22NO8
_symmetry_space_group_name_H-M   'P 1'
_cell_length_a   12.67880000
_cell_length_b   14.01890000
_cell_length_c   16.10200000
_cell_angle_alpha   115.78200000
_cell_angle_beta   103.40700000
_cell_angle_gamma   90.02270000
_symmetry_Int_Tables_number   1
_chemical_formula_structural   NdH20C22NO8
_chemical_formula_sum   'Nd4 H80 C88 N4 O32'
_cell_volume   2490.08100787
_cell_formula_units_Z   4
loop_
 _symmetry_equiv_pos_site_id
 _symmetry_equiv_pos_as_xyz
  1  'x, y, z'
loop_
 _atom_site_type_symbol
 _atom_site_label
 _atom_site_symmetry_multiplicity
 _atom_site_fract_x
 _atom_site_fract_y
 _atom_site_fract_z
 _atom_site_occupancy
  Nd  Nd0  1  0.43508000  0.89243000  0.35936000  1.0
  Nd  Nd1  1  0.06492000  0.53299000  0.64074000  1.0
  Nd  Nd2  1  0.56492000  0.10757000  0.64064000  1.0
  Nd  Nd3  1  0.93507000  0.46701000  0.35926000  1.0
  H  H4  1  0.54659000  0.98319000  0.11734000  1.0
  H  H5  1  0.95330000  0.86504000  0.88243000  1.0
  H  H6  1  0.45341000  0.01682000  0.88266000  1.0
  H  H7  1  0.04671000  0.13496000  0.11757000  1.0
  H  H8  1  0.61148000  0.93795000  0.96937000  1.0
  H  H9  1  0.88856000  0.96795000  0.03042000  1.0
  H  H10  1  0.38852000  0.06205000  0.03063000  1.0
  H  H11  1  0.11144000  0.03205000  0.96957000  1.0
  H  H12  1  0.61030000  0.61063000  0.92064000  1.0
  H  H13  1  0.88922000  0.68947000  0.07938000  1.0
  H  H14  1  0.38968000  0.38937000  0.07936000  1.0
  H  H15  1  0.11076000  0.31054000  0.92062000  1.0
  H  H16  1  0.54404000  0.65687000  0.06734000  1.0
  H  H17  1  0.95524000  0.58885000  0.93259000  1.0
  H  H18  1  0.45594000  0.34312000  0.93265000  1.0
  H  H19  1  0.04475000  0.41115000  0.06741000  1.0
  H  H20  1  0.64802000  0.65370000  0.80473000  1.0
  H  H21  1  0.85166000  0.84868000  0.19526000  1.0
  H  H22  1  0.35197000  0.34630000  0.19527000  1.0
  H  H23  1  0.14833000  0.15132000  0.80473000  1.0
  H  H24  1  0.56000000  0.88009000  0.69118000  1.0
  H  H25  1  0.94028000  0.18883000  0.30854000  1.0
  H  H26  1  0.44000000  0.11990000  0.30881000  1.0
  H  H27  1  0.05971000  0.81117000  0.69146000  1.0
  H  H28  1  0.77507000  0.65227000  0.72276000  1.0
  H  H29  1  0.72517000  0.92945000  0.27722000  1.0
  H  H30  1  0.22494000  0.34773000  0.27725000  1.0
  H  H31  1  0.27483000  0.07055000  0.72278000  1.0
  H  H32  1  0.67645000  0.66151000  0.45351000  1.0
  H  H33  1  0.82406000  0.20778000  0.54639000  1.0
  H  H34  1  0.32356000  0.33848000  0.54649000  1.0
  H  H35  1  0.17594000  0.79222000  0.45361000  1.0
  H  H36  1  0.11996000  0.05674000  0.33048000  1.0
  H  H37  1  0.37992000  0.72618000  0.66948000  1.0
  H  H38  1  0.88005000  0.94327000  0.66953000  1.0
  H  H39  1  0.62008000  0.27381000  0.33052000  1.0
  H  H40  1  0.04749000  0.02548000  0.20983000  1.0
  H  H41  1  0.45253000  0.81555000  0.79006000  1.0
  H  H42  1  0.95252000  0.97452000  0.79018000  1.0
  H  H43  1  0.54747000  0.18445000  0.20995000  1.0
  H  H44  1  0.15507000  0.12989000  0.27169000  1.0
  H  H45  1  0.34497000  0.85816000  0.72821000  1.0
  H  H46  1  0.84492000  0.87012000  0.72831000  1.0
  H  H47  1  0.65502000  0.14184000  0.27179000  1.0
  H  H48  1  0.26931000  0.87816000  0.10572000  1.0
  H  H49  1  0.23040000  0.77268000  0.89429000  1.0
  H  H50  1  0.73071000  0.12186000  0.89430000  1.0
  H  H51  1  0.76960000  0.22733000  0.10572000  1.0
  H  H52  1  0.25715000  0.01295000  0.12553000  1.0
  H  H53  1  0.24290000  0.88753000  0.87434000  1.0
  H  H54  1  0.74286000  0.98706000  0.87448000  1.0
  H  H55  1  0.75711000  0.11247000  0.12567000  1.0
  H  H56  1  0.13729000  0.92057000  0.07594000  1.0
  H  H57  1  0.36256000  0.84472000  0.92409000  1.0
  H  H58  1  0.86273000  0.07944000  0.92406000  1.0
  H  H59  1  0.63744000  0.15528000  0.07591000  1.0
  H  H60  1  0.35335000  0.58345000  0.32013000  1.0
  H  H61  1  0.14626000  0.26391000  0.67938000  1.0
  H  H62  1  0.64665000  0.41655000  0.67987000  1.0
  H  H63  1  0.85375000  0.73609000  0.32063000  1.0
  H  H64  1  0.24375000  0.49627000  0.22073000  1.0
  H  H65  1  0.25538000  0.27546000  0.77882000  1.0
  H  H66  1  0.75626000  0.50372000  0.77927000  1.0
  H  H67  1  0.74463000  0.72455000  0.22120000  1.0
  H  H68  1  0.21989000  0.55824000  0.33429000  1.0
  H  H69  1  0.27969000  0.22431000  0.66545000  1.0
  H  H70  1  0.78012000  0.44176000  0.66571000  1.0
  H  H71  1  0.72032000  0.77569000  0.33456000  1.0
  H  H72  1  0.09204000  0.72482000  0.21040000  1.0
  H  H73  1  0.40872000  0.51442000  0.79045000  1.0
  H  H74  1  0.90796000  0.27516000  0.78958000  1.0
  H  H75  1  0.59128000  0.48559000  0.20955000  1.0
  H  H76  1  0.07280000  0.68126000  0.29664000  1.0
  H  H77  1  0.42731000  0.38478000  0.70360000  1.0
  H  H78  1  0.92721000  0.31872000  0.70334000  1.0
  H  H79  1  0.57269000  0.61522000  0.29639000  1.0
  H  H80  1  0.06658000  0.58473000  0.18150000  1.0
  H  H81  1  0.43341000  0.40253000  0.81851000  1.0
  H  H82  1  0.93342000  0.41524000  0.81848000  1.0
  H  H83  1  0.56660000  0.59748000  0.18149000  1.0
  C  C84  1  0.49807000  0.84804000  0.18597000  1.0
  C  C85  1  0.00172000  0.66153000  0.81403000  1.0
  C  C86  1  0.50193000  0.15196000  0.81403000  1.0
  C  C87  1  0.99827000  0.33846000  0.18597000  1.0
  C  C88  1  0.54145000  0.82243000  0.10035000  1.0
  C  C89  1  0.95827000  0.72141000  0.89959000  1.0
  C  C90  1  0.45855000  0.17757000  0.89965000  1.0
  C  C91  1  0.04173000  0.27860000  0.10041000  1.0
  C  C92  1  0.56138000  0.90217000  0.07341000  1.0
  C  C93  1  0.93847000  0.82809000  0.92647000  1.0
  C  C94  1  0.43862000  0.09783000  0.92659000  1.0
  C  C95  1  0.06152000  0.17191000  0.07353000  1.0
  C  C96  1  0.59747000  0.87723000  0.99202000  1.0
  C  C97  1  0.90250000  0.88462000  0.00785000  1.0
  C  C98  1  0.40253000  0.12278000  0.00798000  1.0
  C  C99  1  0.09750000  0.11539000  0.99215000  1.0
  C  C100  1  0.61442000  0.77151000  0.93573000  1.0
  C  C101  1  0.88549000  0.83524000  0.06422000  1.0
  C  C102  1  0.38557000  0.22849000  0.06427000  1.0
  C  C103  1  0.11450000  0.16476000  0.93577000  1.0
  C  C104  1  0.59692000  0.69249000  0.96422000  1.0
  C  C105  1  0.90273000  0.72773000  0.03579000  1.0
  C  C106  1  0.40306000  0.30751000  0.03578000  1.0
  C  C107  1  0.09726000  0.27227000  0.96420000  1.0
  C  C108  1  0.56050000  0.71772000  0.04561000  1.0
  C  C109  1  0.93902000  0.67146000  0.95435000  1.0
  C  C110  1  0.43949000  0.28228000  0.95439000  1.0
  C  C111  1  0.06097000  0.32853000  0.04565000  1.0
  C  C112  1  0.64102000  0.73943000  0.84464000  1.0
  C  C113  1  0.85898000  0.89441000  0.15531000  1.0
  C  C114  1  0.35897000  0.26057000  0.15535000  1.0
  C  C115  1  0.14101000  0.10559000  0.84468000  1.0
  C  C116  1  0.54923000  0.82019000  0.50259000  1.0
  C  C117  1  0.95103000  0.31753000  0.49718000  1.0
  C  C118  1  0.45077000  0.17980000  0.49740000  1.0
  C  C119  1  0.04898000  0.68245000  0.50282000  1.0
  C  C120  1  0.61010000  0.77453000  0.56506000  1.0
  C  C121  1  0.89027000  0.20935000  0.43478000  1.0
  C  C122  1  0.38990000  0.22546000  0.43494000  1.0
  C  C123  1  0.10972000  0.79065000  0.56521000  1.0
  C  C124  1  0.60627000  0.81385000  0.66014000  1.0
  C  C125  1  0.89408000  0.15359000  0.33968000  1.0
  C  C126  1  0.39373000  0.18615000  0.33986000  1.0
  C  C127  1  0.10591000  0.84641000  0.66032000  1.0
  C  C128  1  0.66064000  0.76604000  0.71610000  1.0
  C  C129  1  0.83975000  0.04979000  0.28381000  1.0
  C  C130  1  0.33937000  0.23396000  0.28390000  1.0
  C  C131  1  0.16023000  0.95021000  0.71619000  1.0
  C  C132  1  0.72607000  0.68514000  0.67854000  1.0
  C  C133  1  0.77428000  0.00647000  0.32142000  1.0
  C  C134  1  0.27393000  0.31486000  0.32146000  1.0
  C  C135  1  0.22572000  0.99353000  0.67858000  1.0
  C  C136  1  0.73269000  0.64887000  0.58437000  1.0
  C  C137  1  0.76769000  0.06433000  0.41559000  1.0
  C  C138  1  0.26732000  0.35114000  0.41563000  1.0
  C  C139  1  0.23231000  0.93567000  0.58440000  1.0
  C  C140  1  0.67211000  0.69157000  0.52713000  1.0
  C  C141  1  0.82836000  0.16422000  0.47278000  1.0
  C  C142  1  0.32789000  0.30843000  0.47287000  1.0
  C  C143  1  0.17163000  0.83577000  0.52722000  1.0
  C  C144  1  0.80818000  0.56804000  0.54455000  1.0
  C  C145  1  0.69200000  0.02344000  0.45542000  1.0
  C  C146  1  0.19182000  0.43196000  0.45545000  1.0
  C  C147  1  0.30800000  0.97655000  0.54457000  1.0
  C  C148  1  0.20878000  0.97562000  0.22632000  1.0
  C  C149  1  0.29116000  0.74931000  0.77370000  1.0
  C  C150  1  0.79122000  0.02439000  0.77368000  1.0
  C  C151  1  0.70883000  0.25069000  0.22631000  1.0
  C  C152  1  0.12748000  0.05031000  0.26190000  1.0
  C  C153  1  0.37251000  0.78839000  0.73805000  1.0
  C  C154  1  0.87252000  0.94970000  0.73811000  1.0
  C  C155  1  0.62749000  0.21162000  0.26196000  1.0
  C  C156  1  0.21825000  0.94313000  0.12666000  1.0
  C  C157  1  0.28162000  0.81657000  0.87330000  1.0
  C  C158  1  0.78176000  0.05688000  0.87335000  1.0
  C  C159  1  0.71837000  0.18344000  0.12670000  1.0
  C  C160  1  0.22804000  0.66119000  0.26758000  1.0
  C  C161  1  0.27210000  0.39399000  0.73266000  1.0
  C  C162  1  0.77197000  0.33880000  0.73241000  1.0
  C  C163  1  0.72791000  0.60602000  0.26735000  1.0
  C  C164  1  0.26514000  0.57037000  0.28828000  1.0
  C  C165  1  0.23445000  0.28240000  0.71143000  1.0
  C  C166  1  0.73487000  0.42963000  0.71172000  1.0
  C  C167  1  0.76557000  0.71760000  0.28858000  1.0
  C  C168  1  0.10783000  0.66379000  0.23551000  1.0
  C  C169  1  0.39243000  0.42825000  0.76488000  1.0
  C  C170  1  0.89218000  0.33619000  0.76448000  1.0
  C  C171  1  0.60758000  0.57175000  0.23511000  1.0
  N  N172  1  0.64646000  0.80458000  0.80864000  1.0
  N  N173  1  0.85396000  0.99562000  0.19126000  1.0
  N  N174  1  0.35354000  0.19542000  0.19136000  1.0
  N  N175  1  0.14603000  0.00438000  0.80873000  1.0
  O  O176  1  0.47916000  0.77212000  0.20638000  1.0
  O  O177  1  0.02046000  0.56518000  0.79353000  1.0
  O  O178  1  0.52084000  0.22787000  0.79361000  1.0
  O  O179  1  0.97954000  0.43482000  0.20647000  1.0
  O  O180  1  0.48151000  0.94365000  0.23538000  1.0
  O  O181  1  0.01858000  0.70787000  0.76476000  1.0
  O  O182  1  0.51850000  0.05635000  0.76463000  1.0
  O  O183  1  0.98142000  0.29213000  0.23524000  1.0
  O  O184  1  0.51763000  0.76136000  0.41318000  1.0
  O  O185  1  0.98269000  0.34809000  0.58661000  1.0
  O  O186  1  0.48237000  0.23864000  0.58682000  1.0
  O  O187  1  0.01733000  0.65190000  0.41339000  1.0
  O  O188  1  0.52975000  0.91769000  0.54014000  1.0
  O  O189  1  0.97019000  0.37755000  0.45958000  1.0
  O  O190  1  0.47026000  0.08231000  0.45985000  1.0
  O  O191  1  0.02981000  0.62245000  0.54042000  1.0
  O  O192  1  0.80787000  0.53884000  0.45801000  1.0
  O  O193  1  0.69233000  0.08076000  0.54196000  1.0
  O  O194  1  0.19214000  0.46117000  0.54200000  1.0
  O  O195  1  0.30768000  0.91923000  0.45804000  1.0
  O  O196  1  0.86816000  0.53656000  0.60084000  1.0
  O  O197  1  0.63181000  0.93582000  0.39908000  1.0
  O  O198  1  0.13183000  0.46343000  0.39916000  1.0
  O  O199  1  0.36819000  0.06417000  0.60091000  1.0
  O  O200  1  0.26788000  0.94345000  0.27920000  1.0
  O  O201  1  0.23208000  0.66428000  0.72087000  1.0
  O  O202  1  0.73213000  0.05657000  0.72081000  1.0
  O  O203  1  0.76791000  0.33573000  0.27914000  1.0
  O  O204  1  0.29443000  0.73240000  0.27753000  1.0
  O  O205  1  0.20611000  0.45568000  0.72305000  1.0
  O  O206  1  0.70556000  0.26759000  0.72245000  1.0
  O  O207  1  0.79390000  0.54433000  0.27695000  1.0
