# generated using pymatgen
data_ZnH10C9(NO2)2
_symmetry_space_group_name_H-M   'P 1'
_cell_length_a   6.55188000
_cell_length_b   8.03980000
_cell_length_c   19.83100000
_cell_angle_alpha   98.80510000
_cell_angle_beta   90.00000000
_cell_angle_gamma   90.00000000
_symmetry_Int_Tables_number   1
_chemical_formula_structural   ZnH10C9(NO2)2
_chemical_formula_sum   'Zn4 H40 C36 N8 O16'
_cell_volume   1032.30286010
_cell_formula_units_Z   4
loop_
 _symmetry_equiv_pos_site_id
 _symmetry_equiv_pos_as_xyz
  1  'x, y, z'
loop_
 _atom_site_type_symbol
 _atom_site_label
 _atom_site_symmetry_multiplicity
 _atom_site_fract_x
 _atom_site_fract_y
 _atom_site_fract_z
 _atom_site_occupancy
  Zn  Zn0  1  0.88362000  0.00000000  0.75000000  1.0
  Zn  Zn1  1  0.11638000  0.00000000  0.25000000  1.0
  Zn  Zn2  1  0.00000000  0.00000000  0.00000000  1.0
  Zn  Zn3  1  0.00000000  0.00000000  0.50000000  1.0
  H  H4  1  0.10423000  0.61912000  0.99181000  1.0
  H  H5  1  0.10423000  0.38088000  0.50819000  1.0
  H  H6  1  0.89577000  0.38087000  0.00819000  1.0
  H  H7  1  0.89578000  0.61912000  0.49181000  1.0
  H  H8  1  0.38389000  0.42918000  0.93376000  1.0
  H  H9  1  0.38388000  0.57082000  0.56624000  1.0
  H  H10  1  0.61612000  0.57082000  0.06624000  1.0
  H  H11  1  0.61612000  0.42918000  0.43376000  1.0
  H  H12  1  0.66560000  0.56305000  0.87677000  1.0
  H  H13  1  0.66560000  0.43696000  0.62323000  1.0
  H  H14  1  0.33440000  0.43695000  0.12323000  1.0
  H  H15  1  0.33440000  0.56305000  0.37677000  1.0
  H  H16  1  0.99657000  0.56577000  0.63957000  1.0
  H  H17  1  0.99657000  0.43423000  0.86043000  1.0
  H  H18  1  0.00343000  0.43423000  0.36043000  1.0
  H  H19  1  0.00343000  0.56577000  0.13957000  1.0
  H  H20  1  0.79715000  0.71890000  0.63649000  1.0
  H  H21  1  0.79715000  0.28110000  0.86350000  1.0
  H  H22  1  0.20285000  0.28110000  0.36350000  1.0
  H  H23  1  0.20285000  0.71890000  0.13650000  1.0
  H  H24  1  0.83108000  0.62475000  0.71149000  1.0
  H  H25  1  0.83108000  0.37525000  0.78851000  1.0
  H  H26  1  0.16892000  0.37525000  0.28851000  1.0
  H  H27  1  0.16892000  0.62475000  0.21149000  1.0
  H  H28  1  0.14777000  0.71449000  0.78593000  1.0
  H  H29  1  0.14777000  0.28551000  0.71407000  1.0
  H  H30  1  0.85223000  0.28551000  0.21407000  1.0
  H  H31  1  0.85223000  0.71449000  0.28593000  1.0
  H  H32  1  0.32962000  0.84641000  0.75256000  1.0
  H  H33  1  0.32962000  0.15359000  0.74744000  1.0
  H  H34  1  0.67038000  0.15359000  0.24744000  1.0
  H  H35  1  0.67038000  0.84641000  0.25256000  1.0
  H  H36  1  0.29182000  0.63702000  0.71081000  1.0
  H  H37  1  0.29182000  0.36298000  0.78919000  1.0
  H  H38  1  0.70818000  0.36298000  0.28919000  1.0
  H  H39  1  0.70818000  0.63702000  0.21081000  1.0
  H  H40  1  0.11477000  0.85066000  0.65599000  1.0
  H  H41  1  0.11477000  0.14934000  0.84401000  1.0
  H  H42  1  0.88523000  0.14934000  0.34401000  1.0
  H  H43  1  0.88523000  0.85066000  0.15599000  1.0
  C  C44  1  0.23099000  0.66816000  0.96512000  1.0
  C  C45  1  0.23099000  0.33184000  0.53488000  1.0
  C  C46  1  0.76901000  0.33184000  0.03488000  1.0
  C  C47  1  0.76901000  0.66816000  0.46512000  1.0
  C  C48  1  0.38548000  0.56495000  0.93375000  1.0
  C  C49  1  0.38547000  0.43505000  0.56625000  1.0
  C  C50  1  0.61453000  0.43505000  0.06625000  1.0
  C  C51  1  0.61453000  0.56495000  0.43375000  1.0
  C  C52  1  0.54205000  0.63963000  0.90162000  1.0
  C  C53  1  0.54205000  0.36037000  0.59838000  1.0
  C  C54  1  0.45795000  0.36037000  0.09838000  1.0
  C  C55  1  0.45795000  0.63963000  0.40162000  1.0
  C  C56  1  0.54112000  0.81314000  0.90044000  1.0
  C  C57  1  0.54112000  0.18686000  0.59956000  1.0
  C  C58  1  0.45888000  0.18686000  0.09956000  1.0
  C  C59  1  0.45888000  0.81314000  0.40044000  1.0
  C  C60  1  0.37794000  0.90722000  0.93178000  1.0
  C  C61  1  0.37794000  0.09279000  0.56822000  1.0
  C  C62  1  0.62206000  0.09278000  0.06822000  1.0
  C  C63  1  0.62206000  0.90722000  0.43178000  1.0
  C  C64  1  0.35314000  0.09403000  0.92889000  1.0
  C  C65  1  0.35314000  0.90598000  0.57110000  1.0
  C  C66  1  0.64686000  0.90598000  0.07110000  1.0
  C  C67  1  0.64686000  0.09402000  0.42890000  1.0
  C  C68  1  0.70977000  0.88816000  0.86339000  1.0
  C  C69  1  0.70976000  0.11184000  0.63661000  1.0
  C  C70  1  0.29024000  0.11184000  0.13661000  1.0
  C  C71  1  0.29024000  0.88816000  0.36339000  1.0
  C  C72  1  0.91073000  0.67023000  0.66915000  1.0
  C  C73  1  0.91073000  0.32977000  0.83085000  1.0
  C  C74  1  0.08927000  0.32977000  0.33085000  1.0
  C  C75  1  0.08927000  0.67023000  0.16915000  1.0
  C  C76  1  0.21470000  0.74798000  0.73902000  1.0
  C  C77  1  0.21470000  0.25202000  0.76098000  1.0
  C  C78  1  0.78530000  0.25202000  0.26098000  1.0
  C  C79  1  0.78530000  0.74798000  0.23902000  1.0
  N  N80  1  0.22887000  0.83394000  0.96360000  1.0
  N  N81  1  0.22887000  0.16606000  0.53640000  1.0
  N  N82  1  0.77113000  0.16606000  0.03640000  1.0
  N  N83  1  0.77113000  0.83394000  0.46360000  1.0
  N  N84  1  0.05079000  0.80778000  0.69729000  1.0
  N  N85  1  0.05079000  0.19222000  0.80271000  1.0
  N  N86  1  0.94921000  0.19222000  0.30271000  1.0
  N  N87  1  0.94921000  0.80778000  0.19729000  1.0
  O  O88  1  0.48595000  0.16400000  0.89759000  1.0
  O  O89  1  0.48595000  0.83600000  0.60241000  1.0
  O  O90  1  0.51405000  0.83600000  0.10241000  1.0
  O  O91  1  0.51405000  0.16400000  0.39759000  1.0
  O  O92  1  0.19171000  0.16522000  0.95702000  1.0
  O  O93  1  0.19171000  0.83478000  0.54298000  1.0
  O  O94  1  0.80829000  0.83478000  0.04298000  1.0
  O  O95  1  0.80829000  0.16522000  0.45702000  1.0
  O  O96  1  0.87167000  0.94048000  0.89333000  1.0
  O  O97  1  0.87167000  0.05952000  0.60667000  1.0
  O  O98  1  0.12833000  0.05952000  0.10667000  1.0
  O  O99  1  0.12833000  0.94048000  0.39333000  1.0
  O  O100  1  0.68072000  0.87783000  0.79882000  1.0
  O  O101  1  0.68072000  0.12217000  0.70118000  1.0
  O  O102  1  0.31929000  0.12217000  0.20118000  1.0
  O  O103  1  0.31928000  0.87783000  0.29882000  1.0
