# generated using pymatgen
data_ZnH11(C3N2)3
_symmetry_space_group_name_H-M   'P 1'
_cell_length_a   10.87140000
_cell_length_b   12.36360000
_cell_length_c   16.63990000
_cell_angle_alpha   89.99980000
_cell_angle_beta   94.52310000
_cell_angle_gamma   90.00000000
_symmetry_Int_Tables_number   1
_chemical_formula_structural   ZnH11(C3N2)3
_chemical_formula_sum   'Zn8 H88 C72 N48'
_cell_volume   2229.59747951
_cell_formula_units_Z   8
loop_
 _symmetry_equiv_pos_site_id
 _symmetry_equiv_pos_as_xyz
  1  'x, y, z'
loop_
 _atom_site_type_symbol
 _atom_site_label
 _atom_site_symmetry_multiplicity
 _atom_site_fract_x
 _atom_site_fract_y
 _atom_site_fract_z
 _atom_site_occupancy
  Zn  Zn0  1  0.72788000  0.73687000  0.59591000  1.0
  Zn  Zn1  1  0.77212000  0.23687000  0.90409000  1.0
  Zn  Zn2  1  0.27212000  0.26313000  0.40409000  1.0
  Zn  Zn3  1  0.22788000  0.76313000  0.09591000  1.0
  Zn  Zn4  1  0.21406000  0.74355000  0.46191000  1.0
  Zn  Zn5  1  0.28595000  0.24355000  0.03809000  1.0
  Zn  Zn6  1  0.78594000  0.25646000  0.53809000  1.0
  Zn  Zn7  1  0.71405000  0.75645000  0.96191000  1.0
  H  H8  1  0.07764000  0.63047000  0.20395000  1.0
  H  H9  1  0.42236000  0.13047000  0.29606000  1.0
  H  H10  1  0.92236000  0.36953000  0.79606000  1.0
  H  H11  1  0.57764000  0.86953000  0.70395000  1.0
  H  H12  1  0.01171000  0.67578000  0.29193000  1.0
  H  H13  1  0.48829000  0.17578000  0.20807000  1.0
  H  H14  1  0.98829000  0.32421000  0.70807000  1.0
  H  H15  1  0.51172000  0.82422000  0.79193000  1.0
  H  H16  1  0.13027000  0.57666000  0.29921000  1.0
  H  H17  1  0.36973000  0.07667000  0.20079000  1.0
  H  H18  1  0.86974000  0.42333000  0.70079000  1.0
  H  H19  1  0.63027000  0.92334000  0.79921000  1.0
  H  H20  1  0.48038000  0.95564000  0.35375000  1.0
  H  H21  1  0.01961000  0.45563000  0.14625000  1.0
  H  H22  1  0.51961000  0.04437000  0.64625000  1.0
  H  H23  1  0.98038000  0.54436000  0.85375000  1.0
  H  H24  1  0.34812000  0.99401000  0.40248000  1.0
  H  H25  1  0.15188000  0.49401000  0.09752000  1.0
  H  H26  1  0.65188000  0.00600000  0.59752000  1.0
  H  H27  1  0.84812000  0.50599000  0.90248000  1.0
  H  H28  1  0.49028000  0.67262000  0.67241000  1.0
  H  H29  1  0.00971000  0.17262000  0.82759000  1.0
  H  H30  1  0.50971000  0.32738000  0.32759000  1.0
  H  H31  1  0.99028000  0.82738000  0.17241000  1.0
  H  H32  1  0.35724000  0.63127000  0.61044000  1.0
  H  H33  1  0.14275000  0.13127000  0.88956000  1.0
  H  H34  1  0.64275000  0.36873000  0.38956000  1.0
  H  H35  1  0.85725000  0.86872000  0.11043000  1.0
  H  H36  1  0.35078000  0.74838000  0.67051000  1.0
  H  H37  1  0.14922000  0.24837000  0.82949000  1.0
  H  H38  1  0.64922000  0.25163000  0.32949000  1.0
  H  H39  1  0.85078000  0.75162000  0.17051000  1.0
  H  H40  1  0.00955000  0.99698000  0.68216000  1.0
  H  H41  1  0.49044000  0.49698000  0.81784000  1.0
  H  H42  1  0.99044000  0.00302000  0.31784000  1.0
  H  H43  1  0.50956000  0.50302000  0.18216000  1.0
  H  H44  1  0.87255000  0.92236000  0.69803000  1.0
  H  H45  1  0.62744000  0.42236000  0.80197000  1.0
  H  H46  1  0.12745000  0.07764000  0.30198000  1.0
  H  H47  1  0.37256000  0.57764000  0.19803000  1.0
  H  H48  1  0.86993000  0.02547000  0.62335000  1.0
  H  H49  1  0.63007000  0.52547000  0.87665000  1.0
  H  H50  1  0.13007000  0.97453000  0.37665000  1.0
  H  H51  1  0.36993000  0.47453000  0.12335000  1.0
  H  H52  1  0.98066000  0.62401000  0.42231000  1.0
  H  H53  1  0.51934000  0.12401000  0.07769000  1.0
  H  H54  1  0.01934000  0.37599000  0.57769000  1.0
  H  H55  1  0.48066000  0.87599000  0.92231000  1.0
  H  H56  1  0.84169000  0.69735000  0.40058000  1.0
  H  H57  1  0.65830000  0.19734000  0.09942000  1.0
  H  H58  1  0.15830000  0.30265000  0.59942000  1.0
  H  H59  1  0.34170000  0.80265000  0.90058000  1.0
  H  H60  1  0.60873000  0.38026000  0.62998000  1.0
  H  H61  1  0.89128000  0.88026000  0.87002000  1.0
  H  H62  1  0.39128000  0.61974000  0.37002000  1.0
  H  H63  1  0.10872000  0.11974000  0.12998000  1.0
  H  H64  1  0.52146000  0.49268000  0.59100000  1.0
  H  H65  1  0.97855000  0.99268000  0.90901000  1.0
  H  H66  1  0.47855000  0.50732000  0.40901000  1.0
  H  H67  1  0.02145000  0.00733000  0.09100000  1.0
  H  H68  1  0.63075000  0.51039000  0.67506000  1.0
  H  H69  1  0.86926000  0.01039000  0.82494000  1.0
  H  H70  1  0.36926000  0.48961000  0.32494000  1.0
  H  H71  1  0.13075000  0.98961000  0.17506000  1.0
  H  H72  1  0.58081000  0.72024000  0.22696000  1.0
  H  H73  1  0.91918000  0.22024000  0.27304000  1.0
  H  H74  1  0.41919000  0.27976000  0.77304000  1.0
  H  H75  1  0.08081000  0.77976000  0.72696000  1.0
  H  H76  1  0.61974000  0.67473000  0.33252000  1.0
  H  H77  1  0.88026000  0.17473000  0.16748000  1.0
  H  H78  1  0.38026000  0.32527000  0.66748000  1.0
  H  H79  1  0.11974000  0.82527000  0.83252000  1.0
  H  H80  1  0.70838000  0.85246000  0.36773000  1.0
  H  H81  1  0.79162000  0.35246000  0.13227000  1.0
  H  H82  1  0.29163000  0.14754000  0.63227000  1.0
  H  H83  1  0.20838000  0.64754000  0.86773000  1.0
  H  H84  1  0.63334000  0.91157000  0.18784000  1.0
  H  H85  1  0.86666000  0.41157000  0.31216000  1.0
  H  H86  1  0.36666000  0.08843000  0.81216000  1.0
  H  H87  1  0.13334000  0.58843000  0.68784000  1.0
  H  H88  1  0.75537000  0.04155000  0.33246000  1.0
  H  H89  1  0.74463000  0.54155000  0.16754000  1.0
  H  H90  1  0.24463000  0.95846000  0.66754000  1.0
  H  H91  1  0.25537000  0.45845000  0.83246000  1.0
  H  H92  1  0.71478000  0.09038000  0.22811000  1.0
  H  H93  1  0.78523000  0.59038000  0.27189000  1.0
  H  H94  1  0.28523000  0.90963000  0.77189000  1.0
  H  H95  1  0.21478000  0.40962000  0.72811000  1.0
  C  C96  1  0.09832000  0.65080000  0.26758000  1.0
  C  C97  1  0.40168000  0.15080000  0.23242000  1.0
  C  C98  1  0.90168000  0.34919000  0.73242000  1.0
  C  C99  1  0.59833000  0.84920000  0.76758000  1.0
  C  C100  1  0.19189000  0.73853000  0.27597000  1.0
  C  C101  1  0.30811000  0.23853000  0.22403000  1.0
  C  C102  1  0.80811000  0.26147000  0.72403000  1.0
  C  C103  1  0.69189000  0.76147000  0.77597000  1.0
  C  C104  1  0.32420000  0.85610000  0.32480000  1.0
  C  C105  1  0.17579000  0.35610000  0.17519000  1.0
  C  C106  1  0.67579000  0.14390000  0.67520000  1.0
  C  C107  1  0.82421000  0.64390000  0.82481000  1.0
  C  C108  1  0.40183000  0.92391000  0.38377000  1.0
  C  C109  1  0.09817000  0.42391000  0.11623000  1.0
  C  C110  1  0.59817000  0.07609000  0.61623000  1.0
  C  C111  1  0.90182000  0.57608000  0.88377000  1.0
  C  C112  1  0.44902000  0.86472000  0.45825000  1.0
  C  C113  1  0.05098000  0.36472000  0.04174000  1.0
  C  C114  1  0.55098000  0.13528000  0.54175000  1.0
  C  C115  1  0.94902000  0.63528000  0.95825000  1.0
  C  C116  1  0.45153000  0.76843000  0.56631000  1.0
  C  C117  1  0.04847000  0.26842000  0.93370000  1.0
  C  C118  1  0.54847000  0.23158000  0.43369000  1.0
  C  C119  1  0.95153000  0.73157000  0.06630000  1.0
  C  C120  1  0.41107000  0.70138000  0.63356000  1.0
  C  C121  1  0.08893000  0.20138000  0.86644000  1.0
  C  C122  1  0.58893000  0.29862000  0.36644000  1.0
  C  C123  1  0.91107000  0.79861000  0.13355000  1.0
  C  C124  1  0.92606000  0.96043000  0.65240000  1.0
  C  C125  1  0.57394000  0.46043000  0.84760000  1.0
  C  C126  1  0.07394000  0.03957000  0.34760000  1.0
  C  C127  1  0.42606000  0.53957000  0.15240000  1.0
  C  C128  1  0.96043000  0.88018000  0.59163000  1.0
  C  C129  1  0.53957000  0.38018000  0.90837000  1.0
  C  C130  1  0.03957000  0.11982000  0.40837000  1.0
  C  C131  1  0.46043000  0.61982000  0.09163000  1.0
  C  C132  1  0.94935000  0.75056000  0.50497000  1.0
  C  C133  1  0.55065000  0.25055000  0.99503000  1.0
  C  C134  1  0.05065000  0.24945000  0.49502000  1.0
  C  C135  1  0.44936000  0.74945000  0.00498000  1.0
  C  C136  1  0.90287000  0.66152000  0.44972000  1.0
  C  C137  1  0.59713000  0.16151000  0.05028000  1.0
  C  C138  1  0.09713000  0.33849000  0.55028000  1.0
  C  C139  1  0.40287000  0.83849000  0.94972000  1.0
  C  C140  1  0.83509000  0.57364000  0.48940000  1.0
  C  C141  1  0.66492000  0.07363000  0.01060000  1.0
  C  C142  1  0.16491000  0.42636000  0.51060000  1.0
  C  C143  1  0.33509000  0.92637000  0.98940000  1.0
  C  C144  1  0.71014000  0.49139000  0.56250000  1.0
  C  C145  1  0.78986000  0.99139000  0.93750000  1.0
  C  C146  1  0.28986000  0.50861000  0.43750000  1.0
  C  C147  1  0.21014000  0.00861000  0.06250000  1.0
  C  C148  1  0.61262000  0.46719000  0.61768000  1.0
  C  C149  1  0.88738000  0.96719000  0.88232000  1.0
  C  C150  1  0.38738000  0.53281000  0.38232000  1.0
  C  C151  1  0.11262000  0.03281000  0.11768000  1.0
  C  C152  1  0.62158000  0.73858000  0.28744000  1.0
  C  C153  1  0.87841000  0.23858000  0.21256000  1.0
  C  C154  1  0.37842000  0.26142000  0.71256000  1.0
  C  C155  1  0.12158000  0.76142000  0.78744000  1.0
  C  C156  1  0.67096000  0.83599000  0.30592000  1.0
  C  C157  1  0.82903000  0.33600000  0.19408000  1.0
  C  C158  1  0.32904000  0.16401000  0.69408000  1.0
  C  C159  1  0.17096000  0.66401000  0.80592000  1.0
  C  C160  1  0.67215000  0.92563000  0.24974000  1.0
  C  C161  1  0.82785000  0.42563000  0.25026000  1.0
  C  C162  1  0.32786000  0.07437000  0.75026000  1.0
  C  C163  1  0.17215000  0.57437000  0.74974000  1.0
  C  C164  1  0.71606000  0.02411000  0.27131000  1.0
  C  C165  1  0.78394000  0.52411000  0.22869000  1.0
  C  C166  1  0.28394000  0.97590000  0.72869000  1.0
  C  C167  1  0.21606000  0.47589000  0.77131000  1.0
  N  N168  1  0.88190000  0.80240000  0.55816000  1.0
  N  N169  1  0.61810000  0.30239000  0.94184000  1.0
  N  N170  1  0.11810000  0.19760000  0.44184000  1.0
  N  N171  1  0.38190000  0.69760000  0.05817000  1.0
  N  N172  1  0.07000000  0.87717000  0.56171000  1.0
  N  N173  1  0.43000000  0.37717000  0.93829000  1.0
  N  N174  1  0.92999000  0.12283000  0.43829000  1.0
  N  N175  1  0.57000000  0.62283000  0.06171000  1.0
  N  N176  1  0.06218000  0.79406000  0.50634000  1.0
  N  N177  1  0.43782000  0.29406000  0.99366000  1.0
  N  N178  1  0.93782000  0.20594000  0.49366000  1.0
  N  N179  1  0.56218000  0.70594000  0.00634000  1.0
  N  N180  1  0.74704000  0.59176000  0.54233000  1.0
  N  N181  1  0.75296000  0.09175000  0.95767000  1.0
  N  N182  1  0.25296000  0.40824000  0.45767000  1.0
  N  N183  1  0.24704000  0.90824000  0.04233000  1.0
  N  N184  1  0.85290000  0.46921000  0.47637000  1.0
  N  N185  1  0.64710000  0.96921000  0.02363000  1.0
  N  N186  1  0.14710000  0.53079000  0.52363000  1.0
  N  N187  1  0.35290000  0.03079000  0.97637000  1.0
  N  N188  1  0.77305000  0.41694000  0.52374000  1.0
  N  N189  1  0.72695000  0.91693000  0.97626000  1.0
  N  N190  1  0.22695000  0.58307000  0.47626000  1.0
  N  N191  1  0.27305000  0.08306000  0.02374000  1.0
  N  N192  1  0.56728000  0.80099000  0.55645000  1.0
  N  N193  1  0.93272000  0.30098000  0.94355000  1.0
  N  N194  1  0.43272000  0.19901000  0.44355000  1.0
  N  N195  1  0.06728000  0.69901000  0.05644000  1.0
  N  N196  1  0.56613000  0.86277000  0.48720000  1.0
  N  N197  1  0.93387000  0.36276000  0.01280000  1.0
  N  N198  1  0.43386000  0.13724000  0.51280000  1.0
  N  N199  1  0.06613000  0.63723000  0.98720000  1.0
  N  N200  1  0.37433000  0.80733000  0.50542000  1.0
  N  N201  1  0.12567000  0.30733000  0.99459000  1.0
  N  N202  1  0.62567000  0.19267000  0.49458000  1.0
  N  N203  1  0.87433000  0.69266000  0.00542000  1.0
  N  N204  1  0.23957000  0.78130000  0.34665000  1.0
  N  N205  1  0.26043000  0.28130000  0.15336000  1.0
  N  N206  1  0.76043000  0.21870000  0.65336000  1.0
  N  N207  1  0.73957000  0.71870000  0.84664000  1.0
  N  N208  1  0.32861000  0.86169000  0.24546000  1.0
  N  N209  1  0.17138000  0.36169000  0.25454000  1.0
  N  N210  1  0.67138000  0.13831000  0.75454000  1.0
  N  N211  1  0.82861000  0.63831000  0.74546000  1.0
  N  N212  1  0.24386000  0.78632000  0.21467000  1.0
  N  N213  1  0.25614000  0.28632000  0.28533000  1.0
  N  N214  1  0.75614000  0.21368000  0.78533000  1.0
  N  N215  1  0.74386000  0.71368000  0.71467000  1.0
