# generated using pymatgen
data_CuH12C12N4O5
_symmetry_space_group_name_H-M   'P 1'
_cell_length_a   7.30831000
_cell_length_b   10.17280000
_cell_length_c   10.17280000
_cell_angle_alpha   101.57300000
_cell_angle_beta   99.76860000
_cell_angle_gamma   99.76980000
_symmetry_Int_Tables_number   1
_chemical_formula_structural   CuH12C12N4O5
_chemical_formula_sum   'Cu2 H24 C24 N8 O10'
_cell_volume   713.74630962
_cell_formula_units_Z   2
loop_
 _symmetry_equiv_pos_site_id
 _symmetry_equiv_pos_as_xyz
  1  'x, y, z'
loop_
 _atom_site_type_symbol
 _atom_site_label
 _atom_site_symmetry_multiplicity
 _atom_site_fract_x
 _atom_site_fract_y
 _atom_site_fract_z
 _atom_site_occupancy
  Cu  Cu0  1  0.25002000  0.85059000  0.14944000  1.0
  Cu  Cu1  1  0.75000000  0.14945000  0.85057000  1.0
  H  H2  1  0.16852000  0.95142000  0.92977000  1.0
  H  H3  1  0.66855000  0.92978000  0.95142000  1.0
  H  H4  1  0.83150000  0.04857000  0.07021000  1.0
  H  H5  1  0.33146000  0.07021000  0.04858000  1.0
  H  H6  1  0.77599000  0.33820000  0.32562000  1.0
  H  H7  1  0.27601000  0.32562000  0.33821000  1.0
  H  H8  1  0.22401000  0.66181000  0.67438000  1.0
  H  H9  1  0.72399000  0.67437000  0.66179000  1.0
  H  H10  1  0.83411000  0.33030000  0.16243000  1.0
  H  H11  1  0.33414000  0.16244000  0.33030000  1.0
  H  H12  1  0.16589000  0.66971000  0.83758000  1.0
  H  H13  1  0.66588000  0.83757000  0.66970000  1.0
  H  H14  1  0.09320000  0.49184000  0.34749000  1.0
  H  H15  1  0.59315000  0.34749000  0.49183000  1.0
  H  H16  1  0.90683000  0.50818000  0.65252000  1.0
  H  H17  1  0.40679000  0.65251000  0.50816000  1.0
  H  H18  1  0.92890000  0.59227000  0.39857000  1.0
  H  H19  1  0.42888000  0.39855000  0.59225000  1.0
  H  H20  1  0.07110000  0.40774000  0.60144000  1.0
  H  H21  1  0.57109000  0.60143000  0.40773000  1.0
  H  H22  1  0.98766000  0.58391000  0.23533000  1.0
  H  H23  1  0.48764000  0.23534000  0.58391000  1.0
  H  H24  1  0.01234000  0.41610000  0.76467000  1.0
  H  H25  1  0.51233000  0.76467000  0.41608000  1.0
  C  C26  1  0.32189000  0.54014000  0.10602000  1.0
  C  C27  1  0.82190000  0.10601000  0.54013000  1.0
  C  C28  1  0.67810000  0.45985000  0.89397000  1.0
  C  C29  1  0.17810000  0.89397000  0.45986000  1.0
  C  C30  1  0.15046000  0.31098000  0.00925000  1.0
  C  C31  1  0.65048000  0.00924000  0.31096000  1.0
  C  C32  1  0.84953000  0.68901000  0.99074000  1.0
  C  C33  1  0.34954000  0.99074000  0.68902000  1.0
  C  C34  1  0.31713000  0.39962000  0.08695000  1.0
  C  C35  1  0.81717000  0.08696000  0.39964000  1.0
  C  C36  1  0.68286000  0.60035000  0.91304000  1.0
  C  C37  1  0.18287000  0.91304000  0.60038000  1.0
  C  C38  1  0.47997000  0.34511000  0.13532000  1.0
  C  C39  1  0.98003000  0.13533000  0.34511000  1.0
  C  C40  1  0.52000000  0.65488000  0.86467000  1.0
  C  C41  1  0.02002000  0.86468000  0.65489000  1.0
  C  C42  1  0.80417000  0.39893000  0.25040000  1.0
  C  C43  1  0.30419000  0.25040000  0.39896000  1.0
  C  C44  1  0.19583000  0.60107000  0.74961000  1.0
  C  C45  1  0.69582000  0.74960000  0.60107000  1.0
  C  C46  1  0.96155000  0.52435000  0.31140000  1.0
  C  C47  1  0.46156000  0.31141000  0.52438000  1.0
  C  C48  1  0.03843000  0.47565000  0.68861000  1.0
  C  C49  1  0.53844000  0.68860000  0.47564000  1.0
  N  N50  1  0.32007000  0.65677000  0.11731000  1.0
  N  N51  1  0.82005000  0.11730000  0.65676000  1.0
  N  N52  1  0.67994000  0.34321000  0.88268000  1.0
  N  N53  1  0.17991000  0.88268000  0.34322000  1.0
  N  N54  1  0.01016000  0.24116000  0.93894000  1.0
  N  N55  1  0.51017000  0.93893000  0.24114000  1.0
  N  N56  1  0.98982000  0.75884000  0.06105000  1.0
  N  N57  1  0.48984000  0.06105000  0.75883000  1.0
  O  O58  1  0.25004000  0.97648000  0.02356000  1.0
  O  O59  1  0.74997000  0.02357000  0.97647000  1.0
  O  O60  1  0.48382000  0.22177000  0.11857000  1.0
  O  O61  1  0.98383000  0.11856000  0.22178000  1.0
  O  O62  1  0.51618000  0.77823000  0.88144000  1.0
  O  O63  1  0.01617000  0.88144000  0.77825000  1.0
  O  O64  1  0.63196000  0.44566000  0.20365000  1.0
  O  O65  1  0.13199000  0.20365000  0.44564000  1.0
  O  O66  1  0.36803000  0.55435000  0.79635000  1.0
  O  O67  1  0.86805000  0.79635000  0.55436000  1.0
