# generated using pymatgen
data_CuH13C11NO6
_symmetry_space_group_name_H-M   'P 1'
_cell_length_a   5.84093000
_cell_length_b   8.79052000
_cell_length_c   11.82440000
_cell_angle_alpha   90.00000000
_cell_angle_beta   93.69620000
_cell_angle_gamma   89.99970000
_symmetry_Int_Tables_number   1
_chemical_formula_structural   CuH13C11NO6
_chemical_formula_sum   'Cu2 H26 C22 N2 O12'
_cell_volume   605.85871877
_cell_formula_units_Z   2
loop_
 _symmetry_equiv_pos_site_id
 _symmetry_equiv_pos_as_xyz
  1  'x, y, z'
loop_
 _atom_site_type_symbol
 _atom_site_label
 _atom_site_symmetry_multiplicity
 _atom_site_fract_x
 _atom_site_fract_y
 _atom_site_fract_z
 _atom_site_occupancy
  Cu  Cu0  1  0.61326000  0.19985000  0.41269000  1.0
  Cu  Cu1  1  0.38674000  0.69985000  0.58731000  1.0
  H  H2  1  0.84952000  0.07972000  0.26489000  1.0
  H  H3  1  0.15048000  0.57972000  0.73511000  1.0
  H  H4  1  0.50308000  0.55533000  0.36862000  1.0
  H  H5  1  0.49691000  0.05533000  0.63138000  1.0
  H  H6  1  0.17027000  0.62216000  0.26449000  1.0
  H  H7  1  0.82972000  0.12216000  0.73551000  1.0
  H  H8  1  0.94472000  0.59162000  0.07948000  1.0
  H  H9  1  0.05528000  0.09162000  0.92052000  1.0
  H  H10  1  0.05982000  0.40105000  0.93955000  1.0
  H  H11  1  0.94018000  0.90104000  0.06044000  1.0
  H  H12  1  0.41120000  0.24151000  0.98426000  1.0
  H  H13  1  0.58880000  0.74151000  0.01574000  1.0
  H  H14  1  0.76014000  0.20188000  0.09318000  1.0
  H  H15  1  0.23987000  0.70188000  0.90682000  1.0
  H  H16  1  0.84451000  0.32913000  0.20492000  1.0
  H  H17  1  0.15549000  0.82913000  0.79508000  1.0
  H  H18  1  0.49605000  0.00592000  0.13068000  1.0
  H  H19  1  0.50395000  0.50592000  0.86932000  1.0
  H  H20  1  0.48479000  0.76887000  0.22486000  1.0
  H  H21  1  0.51521000  0.26887000  0.77514000  1.0
  H  H22  1  0.77406000  0.83438000  0.24376000  1.0
  H  H23  1  0.22594000  0.33438000  0.75624000  1.0
  H  H24  1  0.00105000  0.34670000  0.48557000  1.0
  H  H25  1  0.99895000  0.84670000  0.51443000  1.0
  H  H26  1  0.06628000  0.20011000  0.41948000  1.0
  H  H27  1  0.93372000  0.70011000  0.58052000  1.0
  C  C28  1  0.42089000  0.45244000  0.22554000  1.0
  C  C29  1  0.57910000  0.95244000  0.77446000  1.0
  C  C30  1  0.22316000  0.54046000  0.20178000  1.0
  C  C31  1  0.77683000  0.04045000  0.79821000  1.0
  C  C32  1  0.09657000  0.52161000  0.09853000  1.0
  C  C33  1  0.90343000  0.02161000  0.90147000  1.0
  C  C34  1  0.16132000  0.41404000  0.01962000  1.0
  C  C35  1  0.83868000  0.91404000  0.98038000  1.0
  C  C36  1  0.35684000  0.32577000  0.04506000  1.0
  C  C37  1  0.64316000  0.82576000  0.95494000  1.0
  C  C38  1  0.48956000  0.34346000  0.14695000  1.0
  C  C39  1  0.51044000  0.84347000  0.85305000  1.0
  C  C40  1  0.70585000  0.25394000  0.17191000  1.0
  C  C41  1  0.29415000  0.75394000  0.82809000  1.0
  C  C42  1  0.51883000  0.01232000  0.22370000  1.0
  C  C43  1  0.48117000  0.51232000  0.77630000  1.0
  C  C44  1  0.28726000  0.04994000  0.27007000  1.0
  C  C45  1  0.71274000  0.54994000  0.72993000  1.0
  C  C46  1  0.59714000  0.85400000  0.26713000  1.0
  C  C47  1  0.40286000  0.35400000  0.73287000  1.0
  C  C48  1  0.59254000  0.83927000  0.39550000  1.0
  C  C49  1  0.40746000  0.33927000  0.60450000  1.0
  N  N50  1  0.68850000  0.13113000  0.25782000  1.0
  N  N51  1  0.31150000  0.63113000  0.74218000  1.0
  O  O52  1  0.55521000  0.46733000  0.32314000  1.0
  O  O53  1  0.44478000  0.96732000  0.67686000  1.0
  O  O54  1  0.29472000  0.13969000  0.35756000  1.0
  O  O55  1  0.70528000  0.63969000  0.64244000  1.0
  O  O56  1  0.10832000  0.99007000  0.22782000  1.0
  O  O57  1  0.89168000  0.49007000  0.77217000  1.0
  O  O58  1  0.69910000  0.93298000  0.45906000  1.0
  O  O59  1  0.30090000  0.43298000  0.54094000  1.0
  O  O60  1  0.46914000  0.72807000  0.43043000  1.0
  O  O61  1  0.53086000  0.22807000  0.56957000  1.0
  O  O62  1  0.94148000  0.24606000  0.46307000  1.0
  O  O63  1  0.05852000  0.74606000  0.53693000  1.0
