# generated using pymatgen
data_Zn3H6C10(N10O)2
_symmetry_space_group_name_H-M   'P 1'
_cell_length_a   14.31560000
_cell_length_b   14.31570000
_cell_length_c   19.35620000
_cell_angle_alpha   90.00000000
_cell_angle_beta   90.00000000
_cell_angle_gamma   90.00000000
_symmetry_Int_Tables_number   1
_chemical_formula_structural   Zn3H6C10(N10O)2
_chemical_formula_sum   'Zn24 H48 C80 N160 O16'
_cell_volume   3966.81772028
_cell_formula_units_Z   8
loop_
 _symmetry_equiv_pos_site_id
 _symmetry_equiv_pos_as_xyz
  1  'x, y, z'
loop_
 _atom_site_type_symbol
 _atom_site_label
 _atom_site_symmetry_multiplicity
 _atom_site_fract_x
 _atom_site_fract_y
 _atom_site_fract_z
 _atom_site_occupancy
  Zn  Zn0  1  0.20031000  0.54380000  0.20948000  1.0
  Zn  Zn1  1  0.79969000  0.45620000  0.20948000  1.0
  Zn  Zn2  1  0.45620000  0.20031000  0.70948000  1.0
  Zn  Zn3  1  0.54380000  0.79969000  0.70948000  1.0
  Zn  Zn4  1  0.29969000  0.04380000  0.79052000  1.0
  Zn  Zn5  1  0.70031000  0.95620000  0.79052000  1.0
  Zn  Zn6  1  0.04380000  0.70031000  0.29052000  1.0
  Zn  Zn7  1  0.95620000  0.29969000  0.29052000  1.0
  Zn  Zn8  1  0.79969000  0.45620000  0.79052000  1.0
  Zn  Zn9  1  0.20031000  0.54380000  0.79052000  1.0
  Zn  Zn10  1  0.54380000  0.79969000  0.29052000  1.0
  Zn  Zn11  1  0.45620000  0.20031000  0.29052000  1.0
  Zn  Zn12  1  0.70031000  0.95620000  0.20948000  1.0
  Zn  Zn13  1  0.29969000  0.04380000  0.20948000  1.0
  Zn  Zn14  1  0.95620000  0.29969000  0.70948000  1.0
  Zn  Zn15  1  0.04380000  0.70031000  0.70948000  1.0
  Zn  Zn16  1  0.20293000  0.41057000  0.50000000  1.0
  Zn  Zn17  1  0.79708000  0.58943000  0.50000000  1.0
  Zn  Zn18  1  0.58943000  0.20293000  0.00000000  1.0
  Zn  Zn19  1  0.41057000  0.79707000  0.00000000  1.0
  Zn  Zn20  1  0.29708000  0.91057000  0.50000000  1.0
  Zn  Zn21  1  0.70293000  0.08943000  0.50000000  1.0
  Zn  Zn22  1  0.91057000  0.70293000  0.00000000  1.0
  Zn  Zn23  1  0.08943000  0.29707000  0.00000000  1.0
  H  H24  1  0.36717000  0.23988000  0.43742000  1.0
  H  H25  1  0.63283000  0.76013000  0.43742000  1.0
  H  H26  1  0.76013000  0.36717000  0.93742000  1.0
  H  H27  1  0.23987000  0.63283000  0.93742000  1.0
  H  H28  1  0.13283000  0.73987000  0.56258000  1.0
  H  H29  1  0.86717000  0.26013000  0.56258000  1.0
  H  H30  1  0.73987000  0.86717000  0.06258000  1.0
  H  H31  1  0.26013000  0.13283000  0.06258000  1.0
  H  H32  1  0.63283000  0.76013000  0.56258000  1.0
  H  H33  1  0.36717000  0.23987000  0.56258000  1.0
  H  H34  1  0.23987000  0.63283000  0.06258000  1.0
  H  H35  1  0.76013000  0.36717000  0.06258000  1.0
  H  H36  1  0.86717000  0.26012000  0.43742000  1.0
  H  H37  1  0.13283000  0.73987000  0.43742000  1.0
  H  H38  1  0.26013000  0.13283000  0.93742000  1.0
  H  H39  1  0.73987000  0.86717000  0.93742000  1.0
  H  H40  1  0.08594000  0.26922000  0.45880000  1.0
  H  H41  1  0.91406000  0.73078000  0.45880000  1.0
  H  H42  1  0.73077000  0.08594000  0.95880000  1.0
  H  H43  1  0.26922000  0.91406000  0.95880000  1.0
  H  H44  1  0.41406000  0.76922000  0.54120000  1.0
  H  H45  1  0.58594000  0.23077000  0.54120000  1.0
  H  H46  1  0.76922000  0.58594000  0.04120000  1.0
  H  H47  1  0.23078000  0.41406000  0.04120000  1.0
  H  H48  1  0.91406000  0.73078000  0.54120000  1.0
  H  H49  1  0.08594000  0.26922000  0.54120000  1.0
  H  H50  1  0.26922000  0.91406000  0.04120000  1.0
  H  H51  1  0.73077000  0.08594000  0.04120000  1.0
  H  H52  1  0.58594000  0.23077000  0.45880000  1.0
  H  H53  1  0.41406000  0.76922000  0.45880000  1.0
  H  H54  1  0.23078000  0.41406000  0.95880000  1.0
  H  H55  1  0.76922000  0.58594000  0.95880000  1.0
  H  H56  1  0.32276000  0.56263000  0.54129000  1.0
  H  H57  1  0.67724000  0.43738000  0.54129000  1.0
  H  H58  1  0.43738000  0.32276000  0.04130000  1.0
  H  H59  1  0.56262000  0.67724000  0.04129000  1.0
  H  H60  1  0.17724000  0.06262000  0.45871000  1.0
  H  H61  1  0.82276000  0.93738000  0.45870000  1.0
  H  H62  1  0.06262000  0.82276000  0.95871000  1.0
  H  H63  1  0.93738000  0.17724000  0.95871000  1.0
  H  H64  1  0.67724000  0.43738000  0.45870000  1.0
  H  H65  1  0.32276000  0.56262000  0.45870000  1.0
  H  H66  1  0.56262000  0.67724000  0.95870000  1.0
  H  H67  1  0.43738000  0.32276000  0.95871000  1.0
  H  H68  1  0.82276000  0.93738000  0.54130000  1.0
  H  H69  1  0.17724000  0.06262000  0.54130000  1.0
  H  H70  1  0.93738000  0.17724000  0.04129000  1.0
  H  H71  1  0.06262000  0.82276000  0.04130000  1.0
  C  C72  1  0.33590000  0.28620000  0.39950000  1.0
  C  C73  1  0.66410000  0.71381000  0.39950000  1.0
  C  C74  1  0.71381000  0.33590000  0.89950000  1.0
  C  C75  1  0.28619000  0.66410000  0.89950000  1.0
  C  C76  1  0.16410000  0.78619000  0.60050000  1.0
  C  C77  1  0.83590000  0.21381000  0.60050000  1.0
  C  C78  1  0.78619000  0.83590000  0.10050000  1.0
  C  C79  1  0.21381000  0.16410000  0.10050000  1.0
  C  C80  1  0.66410000  0.71381000  0.60050000  1.0
  C  C81  1  0.33590000  0.28619000  0.60050000  1.0
  C  C82  1  0.28619000  0.66410000  0.10050000  1.0
  C  C83  1  0.71380000  0.33590000  0.10050000  1.0
  C  C84  1  0.83590000  0.21380000  0.39950000  1.0
  C  C85  1  0.16410000  0.78619000  0.39950000  1.0
  C  C86  1  0.21381000  0.16410000  0.89950000  1.0
  C  C87  1  0.78619000  0.83590000  0.89950000  1.0
  C  C88  1  0.30536000  0.35180000  0.30002000  1.0
  C  C89  1  0.69464000  0.64820000  0.30002000  1.0
  C  C90  1  0.64820000  0.30536000  0.80002000  1.0
  C  C91  1  0.35180000  0.69464000  0.80002000  1.0
  C  C92  1  0.19464000  0.85180000  0.69998000  1.0
  C  C93  1  0.80536000  0.14820000  0.69998000  1.0
  C  C94  1  0.85180000  0.80536000  0.19998000  1.0
  C  C95  1  0.14820000  0.19464000  0.19998000  1.0
  C  C96  1  0.69464000  0.64820000  0.69998000  1.0
  C  C97  1  0.30536000  0.35180000  0.69998000  1.0
  C  C98  1  0.35180000  0.69464000  0.19998000  1.0
  C  C99  1  0.64820000  0.30536000  0.19998000  1.0
  C  C100  1  0.80536000  0.14820000  0.30002000  1.0
  C  C101  1  0.19465000  0.85180000  0.30002000  1.0
  C  C102  1  0.14820000  0.19464000  0.80002000  1.0
  C  C103  1  0.85180000  0.80536000  0.80002000  1.0
  C  C104  1  0.24955000  0.39198000  0.35123000  1.0
  C  C105  1  0.75045000  0.60802000  0.35123000  1.0
  C  C106  1  0.60802000  0.24954000  0.85123000  1.0
  C  C107  1  0.39198000  0.75045000  0.85123000  1.0
  C  C108  1  0.25045000  0.89198000  0.64877000  1.0
  C  C109  1  0.74955000  0.10802000  0.64877000  1.0
  C  C110  1  0.89198000  0.74955000  0.14877000  1.0
  C  C111  1  0.10802000  0.25045000  0.14877000  1.0
  C  C112  1  0.75045000  0.60802000  0.64877000  1.0
  C  C113  1  0.24955000  0.39198000  0.64877000  1.0
  C  C114  1  0.39198000  0.75045000  0.14877000  1.0
  C  C115  1  0.60802000  0.24955000  0.14877000  1.0
  C  C116  1  0.74955000  0.10802000  0.35122000  1.0
  C  C117  1  0.25045000  0.89198000  0.35123000  1.0
  C  C118  1  0.10802000  0.25045000  0.85123000  1.0
  C  C119  1  0.89198000  0.74955000  0.85123000  1.0
  C  C120  1  0.31573000  0.36721000  0.22686000  1.0
  C  C121  1  0.68427000  0.63279000  0.22686000  1.0
  C  C122  1  0.63279000  0.31573000  0.72686000  1.0
  C  C123  1  0.36721000  0.68427000  0.72686000  1.0
  C  C124  1  0.18427000  0.86721000  0.77314000  1.0
  C  C125  1  0.81573000  0.13279000  0.77314000  1.0
  C  C126  1  0.86721000  0.81573000  0.27314000  1.0
  C  C127  1  0.13279000  0.18427000  0.27314000  1.0
  C  C128  1  0.68427000  0.63279000  0.77314000  1.0
  C  C129  1  0.31573000  0.36721000  0.77314000  1.0
  C  C130  1  0.36721000  0.68427000  0.27314000  1.0
  C  C131  1  0.63279000  0.31573000  0.27314000  1.0
  C  C132  1  0.81573000  0.13279000  0.22686000  1.0
  C  C133  1  0.18427000  0.86721000  0.22686000  1.0
  C  C134  1  0.13279000  0.18427000  0.72686000  1.0
  C  C135  1  0.86721000  0.81573000  0.72686000  1.0
  C  C136  1  0.18002000  0.46428000  0.35373000  1.0
  C  C137  1  0.81998000  0.53572000  0.35373000  1.0
  C  C138  1  0.53572000  0.18002000  0.85373000  1.0
  C  C139  1  0.46428000  0.81998000  0.85372000  1.0
  C  C140  1  0.31998000  0.96428000  0.64627000  1.0
  C  C141  1  0.68002000  0.03572000  0.64627000  1.0
  C  C142  1  0.96428000  0.68002000  0.14627000  1.0
  C  C143  1  0.03572000  0.31998000  0.14627000  1.0
  C  C144  1  0.81998000  0.53572000  0.64627000  1.0
  C  C145  1  0.18002000  0.46428000  0.64627000  1.0
  C  C146  1  0.46428000  0.81998000  0.14627000  1.0
  C  C147  1  0.53572000  0.18002000  0.14627000  1.0
  C  C148  1  0.68002000  0.03572000  0.35373000  1.0
  C  C149  1  0.31998000  0.96428000  0.35373000  1.0
  C  C150  1  0.03572000  0.31998000  0.85373000  1.0
  C  C151  1  0.96428000  0.68002000  0.85373000  1.0
  N  N152  1  0.27057000  0.34997000  0.41357000  1.0
  N  N153  1  0.72943000  0.65003000  0.41357000  1.0
  N  N154  1  0.65003000  0.27057000  0.91357000  1.0
  N  N155  1  0.34997000  0.72943000  0.91357000  1.0
  N  N156  1  0.22943000  0.84997000  0.58643000  1.0
  N  N157  1  0.77057000  0.15003000  0.58643000  1.0
  N  N158  1  0.84997000  0.77057000  0.08643000  1.0
  N  N159  1  0.15003000  0.22943000  0.08643000  1.0
  N  N160  1  0.72943000  0.65003000  0.58643000  1.0
  N  N161  1  0.27057000  0.34997000  0.58643000  1.0
  N  N162  1  0.34997000  0.72943000  0.08643000  1.0
  N  N163  1  0.65003000  0.27057000  0.08643000  1.0
  N  N164  1  0.77057000  0.15003000  0.41357000  1.0
  N  N165  1  0.22943000  0.84997000  0.41357000  1.0
  N  N166  1  0.15003000  0.22943000  0.91357000  1.0
  N  N167  1  0.84997000  0.77057000  0.91357000  1.0
  N  N168  1  0.35899000  0.28410000  0.33178000  1.0
  N  N169  1  0.64101000  0.71590000  0.33178000  1.0
  N  N170  1  0.71590000  0.35899000  0.83178000  1.0
  N  N171  1  0.28410000  0.64101000  0.83178000  1.0
  N  N172  1  0.14101000  0.78410000  0.66822000  1.0
  N  N173  1  0.85899000  0.21590000  0.66822000  1.0
  N  N174  1  0.78410000  0.85899000  0.16822000  1.0
  N  N175  1  0.21590000  0.14101000  0.16822000  1.0
  N  N176  1  0.64101000  0.71590000  0.66822000  1.0
  N  N177  1  0.35899000  0.28410000  0.66822000  1.0
  N  N178  1  0.28410000  0.64101000  0.16822000  1.0
  N  N179  1  0.71590000  0.35899000  0.16822000  1.0
  N  N180  1  0.85899000  0.21590000  0.33178000  1.0
  N  N181  1  0.14101000  0.78410000  0.33178000  1.0
  N  N182  1  0.21590000  0.14101000  0.83178000  1.0
  N  N183  1  0.78410000  0.85899000  0.83178000  1.0
  N  N184  1  0.37894000  0.32029000  0.18903000  1.0
  N  N185  1  0.62106000  0.67971000  0.18903000  1.0
  N  N186  1  0.67971000  0.37894000  0.68903000  1.0
  N  N187  1  0.32029000  0.62106000  0.68903000  1.0
  N  N188  1  0.12106000  0.82029000  0.81097000  1.0
  N  N189  1  0.87894000  0.17971000  0.81097000  1.0
  N  N190  1  0.82029000  0.87894000  0.31097000  1.0
  N  N191  1  0.17971000  0.12106000  0.31097000  1.0
  N  N192  1  0.62106000  0.67971000  0.81097000  1.0
  N  N193  1  0.37894000  0.32029000  0.81097000  1.0
  N  N194  1  0.32029000  0.62106000  0.31097000  1.0
  N  N195  1  0.67971000  0.37894000  0.31097000  1.0
  N  N196  1  0.87893000  0.17971000  0.18903000  1.0
  N  N197  1  0.12106000  0.82029000  0.18903000  1.0
  N  N198  1  0.17971000  0.12106000  0.68903000  1.0
  N  N199  1  0.82029000  0.87894000  0.68903000  1.0
  N  N200  1  0.36681000  0.34962000  0.12371000  1.0
  N  N201  1  0.63319000  0.65038000  0.12371000  1.0
  N  N202  1  0.65038000  0.36681000  0.62371000  1.0
  N  N203  1  0.34962000  0.63319000  0.62371000  1.0
  N  N204  1  0.13319000  0.84962000  0.87629000  1.0
  N  N205  1  0.86681000  0.15038000  0.87629000  1.0
  N  N206  1  0.84962000  0.86681000  0.37629000  1.0
  N  N207  1  0.15038000  0.13319000  0.37629000  1.0
  N  N208  1  0.63319000  0.65038000  0.87629000  1.0
  N  N209  1  0.36681000  0.34962000  0.87629000  1.0
  N  N210  1  0.34962000  0.63319000  0.37629000  1.0
  N  N211  1  0.65038000  0.36681000  0.37629000  1.0
  N  N212  1  0.86681000  0.15038000  0.12371000  1.0
  N  N213  1  0.13319000  0.84962000  0.12371000  1.0
  N  N214  1  0.15038000  0.13319000  0.62371000  1.0
  N  N215  1  0.84962000  0.86681000  0.62371000  1.0
  N  N216  1  0.30015000  0.41240000  0.12101000  1.0
  N  N217  1  0.69985000  0.58760000  0.12101000  1.0
  N  N218  1  0.58760000  0.30015000  0.62101000  1.0
  N  N219  1  0.41240000  0.69985000  0.62101000  1.0
  N  N220  1  0.19985000  0.91240000  0.87899000  1.0
  N  N221  1  0.80015000  0.08760000  0.87899000  1.0
  N  N222  1  0.91240000  0.80015000  0.37899000  1.0
  N  N223  1  0.08760000  0.19985000  0.37899000  1.0
  N  N224  1  0.69985000  0.58760000  0.87899000  1.0
  N  N225  1  0.30015000  0.41240000  0.87899000  1.0
  N  N226  1  0.41240000  0.69985000  0.37899000  1.0
  N  N227  1  0.58760000  0.30015000  0.37899000  1.0
  N  N228  1  0.80015000  0.08760000  0.12101000  1.0
  N  N229  1  0.19985000  0.91240000  0.12101000  1.0
  N  N230  1  0.08760000  0.19985000  0.62101000  1.0
  N  N231  1  0.91240000  0.80015000  0.62101000  1.0
  N  N232  1  0.26604000  0.42514000  0.18564000  1.0
  N  N233  1  0.73395000  0.57486000  0.18564000  1.0
  N  N234  1  0.57486000  0.26604000  0.68564000  1.0
  N  N235  1  0.42514000  0.73395000  0.68564000  1.0
  N  N236  1  0.23396000  0.92514000  0.81436000  1.0
  N  N237  1  0.76604000  0.07486000  0.81436000  1.0
  N  N238  1  0.92514000  0.76605000  0.31436000  1.0
  N  N239  1  0.07486000  0.23396000  0.31436000  1.0
  N  N240  1  0.73395000  0.57486000  0.81436000  1.0
  N  N241  1  0.26605000  0.42514000  0.81436000  1.0
  N  N242  1  0.42514000  0.73396000  0.31436000  1.0
  N  N243  1  0.57486000  0.26605000  0.31436000  1.0
  N  N244  1  0.76604000  0.07486000  0.18564000  1.0
  N  N245  1  0.23396000  0.92514000  0.18564000  1.0
  N  N246  1  0.07486000  0.23396000  0.68564000  1.0
  N  N247  1  0.92514000  0.76604000  0.68564000  1.0
  N  N248  1  0.14539000  0.51936000  0.30395000  1.0
  N  N249  1  0.85461000  0.48064000  0.30395000  1.0
  N  N250  1  0.48064000  0.14539000  0.80395000  1.0
  N  N251  1  0.51936000  0.85461000  0.80395000  1.0
  N  N252  1  0.35461000  0.01936000  0.69605000  1.0
  N  N253  1  0.64539000  0.98064000  0.69605000  1.0
  N  N254  1  0.01936000  0.64539000  0.19605000  1.0
  N  N255  1  0.98064000  0.35461000  0.19605000  1.0
  N  N256  1  0.85461000  0.48064000  0.69605000  1.0
  N  N257  1  0.14539000  0.51936000  0.69605000  1.0
  N  N258  1  0.51936000  0.85461000  0.19605000  1.0
  N  N259  1  0.48064000  0.14539000  0.19605000  1.0
  N  N260  1  0.64539000  0.98064000  0.30395000  1.0
  N  N261  1  0.35461000  0.01936000  0.30395000  1.0
  N  N262  1  0.98064000  0.35461000  0.80395000  1.0
  N  N263  1  0.01936000  0.64539000  0.80395000  1.0
  N  N264  1  0.08663000  0.57870000  0.33721000  1.0
  N  N265  1  0.91337000  0.42130000  0.33721000  1.0
  N  N266  1  0.42130000  0.08663000  0.83721000  1.0
  N  N267  1  0.57870000  0.91337000  0.83721000  1.0
  N  N268  1  0.41337000  0.07870000  0.66279000  1.0
  N  N269  1  0.58663000  0.92130000  0.66279000  1.0
  N  N270  1  0.07870000  0.58663000  0.16279000  1.0
  N  N271  1  0.92130000  0.41337000  0.16279000  1.0
  N  N272  1  0.91337000  0.42130000  0.66279000  1.0
  N  N273  1  0.08663000  0.57870000  0.66279000  1.0
  N  N274  1  0.57870000  0.91337000  0.16279000  1.0
  N  N275  1  0.42130000  0.08663000  0.16279000  1.0
  N  N276  1  0.58663000  0.92130000  0.33721000  1.0
  N  N277  1  0.41337000  0.07870000  0.33721000  1.0
  N  N278  1  0.92130000  0.41337000  0.83721000  1.0
  N  N279  1  0.07870000  0.58663000  0.83721000  1.0
  N  N280  1  0.08527000  0.56058000  0.40366000  1.0
  N  N281  1  0.91473000  0.43942000  0.40366000  1.0
  N  N282  1  0.43942000  0.08527000  0.90366000  1.0
  N  N283  1  0.56057000  0.91473000  0.90366000  1.0
  N  N284  1  0.41473000  0.06057000  0.59634000  1.0
  N  N285  1  0.58527000  0.93942000  0.59634000  1.0
  N  N286  1  0.06058000  0.58527000  0.09634000  1.0
  N  N287  1  0.93942000  0.41473000  0.09634000  1.0
  N  N288  1  0.91473000  0.43942000  0.59634000  1.0
  N  N289  1  0.08527000  0.56058000  0.59634000  1.0
  N  N290  1  0.56058000  0.91473000  0.09634000  1.0
  N  N291  1  0.43942000  0.08527000  0.09634000  1.0
  N  N292  1  0.58527000  0.93942000  0.40366000  1.0
  N  N293  1  0.41473000  0.06058000  0.40366000  1.0
  N  N294  1  0.93942000  0.41473000  0.90366000  1.0
  N  N295  1  0.06058000  0.58527000  0.90366000  1.0
  N  N296  1  0.14206000  0.48877000  0.41508000  1.0
  N  N297  1  0.85794000  0.51124000  0.41508000  1.0
  N  N298  1  0.51123000  0.14206000  0.91508000  1.0
  N  N299  1  0.48876000  0.85794000  0.91508000  1.0
  N  N300  1  0.35794000  0.98876000  0.58492000  1.0
  N  N301  1  0.64206000  0.01123000  0.58492000  1.0
  N  N302  1  0.98876000  0.64206000  0.08492000  1.0
  N  N303  1  0.01123000  0.35794000  0.08492000  1.0
  N  N304  1  0.85794000  0.51123000  0.58492000  1.0
  N  N305  1  0.14206000  0.48876000  0.58492000  1.0
  N  N306  1  0.48876000  0.85794000  0.08492000  1.0
  N  N307  1  0.51124000  0.14206000  0.08492000  1.0
  N  N308  1  0.64206000  0.01123000  0.41508000  1.0
  N  N309  1  0.35794000  0.98877000  0.41508000  1.0
  N  N310  1  0.01123000  0.35794000  0.91508000  1.0
  N  N311  1  0.98877000  0.64206000  0.91508000  1.0
  O  O312  1  0.09120000  0.31017000  0.50000000  1.0
  O  O313  1  0.90880000  0.68983000  0.50000000  1.0
  O  O314  1  0.68983000  0.09120000  0.00000000  1.0
  O  O315  1  0.31017000  0.90880000  0.00000000  1.0
  O  O316  1  0.40880000  0.81017000  0.50000000  1.0
  O  O317  1  0.59120000  0.18983000  0.50000000  1.0
  O  O318  1  0.81017000  0.59121000  0.00000000  1.0
  O  O319  1  0.18983000  0.40880000  0.00000000  1.0
  O  O320  1  0.31290000  0.52303000  0.50000000  1.0
  O  O321  1  0.68711000  0.47697000  0.50000000  1.0
  O  O322  1  0.47697000  0.31290000  0.00000000  1.0
  O  O323  1  0.52303000  0.68710000  0.00000000  1.0
  O  O324  1  0.18711000  0.02303000  0.50000000  1.0
  O  O325  1  0.81290000  0.97697000  0.50000000  1.0
  O  O326  1  0.02303000  0.81290000  0.00000000  1.0
  O  O327  1  0.97697000  0.18710000  0.00000000  1.0
