# generated using pymatgen
data_Zn2H34C47(N2O3)3
_symmetry_space_group_name_H-M   'P 1'
_cell_length_a   9.70476000
_cell_length_b   9.70473000
_cell_length_c   13.05390000
_cell_angle_alpha   102.03400000
_cell_angle_beta   102.03400000
_cell_angle_gamma   109.82500000
_symmetry_Int_Tables_number   1
_chemical_formula_structural   Zn2H34C47(N2O3)3
_chemical_formula_sum   'Zn2 H34 C47 N6 O9'
_cell_volume   1077.81985191
_cell_formula_units_Z   1
loop_
 _symmetry_equiv_pos_site_id
 _symmetry_equiv_pos_as_xyz
  1  'x, y, z'
loop_
 _atom_site_type_symbol
 _atom_site_label
 _atom_site_symmetry_multiplicity
 _atom_site_fract_x
 _atom_site_fract_y
 _atom_site_fract_z
 _atom_site_occupancy
  Zn  Zn0  1  0.64610000  0.77641000  0.65838000  1.0
  Zn  Zn1  1  0.22359000  0.35390000  0.34162000  1.0
  H  H2  1  0.72341000  0.90615000  0.91370000  1.0
  H  H3  1  0.09386000  0.27660000  0.08629000  1.0
  H  H4  1  0.83253000  0.94399000  0.11240000  1.0
  H  H5  1  0.05601000  0.16747000  0.88760000  1.0
  H  H6  1  0.99926000  0.81309000  0.17488000  1.0
  H  H7  1  0.18691000  0.00074000  0.82512000  1.0
  H  H8  1  0.06325000  0.64312000  0.04343000  1.0
  H  H9  1  0.35688000  0.93675000  0.95657000  1.0
  H  H10  1  0.93070000  0.50333000  0.59473000  1.0
  H  H11  1  0.49667000  0.06931000  0.40527000  1.0
  H  H12  1  0.81379000  0.60016000  0.55225000  1.0
  H  H13  1  0.39984000  0.18621000  0.44775000  1.0
  H  H14  1  0.70338000  0.28953000  0.59685000  1.0
  H  H15  1  0.71046000  0.29663000  0.40315000  1.0
  H  H16  1  0.59282000  0.40134000  0.59229000  1.0
  H  H17  1  0.59866000  0.40719000  0.40772000  1.0
  H  H18  1  0.11563000  0.53917000  0.88487000  1.0
  H  H19  1  0.46083000  0.88438000  0.11514000  1.0
  H  H20  1  0.09829000  0.52789000  0.74658000  1.0
  H  H21  1  0.47212000  0.90171000  0.25342000  1.0
  H  H22  1  0.78571000  0.33565000  0.87066000  1.0
  H  H23  1  0.66435000  0.21429000  0.12934000  1.0
  H  H24  1  0.63845000  0.05247000  0.80356000  1.0
  H  H25  1  0.94753000  0.36155000  0.19644000  1.0
  H  H26  1  0.90509000  0.99102000  0.60291000  1.0
  H  H27  1  0.00898000  0.09491000  0.39709000  1.0
  H  H28  1  0.05989000  0.27528000  0.65646000  1.0
  H  H29  1  0.72473000  0.94011000  0.34354000  1.0
  H  H30  1  0.51663000  0.65116000  0.95371000  1.0
  H  H31  1  0.34884000  0.48338000  0.04629000  1.0
  H  H32  1  0.46291000  0.18773000  0.80864000  1.0
  H  H33  1  0.81227000  0.53709000  0.19136000  1.0
  H  H34  1  0.33692000  0.19770000  0.62497000  1.0
  H  H35  1  0.80230000  0.66308000  0.37503000  1.0
  C  C36  1  0.83044000  0.74967000  0.86504000  1.0
  C  C37  1  0.25033000  0.16956000  0.13496000  1.0
  C  C38  1  0.79577000  0.84776000  0.94051000  1.0
  C  C39  1  0.15224000  0.20423000  0.05949000  1.0
  C  C40  1  0.85722000  0.86811000  0.05164000  1.0
  C  C41  1  0.13189000  0.14278000  0.94836000  1.0
  C  C42  1  0.95140000  0.79387000  0.08727000  1.0
  C  C43  1  0.20613000  0.04860000  0.91273000  1.0
  C  C44  1  0.98748000  0.69631000  0.01300000  1.0
  C  C45  1  0.30369000  0.01252000  0.98700000  1.0
  C  C46  1  0.92557000  0.67642000  0.90210000  1.0
  C  C47  1  0.32357000  0.07443000  0.09790000  1.0
  C  C48  1  0.85457000  0.61117000  0.71867000  1.0
  C  C49  1  0.38882000  0.14543000  0.28134000  1.0
  C  C50  1  0.82979000  0.52675000  0.60322000  1.0
  C  C51  1  0.47324000  0.17021000  0.39678000  1.0
  C  C52  1  0.68250000  0.37729000  0.56236000  1.0
  C  C53  1  0.62270000  0.31750000  0.43765000  1.0
  C  C54  1  0.03152000  0.50017000  0.80311000  1.0
  C  C55  1  0.49984000  0.96848000  0.19689000  1.0
  C  C56  1  0.93757000  0.32927000  0.76906000  1.0
  C  C57  1  0.67073000  0.06243000  0.23094000  1.0
  C  C58  1  0.81762000  0.26549000  0.81095000  1.0
  C  C59  1  0.73451000  0.18238000  0.18905000  1.0
  C  C60  1  0.73505000  0.10711000  0.77503000  1.0
  C  C61  1  0.89290000  0.26495000  0.22497000  1.0
  C  C62  1  0.88320000  0.07234000  0.66203000  1.0
  C  C63  1  0.92766000  0.11680000  0.33797000  1.0
  C  C64  1  0.96978000  0.22948000  0.69277000  1.0
  C  C65  1  0.77052000  0.03022000  0.30723000  1.0
  C  C66  1  0.27303000  0.42968000  0.57434000  1.0
  C  C67  1  0.57032000  0.72697000  0.42566000  1.0
  C  C68  1  0.35978000  0.43140000  0.68536000  1.0
  C  C69  1  0.56859000  0.64022000  0.31464000  1.0
  C  C70  1  0.40318000  0.71062000  0.77154000  1.0
  C  C71  1  0.28938000  0.59683000  0.22846000  1.0
  C  C72  1  0.41184000  0.56007000  0.77858000  1.0
  C  C73  1  0.43992000  0.58816000  0.22142000  1.0
  C  C74  1  0.47662000  0.55092000  0.88199000  1.0
  C  C75  1  0.44908000  0.52338000  0.11801000  1.0
  C  C76  1  0.49836000  0.41874000  0.89345000  1.0
  C  C77  1  0.58126000  0.50164000  0.10655000  1.0
  C  C78  1  0.44822000  0.29139000  0.79959000  1.0
  C  C79  1  0.70860000  0.55178000  0.20041000  1.0
  C  C80  1  0.37812000  0.29748000  0.69739000  1.0
  C  C81  1  0.70252000  0.62188000  0.30261000  1.0
  C  C82  1  0.58590000  0.41410000  0.00000000  1.0
  N  N83  1  0.78738000  0.70583000  0.75051000  1.0
  N  N84  1  0.29417000  0.21263000  0.24950000  1.0
  N  N85  1  0.93909000  0.59113000  0.80769000  1.0
  N  N86  1  0.40887000  0.06092000  0.19231000  1.0
  N  N87  1  0.76740000  0.01152000  0.70222000  1.0
  N  N88  1  0.98848000  0.23260000  0.29778000  1.0
  O  O89  1  0.47326000  0.77910000  0.71036000  1.0
  O  O90  1  0.22090000  0.52674000  0.28964000  1.0
  O  O91  1  0.33266000  0.76368000  0.82690000  1.0
  O  O92  1  0.23632000  0.66734000  0.17310000  1.0
  O  O93  1  0.16242000  0.46844000  0.56608000  1.0
  O  O94  1  0.53156000  0.83758000  0.43392000  1.0
  O  O95  1  0.32042000  0.37795000  0.49433000  1.0
  O  O96  1  0.62205000  0.67958000  0.50567000  1.0
  O  O97  1  0.66418000  0.33582000  0.00000000  1.0
