# generated using pymatgen
data_HgH16C22I2N6(ClO)2
_symmetry_space_group_name_H-M   'P 1'
_cell_length_a   4.02195000
_cell_length_b   15.04290000
_cell_length_c   22.03789141
_cell_angle_alpha   104.96591241
_cell_angle_beta   95.03513698
_cell_angle_gamma   90.05200000
_symmetry_Int_Tables_number   1
_chemical_formula_structural   HgH16C22I2N6(ClO)2
_chemical_formula_sum   'Hg2 H32 C44 I4 N12 Cl4 O4'
_cell_volume   1282.74909438
_cell_formula_units_Z   2
loop_
 _symmetry_equiv_pos_site_id
 _symmetry_equiv_pos_as_xyz
  1  'x, y, z'
loop_
 _atom_site_type_symbol
 _atom_site_label
 _atom_site_symmetry_multiplicity
 _atom_site_fract_x
 _atom_site_fract_y
 _atom_site_fract_z
 _atom_site_occupancy
  Hg  Hg0  1  0.00001000  0.00000000  0.00000000  1.0
  Hg  Hg1  1  0.00000000  0.50000000  0.00000000  1.0
  H  H2  1  0.94479000  0.62960000  0.86292000  1.0
  H  H3  1  0.08449000  0.87050000  0.13757000  1.0
  H  H4  1  0.05520000  0.37040000  0.13708000  1.0
  H  H5  1  0.91549000  0.12950000  0.86244000  1.0
  H  H6  1  0.82807000  0.77105000  0.94889000  1.0
  H  H7  1  0.88227000  0.72909000  0.05181000  1.0
  H  H8  1  0.17192000  0.22895000  0.05111000  1.0
  H  H9  1  0.11772000  0.27091000  0.94820000  1.0
  H  H10  1  0.23359000  0.93806000  0.84879000  1.0
  H  H11  1  0.38606000  0.56202000  0.15147000  1.0
  H  H12  1  0.76642000  0.06194000  0.15121000  1.0
  H  H13  1  0.61394000  0.43797000  0.84853000  1.0
  H  H14  1  0.76264000  0.50406000  0.53602000  1.0
  H  H15  1  0.22585000  0.99580000  0.46384000  1.0
  H  H16  1  0.23736000  0.49594000  0.46398000  1.0
  H  H17  1  0.77413000  0.00420000  0.53616000  1.0
  H  H18  1  0.95840000  0.62476000  0.48781000  1.0
  H  H19  1  0.46752000  0.87503000  0.51192000  1.0
  H  H20  1  0.04158000  0.37525000  0.51219000  1.0
  H  H21  1  0.53246000  0.12497000  0.48808000  1.0
  H  H22  1  0.94151000  0.79020000  0.54669000  1.0
  H  H23  1  0.39184000  0.70965000  0.45311000  1.0
  H  H24  1  0.05849000  0.20981000  0.45331000  1.0
  H  H25  1  0.60816000  0.29035000  0.54689000  1.0
  H  H26  1  0.69996000  0.83405000  0.64980000  1.0
  H  H27  1  0.04870000  0.66583000  0.35019000  1.0
  H  H28  1  0.30006000  0.16596000  0.35021000  1.0
  H  H29  1  0.95131000  0.33417000  0.64981000  1.0
  H  H30  1  0.36036000  0.66218000  0.72321000  1.0
  H  H31  1  0.63764000  0.83787000  0.27708000  1.0
  H  H32  1  0.63967000  0.33782000  0.27679000  1.0
  H  H33  1  0.36235000  0.16213000  0.72292000  1.0
  C  C34  1  0.00996000  0.69841000  0.85949000  1.0
  C  C35  1  0.15302000  0.80169000  0.14095000  1.0
  C  C36  1  0.99004000  0.30159000  0.14051000  1.0
  C  C37  1  0.84695000  0.19831000  0.85905000  1.0
  C  C38  1  0.94529000  0.77638000  0.90713000  1.0
  C  C39  1  0.04086000  0.72372000  0.09341000  1.0
  C  C40  1  0.05471000  0.22362000  0.09287000  1.0
  C  C41  1  0.95912000  0.27628000  0.90659000  1.0
  C  C42  1  0.16668000  0.86924000  0.85191000  1.0
  C  C43  1  0.31659000  0.63086000  0.14838000  1.0
  C  C44  1  0.83333000  0.13076000  0.14809000  1.0
  C  C45  1  0.68341000  0.36914000  0.85162000  1.0
  C  C46  1  0.23221000  0.79082000  0.80475000  1.0
  C  C47  1  0.42919000  0.70927000  0.19546000  1.0
  C  C48  1  0.76780000  0.20918000  0.19525000  1.0
  C  C49  1  0.57081000  0.29072000  0.80454000  1.0
  C  C50  1  0.40084000  0.79992000  0.74828000  1.0
  C  C51  1  0.65343000  0.70016000  0.25179000  1.0
  C  C52  1  0.59918000  0.20008000  0.25172000  1.0
  C  C53  1  0.34659000  0.29984000  0.74821000  1.0
  C  C54  1  0.59195000  0.69451000  0.65113000  1.0
  C  C55  1  0.94048000  0.80539000  0.34886000  1.0
  C  C56  1  0.40807000  0.30549000  0.34887000  1.0
  C  C57  1  0.05952000  0.19461000  0.65114000  1.0
  C  C58  1  0.61737000  0.60076000  0.61896000  1.0
  C  C59  1  0.99840000  0.89914000  0.38100000  1.0
  C  C60  1  0.38263000  0.39924000  0.38103000  1.0
  C  C61  1  0.00160000  0.10086000  0.61900000  1.0
  C  C62  1  0.74788000  0.57648000  0.56054000  1.0
  C  C63  1  0.18648000  0.92340000  0.43930000  1.0
  C  C64  1  0.25212000  0.42353000  0.43946000  1.0
  C  C65  1  0.81351000  0.07660000  0.56070000  1.0
  C  C66  1  0.85927000  0.64441000  0.53376000  1.0
  C  C67  1  0.32353000  0.85544000  0.46602000  1.0
  C  C68  1  0.14072000  0.35560000  0.46624000  1.0
  C  C69  1  0.67646000  0.14456000  0.53398000  1.0
  C  C70  1  0.84581000  0.73692000  0.56636000  1.0
  C  C71  1  0.27734000  0.76294000  0.43345000  1.0
  C  C72  1  0.15419000  0.26309000  0.43364000  1.0
  C  C73  1  0.72266000  0.23706000  0.56655000  1.0
  C  C74  1  0.71195000  0.76213000  0.62430000  1.0
  C  C75  1  0.08639000  0.73776000  0.37562000  1.0
  C  C76  1  0.28806000  0.23787000  0.37570000  1.0
  C  C77  1  0.91362000  0.26224000  0.62438000  1.0
  I  I78  1  0.46482000  0.49694000  0.65964000  1.0
  I  I79  1  0.80573000  0.00295000  0.34046000  1.0
  I  I80  1  0.53518000  0.50307000  0.34035000  1.0
  I  I81  1  0.19426000  0.99704000  0.65954000  1.0
  N  N82  1  0.15367000  0.70579000  0.80861000  1.0
  N  N83  1  0.34704000  0.79431000  0.19168000  1.0
  N  N84  1  0.84635000  0.29421000  0.19140000  1.0
  N  N85  1  0.65294000  0.20568000  0.80832000  1.0
  N  N86  1  0.02398000  0.86104000  0.90293000  1.0
  N  N87  1  0.12331000  0.63904000  0.09752000  1.0
  N  N88  1  0.97602000  0.13896000  0.09707000  1.0
  N  N89  1  0.87667000  0.36096000  0.90248000  1.0
  N  N90  1  0.44857000  0.71650000  0.70829000  1.0
  N  N91  1  0.74046000  0.78349000  0.29185000  1.0
  N  N92  1  0.55145000  0.28350000  0.29171000  1.0
  N  N93  1  0.25954000  0.21650000  0.70815000  1.0
  Cl  Cl94  1  0.60818000  0.91266000  0.04529000  1.0
  Cl  Cl95  1  0.56503000  0.58754000  0.95515000  1.0
  Cl  Cl96  1  0.39183000  0.08734000  0.95471000  1.0
  Cl  Cl97  1  0.43496000  0.41246000  0.04484000  1.0
  O  O98  1  0.48560000  0.87641000  0.74242000  1.0
  O  O99  1  0.74408000  0.62364000  0.25750000  1.0
  O  O100  1  0.51440000  0.12359000  0.25758000  1.0
  O  O101  1  0.25596000  0.37635000  0.74249000  1.0
