# generated using pymatgen
data_KH5C5N2O5
_symmetry_space_group_name_H-M   'P 1'
_cell_length_a   6.46703000
_cell_length_b   12.51960000
_cell_length_c   18.42630000
_cell_angle_alpha   90.00000000
_cell_angle_beta   90.00000000
_cell_angle_gamma   89.99990000
_symmetry_Int_Tables_number   1
_chemical_formula_structural   KH5C5N2O5
_chemical_formula_sum   'K8 H40 C40 N16 O40'
_cell_volume   1491.87853943
_cell_formula_units_Z   8
loop_
 _symmetry_equiv_pos_site_id
 _symmetry_equiv_pos_as_xyz
  1  'x, y, z'
loop_
 _atom_site_type_symbol
 _atom_site_label
 _atom_site_symmetry_multiplicity
 _atom_site_fract_x
 _atom_site_fract_y
 _atom_site_fract_z
 _atom_site_occupancy
  K  K0  1  0.85794000  0.85740000  0.55191000  1.0
  K  K1  1  0.64206000  0.35739000  0.44809000  1.0
  K  K2  1  0.35794000  0.14261000  0.94809000  1.0
  K  K3  1  0.14206000  0.64261000  0.05191000  1.0
  K  K4  1  0.14206000  0.14260000  0.44809000  1.0
  K  K5  1  0.35794000  0.64260000  0.55191000  1.0
  K  K6  1  0.64206000  0.85739000  0.05191000  1.0
  K  K7  1  0.85795000  0.35740000  0.94809000  1.0
  H  H8  1  0.57114000  0.62084000  0.41322000  1.0
  H  H9  1  0.92886000  0.12084000  0.58678000  1.0
  H  H10  1  0.07114000  0.37916000  0.08678000  1.0
  H  H11  1  0.42886000  0.87916000  0.91322000  1.0
  H  H12  1  0.42886000  0.37916000  0.58678000  1.0
  H  H13  1  0.07114000  0.87916000  0.41322000  1.0
  H  H14  1  0.92886000  0.62084000  0.91322000  1.0
  H  H15  1  0.57114000  0.12084000  0.08678000  1.0
  H  H16  1  0.51442000  0.85027000  0.24584000  1.0
  H  H17  1  0.98558000  0.35028000  0.75416000  1.0
  H  H18  1  0.01442000  0.14973000  0.25416000  1.0
  H  H19  1  0.48559000  0.64973000  0.74584000  1.0
  H  H20  1  0.48559000  0.14973000  0.75416000  1.0
  H  H21  1  0.01442000  0.64973000  0.24584000  1.0
  H  H22  1  0.98559000  0.85027000  0.74584000  1.0
  H  H23  1  0.51442000  0.35027000  0.25416000  1.0
  H  H24  1  0.51572000  0.53181000  0.19298000  1.0
  H  H25  1  0.98428000  0.03181000  0.80702000  1.0
  H  H26  1  0.01572000  0.46819000  0.30702000  1.0
  H  H27  1  0.48428000  0.96819000  0.69298000  1.0
  H  H28  1  0.48428000  0.46819000  0.80702000  1.0
  H  H29  1  0.01572000  0.96819000  0.19298000  1.0
  H  H30  1  0.98428000  0.53181000  0.69298000  1.0
  H  H31  1  0.51572000  0.03181000  0.30702000  1.0
  H  H32  1  0.31713000  0.98594000  0.56384000  1.0
  H  H33  1  0.18287000  0.48594000  0.43616000  1.0
  H  H34  1  0.81713000  0.01406000  0.93616000  1.0
  H  H35  1  0.68287000  0.51406000  0.06384000  1.0
  H  H36  1  0.68287000  0.01406000  0.43616000  1.0
  H  H37  1  0.81713000  0.51406000  0.56384000  1.0
  H  H38  1  0.18287000  0.98594000  0.06384000  1.0
  H  H39  1  0.31713000  0.48594000  0.93616000  1.0
  H  H40  1  0.35434000  0.90369000  0.50132000  1.0
  H  H41  1  0.14566000  0.40369000  0.49868000  1.0
  H  H42  1  0.85434000  0.09631000  0.99868000  1.0
  H  H43  1  0.64566000  0.59631000  0.00132000  1.0
  H  H44  1  0.64566000  0.09631000  0.49868000  1.0
  H  H45  1  0.85434000  0.59631000  0.50132000  1.0
  H  H46  1  0.14566000  0.90369000  0.00132000  1.0
  H  H47  1  0.35434000  0.40369000  0.99868000  1.0
  C  C48  1  0.53837000  0.83558000  0.39062000  1.0
  C  C49  1  0.96163000  0.33558000  0.60938000  1.0
  C  C50  1  0.03837000  0.16442000  0.10939000  1.0
  C  C51  1  0.46163000  0.66442000  0.89062000  1.0
  C  C52  1  0.46163000  0.16442000  0.60938000  1.0
  C  C53  1  0.03837000  0.66442000  0.39062000  1.0
  C  C54  1  0.96163000  0.83558000  0.89062000  1.0
  C  C55  1  0.53837000  0.33558000  0.10938000  1.0
  C  C56  1  0.54371000  0.55737000  0.30329000  1.0
  C  C57  1  0.95628000  0.05737000  0.69671000  1.0
  C  C58  1  0.04372000  0.44263000  0.19671000  1.0
  C  C59  1  0.45629000  0.94263000  0.80329000  1.0
  C  C60  1  0.45629000  0.44263000  0.69671000  1.0
  C  C61  1  0.04371000  0.94263000  0.30329000  1.0
  C  C62  1  0.95629000  0.55737000  0.80329000  1.0
  C  C63  1  0.54371000  0.05737000  0.19671000  1.0
  C  C64  1  0.55066000  0.64119000  0.35649000  1.0
  C  C65  1  0.94933000  0.14119000  0.64351000  1.0
  C  C66  1  0.05067000  0.35881000  0.14351000  1.0
  C  C67  1  0.44934000  0.85881000  0.85649000  1.0
  C  C68  1  0.44933000  0.35881000  0.64351000  1.0
  C  C69  1  0.05066000  0.85881000  0.35649000  1.0
  C  C70  1  0.94933000  0.64119000  0.85649000  1.0
  C  C71  1  0.55067000  0.14119000  0.14351000  1.0
  C  C72  1  0.53378000  0.74519000  0.33528000  1.0
  C  C73  1  0.96622000  0.24519000  0.66472000  1.0
  C  C74  1  0.03378000  0.25480000  0.16473000  1.0
  C  C75  1  0.46622000  0.75481000  0.83528000  1.0
  C  C76  1  0.46622000  0.25481000  0.66472000  1.0
  C  C77  1  0.03378000  0.75481000  0.33528000  1.0
  C  C78  1  0.96622000  0.74520000  0.83528000  1.0
  C  C79  1  0.53378000  0.24519000  0.16472000  1.0
  C  C80  1  0.49376000  0.69480000  0.20942000  1.0
  C  C81  1  0.00625000  0.19480000  0.79058000  1.0
  C  C82  1  0.99376000  0.30520000  0.29059000  1.0
  C  C83  1  0.50625000  0.80520000  0.70942000  1.0
  C  C84  1  0.50625000  0.30520000  0.79058000  1.0
  C  C85  1  0.99376000  0.80520000  0.20942000  1.0
  C  C86  1  0.00625000  0.69480000  0.70942000  1.0
  C  C87  1  0.49376000  0.19480000  0.29058000  1.0
  N  N88  1  0.51103000  0.77121000  0.26347000  1.0
  N  N89  1  0.98897000  0.27121000  0.73653000  1.0
  N  N90  1  0.01103000  0.22879000  0.23653000  1.0
  N  N91  1  0.48897000  0.72879000  0.76347000  1.0
  N  N92  1  0.48897000  0.22879000  0.73653000  1.0
  N  N93  1  0.01103000  0.72879000  0.26347000  1.0
  N  N94  1  0.98897000  0.77121000  0.76347000  1.0
  N  N95  1  0.51103000  0.27121000  0.23653000  1.0
  N  N96  1  0.51705000  0.59096000  0.23244000  1.0
  N  N97  1  0.98295000  0.09096000  0.76756000  1.0
  N  N98  1  0.01705000  0.40904000  0.26756000  1.0
  N  N99  1  0.48295000  0.90904000  0.73244000  1.0
  N  N100  1  0.48295000  0.40904000  0.76756000  1.0
  N  N101  1  0.01705000  0.90904000  0.23244000  1.0
  N  N102  1  0.98295000  0.59096000  0.73244000  1.0
  N  N103  1  0.51705000  0.09096000  0.26756000  1.0
  O  O104  1  0.51981000  0.80889000  0.45650000  1.0
  O  O105  1  0.98019000  0.30889000  0.54350000  1.0
  O  O106  1  0.01981000  0.19111000  0.04350000  1.0
  O  O107  1  0.48019000  0.69111000  0.95650000  1.0
  O  O108  1  0.48019000  0.19111000  0.54350000  1.0
  O  O109  1  0.01981000  0.69111000  0.45650000  1.0
  O  O110  1  0.98019000  0.80889000  0.95650000  1.0
  O  O111  1  0.51981000  0.30889000  0.04350000  1.0
  O  O112  1  0.45899000  0.71744000  0.14512000  1.0
  O  O113  1  0.04103000  0.21744000  0.85488000  1.0
  O  O114  1  0.95899000  0.28256000  0.35488000  1.0
  O  O115  1  0.54102000  0.78256000  0.64512000  1.0
  O  O116  1  0.54103000  0.28256000  0.85488000  1.0
  O  O117  1  0.95899000  0.78256000  0.14512000  1.0
  O  O118  1  0.04102000  0.71744000  0.64512000  1.0
  O  O119  1  0.45898000  0.21744000  0.35488000  1.0
  O  O120  1  0.56215000  0.92964000  0.36646000  1.0
  O  O121  1  0.93785000  0.42965000  0.63354000  1.0
  O  O122  1  0.06215000  0.07035000  0.13354000  1.0
  O  O123  1  0.43785000  0.57035000  0.86646000  1.0
  O  O124  1  0.43785000  0.07035000  0.63354000  1.0
  O  O125  1  0.06215000  0.57035000  0.36646000  1.0
  O  O126  1  0.93785000  0.92965000  0.86646000  1.0
  O  O127  1  0.56215000  0.42965000  0.13354000  1.0
  O  O128  1  0.55876000  0.45964000  0.31697000  1.0
  O  O129  1  0.94124000  0.95964000  0.68303000  1.0
  O  O130  1  0.05876000  0.54036000  0.18303000  1.0
  O  O131  1  0.44124000  0.04036000  0.81697000  1.0
  O  O132  1  0.44124000  0.54036000  0.68303000  1.0
  O  O133  1  0.05876000  0.04036000  0.31697000  1.0
  O  O134  1  0.94124000  0.45964000  0.81697000  1.0
  O  O135  1  0.55876000  0.95964000  0.18303000  1.0
  O  O136  1  0.24632000  0.94967000  0.52310000  1.0
  O  O137  1  0.25368000  0.44967000  0.47690000  1.0
  O  O138  1  0.74632000  0.05033000  0.97690000  1.0
  O  O139  1  0.75368000  0.55033000  0.02310000  1.0
  O  O140  1  0.75368000  0.05033000  0.47690000  1.0
  O  O141  1  0.74632000  0.55033000  0.52310000  1.0
  O  O142  1  0.25368000  0.94967000  0.02309000  1.0
  O  O143  1  0.24632000  0.44967000  0.97690000  1.0
