# generated using pymatgen
data_CuH26C40(NO2)4
_symmetry_space_group_name_H-M   'P 1'
_cell_length_a   8.83549000
_cell_length_b   14.39580000
_cell_length_c   16.28260000
_cell_angle_alpha   96.91770000
_cell_angle_beta   93.47420000
_cell_angle_gamma   99.62210000
_symmetry_Int_Tables_number   1
_chemical_formula_structural   CuH26C40(NO2)4
_chemical_formula_sum   'Cu2 H52 C80 N8 O16'
_cell_volume   2020.13984892
_cell_formula_units_Z   2
loop_
 _symmetry_equiv_pos_site_id
 _symmetry_equiv_pos_as_xyz
  1  'x, y, z'
loop_
 _atom_site_type_symbol
 _atom_site_label
 _atom_site_symmetry_multiplicity
 _atom_site_fract_x
 _atom_site_fract_y
 _atom_site_fract_z
 _atom_site_occupancy
  Cu  Cu0  1  0.85938000  0.42261000  0.03969000  1.0
  Cu  Cu1  1  0.14062000  0.57746000  0.96025000  1.0
  H  H2  1  0.82499000  0.05418000  0.73223000  1.0
  H  H3  1  0.17500000  0.94581000  0.26776000  1.0
  H  H4  1  0.63940000  0.03148000  0.77222000  1.0
  H  H5  1  0.36058000  0.96852000  0.22779000  1.0
  H  H6  1  0.38147000  0.47117000  0.05625000  1.0
  H  H7  1  0.61863000  0.52882000  0.94376000  1.0
  H  H8  1  0.91490000  0.65550000  0.63560000  1.0
  H  H9  1  0.08509000  0.34451000  0.36440000  1.0
  H  H10  1  0.35225000  0.27226000  0.11304000  1.0
  H  H11  1  0.64770000  0.72773000  0.88698000  1.0
  H  H12  1  0.90535000  0.75762000  0.37490000  1.0
  H  H13  1  0.09465000  0.24238000  0.62511000  1.0
  H  H14  1  0.72722000  0.77076000  0.32309000  1.0
  H  H15  1  0.27280000  0.22924000  0.67692000  1.0
  H  H16  1  0.00492000  0.46686000  0.21416000  1.0
  H  H17  1  0.99513000  0.53314000  0.78585000  1.0
  H  H18  1  0.98049000  0.58296000  0.33979000  1.0
  H  H19  1  0.01951000  0.41703000  0.66021000  1.0
  H  H20  1  0.73646000  0.40063000  0.86797000  1.0
  H  H21  1  0.26358000  0.59937000  0.13202000  1.0
  H  H22  1  0.18606000  0.05817000  0.61491000  1.0
  H  H23  1  0.81393000  0.94182000  0.38509000  1.0
  H  H24  1  0.65650000  0.69668000  0.18904000  1.0
  H  H25  1  0.34354000  0.30333000  0.81094000  1.0
  H  H26  1  0.24359000  0.61425000  0.40434000  1.0
  H  H27  1  0.75642000  0.38575000  0.59565000  1.0
  H  H28  1  0.21734000  0.12362000  0.36405000  1.0
  H  H29  1  0.78267000  0.87637000  0.63596000  1.0
  H  H30  1  0.77307000  0.62072000  0.75943000  1.0
  H  H31  1  0.22693000  0.37929000  0.24056000  1.0
  H  H32  1  0.69569000  0.57855000  0.07049000  1.0
  H  H33  1  0.30438000  0.42147000  0.92951000  1.0
  H  H34  1  0.09807000  0.56956000  0.52453000  1.0
  H  H35  1  0.90195000  0.43044000  0.47546000  1.0
  H  H36  1  0.88397000  0.18312000  0.47574000  1.0
  H  H37  1  0.11603000  0.81688000  0.52426000  1.0
  H  H38  1  0.66597000  0.27182000  0.74955000  1.0
  H  H39  1  0.33401000  0.72816000  0.25044000  1.0
  H  H40  1  0.24018000  0.55904000  0.65918000  1.0
  H  H41  1  0.75981000  0.44096000  0.34081000  1.0
  H  H42  1  0.48660000  0.57864000  0.74536000  1.0
  H  H43  1  0.51341000  0.42138000  0.25465000  1.0
  H  H44  1  0.94729000  0.23056000  0.00914000  1.0
  H  H45  1  0.05271000  0.76943000  0.99086000  1.0
  H  H46  1  0.75967000  0.19899000  0.33692000  1.0
  H  H47  1  0.24032000  0.80101000  0.66309000  1.0
  H  H48  1  0.05885000  0.07422000  0.47772000  1.0
  H  H49  1  0.94114000  0.92577000  0.52227000  1.0
  H  H50  1  0.88577000  0.09228000  0.89590000  1.0
  H  H51  1  0.11419000  0.90772000  0.10411000  1.0
  H  H52  1  0.47600000  0.16861000  0.31201000  1.0
  H  H53  1  0.52400000  0.83139000  0.68800000  1.0
  C  C54  1  0.54784000  0.65815000  0.39975000  1.0
  C  C55  1  0.45217000  0.34185000  0.60024000  1.0
  C  C56  1  0.72241000  0.08447000  0.74732000  1.0
  C  C57  1  0.27758000  0.91553000  0.25268000  1.0
  C  C58  1  0.15722000  0.39197000  0.08461000  1.0
  C  C59  1  0.84275000  0.60804000  0.91539000  1.0
  C  C60  1  0.54736000  0.61987000  0.54558000  1.0
  C  C61  1  0.45264000  0.38014000  0.45441000  1.0
  C  C62  1  0.32638000  0.40555000  0.07754000  1.0
  C  C63  1  0.67362000  0.59446000  0.92247000  1.0
  C  C64  1  0.81495000  0.64863000  0.27423000  1.0
  C  C65  1  0.18508000  0.35138000  0.72577000  1.0
  C  C66  1  0.78939000  0.63815000  0.63020000  1.0
  C  C67  1  0.21061000  0.36185000  0.36980000  1.0
  C  C68  1  0.50736000  0.12271000  0.51431000  1.0
  C  C69  1  0.49264000  0.87729000  0.48570000  1.0
  C  C70  1  0.40802000  0.33748000  0.09142000  1.0
  C  C71  1  0.59198000  0.66251000  0.90858000  1.0
  C  C72  1  0.71030000  0.63991000  0.55410000  1.0
  C  C73  1  0.28968000  0.36008000  0.44590000  1.0
  C  C74  1  0.79319000  0.71988000  0.34597000  1.0
  C  C75  1  0.20682000  0.28011000  0.65403000  1.0
  C  C76  1  0.67029000  0.13980000  0.52706000  1.0
  C  C77  1  0.32970000  0.86020000  0.47295000  1.0
  C  C78  1  0.46446000  0.62619000  0.46974000  1.0
  C  C79  1  0.53553000  0.37380000  0.53025000  1.0
  C  C80  1  0.48693000  0.08988000  0.66138000  1.0
  C  C81  1  0.51306000  0.91011000  0.33862000  1.0
  C  C82  1  0.79614000  0.66513000  0.48316000  1.0
  C  C83  1  0.20386000  0.33487000  0.51683000  1.0
  C  C84  1  0.93060000  0.52000000  0.21186000  1.0
  C  C85  1  0.06940000  0.47999000  0.78813000  1.0
  C  C86  1  0.91530000  0.58370000  0.28092000  1.0
  C  C87  1  0.08468000  0.41628000  0.71907000  1.0
  C  C88  1  0.76794000  0.33112000  0.87126000  1.0
  C  C89  1  0.23205000  0.66887000  0.12875000  1.0
  C  C90  1  0.25517000  0.07837000  0.56460000  1.0
  C  C91  1  0.74482000  0.92163000  0.43541000  1.0
  C  C92  1  0.73590000  0.64752000  0.19717000  1.0
  C  C93  1  0.26413000  0.35248000  0.80283000  1.0
  C  C94  1  0.30462000  0.60711000  0.46281000  1.0
  C  C95  1  0.69538000  0.39290000  0.53718000  1.0
  C  C96  1  0.27229000  0.11515000  0.42391000  1.0
  C  C97  1  0.72772000  0.88486000  0.57610000  1.0
  C  C98  1  0.46534000  0.59529000  0.61509000  1.0
  C  C99  1  0.53466000  0.40471000  0.38490000  1.0
  C  C100  1  0.57768000  0.34937000  0.08567000  1.0
  C  C101  1  0.42235000  0.65064000  0.91434000  1.0
  C  C102  1  0.70900000  0.61656000  0.69935000  1.0
  C  C103  1  0.29099000  0.38345000  0.30065000  1.0
  C  C104  1  0.43548000  0.13270000  0.43546000  1.0
  C  C105  1  0.56452000  0.86731000  0.56455000  1.0
  C  C106  1  0.76850000  0.16976000  0.81303000  1.0
  C  C107  1  0.23148000  0.83021000  0.18696000  1.0
  C  C108  1  0.75740000  0.58218000  0.13094000  1.0
  C  C109  1  0.24265000  0.41783000  0.86906000  1.0
  C  C110  1  0.22343000  0.58140000  0.53076000  1.0
  C  C111  1  0.77657000  0.41860000  0.46924000  1.0
  C  C112  1  0.74589000  0.12691000  0.60702000  1.0
  C  C113  1  0.25409000  0.87308000  0.39299000  1.0
  C  C114  1  0.75915000  0.16713000  0.46367000  1.0
  C  C115  1  0.24084000  0.83288000  0.53634000  1.0
  C  C116  1  0.72894000  0.25837000  0.80525000  1.0
  C  C117  1  0.27106000  0.74162000  0.19476000  1.0
  C  C118  1  0.41463000  0.09645000  0.57866000  1.0
  C  C119  1  0.58536000  0.90354000  0.42134000  1.0
  C  C120  1  0.30211000  0.57620000  0.60554000  1.0
  C  C121  1  0.69789000  0.42380000  0.39446000  1.0
  C  C122  1  0.54965000  0.59447000  0.69173000  1.0
  C  C123  1  0.45033000  0.40553000  0.30827000  1.0
  C  C124  1  0.88587000  0.23570000  0.95012000  1.0
  C  C125  1  0.11409000  0.76431000  0.04989000  1.0
  C  C126  1  0.68880000  0.17711000  0.38610000  1.0
  C  C127  1  0.31119000  0.82290000  0.61391000  1.0
  C  C128  1  0.18409000  0.08780000  0.48707000  1.0
  C  C129  1  0.81591000  0.91220000  0.51293000  1.0
  C  C130  1  0.85062000  0.15968000  0.88681000  1.0
  C  C131  1  0.14933000  0.84032000  0.11321000  1.0
  C  C132  1  0.53012000  0.16015000  0.37208000  1.0
  C  C133  1  0.46988000  0.83986000  0.62793000  1.0
  N  N134  1  0.70916000  0.67832000  0.41185000  1.0
  N  N135  1  0.29084000  0.32167000  0.58815000  1.0
  N  N136  1  0.84384000  0.32021000  0.94261000  1.0
  N  N137  1  0.15614000  0.67977000  0.05738000  1.0
  N  N138  1  0.85239000  0.51922000  0.13823000  1.0
  N  N139  1  0.14764000  0.48079000  0.86178000  1.0
  N  N140  1  0.64922000  0.10264000  0.66938000  1.0
  N  N141  1  0.35077000  0.89734000  0.33062000  1.0
  O  O142  1  0.08875000  0.45077000  0.04707000  1.0
  O  O143  1  0.91129000  0.54925000  0.95290000  1.0
  O  O144  1  0.63080000  0.40001000  0.02907000  1.0
  O  O145  1  0.36915000  0.60001000  0.97092000  1.0
  O  O146  1  0.08851000  0.32853000  0.12187000  1.0
  O  O147  1  0.91153000  0.67146000  0.87814000  1.0
  O  O148  1  0.48295000  0.66928000  0.33306000  1.0
  O  O149  1  0.51707000  0.33071000  0.66692000  1.0
  O  O150  1  0.93831000  0.67634000  0.48460000  1.0
  O  O151  1  0.06168000  0.32366000  0.51540000  1.0
  O  O152  1  0.65689000  0.31379000  0.13539000  1.0
  O  O153  1  0.34308000  0.68619000  0.86463000  1.0
  O  O154  1  0.41310000  0.07365000  0.72153000  1.0
  O  O155  1  0.58687000  0.92634000  0.27847000  1.0
  O  O156  1  0.88709000  0.13526000  0.62078000  1.0
  O  O157  1  0.11290000  0.86475000  0.37924000  1.0
