# generated using pymatgen
data_GdH14C24N4O5F2
_symmetry_space_group_name_H-M   'P 1'
_cell_length_a   7.66090000
_cell_length_b   11.13040000
_cell_length_c   13.90820000
_cell_angle_alpha   70.20830000
_cell_angle_beta   76.31570000
_cell_angle_gamma   88.02170000
_symmetry_Int_Tables_number   1
_chemical_formula_structural   GdH14C24N4O5F2
_chemical_formula_sum   'Gd2 H28 C48 N8 O10 F4'
_cell_volume   1082.85919816
_cell_formula_units_Z   2
loop_
 _symmetry_equiv_pos_site_id
 _symmetry_equiv_pos_as_xyz
  1  'x, y, z'
loop_
 _atom_site_type_symbol
 _atom_site_label
 _atom_site_symmetry_multiplicity
 _atom_site_fract_x
 _atom_site_fract_y
 _atom_site_fract_z
 _atom_site_occupancy
  Gd  Gd0  1  0.31294000  0.40182000  0.50101000  1.0
  Gd  Gd1  1  0.68702000  0.59817000  0.49900000  1.0
  H  H2  1  0.44029000  0.60483000  0.83174000  1.0
  H  H3  1  0.55969000  0.39518000  0.16824000  1.0
  H  H4  1  0.33007000  0.55400000  0.02703000  1.0
  H  H5  1  0.66993000  0.44601000  0.97296000  1.0
  H  H6  1  0.08274000  0.29748000  0.85901000  1.0
  H  H7  1  0.91727000  0.70252000  0.14099000  1.0
  H  H8  1  0.38524000  0.61998000  0.18668000  1.0
  H  H9  1  0.61477000  0.38002000  0.81332000  1.0
  H  H10  1  0.09608000  0.02917000  0.07298000  1.0
  H  H11  1  0.90392000  0.97083000  0.92703000  1.0
  H  H12  1  0.97594000  0.87358000  0.25600000  1.0
  H  H13  1  0.02407000  0.12642000  0.74401000  1.0
  H  H14  1  0.20754000  0.35984000  0.28862000  1.0
  H  H15  1  0.79248000  0.64016000  0.71138000  1.0
  H  H16  1  0.14312000  0.19640000  0.21372000  1.0
  H  H17  1  0.85687000  0.80361000  0.78628000  1.0
  H  H18  1  0.15504000  0.96264000  0.31895000  1.0
  H  H19  1  0.84495000  0.03736000  0.68106000  1.0
  H  H20  1  0.20823000  0.79581000  0.48182000  1.0
  H  H21  1  0.79176000  0.20418000  0.51818000  1.0
  H  H22  1  0.28065000  0.74300000  0.65392000  1.0
  H  H23  1  0.71934000  0.25699000  0.34608000  1.0
  H  H24  1  0.35245000  0.81444000  0.79379000  1.0
  H  H25  1  0.64754000  0.18555000  0.20622000  1.0
  H  H26  1  0.42661000  0.99501000  0.84904000  1.0
  H  H27  1  0.57339000  0.00498000  0.15096000  1.0
  H  H28  1  0.42261000  0.21969000  0.72685000  1.0
  H  H29  1  0.57741000  0.78030000  0.27314000  1.0
  C  C30  1  0.33379000  0.47910000  0.71348000  1.0
  C  C31  1  0.66622000  0.52089000  0.28650000  1.0
  C  C32  1  0.26847000  0.45556000  0.83028000  1.0
  C  C33  1  0.73152000  0.54445000  0.16972000  1.0
  C  C34  1  0.33872000  0.52833000  0.87857000  1.0
  C  C35  1  0.66127000  0.47167000  0.12142000  1.0
  C  C36  1  0.27887000  0.49915000  0.98685000  1.0
  C  C37  1  0.72114000  0.50085000  0.01314000  1.0
  C  C38  1  0.09477000  0.33724000  0.99999000  1.0
  C  C39  1  0.90524000  0.66276000  0.00002000  1.0
  C  C40  1  0.14099000  0.35658000  0.89282000  1.0
  C  C41  1  0.85900000  0.64342000  0.10718000  1.0
  C  C42  1  0.11041000  0.63991000  0.34531000  1.0
  C  C43  1  0.88958000  0.36010000  0.65469000  1.0
  C  C44  1  0.17494000  0.73652000  0.23562000  1.0
  C  C45  1  0.82508000  0.26348000  0.76438000  1.0
  C  C46  1  0.31940000  0.70998000  0.16444000  1.0
  C  C47  1  0.68062000  0.29003000  0.83556000  1.0
  C  C48  1  0.37136000  0.80330000  0.06543000  1.0
  C  C49  1  0.62865000  0.19670000  0.93457000  1.0
  C  C50  1  0.15747000  0.93790000  0.10118000  1.0
  C  C51  1  0.84252000  0.06210000  0.89883000  1.0
  C  C52  1  0.09166000  0.85254000  0.20275000  1.0
  C  C53  1  0.90835000  0.14746000  0.79725000  1.0
  C  C54  1  0.21230000  0.25804000  0.33175000  1.0
  C  C55  1  0.78771000  0.74197000  0.66825000  1.0
  C  C56  1  0.17588000  0.16533000  0.29016000  1.0
  C  C57  1  0.82412000  0.83468000  0.70984000  1.0
  C  C58  1  0.18157000  0.03774000  0.34811000  1.0
  C  C59  1  0.81842000  0.96227000  0.65189000  1.0
  C  C60  1  0.22234000  0.00264000  0.44744000  1.0
  C  C61  1  0.77765000  0.99736000  0.55256000  1.0
  C  C62  1  0.23090000  0.87202000  0.51101000  1.0
  C  C63  1  0.76910000  0.12797000  0.48899000  1.0
  C  C64  1  0.27077000  0.84239000  0.60674000  1.0
  C  C65  1  0.72922000  0.15761000  0.39327000  1.0
  C  C66  1  0.30719000  0.94035000  0.64544000  1.0
  C  C67  1  0.69281000  0.05965000  0.35456000  1.0
  C  C68  1  0.35138000  0.91356000  0.74332000  1.0
  C  C69  1  0.64862000  0.08644000  0.25669000  1.0
  C  C70  1  0.39388000  0.01285000  0.77353000  1.0
  C  C71  1  0.60612000  0.98714000  0.22647000  1.0
  C  C72  1  0.38942000  0.13883000  0.70594000  1.0
  C  C73  1  0.61059000  0.86116000  0.29406000  1.0
  C  C74  1  0.30233000  0.07131000  0.58346000  1.0
  C  C75  1  0.69768000  0.92870000  0.41654000  1.0
  C  C76  1  0.25716000  0.10309000  0.48306000  1.0
  C  C77  1  0.74285000  0.89691000  0.51694000  1.0
  N  N78  1  0.25242000  0.22859000  0.42496000  1.0
  N  N79  1  0.74758000  0.77142000  0.57504000  1.0
  N  N80  1  0.34206000  0.16802000  0.61479000  1.0
  N  N81  1  0.65794000  0.83200000  0.38520000  1.0
  N  N82  1  0.29821000  0.91369000  0.03253000  1.0
  N  N83  1  0.70179000  0.08632000  0.96747000  1.0
  N  N84  1  0.15730000  0.40302000  0.04826000  1.0
  N  N85  1  0.84270000  0.59699000  0.95174000  1.0
  O  O86  1  0.25920000  0.41108000  0.67626000  1.0
  O  O87  1  0.74082000  0.58889000  0.32376000  1.0
  O  O88  1  0.46094000  0.56314000  0.66338000  1.0
  O  O89  1  0.53899000  0.43686000  0.33660000  1.0
  O  O90  1  0.18403000  0.53321000  0.36373000  1.0
  O  O91  1  0.81598000  0.46679000  0.63627000  1.0
  O  O92  1  0.98936000  0.67306000  0.40948000  1.0
  O  O93  1  0.01064000  0.32694000  0.59051000  1.0
  O  O94  1  0.60605000  0.39169000  0.51900000  1.0
  O  O95  1  0.39398000  0.60831000  0.48100000  1.0
  F  F96  1  0.97209000  0.23942000  0.06375000  1.0
  F  F97  1  0.02792000  0.76059000  0.93625000  1.0
  F  F98  1  0.51130000  0.78011000  0.99303000  1.0
  F  F99  1  0.48870000  0.21989000  0.00697000  1.0
