# generated using pymatgen
data_Er2H14C18S3O16
_symmetry_space_group_name_H-M   'P 1'
_cell_length_a   5.72850000
_cell_length_b   12.84060000
_cell_length_c   15.93830000
_cell_angle_alpha   80.58850000
_cell_angle_beta   79.71670000
_cell_angle_gamma   77.12000000
_symmetry_Int_Tables_number   1
_chemical_formula_structural   Er2H14C18S3O16
_chemical_formula_sum   'Er4 H28 C36 S6 O32'
_cell_volume   1115.12802854
_cell_formula_units_Z   2
loop_
 _symmetry_equiv_pos_site_id
 _symmetry_equiv_pos_as_xyz
  1  'x, y, z'
loop_
 _atom_site_type_symbol
 _atom_site_label
 _atom_site_symmetry_multiplicity
 _atom_site_fract_x
 _atom_site_fract_y
 _atom_site_fract_z
 _atom_site_occupancy
  Er  Er0  1  0.97617000  0.84756000  0.88719000  1.0
  Er  Er1  1  0.71044000  0.65247000  0.61294000  1.0
  Er  Er2  1  0.02383000  0.15244000  0.11281000  1.0
  Er  Er3  1  0.28956000  0.34753000  0.38706000  1.0
  H  H4  1  0.05558000  0.68047000  0.08678000  1.0
  H  H5  1  0.82189000  0.81980000  0.41297000  1.0
  H  H6  1  0.94442000  0.31953000  0.91323000  1.0
  H  H7  1  0.17811000  0.18020000  0.58703000  1.0
  H  H8  1  0.13048000  0.49347000  0.18860000  1.0
  H  H9  1  0.81234000  0.00670000  0.31114000  1.0
  H  H10  1  0.86951000  0.50653000  0.81140000  1.0
  H  H11  1  0.18766000  0.99330000  0.68886000  1.0
  H  H12  1  0.24256000  0.15217000  0.79503000  1.0
  H  H13  1  0.19003000  0.34845000  0.70470000  1.0
  H  H14  1  0.75743000  0.84783000  0.20497000  1.0
  H  H15  1  0.80997000  0.65155000  0.29529000  1.0
  H  H16  1  0.43873000  0.91070000  0.81674000  1.0
  H  H17  1  0.16586000  0.58929000  0.68351000  1.0
  H  H18  1  0.56127000  0.08930000  0.18326000  1.0
  H  H19  1  0.83414000  0.41072000  0.31649000  1.0
  H  H20  1  0.41931000  0.81579000  0.76548000  1.0
  H  H21  1  0.00051000  0.68405000  0.73485000  1.0
  H  H22  1  0.58068000  0.18421000  0.23452000  1.0
  H  H23  1  0.99949000  0.31595000  0.26515000  1.0
  H  H24  1  0.94559000  0.91635000  0.06016000  1.0
  H  H25  1  0.92115000  0.58375000  0.44001000  1.0
  H  H26  1  0.05441000  0.08365000  0.93984000  1.0
  H  H27  1  0.07884000  0.41625000  0.55998000  1.0
  H  H28  1  0.67421000  0.95322000  0.04808000  1.0
  H  H29  1  0.67515000  0.54648000  0.45183000  1.0
  H  H30  1  0.32579000  0.04679000  0.95192000  1.0
  H  H31  1  0.32485000  0.45351000  0.54817000  1.0
  C  C32  1  0.47119000  0.74778000  0.98080000  1.0
  C  C33  1  0.19889000  0.75223000  0.51935000  1.0
  C  C34  1  0.52881000  0.25222000  0.01920000  1.0
  C  C35  1  0.80111000  0.24776000  0.48065000  1.0
  C  C36  1  0.44400000  0.65134000  0.04295000  1.0
  C  C37  1  0.13768000  0.84859000  0.45705000  1.0
  C  C38  1  0.55600000  0.34866000  0.95706000  1.0
  C  C39  1  0.86232000  0.15141000  0.54295000  1.0
  C  C40  1  0.23118000  0.62760000  0.09139000  1.0
  C  C41  1  0.94961000  0.87249000  0.40844000  1.0
  C  C42  1  0.76882000  0.37240000  0.90862000  1.0
  C  C43  1  0.05040000  0.12751000  0.59156000  1.0
  C  C44  1  0.26982000  0.52905000  0.14539000  1.0
  C  C45  1  0.94397000  0.97105000  0.35447000  1.0
  C  C46  1  0.73018000  0.47095000  0.85462000  1.0
  C  C47  1  0.05604000  0.02895000  0.64553000  1.0
  C  C48  1  0.51215000  0.47831000  0.13664000  1.0
  C  C49  1  0.12714000  0.02161000  0.36332000  1.0
  C  C50  1  0.48786000  0.52169000  0.86336000  1.0
  C  C51  1  0.87286000  0.97840000  0.63668000  1.0
  C  C52  1  0.62135000  0.37149000  0.17795000  1.0
  C  C53  1  0.17115000  0.12836000  0.32201000  1.0
  C  C54  1  0.37865000  0.62851000  0.82206000  1.0
  C  C55  1  0.82886000  0.87165000  0.67799000  1.0
  C  C56  1  0.72252000  0.05805000  0.83995000  1.0
  C  C57  1  0.62126000  0.44199000  0.66005000  1.0
  C  C58  1  0.27747000  0.94195000  0.16005000  1.0
  C  C59  1  0.37874000  0.55801000  0.33994000  1.0
  C  C60  1  0.61927000  0.16065000  0.79266000  1.0
  C  C61  1  0.57308000  0.33940000  0.70718000  1.0
  C  C62  1  0.38072000  0.83935000  0.20734000  1.0
  C  C63  1  0.42692000  0.66060000  0.29282000  1.0
  C  C64  1  0.38429000  0.19880000  0.77403000  1.0
  C  C65  1  0.35725000  0.30159000  0.72573000  1.0
  C  C66  1  0.61571000  0.80121000  0.22597000  1.0
  C  C67  1  0.64275000  0.69841000  0.27427000  1.0
  S  S68  1  0.69008000  0.55102000  0.06175000  1.0
  S  S69  1  0.30258000  0.94877000  0.43837000  1.0
  S  S70  1  0.30992000  0.44898000  0.93826000  1.0
  S  S71  1  0.69741000  0.05124000  0.56164000  1.0
  S  S72  1  0.80289000  0.24988000  0.74995000  1.0
  S  S73  1  0.19711000  0.75012000  0.25005000  1.0
  O  O74  1  0.32797000  0.88092000  0.79072000  1.0
  O  O75  1  0.99944000  0.61896000  0.70953000  1.0
  O  O76  1  0.67203000  0.11908000  0.20928000  1.0
  O  O77  1  0.00056000  0.38104000  0.29047000  1.0
  O  O78  1  0.68337000  0.75443000  0.94221000  1.0
  O  O79  1  0.37921000  0.74556000  0.55802000  1.0
  O  O80  1  0.31664000  0.24556000  0.05779000  1.0
  O  O81  1  0.62079000  0.25444000  0.44198000  1.0
  O  O82  1  0.82846000  0.91016000  0.02378000  1.0
  O  O83  1  0.76151000  0.58972000  0.47626000  1.0
  O  O84  1  0.17154000  0.08984000  0.97622000  1.0
  O  O85  1  0.23849000  0.41028000  0.52374000  1.0
  O  O86  1  0.27968000  0.81842000  0.96926000  1.0
  O  O87  1  0.06623000  0.68170000  0.53091000  1.0
  O  O88  1  0.72033000  0.18158000  0.03074000  1.0
  O  O89  1  0.93376000  0.31830000  0.46909000  1.0
  O  O90  1  0.81577000  0.32192000  0.13746000  1.0
  O  O91  1  0.27545000  0.17794000  0.36260000  1.0
  O  O92  1  0.18423000  0.67808000  0.86255000  1.0
  O  O93  1  0.72456000  0.82206000  0.63741000  1.0
  O  O94  1  0.51850000  0.33289000  0.25100000  1.0
  O  O95  1  0.10302000  0.16686000  0.24882000  1.0
  O  O96  1  0.48150000  0.66711000  0.74900000  1.0
  O  O97  1  0.89698000  0.83315000  0.75118000  1.0
  O  O98  1  0.59509000  0.98559000  0.86844000  1.0
  O  O99  1  0.44975000  0.51467000  0.63173000  1.0
  O  O100  1  0.40490000  0.01441000  0.13156000  1.0
  O  O101  1  0.55026000  0.48533000  0.36826000  1.0
  O  O102  1  0.94575000  0.03911000  0.85081000  1.0
  O  O103  1  0.83647000  0.46075000  0.64911000  1.0
  O  O104  1  0.05424000  0.96089000  0.14918000  1.0
  O  O105  1  0.16353000  0.53924000  0.35089000  1.0
