# generated using pymatgen
data_DyAgH8C18(NO2)4
_symmetry_space_group_name_H-M   'P 1'
_cell_length_a   8.50724000
_cell_length_b   17.62800000
_cell_length_c   24.97550000
_cell_angle_alpha   90.00000000
_cell_angle_beta   90.00000000
_cell_angle_gamma   90.00000000
_symmetry_Int_Tables_number   1
_chemical_formula_structural   DyAgH8C18(NO2)4
_chemical_formula_sum   'Dy8 Ag8 H64 C144 N32 O64'
_cell_volume   3745.46651015
_cell_formula_units_Z   8
loop_
 _symmetry_equiv_pos_site_id
 _symmetry_equiv_pos_as_xyz
  1  'x, y, z'
loop_
 _atom_site_type_symbol
 _atom_site_label
 _atom_site_symmetry_multiplicity
 _atom_site_fract_x
 _atom_site_fract_y
 _atom_site_fract_z
 _atom_site_occupancy
  Dy  Dy0  1  0.33421000  0.21678000  0.52511000  1.0
  Dy  Dy1  1  0.16579000  0.21678000  0.97489000  1.0
  Dy  Dy2  1  0.83421000  0.28322000  0.47489000  1.0
  Dy  Dy3  1  0.66579000  0.28322000  0.02511000  1.0
  Dy  Dy4  1  0.66579000  0.78322000  0.47489000  1.0
  Dy  Dy5  1  0.83420000  0.78323000  0.02511000  1.0
  Dy  Dy6  1  0.16579000  0.71678000  0.52511000  1.0
  Dy  Dy7  1  0.33421000  0.71678000  0.97489000  1.0
  Ag  Ag8  1  0.53760000  0.45489000  0.77264000  1.0
  Ag  Ag9  1  0.96240000  0.45489000  0.72736000  1.0
  Ag  Ag10  1  0.03760000  0.04511000  0.22736000  1.0
  Ag  Ag11  1  0.46240000  0.04511000  0.27264000  1.0
  Ag  Ag12  1  0.46240000  0.54511000  0.22736000  1.0
  Ag  Ag13  1  0.03760000  0.54511000  0.27264000  1.0
  Ag  Ag14  1  0.96240000  0.95489000  0.77264000  1.0
  Ag  Ag15  1  0.53760000  0.95489000  0.72736000  1.0
  H  H16  1  0.93441000  0.84569000  0.58942000  1.0
  H  H17  1  0.56559000  0.84569000  0.91058000  1.0
  H  H18  1  0.43440000  0.65431000  0.41058000  1.0
  H  H19  1  0.06559000  0.65431000  0.08942000  1.0
  H  H20  1  0.06559000  0.15431000  0.41058000  1.0
  H  H21  1  0.43440000  0.15431000  0.08942000  1.0
  H  H22  1  0.56560000  0.34569000  0.58942000  1.0
  H  H23  1  0.93440000  0.34569000  0.91058000  1.0
  H  H24  1  0.28205000  0.62273000  0.62810000  1.0
  H  H25  1  0.21795000  0.62273000  0.87189000  1.0
  H  H26  1  0.78205000  0.87726000  0.37189000  1.0
  H  H27  1  0.71795000  0.87727000  0.12811000  1.0
  H  H28  1  0.71795000  0.37726000  0.37189000  1.0
  H  H29  1  0.78205000  0.37727000  0.12811000  1.0
  H  H30  1  0.21795000  0.12273000  0.62811000  1.0
  H  H31  1  0.28205000  0.12273000  0.87189000  1.0
  H  H32  1  0.04771000  0.98709000  0.54275000  1.0
  H  H33  1  0.45228000  0.98709000  0.95725000  1.0
  H  H34  1  0.54771000  0.51291000  0.45725000  1.0
  H  H35  1  0.95229000  0.51291000  0.04275000  1.0
  H  H36  1  0.95228000  0.01291000  0.45724000  1.0
  H  H37  1  0.54771000  0.01291000  0.04275000  1.0
  H  H38  1  0.45229000  0.48709000  0.54275000  1.0
  H  H39  1  0.04771000  0.48709000  0.95725000  1.0
  H  H40  1  0.73844000  0.81293000  0.66446000  1.0
  H  H41  1  0.76156000  0.81293000  0.83554000  1.0
  H  H42  1  0.23844000  0.68707000  0.33554000  1.0
  H  H43  1  0.26156000  0.68707000  0.16447000  1.0
  H  H44  1  0.26156000  0.18707000  0.33554000  1.0
  H  H45  1  0.23844000  0.18707000  0.16446000  1.0
  H  H46  1  0.76156000  0.31294000  0.66447000  1.0
  H  H47  1  0.73844000  0.31294000  0.83554000  1.0
  H  H48  1  0.58503000  0.08641000  0.64569000  1.0
  H  H49  1  0.91497000  0.08641000  0.85431000  1.0
  H  H50  1  0.08503000  0.41359000  0.35431000  1.0
  H  H51  1  0.41497000  0.41359000  0.14569000  1.0
  H  H52  1  0.41497000  0.91359000  0.35431000  1.0
  H  H53  1  0.08503000  0.91359000  0.14569000  1.0
  H  H54  1  0.91497000  0.58641000  0.64569000  1.0
  H  H55  1  0.58503000  0.58641000  0.85431000  1.0
  H  H56  1  0.32548000  0.33607000  0.70749000  1.0
  H  H57  1  0.17451000  0.33607000  0.79251000  1.0
  H  H58  1  0.82549000  0.16393000  0.29251000  1.0
  H  H59  1  0.67451000  0.16393000  0.20749000  1.0
  H  H60  1  0.67451000  0.66393000  0.29251000  1.0
  H  H61  1  0.82549000  0.66393000  0.20749000  1.0
  H  H62  1  0.17451000  0.83607000  0.70749000  1.0
  H  H63  1  0.32549000  0.83607000  0.79251000  1.0
  H  H64  1  0.45451000  0.61441000  0.70651000  1.0
  H  H65  1  0.04549000  0.61441000  0.79348000  1.0
  H  H66  1  0.95451000  0.88559000  0.29348000  1.0
  H  H67  1  0.54549000  0.88559000  0.20652000  1.0
  H  H68  1  0.54549000  0.38559000  0.29348000  1.0
  H  H69  1  0.95451000  0.38559000  0.20652000  1.0
  H  H70  1  0.04550000  0.11441000  0.70652000  1.0
  H  H71  1  0.45451000  0.11441000  0.79348000  1.0
  H  H72  1  0.11196000  0.50373000  0.56064000  1.0
  H  H73  1  0.38805000  0.50373000  0.93936000  1.0
  H  H74  1  0.61196000  0.99627000  0.43936000  1.0
  H  H75  1  0.88804000  0.99627000  0.06064000  1.0
  H  H76  1  0.88804000  0.49627000  0.43936000  1.0
  H  H77  1  0.61196000  0.49627000  0.06064000  1.0
  H  H78  1  0.38805000  0.00373000  0.56064000  1.0
  H  H79  1  0.11195000  0.00373000  0.93935000  1.0
  C  C80  1  0.98907000  0.12768000  0.51788000  1.0
  C  C81  1  0.51093000  0.12769000  0.98212000  1.0
  C  C82  1  0.48907000  0.37231000  0.48212000  1.0
  C  C83  1  0.01093000  0.37232000  0.01788000  1.0
  C  C84  1  0.01093000  0.87232000  0.48212000  1.0
  C  C85  1  0.48907000  0.87232000  0.01788000  1.0
  C  C86  1  0.51093000  0.62769000  0.51788000  1.0
  C  C87  1  0.98907000  0.62769000  0.98212000  1.0
  C  C88  1  0.89332000  0.08194000  0.55703000  1.0
  C  C89  1  0.60667000  0.08194000  0.94297000  1.0
  C  C90  1  0.39332000  0.41806000  0.44297000  1.0
  C  C91  1  0.10668000  0.41806000  0.05703000  1.0
  C  C92  1  0.10667000  0.91806000  0.44297000  1.0
  C  C93  1  0.39332000  0.91806000  0.05703000  1.0
  C  C94  1  0.60668000  0.58194000  0.55703000  1.0
  C  C95  1  0.89333000  0.58194000  0.94297000  1.0
  C  C96  1  0.94387000  0.00718000  0.56365000  1.0
  C  C97  1  0.55613000  0.00718000  0.93635000  1.0
  C  C98  1  0.44387000  0.49282000  0.43635000  1.0
  C  C99  1  0.05613000  0.49282000  0.06365000  1.0
  C  C100  1  0.05613000  0.99282000  0.43635000  1.0
  C  C101  1  0.44387000  0.99282000  0.06365000  1.0
  C  C102  1  0.55613000  0.50718000  0.56365000  1.0
  C  C103  1  0.94387000  0.50718000  0.93635000  1.0
  C  C104  1  0.85928000  0.96061000  0.59803000  1.0
  C  C105  1  0.64071000  0.96061000  0.90197000  1.0
  C  C106  1  0.35928000  0.53939000  0.40197000  1.0
  C  C107  1  0.14072000  0.53939000  0.09803000  1.0
  C  C108  1  0.14072000  0.03939000  0.40197000  1.0
  C  C109  1  0.35928000  0.03939000  0.09803000  1.0
  C  C110  1  0.64072000  0.46061000  0.59803000  1.0
  C  C111  1  0.85928000  0.46061000  0.90197000  1.0
  C  C112  1  0.76118000  0.86929000  0.64881000  1.0
  C  C113  1  0.73882000  0.86929000  0.85119000  1.0
  C  C114  1  0.26118000  0.63071000  0.35119000  1.0
  C  C115  1  0.23882000  0.63071000  0.14881000  1.0
  C  C116  1  0.23883000  0.13071000  0.35119000  1.0
  C  C117  1  0.26117000  0.13071000  0.14881000  1.0
  C  C118  1  0.73882000  0.36929000  0.64881000  1.0
  C  C119  1  0.76117000  0.36929000  0.85119000  1.0
  C  C120  1  0.73672000  0.98972000  0.63007000  1.0
  C  C121  1  0.76328000  0.98972000  0.86993000  1.0
  C  C122  1  0.23672000  0.51028000  0.36993000  1.0
  C  C123  1  0.26328000  0.51028000  0.13007000  1.0
  C  C124  1  0.26328000  0.01028000  0.36993000  1.0
  C  C125  1  0.23672000  0.01028000  0.13007000  1.0
  C  C126  1  0.76328000  0.48972000  0.63007000  1.0
  C  C127  1  0.73672000  0.48972000  0.86993000  1.0
  C  C128  1  0.68463000  0.06398000  0.62327000  1.0
  C  C129  1  0.81537000  0.06398000  0.87674000  1.0
  C  C130  1  0.18462000  0.43602000  0.37674000  1.0
  C  C131  1  0.31538000  0.43602000  0.12327000  1.0
  C  C132  1  0.31537000  0.93602000  0.37673000  1.0
  C  C133  1  0.18462000  0.93602000  0.12327000  1.0
  C  C134  1  0.81537000  0.56398000  0.62327000  1.0
  C  C135  1  0.68463000  0.56398000  0.87673000  1.0
  C  C136  1  0.75947000  0.10963000  0.58520000  1.0
  C  C137  1  0.74053000  0.10963000  0.91480000  1.0
  C  C138  1  0.25947000  0.39037000  0.41480000  1.0
  C  C139  1  0.24054000  0.39037000  0.08520000  1.0
  C  C140  1  0.24053000  0.89037000  0.41480000  1.0
  C  C141  1  0.25947000  0.89037000  0.08520000  1.0
  C  C142  1  0.74053000  0.60963000  0.58520000  1.0
  C  C143  1  0.75947000  0.60963000  0.91480000  1.0
  C  C144  1  0.69044000  0.18667000  0.57526000  1.0
  C  C145  1  0.80956000  0.18667000  0.92475000  1.0
  C  C146  1  0.19044000  0.31333000  0.42475000  1.0
  C  C147  1  0.30956000  0.31333000  0.07526000  1.0
  C  C148  1  0.30956000  0.81333000  0.42474000  1.0
  C  C149  1  0.19044000  0.81333000  0.07526000  1.0
  C  C150  1  0.80956000  0.68667000  0.57525000  1.0
  C  C151  1  0.69044000  0.68667000  0.92475000  1.0
  C  C152  1  0.15119000  0.25889000  0.63887000  1.0
  C  C153  1  0.34880000  0.25889000  0.86113000  1.0
  C  C154  1  0.65120000  0.24110000  0.36113000  1.0
  C  C155  1  0.84881000  0.24111000  0.13887000  1.0
  C  C156  1  0.84881000  0.74110000  0.36113000  1.0
  C  C157  1  0.65119000  0.74111000  0.13887000  1.0
  C  C158  1  0.34880000  0.75889000  0.63887000  1.0
  C  C159  1  0.15119000  0.75889000  0.86113000  1.0
  C  C160  1  0.18976000  0.34252000  0.63420000  1.0
  C  C161  1  0.31024000  0.34252000  0.86580000  1.0
  C  C162  1  0.68976000  0.15748000  0.36580000  1.0
  C  C163  1  0.81024000  0.15748000  0.13420000  1.0
  C  C164  1  0.81024000  0.65748000  0.36580000  1.0
  C  C165  1  0.68976000  0.65748000  0.13420000  1.0
  C  C166  1  0.31024000  0.84252000  0.63420000  1.0
  C  C167  1  0.18976000  0.84252000  0.86579000  1.0
  C  C168  1  0.28007000  0.37244000  0.67567000  1.0
  C  C169  1  0.21993000  0.37244000  0.82433000  1.0
  C  C170  1  0.78007000  0.12756000  0.32433000  1.0
  C  C171  1  0.71993000  0.12756000  0.17567000  1.0
  C  C172  1  0.71993000  0.62756000  0.32433000  1.0
  C  C173  1  0.78007000  0.62756000  0.17567000  1.0
  C  C174  1  0.21993000  0.87244000  0.67567000  1.0
  C  C175  1  0.28007000  0.87244000  0.82433000  1.0
  C  C176  1  0.31260000  0.44997000  0.67488000  1.0
  C  C177  1  0.18740000  0.44997000  0.82512000  1.0
  C  C178  1  0.81260000  0.05003000  0.32512000  1.0
  C  C179  1  0.68740000  0.05003000  0.17488000  1.0
  C  C180  1  0.68740000  0.55003000  0.32512000  1.0
  C  C181  1  0.81261000  0.55003000  0.17488000  1.0
  C  C182  1  0.18740000  0.94997000  0.67488000  1.0
  C  C183  1  0.31260000  0.94997000  0.82512000  1.0
  C  C184  1  0.39520000  0.56480000  0.69044000  1.0
  C  C185  1  0.10480000  0.56480000  0.80956000  1.0
  C  C186  1  0.89520000  0.93520000  0.30956000  1.0
  C  C187  1  0.60480000  0.93520000  0.19044000  1.0
  C  C188  1  0.60480000  0.43520000  0.30956000  1.0
  C  C189  1  0.89520000  0.43520000  0.19044000  1.0
  C  C190  1  0.10480000  0.06480000  0.69044000  1.0
  C  C191  1  0.39520000  0.06480000  0.80956000  1.0
  C  C192  1  0.24765000  0.49792000  0.63489000  1.0
  C  C193  1  0.25235000  0.49791000  0.86511000  1.0
  C  C194  1  0.74766000  0.00208000  0.36511000  1.0
  C  C195  1  0.75235000  0.00209000  0.13489000  1.0
  C  C196  1  0.75234000  0.50208000  0.36511000  1.0
  C  C197  1  0.74766000  0.50208000  0.13489000  1.0
  C  C198  1  0.25235000  0.99791000  0.63489000  1.0
  C  C199  1  0.24765000  0.99791000  0.86510000  1.0
  C  C200  1  0.15802000  0.46849000  0.59291000  1.0
  C  C201  1  0.34198000  0.46849000  0.90709000  1.0
  C  C202  1  0.65802000  0.03151000  0.40709000  1.0
  C  C203  1  0.84198000  0.03151000  0.09291000  1.0
  C  C204  1  0.84198000  0.53151000  0.40709000  1.0
  C  C205  1  0.65802000  0.53151000  0.09291000  1.0
  C  C206  1  0.34198000  0.96849000  0.59291000  1.0
  C  C207  1  0.15801000  0.96848000  0.90709000  1.0
  C  C208  1  0.13338000  0.38994000  0.59228000  1.0
  C  C209  1  0.36662000  0.38994000  0.90772000  1.0
  C  C210  1  0.63338000  0.11006000  0.40772000  1.0
  C  C211  1  0.86662000  0.11006000  0.09228000  1.0
  C  C212  1  0.86662000  0.61006000  0.40772000  1.0
  C  C213  1  0.63338000  0.61006000  0.09228000  1.0
  C  C214  1  0.36662000  0.88994000  0.59228000  1.0
  C  C215  1  0.13338000  0.88994000  0.90772000  1.0
  C  C216  1  0.04822000  0.35557000  0.54608000  1.0
  C  C217  1  0.45178000  0.35557000  0.95392000  1.0
  C  C218  1  0.54823000  0.14442000  0.45392000  1.0
  C  C219  1  0.95178000  0.14443000  0.04608000  1.0
  C  C220  1  0.95178000  0.64442000  0.45392000  1.0
  C  C221  1  0.54822000  0.64443000  0.04608000  1.0
  C  C222  1  0.45178000  0.85557000  0.54608000  1.0
  C  C223  1  0.04822000  0.85557000  0.95392000  1.0
  N  N224  1  0.86989000  0.88452000  0.61069000  1.0
  N  N225  1  0.63011000  0.88452000  0.88931000  1.0
  N  N226  1  0.36989000  0.61548000  0.38931000  1.0
  N  N227  1  0.13011000  0.61548000  0.11069000  1.0
  N  N228  1  0.13011000  0.11548000  0.38931000  1.0
  N  N229  1  0.36989000  0.11548000  0.11069000  1.0
  N  N230  1  0.63011000  0.38453000  0.61069000  1.0
  N  N231  1  0.86989000  0.38453000  0.88931000  1.0
  N  N232  1  0.68120000  0.93144000  0.66260000  1.0
  N  N233  1  0.81880000  0.93144000  0.83740000  1.0
  N  N234  1  0.18120000  0.56856000  0.33740000  1.0
  N  N235  1  0.31880000  0.56856000  0.16260000  1.0
  N  N236  1  0.31880000  0.06856000  0.33740000  1.0
  N  N237  1  0.18120000  0.06856000  0.16260000  1.0
  N  N238  1  0.81880000  0.43144000  0.66260000  1.0
  N  N239  1  0.68120000  0.43144000  0.83740000  1.0
  N  N240  1  0.40557000  0.49347000  0.70864000  1.0
  N  N241  1  0.09443000  0.49347000  0.79136000  1.0
  N  N242  1  0.90558000  0.00653000  0.29136000  1.0
  N  N243  1  0.59443000  0.00653000  0.20864000  1.0
  N  N244  1  0.59443000  0.50653000  0.29136000  1.0
  N  N245  1  0.90558000  0.50653000  0.20864000  1.0
  N  N246  1  0.09443000  0.99347000  0.70864000  1.0
  N  N247  1  0.40557000  0.99347000  0.79136000  1.0
  N  N248  1  0.30171000  0.57006000  0.64710000  1.0
  N  N249  1  0.19829000  0.57006000  0.85290000  1.0
  N  N250  1  0.80171000  0.92993000  0.35290000  1.0
  N  N251  1  0.69829000  0.92994000  0.14710000  1.0
  N  N252  1  0.69829000  0.42994000  0.35290000  1.0
  N  N253  1  0.80171000  0.42994000  0.14710000  1.0
  N  N254  1  0.19829000  0.07006000  0.64710000  1.0
  N  N255  1  0.30170000  0.07006000  0.85290000  1.0
  O  O256  1  0.13643000  0.12683000  0.52457000  1.0
  O  O257  1  0.36357000  0.12683000  0.97543000  1.0
  O  O258  1  0.63643000  0.37317000  0.47543000  1.0
  O  O259  1  0.86357000  0.37317000  0.02457000  1.0
  O  O260  1  0.86356000  0.87317000  0.47543000  1.0
  O  O261  1  0.63643000  0.87317000  0.02457000  1.0
  O  O262  1  0.36357000  0.62683000  0.52457000  1.0
  O  O263  1  0.13643000  0.62683000  0.97543000  1.0
  O  O264  1  0.92155000  0.15996000  0.47810000  1.0
  O  O265  1  0.57846000  0.15996000  0.02190000  1.0
  O  O266  1  0.42155000  0.34004000  0.52190000  1.0
  O  O267  1  0.07845000  0.34004000  0.97810000  1.0
  O  O268  1  0.07845000  0.84004000  0.52190000  1.0
  O  O269  1  0.42154000  0.84004000  0.97810000  1.0
  O  O270  1  0.57845000  0.65996000  0.47810000  1.0
  O  O271  1  0.92155000  0.65996000  0.02190000  1.0
  O  O272  1  0.77849000  0.24092000  0.56029000  1.0
  O  O273  1  0.72151000  0.24092000  0.93971000  1.0
  O  O274  1  0.27849000  0.25908000  0.43971000  1.0
  O  O275  1  0.22151000  0.25908000  0.06029000  1.0
  O  O276  1  0.22151000  0.75908000  0.43971000  1.0
  O  O277  1  0.27849000  0.75908000  0.06029000  1.0
  O  O278  1  0.72151000  0.74092000  0.56029000  1.0
  O  O279  1  0.77849000  0.74092000  0.93971000  1.0
  O  O280  1  0.54258000  0.19340000  0.58245000  1.0
  O  O281  1  0.95742000  0.19340000  0.91755000  1.0
  O  O282  1  0.04258000  0.30660000  0.41755000  1.0
  O  O283  1  0.45742000  0.30660000  0.08245000  1.0
  O  O284  1  0.45742000  0.80660000  0.41755000  1.0
  O  O285  1  0.04258000  0.80660000  0.08245000  1.0
  O  O286  1  0.95742000  0.69340000  0.58245000  1.0
  O  O287  1  0.54258000  0.69340000  0.91755000  1.0
  O  O288  1  0.24269000  0.21334000  0.61245000  1.0
  O  O289  1  0.25731000  0.21334000  0.88756000  1.0
  O  O290  1  0.74269000  0.28666000  0.38755000  1.0
  O  O291  1  0.75731000  0.28666000  0.11244000  1.0
  O  O292  1  0.75731000  0.78666000  0.38756000  1.0
  O  O293  1  0.74269000  0.78666000  0.11244000  1.0
  O  O294  1  0.25731000  0.71334000  0.61245000  1.0
  O  O295  1  0.24269000  0.71334000  0.88755000  1.0
  O  O296  1  0.04508000  0.23898000  0.67015000  1.0
  O  O297  1  0.45492000  0.23898000  0.82985000  1.0
  O  O298  1  0.54508000  0.26101000  0.32985000  1.0
  O  O299  1  0.95491000  0.26102000  0.17015000  1.0
  O  O300  1  0.95492000  0.76101000  0.32985000  1.0
  O  O301  1  0.54508000  0.76102000  0.17015000  1.0
  O  O302  1  0.45492000  0.73898000  0.67015000  1.0
  O  O303  1  0.04509000  0.73898000  0.82985000  1.0
  O  O304  1  0.08773000  0.28878000  0.53003000  1.0
  O  O305  1  0.41227000  0.28878000  0.96997000  1.0
  O  O306  1  0.58773000  0.21122000  0.46997000  1.0
  O  O307  1  0.91227000  0.21122000  0.03003000  1.0
  O  O308  1  0.91227000  0.71122000  0.46997000  1.0
  O  O309  1  0.58773000  0.71122000  0.03003000  1.0
  O  O310  1  0.41227000  0.78878000  0.53003000  1.0
  O  O311  1  0.08773000  0.78878000  0.96997000  1.0
  O  O312  1  0.93636000  0.39066000  0.52312000  1.0
  O  O313  1  0.56363000  0.39066000  0.97688000  1.0
  O  O314  1  0.43637000  0.10934000  0.47688000  1.0
  O  O315  1  0.06363000  0.10934000  0.02312000  1.0
  O  O316  1  0.06364000  0.60934000  0.47688000  1.0
  O  O317  1  0.43636000  0.60934000  0.02312000  1.0
  O  O318  1  0.56363000  0.89066000  0.52312000  1.0
  O  O319  1  0.93637000  0.89066000  0.97688000  1.0
