# generated using pymatgen
data_CuH11C11NO5
_symmetry_space_group_name_H-M   'P 1'
_cell_length_a   7.70518000
_cell_length_b   11.44900000
_cell_length_c   14.54790000
_cell_angle_alpha   90.00060000
_cell_angle_beta   90.00060000
_cell_angle_gamma   72.13300000
_symmetry_Int_Tables_number   1
_chemical_formula_structural   CuH11C11NO5
_chemical_formula_sum   'Cu4 H44 C44 N4 O20'
_cell_volume   1221.47123099
_cell_formula_units_Z   4
loop_
 _symmetry_equiv_pos_site_id
 _symmetry_equiv_pos_as_xyz
  1  'x, y, z'
loop_
 _atom_site_type_symbol
 _atom_site_label
 _atom_site_symmetry_multiplicity
 _atom_site_fract_x
 _atom_site_fract_y
 _atom_site_fract_z
 _atom_site_occupancy
  Cu  Cu0  1  0.57519000  0.08617000  0.00255000  1.0
  Cu  Cu1  1  0.42481000  0.41384000  0.50255000  1.0
  Cu  Cu2  1  0.42480000  0.91384000  0.99746000  1.0
  Cu  Cu3  1  0.57519000  0.58617000  0.49746000  1.0
  H  H4  1  0.94193000  0.08553000  0.15341000  1.0
  H  H5  1  0.05805000  0.41448000  0.65341000  1.0
  H  H6  1  0.05805000  0.91447000  0.84660000  1.0
  H  H7  1  0.94194000  0.58553000  0.34659000  1.0
  H  H8  1  0.70728000  0.20310000  0.26456000  1.0
  H  H9  1  0.29271000  0.29691000  0.76456000  1.0
  H  H10  1  0.29270000  0.79691000  0.73545000  1.0
  H  H11  1  0.70728000  0.70310000  0.23544000  1.0
  H  H12  1  0.08384000  0.38243000  0.36839000  1.0
  H  H13  1  0.91616000  0.11756000  0.86839000  1.0
  H  H14  1  0.91615000  0.61758000  0.63160000  1.0
  H  H15  1  0.08385000  0.88243000  0.13162000  1.0
  H  H16  1  0.31721000  0.26705000  0.25697000  1.0
  H  H17  1  0.68279000  0.23294000  0.75696000  1.0
  H  H18  1  0.68278000  0.73295000  0.74303000  1.0
  H  H19  1  0.31722000  0.76705000  0.24304000  1.0
  H  H20  1  0.48315000  0.33056000  0.10314000  1.0
  H  H21  1  0.51688000  0.16943000  0.60314000  1.0
  H  H22  1  0.51687000  0.66942000  0.89686000  1.0
  H  H23  1  0.48313000  0.83057000  0.39686000  1.0
  H  H24  1  0.44644000  0.49850000  0.17417000  1.0
  H  H25  1  0.55357000  0.00150000  0.67417000  1.0
  H  H26  1  0.55356000  0.50148000  0.82583000  1.0
  H  H27  1  0.44644000  0.99849000  0.32583000  1.0
  H  H28  1  0.53526000  0.61001000  0.12280000  1.0
  H  H29  1  0.46475000  0.88999000  0.62279000  1.0
  H  H30  1  0.46473000  0.38998000  0.87720000  1.0
  H  H31  1  0.53525000  0.11000000  0.37720000  1.0
  H  H32  1  0.65769000  0.51405000  0.21365000  1.0
  H  H33  1  0.34231000  0.98596000  0.71365000  1.0
  H  H34  1  0.34230000  0.48595000  0.78635000  1.0
  H  H35  1  0.65769000  0.01404000  0.28635000  1.0
  H  H36  1  0.88449000  0.36434000  0.99476000  1.0
  H  H37  1  0.11553000  0.13567000  0.49475000  1.0
  H  H38  1  0.11551000  0.63565000  0.00524000  1.0
  H  H39  1  0.88449000  0.86433000  0.50524000  1.0
  H  H40  1  0.93811000  0.42756000  0.09992000  1.0
  H  H41  1  0.06190000  0.07245000  0.59991000  1.0
  H  H42  1  0.06190000  0.57243000  0.90007000  1.0
  H  H43  1  0.93811000  0.92755000  0.40007000  1.0
  H  H44  1  0.80788000  0.52767000  0.01348000  1.0
  H  H45  1  0.19213000  0.97234000  0.51347000  1.0
  H  H46  1  0.19213000  0.47232000  0.98651000  1.0
  H  H47  1  0.80788000  0.02766000  0.48652000  1.0
  C  C48  1  0.14457000  0.16851000  0.19881000  1.0
  C  C49  1  0.85543000  0.33149000  0.69881000  1.0
  C  C50  1  0.85541000  0.83150000  0.80119000  1.0
  C  C51  1  0.14457000  0.66850000  0.30119000  1.0
  C  C52  1  0.97338000  0.14925000  0.20129000  1.0
  C  C53  1  0.02661000  0.35075000  0.70130000  1.0
  C  C54  1  0.02659000  0.85076000  0.79871000  1.0
  C  C55  1  0.97338000  0.64925000  0.29870000  1.0
  C  C56  1  0.84209000  0.21514000  0.26311000  1.0
  C  C57  1  0.15791000  0.28487000  0.76312000  1.0
  C  C58  1  0.15790000  0.78487000  0.73688000  1.0
  C  C59  1  0.84209000  0.71515000  0.23688000  1.0
  C  C60  1  0.88079000  0.29998000  0.32279000  1.0
  C  C61  1  0.11921000  0.20002000  0.82279000  1.0
  C  C62  1  0.11919000  0.70003000  0.67721000  1.0
  C  C63  1  0.88080000  0.79998000  0.17721000  1.0
  C  C64  1  0.05269000  0.31807000  0.32110000  1.0
  C  C65  1  0.94732000  0.18192000  0.82110000  1.0
  C  C66  1  0.94729000  0.68194000  0.67889000  1.0
  C  C67  1  0.05270000  0.81807000  0.17890000  1.0
  C  C68  1  0.18373000  0.25280000  0.25897000  1.0
  C  C69  1  0.81628000  0.24719000  0.75897000  1.0
  C  C70  1  0.81625000  0.74721000  0.74103000  1.0
  C  C71  1  0.18373000  0.75280000  0.24104000  1.0
  C  C72  1  0.28227000  0.10193000  0.12950000  1.0
  C  C73  1  0.71772000  0.39807000  0.62949000  1.0
  C  C74  1  0.71772000  0.89807000  0.87050000  1.0
  C  C75  1  0.28227000  0.60192000  0.37051000  1.0
  C  C76  1  0.73787000  0.37317000  0.38734000  1.0
  C  C77  1  0.26213000  0.12684000  0.88734000  1.0
  C  C78  1  0.26212000  0.62684000  0.61266000  1.0
  C  C79  1  0.73789000  0.87317000  0.11266000  1.0
  C  C80  1  0.60919000  0.32951000  0.06642000  1.0
  C  C81  1  0.39084000  0.17049000  0.56641000  1.0
  C  C82  1  0.39084000  0.67048000  0.93358000  1.0
  C  C83  1  0.60916000  0.82951000  0.43359000  1.0
  C  C84  1  0.57161000  0.51749000  0.15272000  1.0
  C  C85  1  0.42840000  0.98252000  0.65272000  1.0
  C  C86  1  0.42839000  0.48250000  0.84728000  1.0
  C  C87  1  0.57161000  0.01748000  0.34728000  1.0
  C  C88  1  0.83445000  0.43713000  0.04596000  1.0
  C  C89  1  0.16557000  0.06288000  0.54596000  1.0
  C  C90  1  0.16556000  0.56287000  0.95403000  1.0
  C  C91  1  0.83445000  0.93712000  0.45404000  1.0
  N  N92  1  0.66705000  0.42606000  0.08569000  1.0
  N  N93  1  0.33297000  0.07394000  0.58569000  1.0
  N  N94  1  0.33296000  0.57393000  0.91431000  1.0
  N  N95  1  0.66704000  0.92606000  0.41431000  1.0
  O  O96  1  0.40133000  0.15275000  0.10549000  1.0
  O  O97  1  0.59866000  0.34725000  0.60549000  1.0
  O  O98  1  0.59866000  0.84725000  0.89452000  1.0
  O  O99  1  0.40133000  0.65275000  0.39452000  1.0
  O  O100  1  0.26816000  0.00074000  0.09921000  1.0
  O  O101  1  0.73184000  0.49926000  0.59921000  1.0
  O  O102  1  0.73182000  0.99926000  0.90079000  1.0
  O  O103  1  0.26815000  0.50073000  0.40079000  1.0
  O  O104  1  0.74922000  0.47826000  0.41013000  1.0
  O  O105  1  0.25079000  0.02175000  0.91013000  1.0
  O  O106  1  0.25078000  0.52175000  0.58987000  1.0
  O  O107  1  0.74924000  0.97825000  0.08986000  1.0
  O  O108  1  0.61701000  0.32511000  0.41342000  1.0
  O  O109  1  0.38299000  0.17490000  0.91342000  1.0
  O  O110  1  0.38300000  0.67490000  0.58659000  1.0
  O  O111  1  0.61701000  0.82513000  0.08659000  1.0
  O  O112  1  0.68687000  0.24451000  0.01256000  1.0
  O  O113  1  0.31318000  0.25548000  0.51256000  1.0
  O  O114  1  0.31316000  0.75548000  0.98744000  1.0
  O  O115  1  0.68682000  0.74452000  0.48745000  1.0
