# generated using pymatgen
data_Al2H33C38N6O10F7
_symmetry_space_group_name_H-M   'P 1'
_cell_length_a   6.74456000
_cell_length_b   20.53880000
_cell_length_c   22.48900000
_cell_angle_alpha   87.02330000
_cell_angle_beta   89.23240000
_cell_angle_gamma   89.51020000
_symmetry_Int_Tables_number   1
_chemical_formula_structural   Al2H33C38N6O10F7
_chemical_formula_sum   'Al4 H66 C76 N12 O20 F14'
_cell_volume   3110.71378389
_cell_formula_units_Z   2
loop_
 _symmetry_equiv_pos_site_id
 _symmetry_equiv_pos_as_xyz
  1  'x, y, z'
loop_
 _atom_site_type_symbol
 _atom_site_label
 _atom_site_symmetry_multiplicity
 _atom_site_fract_x
 _atom_site_fract_y
 _atom_site_fract_z
 _atom_site_occupancy
  Al  Al0  1  0.16447000  0.50028000  0.49937000  1.0
  Al  Al1  1  0.66495000  0.49971000  0.49894000  1.0
  Al  Al2  1  0.60300000  0.00032000  0.99832000  1.0
  Al  Al3  1  0.10246000  0.00162000  0.00366000  1.0
  H  H4  1  0.63436000  0.09166000  0.82006000  1.0
  H  H5  1  0.08192000  0.89505000  0.16638000  1.0
  H  H6  1  0.10649000  0.18296000  0.91003000  1.0
  H  H7  1  0.65551000  0.83854000  0.10459000  1.0
  H  H8  1  0.28035000  0.36918000  0.78976000  1.0
  H  H9  1  0.84295000  0.65269000  0.22394000  1.0
  H  H10  1  0.67434000  0.33166000  0.60116000  1.0
  H  H11  1  0.12785000  0.65417000  0.38620000  1.0
  H  H12  1  0.15045000  0.17878000  0.21567000  1.0
  H  H13  1  0.65578000  0.81078000  0.77822000  1.0
  H  H14  1  0.99556000  0.14151000  0.27089000  1.0
  H  H15  1  0.51225000  0.85595000  0.72595000  1.0
  H  H16  1  0.20852000  0.26699000  0.27509000  1.0
  H  H17  1  0.67182000  0.72174000  0.71860000  1.0
  H  H18  1  0.93363000  0.26435000  0.09643000  1.0
  H  H19  1  0.24491000  0.21801000  0.13362000  1.0
  H  H20  1  0.27809000  0.29199000  0.17078000  1.0
  H  H21  1  0.28026000  0.29322000  0.09234000  1.0
  H  H22  1  0.44318000  0.73376000  0.89726000  1.0
  H  H23  1  0.76177000  0.76061000  0.85514000  1.0
  H  H24  1  0.74333000  0.69283000  0.80895000  1.0
  H  H25  1  0.76931000  0.67951000  0.88638000  1.0
  H  H26  1  0.53400000  0.28102000  0.37658000  1.0
  H  H27  1  0.32004000  0.35516000  0.33663000  1.0
  H  H28  1  0.41917000  0.34724000  0.26348000  1.0
  H  H29  1  0.56026000  0.38506000  0.31827000  1.0
  H  H30  1  0.89941000  0.77012000  0.65924000  1.0
  H  H31  1  0.02305000  0.67021000  0.60470000  1.0
  H  H32  1  0.79704000  0.66792000  0.64531000  1.0
  H  H33  1  0.01138000  0.63233000  0.67751000  1.0
  H  H34  1  0.10969000  0.37962000  0.26757000  1.0
  H  H35  1  0.23427000  0.43597000  0.18004000  1.0
  H  H36  1  0.97900000  0.45789000  0.19073000  1.0
  H  H37  1  0.04734000  0.39934000  0.13794000  1.0
  H  H38  1  0.50668000  0.60806000  0.72590000  1.0
  H  H39  1  0.59943000  0.54272000  0.81006000  1.0
  H  H40  1  0.33373000  0.54425000  0.80946000  1.0
  H  H41  1  0.46491000  0.59500000  0.85724000  1.0
  H  H42  1  0.22544000  0.43800000  0.73815000  1.0
  H  H43  1  0.91345000  0.51134000  0.68964000  1.0
  H  H44  1  0.12046000  0.52610000  0.64125000  1.0
  H  H45  1  0.13896000  0.54023000  0.71837000  1.0
  H  H46  1  0.83976000  0.59516000  0.28829000  1.0
  H  H47  1  0.59558000  0.50076000  0.27250000  1.0
  H  H48  1  0.61909000  0.48905000  0.35150000  1.0
  H  H49  1  0.83147000  0.48508000  0.30546000  1.0
  H  H50  1  0.43710000  0.12728000  0.67525000  1.0
  H  H51  1  0.24897000  0.06892000  0.75385000  1.0
  H  H52  1  0.19065000  0.15412000  0.74861000  1.0
  H  H53  1  0.35138000  0.12205000  0.80481000  1.0
  H  H54  1  0.89946000  0.88217000  0.22489000  1.0
  H  H55  1  0.64614000  0.89882000  0.28701000  1.0
  H  H56  1  0.79332000  0.86812000  0.34759000  1.0
  H  H57  1  0.64460000  0.81421000  0.30779000  1.0
  H  H58  1  0.87279000  0.17920000  0.36145000  1.0
  H  H59  1  0.66234000  0.13249000  0.42831000  1.0
  H  H60  1  0.50208000  0.13510000  0.36564000  1.0
  H  H61  1  0.48271000  0.19513000  0.41932000  1.0
  H  H62  1  0.32077000  0.84487000  0.64455000  1.0
  H  H63  1  0.22750000  0.83390000  0.54583000  1.0
  H  H64  1  0.09291000  0.76269000  0.56645000  1.0
  H  H65  1  0.35757000  0.76061000  0.56720000  1.0
  H  H66  1  0.41468000  0.42128000  0.53124000  1.0
  H  H67  1  0.91212000  0.57632000  0.46342000  1.0
  H  H68  1  0.34983000  0.08192000  0.97431000  1.0
  H  H69  1  0.86304000  0.92145000  0.97970000  1.0
  C  C70  1  0.41715000  0.58427000  0.57030000  1.0
  C  C71  1  0.92062000  0.41498000  0.42894000  1.0
  C  C72  1  0.41264000  0.57118000  0.41018000  1.0
  C  C73  1  0.91282000  0.43007000  0.58896000  1.0
  C  C74  1  0.73544000  0.13242000  0.82193000  1.0
  C  C75  1  0.20860000  0.86236000  0.17322000  1.0
  C  C76  1  0.86553000  0.13355000  0.86976000  1.0
  C  C77  1  0.36601000  0.87101000  0.13254000  1.0
  C  C78  1  0.00434000  0.18309000  0.87301000  1.0
  C  C79  1  0.53361000  0.83088000  0.13627000  1.0
  C  C80  1  0.01107000  0.23310000  0.82833000  1.0
  C  C81  1  0.54074000  0.78010000  0.18016000  1.0
  C  C82  1  0.87939000  0.23326000  0.77898000  1.0
  C  C83  1  0.38345000  0.77112000  0.22304000  1.0
  C  C84  1  0.73886000  0.18144000  0.77609000  1.0
  C  C85  1  0.21514000  0.81430000  0.21984000  1.0
  C  C86  1  0.15162000  0.28445000  0.82848000  1.0
  C  C87  1  0.70174000  0.73474000  0.18408000  1.0
  C  C88  1  0.16399000  0.33333333  0.78542000  1.0
  C  C89  1  0.71372000  0.68470000  0.22587000  1.0
  C  C90  1  0.03167000  0.33497000  0.73619000  1.0
  C  C91  1  0.56086000  0.67581000  0.27022000  1.0
  C  C92  1  0.89260000  0.28344000  0.73293000  1.0
  C  C93  1  0.39576000  0.71982000  0.26793000  1.0
  C  C94  1  0.76108000  0.28236000  0.68369000  1.0
  C  C95  1  0.23669000  0.71196000  0.31013000  1.0
  C  C96  1  0.62535000  0.22981000  0.68258000  1.0
  C  C97  1  0.07473000  0.75672000  0.30670000  1.0
  C  C98  1  0.60837000  0.17995000  0.72550000  1.0
  C  C99  1  0.05572000  0.80744000  0.26419000  1.0
  C  C100  1  0.03173000  0.38782000  0.69195000  1.0
  C  C101  1  0.56906000  0.62390000  0.31502000  1.0
  C  C102  1  0.90473000  0.38405000  0.64239000  1.0
  C  C103  1  0.41042000  0.61796000  0.35710000  1.0
  C  C104  1  0.77059000  0.33260000  0.63953000  1.0
  C  C105  1  0.24691000  0.66054000  0.35338000  1.0
  C  C106  1  0.66091000  0.20450000  0.25525000  1.0
  C  C107  1  0.16150000  0.80903000  0.74494000  1.0
  C  C108  1  0.02618000  0.18772000  0.24587000  1.0
  C  C109  1  0.52597000  0.80836000  0.75010000  1.0
  C  C110  1  0.07787000  0.23920000  0.28940000  1.0
  C  C111  1  0.55020000  0.75513000  0.70607000  1.0
  C  C112  1  0.92637000  0.36894000  0.38270000  1.0
  C  C113  1  0.40989000  0.63035000  0.61669000  1.0
  C  C114  1  0.83780000  0.20736000  0.20993000  1.0
  C  C115  1  0.33630000  0.79662000  0.78835000  1.0
  C  C116  1  0.69824000  0.24566000  0.31254000  1.0
  C  C117  1  0.17624000  0.76596000  0.68662000  1.0
  C  C118  1  0.89830000  0.28660000  0.29606000  1.0
  C  C119  1  0.35647000  0.71575000  0.70068000  1.0
  C  C120  1  0.89776000  0.32652000  0.23297000  1.0
  C  C121  1  0.33678000  0.67563000  0.76305000  1.0
  C  C122  1  0.86375000  0.27872000  0.18039000  1.0
  C  C123  1  0.33884000  0.72392000  0.81639000  1.0
  C  C124  1  0.92390000  0.33103000  0.34305000  1.0
  C  C125  1  0.38280000  0.67004000  0.65422000  1.0
  C  C126  1  0.81580000  0.16189000  0.16341000  1.0
  C  C127  1  0.33034000  0.84119000  0.83613000  1.0
  C  C128  1  0.82752000  0.12395000  0.12387000  1.0
  C  C129  1  0.34374000  0.87768000  0.87659000  1.0
  C  C130  1  0.35555000  0.92252000  0.08352000  1.0
  C  C131  1  0.85627000  0.08189000  0.91874000  1.0
  C  C132  1  0.35150000  0.92200000  0.92415000  1.0
  C  C133  1  0.84170000  0.07813000  0.07746000  1.0
  C  C134  1  0.21056000  0.27061000  0.13263000  1.0
  C  C135  1  0.69992000  0.71158000  0.85184000  1.0
  C  C136  1  0.45566000  0.34574000  0.31068000  1.0
  C  C137  1  0.95781000  0.67360000  0.64955000  1.0
  C  C138  1  0.08182000  0.41755000  0.18144000  1.0
  C  C139  1  0.46774000  0.57414000  0.81344000  1.0
  C  C140  1  0.07651000  0.50815000  0.68610000  1.0
  C  C141  1  0.68913000  0.51035000  0.31098000  1.0
  C  C142  1  0.30889000  0.11793000  0.75835000  1.0
  C  C143  1  0.73847000  0.85763000  0.30328000  1.0
  C  C144  1  0.58827000  0.16494000  0.39507000  1.0
  C  C145  1  0.22525000  0.79051000  0.57648000  1.0
  N  N146  1  0.99868000  0.28617000  0.13083000  1.0
  N  N147  1  0.48449000  0.70906000  0.86085000  1.0
  N  N148  1  0.52455000  0.28125000  0.33150000  1.0
  N  N149  1  0.98840000  0.73485000  0.67836000  1.0
  N  N150  1  0.07163000  0.36387000  0.22704000  1.0
  N  N151  1  0.48300000  0.62641000  0.76674000  1.0
  N  N152  1  0.14536000  0.44172000  0.70044000  1.0
  N  N153  1  0.72676000  0.57996000  0.31557000  1.0
  N  N154  1  0.48186000  0.12705000  0.71832000  1.0
  N  N155  1  0.89962000  0.85042000  0.26063000  1.0
  N  N156  1  0.74399000  0.20433000  0.36522000  1.0
  N  N157  1  0.21140000  0.81279000  0.63693000  1.0
  O  O158  1  0.57850000  0.55621000  0.43411000  1.0
  O  O159  1  0.08186000  0.45014000  0.56984000  1.0
  O  O160  1  0.24972000  0.56942000  0.54929000  1.0
  O  O161  1  0.74842000  0.43482000  0.44404000  1.0
  O  O162  1  0.24438000  0.55121000  0.43005000  1.0
  O  O163  1  0.74787000  0.44362000  0.56390000  1.0
  O  O164  1  0.08676000  0.43115000  0.44965000  1.0
  O  O165  1  0.58785000  0.56367000  0.55545000  1.0
  O  O166  1  0.41488000  0.46096000  0.50591000  1.0
  O  O167  1  0.91389000  0.53952000  0.49231000  1.0
  O  O168  1  0.18436000  0.93992000  0.94504000  1.0
  O  O169  1  0.67935000  0.06155000  0.05482000  1.0
  O  O170  1  0.52069000  0.94111000  0.06085000  1.0
  O  O171  1  0.02042000  0.06610000  0.94329000  1.0
  O  O172  1  0.52329000  0.93842000  0.94069000  1.0
  O  O173  1  0.01548000  0.05920000  0.06338000  1.0
  O  O174  1  0.68569000  0.05903000  0.93287000  1.0
  O  O175  1  0.18468000  0.94284000  0.06726000  1.0
  O  O176  1  0.35238000  0.04026000  0.99666000  1.0
  O  O177  1  0.85478000  0.96122000  0.00114000  1.0
  F  F178  1  0.63596000  0.13880000  0.27233000  1.0
  F  F179  1  0.16222000  0.87530000  0.72836000  1.0
  F  F180  1  0.13323000  0.20769000  0.34438000  1.0
  F  F181  1  0.60731000  0.78383000  0.64942000  1.0
  F  F182  1  0.68052000  0.29466000  0.15384000  1.0
  F  F183  1  0.15981000  0.71695000  0.84879000  1.0
  F  F184  1  0.72909000  0.36930000  0.23118000  1.0
  F  F185  1  0.14170000  0.64737000  0.76566000  1.0
  F  F186  1  0.48617000  0.22254000  0.22822000  1.0
  F  F187  1  0.98370000  0.79932000  0.77379000  1.0
  F  F188  1  0.28151000  0.28342000  0.87464000  1.0
  F  F189  1  0.85037000  0.74250000  0.14256000  1.0
  F  F190  1  0.50323000  0.22906000  0.63422000  1.0
  F  F191  1  0.92814000  0.74683000  0.34928000  1.0
