# generated using pymatgen
data_NiH18C12S4(NO)2
_symmetry_space_group_name_H-M   'P 1'
_cell_length_a   6.59798000
_cell_length_b   6.93138000
_cell_length_c   9.97278000
_cell_angle_alpha   102.56600000
_cell_angle_beta   100.79400000
_cell_angle_gamma   103.66800000
_symmetry_Int_Tables_number   1
_chemical_formula_structural   NiH18C12S4(NO)2
_chemical_formula_sum   'Ni1 H18 C12 S4 N2 O2'
_cell_volume   418.63182697
_cell_formula_units_Z   1
loop_
 _symmetry_equiv_pos_site_id
 _symmetry_equiv_pos_as_xyz
  1  'x, y, z'
loop_
 _atom_site_type_symbol
 _atom_site_label
 _atom_site_symmetry_multiplicity
 _atom_site_fract_x
 _atom_site_fract_y
 _atom_site_fract_z
 _atom_site_occupancy
  Ni  Ni0  1  0.00001000  0.00000000  0.00000000  1.0
  H  H1  1  0.19603000  0.05721000  0.51352000  1.0
  H  H2  1  0.80397000  0.94279000  0.48649000  1.0
  H  H3  1  0.59780000  0.14755000  0.62142000  1.0
  H  H4  1  0.40221000  0.85247000  0.37859000  1.0
  H  H5  1  0.60332000  0.41131000  0.68393000  1.0
  H  H6  1  0.39666000  0.58871000  0.31608000  1.0
  H  H7  1  0.45430000  0.21675000  0.74816000  1.0
  H  H8  1  0.54569000  0.78326000  0.25185000  1.0
  H  H9  1  0.28848000  0.53006000  0.59873000  1.0
  H  H10  1  0.71150000  0.46993000  0.40127000  1.0
  H  H11  1  0.04551000  0.35009000  0.48167000  1.0
  H  H12  1  0.95448000  0.64989000  0.51832000  1.0
  H  H13  1  0.11576000  0.35056000  0.66189000  1.0
  H  H14  1  0.88422000  0.64943000  0.33811000  1.0
  H  H15  1  0.73194000  0.28463000  0.08422000  1.0
  H  H16  1  0.26808000  0.71537000  0.91577000  1.0
  H  H17  1  0.27123000  0.35426000  0.92055000  1.0
  H  H18  1  0.72878000  0.64574000  0.07945000  1.0
  C  C19  1  0.25152000  0.14810000  0.27970000  1.0
  C  C20  1  0.74849000  0.85190000  0.72030000  1.0
  C  C21  1  0.30305000  0.21531000  0.53778000  1.0
  C  C22  1  0.69695000  0.78469000  0.46222000  1.0
  C  C23  1  0.50262000  0.25053000  0.65429000  1.0
  C  C24  1  0.49737000  0.74949000  0.34572000  1.0
  C  C25  1  0.18130000  0.37228000  0.57102000  1.0
  C  C26  1  0.81869000  0.62771000  0.42898000  1.0
  C  C27  1  0.85155000  0.38036000  0.04573000  1.0
  C  C28  1  0.14844000  0.61963000  0.95427000  1.0
  C  C29  1  0.14962000  0.41971000  0.95623000  1.0
  C  C30  1  0.85038000  0.58031000  0.04377000  1.0
  S  S31  1  0.36857000  0.13255000  0.14111000  1.0
  S  S32  1  0.63144000  0.86746000  0.85889000  1.0
  S  S33  1  0.97896000  0.06430000  0.24437000  1.0
  S  S34  1  0.02104000  0.93569000  0.75562000  1.0
  N  N35  1  0.00125000  0.29889000  0.00152000  1.0
  N  N36  1  0.99877000  0.70111000  0.99847000  1.0
  O  O37  1  0.38385000  0.22623000  0.40946000  1.0
  O  O38  1  0.61615000  0.77376000  0.59055000  1.0
