# generated using pymatgen
data_CuH10C10Br2(NO)2
_symmetry_space_group_name_H-M   'P 1'
_cell_length_a   3.99491000
_cell_length_b   8.61502166
_cell_length_c   17.95420000
_cell_angle_alpha   89.99741095
_cell_angle_beta   89.99160000
_cell_angle_gamma   77.19488501
_symmetry_Int_Tables_number   1
_chemical_formula_structural   CuH10C10Br2(NO)2
_chemical_formula_sum   'Cu2 H20 C20 Br4 N4 O4'
_cell_volume   602.54814626
_cell_formula_units_Z   2
loop_
 _symmetry_equiv_pos_site_id
 _symmetry_equiv_pos_as_xyz
  1  'x, y, z'
loop_
 _atom_site_type_symbol
 _atom_site_label
 _atom_site_symmetry_multiplicity
 _atom_site_fract_x
 _atom_site_fract_y
 _atom_site_fract_z
 _atom_site_occupancy
  Cu  Cu0  1  0.99999000  0.50001000  0.50000000  1.0
  Cu  Cu1  1  0.99999000  0.00000000  1.00000000  1.0
  H  H2  1  0.23695000  0.51595000  0.65403000  1.0
  H  H3  1  0.76306000  0.98406000  0.15404000  1.0
  H  H4  1  0.76306000  0.48406000  0.34596000  1.0
  H  H5  1  0.23693000  0.01594000  0.84596000  1.0
  H  H6  1  0.02688000  0.75455000  0.81469000  1.0
  H  H7  1  0.97317000  0.74548000  0.31470000  1.0
  H  H8  1  0.97313000  0.24545000  0.18531000  1.0
  H  H9  1  0.02686000  0.25452000  0.68530000  1.0
  H  H10  1  0.67649000  0.96633000  0.74153000  1.0
  H  H11  1  0.32352000  0.53367000  0.24153000  1.0
  H  H12  1  0.32351000  0.03366000  0.25847000  1.0
  H  H13  1  0.67649000  0.46633000  0.75847000  1.0
  H  H14  1  0.41897000  0.02586000  0.61528000  1.0
  H  H15  1  0.58104000  0.47414000  0.11526000  1.0
  H  H16  1  0.58100000  0.97415000  0.38473000  1.0
  H  H17  1  0.41897000  0.52586000  0.88474000  1.0
  H  H18  1  0.59240000  0.82759000  0.51228000  1.0
  H  H19  1  0.40758000  0.67243000  0.01226000  1.0
  H  H20  1  0.40754000  0.17243000  0.48773000  1.0
  H  H21  1  0.59240000  0.32758000  0.98774000  1.0
  C  C22  1  0.05913000  0.63088000  0.64720000  1.0
  C  C23  1  0.94087000  0.86913000  0.14720000  1.0
  C  C24  1  0.94085000  0.36914000  0.35280000  1.0
  C  C25  1  0.05913000  0.13086000  0.85281000  1.0
  C  C26  1  0.98436000  0.73749000  0.70693000  1.0
  C  C27  1  0.01561000  0.76253000  0.20693000  1.0
  C  C28  1  0.01563000  0.26252000  0.29307000  1.0
  C  C29  1  0.98437000  0.23747000  0.79307000  1.0
  C  C30  1  0.74742000  0.88178000  0.69609000  1.0
  C  C31  1  0.25261000  0.61822000  0.19608000  1.0
  C  C32  1  0.25257000  0.11822000  0.30391000  1.0
  C  C33  1  0.74740000  0.38177000  0.80392000  1.0
  C  C34  1  0.60523000  0.91511000  0.62564000  1.0
  C  C35  1  0.39476000  0.58489000  0.12563000  1.0
  C  C36  1  0.39474000  0.08489000  0.37436000  1.0
  C  C37  1  0.60524000  0.41511000  0.87437000  1.0
  C  C38  1  0.69853000  0.80605000  0.56807000  1.0
  C  C39  1  0.30146000  0.69396000  0.06805000  1.0
  C  C40  1  0.30144000  0.19396000  0.43194000  1.0
  C  C41  1  0.69853000  0.30604000  0.93195000  1.0
  Br  Br42  1  0.25907000  0.67675000  0.42000000  1.0
  Br  Br43  1  0.74114000  0.82321000  0.92002000  1.0
  Br  Br44  1  0.74107000  0.32321000  0.58000000  1.0
  Br  Br45  1  0.25889000  0.17677000  0.07998000  1.0
  N  N46  1  0.91828000  0.66516000  0.57961000  1.0
  N  N47  1  0.08169000  0.83484000  0.07961000  1.0
  N  N48  1  0.08169000  0.33485000  0.42038000  1.0
  N  N49  1  0.91829000  0.16515000  0.92039000  1.0
  O  O50  1  0.14891000  0.69256000  0.77203000  1.0
  O  O51  1  0.85111000  0.80745000  0.27205000  1.0
  O  O52  1  0.85111000  0.30745000  0.22797000  1.0
  O  O53  1  0.14892000  0.19253000  0.72796000  1.0
