# generated using pymatgen
data_AlH9C14SNO8
_symmetry_space_group_name_H-M   'P 1'
_cell_length_a   6.67966000
_cell_length_b   10.93340000
_cell_length_c   17.60930000
_cell_angle_alpha   93.27070000
_cell_angle_beta   98.42120000
_cell_angle_gamma   104.16210000
_symmetry_Int_Tables_number   1
_chemical_formula_structural   AlH9C14SNO8
_chemical_formula_sum   'Al2 H18 C28 S2 N2 O16'
_cell_volume   1227.70406061
_cell_formula_units_Z   2
loop_
 _symmetry_equiv_pos_site_id
 _symmetry_equiv_pos_as_xyz
  1  'x, y, z'
loop_
 _atom_site_type_symbol
 _atom_site_label
 _atom_site_symmetry_multiplicity
 _atom_site_fract_x
 _atom_site_fract_y
 _atom_site_fract_z
 _atom_site_occupancy
  Al  Al0  1  0.49811000  0.50245000  0.50141000  1.0
  Al  Al1  1  0.99720000  0.50221000  0.50230000  1.0
  H  H2  1  0.24885000  0.58657000  0.42150000  1.0
  H  H3  1  0.73865000  0.39899000  0.57396000  1.0
  H  H4  1  0.68271000  0.52147000  0.72106000  1.0
  H  H5  1  0.77918000  0.52353000  0.86371000  1.0
  H  H6  1  0.03232000  0.44414000  0.74274000  1.0
  H  H7  1  0.94219000  0.45237000  0.26438000  1.0
  H  H8  1  0.37652000  0.56954000  0.27556000  1.0
  H  H9  1  0.31457000  0.56956000  0.13207000  1.0
  H  H10  1  0.18441000  0.79007000  0.62629000  1.0
  H  H11  1  0.45790000  0.23960000  0.58339000  1.0
  H  H12  1  0.77244000  0.11641000  0.43313000  1.0
  H  H13  1  0.63848000  0.88678000  0.45040000  1.0
  H  H14  1  0.13958000  0.39078000  0.94681000  1.0
  H  H15  1  0.95458000  0.35107000  0.86602000  1.0
  H  H16  1  0.86464000  0.42776000  0.05283000  1.0
  H  H17  1  0.01687000  0.40038000  0.13485000  1.0
  H  H18  1  0.65690000  0.76861000  0.62822000  1.0
  H  H19  1  0.62690000  0.29346000  0.77163000  1.0
  C  C20  1  0.84830000  0.73508000  0.52216000  1.0
  C  C21  1  0.69927000  0.50618000  0.36282000  1.0
  C  C22  1  0.14490000  0.27208000  0.48760000  1.0
  C  C23  1  0.30134000  0.49758000  0.64048000  1.0
  C  C24  1  0.35035000  0.48265000  0.72417000  1.0
  C  C25  1  0.56234000  0.50000000  0.75727000  1.0
  C  C26  1  0.61532000  0.50086000  0.83641000  1.0
  C  C27  1  0.45903000  0.47661000  0.88362000  1.0
  C  C28  1  0.24395000  0.44657000  0.84891000  1.0
  C  C29  1  0.19426000  0.45676000  0.76958000  1.0
  C  C30  1  0.51138000  0.48405000  0.96458000  1.0
  C  C31  1  0.54422000  0.49581000  0.03526000  1.0
  C  C32  1  0.58756000  0.50545000  0.11650000  1.0
  C  C33  1  0.77111000  0.47456000  0.15383000  1.0
  C  C34  1  0.80477000  0.47723000  0.23450000  1.0
  C  C35  1  0.66190000  0.50880000  0.27769000  1.0
  C  C36  1  0.48423000  0.54263000  0.24107000  1.0
  C  C37  1  0.44986000  0.54204000  0.16148000  1.0
  C  C38  1  0.92022000  0.87571000  0.52191000  1.0
  C  C39  1  0.12276000  0.94355000  0.56106000  1.0
  C  C40  1  0.79568000  0.93876000  0.47803000  1.0
  C  C41  1  0.24382000  0.88801000  0.61512000  1.0
  C  C42  1  0.43480000  0.95523000  0.65614000  1.0
  C  C43  1  0.07464000  0.13396000  0.49939000  1.0
  C  C44  1  0.87224000  0.06741000  0.46732000  1.0
  C  C45  1  0.20136000  0.07364000  0.54908000  1.0
  C  C46  1  0.39779000  0.14078000  0.59170000  1.0
  C  C47  1  0.51310000  0.08481000  0.64391000  1.0
  S  S48  1  0.56024000  0.86644000  0.72179000  1.0
  S  S49  1  0.75258000  0.18949000  0.69179000  1.0
  N  N50  1  0.08853000  0.41333000  0.89343000  1.0
  N  N51  1  0.91181000  0.44568000  0.11074000  1.0
  O  O52  1  0.65839000  0.68576000  0.52973000  1.0
  O  O53  1  0.87661000  0.49429000  0.39460000  1.0
  O  O54  1  0.00080000  0.32957000  0.48731000  1.0
  O  O55  1  0.45178000  0.49658000  0.60326000  1.0
  O  O56  1  0.33431000  0.32131000  0.48084000  1.0
  O  O57  1  0.12275000  0.50979000  0.61030000  1.0
  O  O58  1  0.98479000  0.67581000  0.51193000  1.0
  O  O59  1  0.54983000  0.51712000  0.39871000  1.0
  O  O60  1  0.25993000  0.55905000  0.47298000  1.0
  O  O61  1  0.73624000  0.44911000  0.52973000  1.0
  O  O62  1  0.72687000  0.82976000  0.67413000  1.0
  O  O63  1  0.67856000  0.94652000  0.78849000  1.0
  O  O64  1  0.40336000  0.75324000  0.72916000  1.0
  O  O65  1  0.70129000  0.22521000  0.77583000  1.0
  O  O66  1  0.91810000  0.12761000  0.70309000  1.0
  O  O67  1  0.78002000  0.30436000  0.65336000  1.0
