# generated using pymatgen
data_Cd5H42C68(N2O9)2
_symmetry_space_group_name_H-M   'P 1'
_cell_length_a   7.86770000
_cell_length_b   13.51530000
_cell_length_c   14.83850000
_cell_angle_alpha   66.60390000
_cell_angle_beta   78.89810000
_cell_angle_gamma   86.89800000
_symmetry_Int_Tables_number   1
_chemical_formula_structural   Cd5H42C68(N2O9)2
_chemical_formula_sum   'Cd5 H42 C68 N4 O18'
_cell_volume   1420.57721656
_cell_formula_units_Z   1
loop_
 _symmetry_equiv_pos_site_id
 _symmetry_equiv_pos_as_xyz
  1  'x, y, z'
loop_
 _atom_site_type_symbol
 _atom_site_label
 _atom_site_symmetry_multiplicity
 _atom_site_fract_x
 _atom_site_fract_y
 _atom_site_fract_z
 _atom_site_occupancy
  Cd  Cd0  1  0.58366000  0.11356000  0.11214000  1.0
  Cd  Cd1  1  0.41633000  0.88644000  0.88785000  1.0
  Cd  Cd2  1  0.26495000  0.86019000  0.16651000  1.0
  Cd  Cd3  1  0.73506000  0.13981000  0.83349000  1.0
  Cd  Cd4  1  0.00000000  0.00000000  0.00000000  1.0
  H  H5  1  0.65678000  0.97470000  0.02588000  1.0
  H  H6  1  0.34322000  0.02530000  0.97411000  1.0
  H  H7  1  0.02677000  0.45188000  0.71243000  1.0
  H  H8  1  0.97322000  0.54812000  0.28758000  1.0
  H  H9  1  0.22799000  0.61174000  0.64079000  1.0
  H  H10  1  0.77200000  0.38826000  0.35921000  1.0
  H  H11  1  0.65608000  0.35301000  0.89647000  1.0
  H  H12  1  0.34392000  0.64699000  0.10353000  1.0
  H  H13  1  0.85164000  0.51215000  0.82825000  1.0
  H  H14  1  0.14835000  0.48786000  0.17175000  1.0
  H  H15  1  0.77823000  0.68222000  0.69716000  1.0
  H  H16  1  0.22177000  0.31778000  0.30284000  1.0
  H  H17  1  0.50605000  0.69279000  0.63179000  1.0
  H  H18  1  0.49394000  0.30721000  0.36821000  1.0
  H  H19  1  0.71111000  0.88567000  0.40919000  1.0
  H  H20  1  0.28889000  0.11432000  0.59081000  1.0
  H  H21  1  0.77618000  0.82036000  0.58070000  1.0
  H  H22  1  0.22381000  0.17963000  0.41930000  1.0
  H  H23  1  0.45561000  0.95848000  0.39486000  1.0
  H  H24  1  0.54438000  0.04153000  0.60514000  1.0
  H  H25  1  0.52019000  0.88861000  0.56496000  1.0
  H  H26  1  0.47981000  0.11139000  0.43503000  1.0
  H  H27  1  0.28806000  0.80639000  0.71330000  1.0
  H  H28  1  0.71195000  0.19360000  0.28670000  1.0
  H  H29  1  0.98588000  0.79139000  0.69150000  1.0
  H  H30  1  0.01412000  0.20861000  0.30850000  1.0
  H  H31  1  0.96708000  0.17695000  0.10711000  1.0
  H  H32  1  0.03292000  0.82305000  0.89289000  1.0
  H  H33  1  0.15733000  0.33514000  0.04460000  1.0
  H  H34  1  0.84266000  0.66486000  0.95541000  1.0
  H  H35  1  0.69640000  0.52970000  0.02236000  1.0
  H  H36  1  0.30360000  0.47030000  0.97764000  1.0
  H  H37  1  0.52428000  0.35980000  0.08653000  1.0
  H  H38  1  0.47572000  0.64020000  0.91347000  1.0
  H  H39  1  0.11090000  0.63362000  0.35221000  1.0
  H  H40  1  0.88911000  0.36639000  0.64779000  1.0
  H  H41  1  0.21435000  0.47287000  0.48115000  1.0
  H  H42  1  0.78566000  0.52713000  0.51885000  1.0
  H  H43  1  0.68538000  0.65726000  0.42446000  1.0
  H  H44  1  0.31463000  0.34275000  0.57554000  1.0
  H  H45  1  0.56102000  0.80800000  0.29788000  1.0
  H  H46  1  0.43898000  0.19200000  0.70212000  1.0
  C  C47  1  0.39563000  0.23862000  0.92583000  1.0
  C  C48  1  0.60437000  0.76138000  0.07417000  1.0
  C  C49  1  0.06171000  0.25658000  0.85331000  1.0
  C  C50  1  0.93829000  0.74341000  0.14669000  1.0
  C  C51  1  0.34208000  0.34179000  0.84825000  1.0
  C  C52  1  0.65792000  0.65822000  0.15175000  1.0
  C  C53  1  0.18825000  0.35018000  0.81286000  1.0
  C  C54  1  0.81175000  0.64982000  0.18715000  1.0
  C  C55  1  0.14916000  0.44816000  0.73735000  1.0
  C  C56  1  0.85083000  0.55184000  0.26265000  1.0
  C  C57  1  0.26045000  0.53622000  0.69770000  1.0
  C  C58  1  0.73955000  0.46378000  0.30230000  1.0
  C  C59  1  0.41964000  0.53022000  0.73082000  1.0
  C  C60  1  0.58035000  0.46977000  0.26918000  1.0
  C  C61  1  0.46137000  0.43172000  0.80732000  1.0
  C  C62  1  0.53863000  0.56828000  0.19268000  1.0
  C  C63  1  0.62113000  0.42734000  0.83964000  1.0
  C  C64  1  0.37887000  0.57266000  0.16036000  1.0
  C  C65  1  0.73119000  0.51631000  0.80119000  1.0
  C  C66  1  0.26881000  0.48370000  0.19881000  1.0
  C  C67  1  0.68993000  0.61284000  0.72608000  1.0
  C  C68  1  0.31007000  0.38716000  0.27392000  1.0
  C  C69  1  0.53846000  0.61905000  0.69056000  1.0
  C  C70  1  0.46153000  0.38094000  0.30944000  1.0
  C  C71  1  0.91518000  0.98421000  0.23560000  1.0
  C  C72  1  0.08482000  0.01578000  0.76440000  1.0
  C  C73  1  0.27914000  0.02733000  0.26363000  1.0
  C  C74  1  0.72086000  0.97267000  0.73636000  1.0
  C  C75  1  0.13859000  0.95762000  0.34658000  1.0
  C  C76  1  0.86141000  0.04239000  0.65342000  1.0
  C  C77  1  0.97106000  0.94354000  0.33509000  1.0
  C  C78  1  0.02894000  0.05645000  0.66491000  1.0
  C  C79  1  0.84192000  0.89164000  0.42090000  1.0
  C  C80  1  0.15808000  0.10835000  0.57910000  1.0
  C  C81  1  0.87849000  0.85418000  0.51535000  1.0
  C  C82  1  0.12151000  0.14581000  0.48465000  1.0
  C  C83  1  0.04913000  0.86247000  0.52988000  1.0
  C  C84  1  0.95087000  0.13754000  0.47012000  1.0
  C  C85  1  0.18193000  0.91348000  0.44410000  1.0
  C  C86  1  0.81807000  0.08652000  0.55590000  1.0
  C  C87  1  0.35282000  0.92027000  0.45926000  1.0
  C  C88  1  0.64718000  0.07974000  0.54074000  1.0
  C  C89  1  0.38924000  0.88070000  0.55437000  1.0
  C  C90  1  0.61076000  0.11930000  0.44563000  1.0
  C  C91  1  0.25712000  0.83371000  0.63891000  1.0
  C  C92  1  0.74288000  0.16629000  0.36109000  1.0
  C  C93  1  0.09023000  0.82457000  0.62682000  1.0
  C  C94  1  0.90976000  0.17542000  0.37318000  1.0
  C  C95  1  0.91119000  0.25639000  0.08828000  1.0
  C  C96  1  0.08881000  0.74361000  0.91171000  1.0
  C  C97  1  0.01817000  0.34757000  0.05231000  1.0
  C  C98  1  0.98183000  0.65243000  0.94769000  1.0
  C  C99  1  0.94531000  0.45012000  0.02331000  1.0
  C  C100  1  0.05469000  0.54988000  0.97670000  1.0
  C  C101  1  0.76336000  0.45372000  0.03954000  1.0
  C  C102  1  0.23664000  0.54628000  0.96047000  1.0
  C  C103  1  0.66514000  0.35896000  0.07602000  1.0
  C  C104  1  0.33486000  0.64104000  0.92398000  1.0
  C  C105  1  0.23701000  0.63457000  0.37187000  1.0
  C  C106  1  0.76300000  0.36544000  0.62812000  1.0
  C  C107  1  0.29715000  0.54507000  0.44366000  1.0
  C  C108  1  0.70285000  0.45494000  0.55634000  1.0
  C  C109  1  0.46351000  0.54795000  0.46419000  1.0
  C  C110  1  0.53649000  0.45205000  0.53582000  1.0
  C  C111  1  0.55681000  0.64634000  0.41239000  1.0
  C  C112  1  0.44319000  0.35367000  0.58760000  1.0
  C  C113  1  0.48794000  0.73227000  0.34114000  1.0
  C  C114  1  0.51206000  0.26774000  0.65885000  1.0
  N  N115  1  0.73744000  0.26141000  0.09773000  1.0
  N  N116  1  0.26255000  0.73859000  0.90227000  1.0
  N  N117  1  0.33147000  0.72651000  0.31942000  1.0
  N  N118  1  0.66854000  0.27349000  0.68058000  1.0
  O  O119  1  0.40285000  0.23895000  0.01053000  1.0
  O  O120  1  0.59715000  0.76104000  0.98947000  1.0
  O  O121  1  0.44391000  0.16234000  0.89743000  1.0
  O  O122  1  0.55609000  0.83765000  0.10256000  1.0
  O  O123  1  0.07675000  0.18094000  0.93551000  1.0
  O  O124  1  0.92326000  0.81905000  0.06449000  1.0
  O  O125  1  0.94700000  0.26203000  0.80108000  1.0
  O  O126  1  0.05300000  0.73797000  0.19892000  1.0
  O  O127  1  0.03151000  0.98982000  0.15951000  1.0
  O  O128  1  0.96849000  0.01018000  0.84049000  1.0
  O  O129  1  0.75886000  0.00968000  0.23303000  1.0
  O  O130  1  0.24114000  0.99031000  0.76697000  1.0
  O  O131  1  0.37920000  0.98289000  0.21011000  1.0
  O  O132  1  0.62080000  0.01711000  0.78989000  1.0
  O  O133  1  0.30572000  0.12148000  0.25409000  1.0
  O  O134  1  0.69428000  0.87852000  0.74591000  1.0
  O  O135  1  0.71869000  0.04482000  0.00275000  1.0
  O  O136  1  0.28132000  0.95518000  0.99725000  1.0
