# generated using pymatgen
data_ZnH24C10(N2Cl)2
_symmetry_space_group_name_H-M   'P 1'
_cell_length_a   6.04048000
_cell_length_b   7.52282000
_cell_length_c   18.41230000
_cell_angle_alpha   83.25710000
_cell_angle_beta   89.99400000
_cell_angle_gamma   66.33700000
_symmetry_Int_Tables_number   1
_chemical_formula_structural   ZnH24C10(N2Cl)2
_chemical_formula_sum   'Zn2 H48 C20 N8 Cl4'
_cell_volume   760.01670500
_cell_formula_units_Z   2
loop_
 _symmetry_equiv_pos_site_id
 _symmetry_equiv_pos_as_xyz
  1  'x, y, z'
loop_
 _atom_site_type_symbol
 _atom_site_label
 _atom_site_symmetry_multiplicity
 _atom_site_fract_x
 _atom_site_fract_y
 _atom_site_fract_z
 _atom_site_occupancy
  Zn  Zn0  1  0.16932000  0.00011000  0.24998000  1.0
  Zn  Zn1  1  0.83067000  0.99989000  0.75002000  1.0
  H  H2  1  0.18349000  0.24619000  0.55994000  1.0
  H  H3  1  0.43020000  0.75364000  0.93992000  1.0
  H  H4  1  0.81653000  0.75382000  0.44007000  1.0
  H  H5  1  0.56979000  0.24635000  0.06008000  1.0
  H  H6  1  0.86353000  0.33532000  0.28257000  1.0
  H  H7  1  0.19898000  0.66479000  0.21736000  1.0
  H  H8  1  0.13644000  0.66469000  0.71742000  1.0
  H  H9  1  0.80102000  0.33522000  0.78263000  1.0
  H  H10  1  0.71845000  0.23714000  0.23727000  1.0
  H  H11  1  0.95562000  0.76285000  0.26263000  1.0
  H  H12  1  0.28152000  0.76283000  0.76272000  1.0
  H  H13  1  0.04439000  0.23713000  0.73736000  1.0
  H  H14  1  0.30751000  0.51511000  0.52284000  1.0
  H  H15  1  0.82270000  0.48440000  0.97716000  1.0
  H  H16  1  0.69250000  0.48492000  0.47717000  1.0
  H  H17  1  0.17729000  0.51558000  0.02284000  1.0
  H  H18  1  0.53791000  0.20579000  0.47962000  1.0
  H  H19  1  0.74403000  0.79415000  0.02026000  1.0
  H  H20  1  0.46211000  0.79424000  0.52039000  1.0
  H  H21  1  0.25596000  0.20583000  0.97973000  1.0
  H  H22  1  0.73773000  0.01017000  0.34528000  1.0
  H  H23  1  0.74827000  0.98986000  0.15456000  1.0
  H  H24  1  0.26224000  0.98984000  0.65472000  1.0
  H  H25  1  0.25173000  0.01013000  0.84543000  1.0
  H  H26  1  0.38294000  0.10109000  0.42836000  1.0
  H  H27  1  0.48447000  0.89902000  0.07146000  1.0
  H  H28  1  0.61708000  0.89893000  0.57165000  1.0
  H  H29  1  0.51552000  0.10097000  0.92853000  1.0
  H  H30  1  0.50405000  0.44506000  0.36386000  1.0
  H  H31  1  0.94939000  0.55493000  0.13599000  1.0
  H  H32  1  0.49596000  0.55495000  0.63614000  1.0
  H  H33  1  0.05059000  0.44506000  0.86401000  1.0
  H  H34  1  0.87593000  0.13304000  0.39355000  1.0
  H  H35  1  0.00944000  0.86689000  0.10636000  1.0
  H  H36  1  0.12408000  0.86695000  0.60644000  1.0
  H  H37  1  0.99059000  0.13307000  0.89363000  1.0
  H  H38  1  0.25727000  0.62529000  0.42952000  1.0
  H  H39  1  0.88237000  0.37465000  0.07052000  1.0
  H  H40  1  0.74274000  0.37474000  0.57048000  1.0
  H  H41  1  0.11763000  0.62533000  0.92948000  1.0
  H  H42  1  0.36888000  0.31834000  0.31648000  1.0
  H  H43  1  0.68746000  0.68163000  0.18337000  1.0
  H  H44  1  0.63111000  0.68166000  0.68353000  1.0
  H  H45  1  0.31254000  0.31836000  0.81662000  1.0
  H  H46  1  0.04459000  0.16763000  0.49221000  1.0
  H  H47  1  0.21266000  0.83259000  0.00763000  1.0
  H  H48  1  0.95543000  0.83240000  0.50780000  1.0
  H  H49  1  0.78733000  0.16739000  0.99238000  1.0
  C  C50  1  0.40208000  0.23857000  0.43360000  1.0
  C  C51  1  0.64095000  0.76149000  0.06627000  1.0
  C  C52  1  0.59794000  0.76147000  0.56640000  1.0
  C  C53  1  0.35905000  0.23851000  0.93373000  1.0
  C  C54  1  0.18355000  0.55642000  0.47337000  1.0
  C  C55  1  0.73989000  0.44341000  0.02666000  1.0
  C  C56  1  0.81646000  0.44360000  0.52664000  1.0
  C  C57  1  0.26010000  0.55657000  0.97334000  1.0
  C  C58  1  0.74532000  0.15244000  0.34866000  1.0
  C  C59  1  0.89802000  0.84752000  0.15122000  1.0
  C  C60  1  0.25468000  0.84756000  0.65135000  1.0
  C  C61  1  0.10198000  0.15248000  0.84877000  1.0
  C  C62  1  0.49537000  0.30214000  0.36253000  1.0
  C  C63  1  0.79781000  0.69783000  0.13733000  1.0
  C  C64  1  0.50464000  0.69787000  0.63747000  1.0
  C  C65  1  0.20218000  0.30216000  0.86267000  1.0
  C  C66  1  0.06294000  0.29653000  0.50950000  1.0
  C  C67  1  0.35975000  0.70356000  0.99038000  1.0
  C  C68  1  0.93708000  0.70350000  0.49051000  1.0
  C  C69  1  0.64023000  0.29643000  0.00962000  1.0
  N  N70  1  0.84365000  0.20726000  0.27975000  1.0
  N  N71  1  0.05099000  0.79278000  0.22015000  1.0
  N  N72  1  0.15632000  0.79273000  0.72024000  1.0
  N  N73  1  0.94905000  0.20719000  0.77983000  1.0
  N  N74  1  0.16646000  0.38191000  0.45058000  1.0
  N  N75  1  0.54845000  0.61821000  0.04933000  1.0
  N  N76  1  0.83356000  0.61812000  0.54943000  1.0
  N  N77  1  0.45154000  0.38178000  0.95068000  1.0
  Cl  Cl78  1  0.47290000  0.81023000  0.33147000  1.0
  Cl  Cl79  1  0.28340000  0.18987000  0.16851000  1.0
  Cl  Cl80  1  0.52708000  0.18978000  0.66853000  1.0
  Cl  Cl81  1  0.71661000  0.81013000  0.83149000  1.0
