# generated using pymatgen
data_CuH12C14IN4
_symmetry_space_group_name_H-M   'P 1'
_cell_length_a   10.00330000
_cell_length_b   11.62450000
_cell_length_c   13.80120000
_cell_angle_alpha   95.66330000
_cell_angle_beta   90.22680000
_cell_angle_gamma   94.06990000
_symmetry_Int_Tables_number   1
_chemical_formula_structural   CuH12C14IN4
_chemical_formula_sum   'Cu4 H48 C56 I4 N16'
_cell_volume   1592.89212569
_cell_formula_units_Z   4
loop_
 _symmetry_equiv_pos_site_id
 _symmetry_equiv_pos_as_xyz
  1  'x, y, z'
loop_
 _atom_site_type_symbol
 _atom_site_label
 _atom_site_symmetry_multiplicity
 _atom_site_fract_x
 _atom_site_fract_y
 _atom_site_fract_z
 _atom_site_occupancy
  Cu  Cu0  1  0.11952000  0.53499000  0.54091000  1.0
  Cu  Cu1  1  0.88048000  0.46501000  0.45909000  1.0
  Cu  Cu2  1  0.62323000  0.53828000  0.96597000  1.0
  Cu  Cu3  1  0.37676000  0.46172000  0.03403000  1.0
  H  H4  1  0.29128000  0.70021000  0.44017000  1.0
  H  H5  1  0.70872000  0.29979000  0.55984000  1.0
  H  H6  1  0.50053000  0.70303000  0.34158000  1.0
  H  H7  1  0.49947000  0.29697000  0.65842000  1.0
  H  H8  1  0.50903000  0.33635000  0.36957000  1.0
  H  H9  1  0.49097000  0.66365000  0.63043000  1.0
  H  H10  1  0.29836000  0.34902000  0.46461000  1.0
  H  H11  1  0.70164000  0.65098000  0.53539000  1.0
  H  H12  1  0.63450000  0.55402000  0.22118000  1.0
  H  H13  1  0.36550000  0.44598000  0.77882000  1.0
  H  H14  1  0.72916000  0.58200000  0.33177000  1.0
  H  H15  1  0.27083000  0.41799000  0.66823000  1.0
  H  H16  1  0.59165000  0.32713000  0.15608000  1.0
  H  H17  1  0.40835000  0.67287000  0.84392000  1.0
  H  H18  1  0.57528000  0.12090000  0.09966000  1.0
  H  H19  1  0.42473000  0.87910000  0.90034000  1.0
  H  H20  1  0.59711000  0.93168000  0.00118000  1.0
  H  H21  1  0.40289000  0.06832000  0.99882000  1.0
  H  H22  1  0.80990000  0.83697000  0.00079000  1.0
  H  H23  1  0.19011000  0.16303000  0.99921000  1.0
  H  H24  1  0.00177000  0.92573000  0.10762000  1.0
  H  H25  1  0.99824000  0.07427000  0.89238000  1.0
  H  H26  1  0.97641000  0.10952000  0.21059000  1.0
  H  H27  1  0.02359000  0.89048000  0.78941000  1.0
  H  H28  1  0.80380000  0.35377000  0.00811000  1.0
  H  H29  1  0.19620000  0.64623000  0.99189000  1.0
  H  H30  1  0.01630000  0.34038000  0.09919000  1.0
  H  H31  1  0.98370000  0.65962000  0.90081000  1.0
  H  H32  1  0.99879000  0.70260000  0.20263000  1.0
  H  H33  1  0.00120000  0.29741000  0.79737000  1.0
  H  H34  1  0.78461000  0.69965000  0.10868000  1.0
  H  H35  1  0.21539000  0.30035000  0.89132000  1.0
  H  H36  1  0.23518000  0.58187000  0.18085000  1.0
  H  H37  1  0.76482000  0.41814000  0.81915000  1.0
  H  H38  1  0.14354000  0.55686000  0.28849000  1.0
  H  H39  1  0.85646000  0.44314000  0.71151000  1.0
  H  H40  1  0.08918000  0.33070000  0.31418000  1.0
  H  H41  1  0.91082000  0.66930000  0.68583000  1.0
  H  H42  1  0.09641000  0.15028000  0.37574000  1.0
  H  H43  1  0.90359000  0.84972000  0.62426000  1.0
  H  H44  1  0.07569000  0.94831000  0.41926000  1.0
  H  H45  1  0.92431000  0.05169000  0.58074000  1.0
  H  H46  1  0.20879000  0.79926000  0.33307000  1.0
  H  H47  1  0.79122000  0.20074000  0.66693000  1.0
  H  H48  1  0.36933000  0.85356000  0.20354000  1.0
  H  H49  1  0.63068000  0.14645000  0.79646000  1.0
  H  H50  1  0.38864000  0.05491000  0.15859000  1.0
  H  H51  1  0.61136000  0.94508000  0.84141000  1.0
  C  C52  1  0.34335000  0.62162000  0.42233000  1.0
  C  C53  1  0.65665000  0.37838000  0.57767000  1.0
  C  C54  1  0.45975000  0.62255000  0.36807000  1.0
  C  C55  1  0.54025000  0.37745000  0.63194000  1.0
  C  C56  1  0.52367000  0.51937000  0.34832000  1.0
  C  C57  1  0.47633000  0.48063000  0.65168000  1.0
  C  C58  1  0.46493000  0.41936000  0.38321000  1.0
  C  C59  1  0.53507000  0.58064000  0.61679000  1.0
  C  C60  1  0.34732000  0.42569000  0.43632000  1.0
  C  C61  1  0.65268000  0.57431000  0.56368000  1.0
  C  C62  1  0.65244000  0.52202000  0.29240000  1.0
  C  C63  1  0.34756000  0.47798000  0.70760000  1.0
  C  C64  1  0.67313000  0.32248000  0.20748000  1.0
  C  C65  1  0.32688000  0.67752000  0.79252000  1.0
  C  C66  1  0.76206000  0.23814000  0.21949000  1.0
  C  C67  1  0.23794000  0.76186000  0.78051000  1.0
  C  C68  1  0.77453000  0.12723000  0.16177000  1.0
  C  C69  1  0.22547000  0.87277000  0.83822000  1.0
  C  C70  1  0.66796000  0.07704000  0.10176000  1.0
  C  C71  1  0.33204000  0.92296000  0.89824000  1.0
  C  C72  1  0.68089000  0.97230000  0.04564000  1.0
  C  C73  1  0.31911000  0.02770000  0.95436000  1.0
  C  C74  1  0.80072000  0.91759000  0.04691000  1.0
  C  C75  1  0.19928000  0.08241000  0.95309000  1.0
  C  C76  1  0.90726000  0.96699000  0.10631000  1.0
  C  C77  1  0.09275000  0.03301000  0.89368000  1.0
  C  C78  1  0.89397000  0.07094000  0.16390000  1.0
  C  C79  1  0.10603000  0.92907000  0.83610000  1.0
  C  C80  1  0.85130000  0.42941000  0.05166000  1.0
  C  C81  1  0.14870000  0.57059000  0.94834000  1.0
  C  C82  1  0.97026000  0.42281000  0.10259000  1.0
  C  C83  1  0.02973000  0.57719000  0.89741000  1.0
  C  C84  1  0.02761000  0.52159000  0.15712000  1.0
  C  C85  1  0.97238000  0.47841000  0.84288000  1.0
  C  C86  1  0.95995000  0.62340000  0.15963000  1.0
  C  C87  1  0.04004000  0.37661000  0.84038000  1.0
  C  C88  1  0.84104000  0.62252000  0.10731000  1.0
  C  C89  1  0.15896000  0.37748000  0.89269000  1.0
  C  C90  1  0.15836000  0.52375000  0.21197000  1.0
  C  C91  1  0.84164000  0.47625000  0.78803000  1.0
  C  C92  1  0.17029000  0.32335000  0.26241000  1.0
  C  C93  1  0.82971000  0.67665000  0.73759000  1.0
  C  C94  1  0.24909000  0.23297000  0.23211000  1.0
  C  C95  1  0.75091000  0.76703000  0.76789000  1.0
  C  C96  1  0.24403000  0.11625000  0.26320000  1.0
  C  C97  1  0.75597000  0.88375000  0.73680000  1.0
  C  C98  1  0.15684000  0.08573000  0.33780000  1.0
  C  C99  1  0.84317000  0.91427000  0.66220000  1.0
  C  C100  1  0.14511000  0.97221000  0.36264000  1.0
  C  C101  1  0.85489000  0.02779000  0.63736000  1.0
  C  C102  1  0.22082000  0.88827000  0.31424000  1.0
  C  C103  1  0.77919000  0.11173000  0.68576000  1.0
  C  C104  1  0.30985000  0.91849000  0.24173000  1.0
  C  C105  1  0.69015000  0.08151000  0.75827000  1.0
  C  C106  1  0.32137000  0.03167000  0.21629000  1.0
  C  C107  1  0.67863000  0.96833000  0.78371000  1.0
  I  I108  1  0.97657000  0.67800000  0.45026000  1.0
  I  I109  1  0.02343000  0.32200000  0.54974000  1.0
  I  I110  1  0.47443000  0.67569000  0.07721000  1.0
  I  I111  1  0.52557000  0.32431000  0.92279000  1.0
  N  N112  1  0.28649000  0.52481000  0.45634000  1.0
  N  N113  1  0.71351000  0.47519000  0.54367000  1.0
  N  N114  1  0.70989000  0.41082000  0.27572000  1.0
  N  N115  1  0.29011000  0.58918000  0.72428000  1.0
  N  N116  1  0.81569000  0.38274000  0.32946000  1.0
  N  N117  1  0.18431000  0.61726000  0.67053000  1.0
  N  N118  1  0.84721000  0.27875000  0.29497000  1.0
  N  N119  1  0.15279000  0.72125000  0.70503000  1.0
  N  N120  1  0.78689000  0.52742000  0.05286000  1.0
  N  N121  1  0.21311000  0.47258000  0.94714000  1.0
  N  N122  1  0.21252000  0.41122000  0.21035000  1.0
  N  N123  1  0.78747000  0.58878000  0.78965000  1.0
  N  N124  1  0.31255000  0.37788000  0.14894000  1.0
  N  N125  1  0.68745000  0.62213000  0.85107000  1.0
  N  N126  1  0.33504000  0.27030000  0.16277000  1.0
  N  N127  1  0.66496000  0.72970000  0.83723000  1.0
