# generated using pymatgen
data_SmH9C13N2O7
_symmetry_space_group_name_H-M   'P 1'
_cell_length_a   9.29571000
_cell_length_b   10.54720000
_cell_length_c   14.23500000
_cell_angle_alpha   90.00000000
_cell_angle_beta   90.00000000
_cell_angle_gamma   95.44510000
_symmetry_Int_Tables_number   1
_chemical_formula_structural   SmH9C13N2O7
_chemical_formula_sum   'Sm4 H36 C52 N8 O28'
_cell_volume   1389.35447771
_cell_formula_units_Z   4
loop_
 _symmetry_equiv_pos_site_id
 _symmetry_equiv_pos_as_xyz
  1  'x, y, z'
loop_
 _atom_site_type_symbol
 _atom_site_label
 _atom_site_symmetry_multiplicity
 _atom_site_fract_x
 _atom_site_fract_y
 _atom_site_fract_z
 _atom_site_occupancy
  Sm  Sm0  1  0.62453000  0.96890000  0.86562000  1.0
  Sm  Sm1  1  0.37547000  0.53109000  0.36563000  1.0
  Sm  Sm2  1  0.37547000  0.03110000  0.13437000  1.0
  Sm  Sm3  1  0.62453000  0.46890000  0.63437000  1.0
  H  H4  1  0.04549000  0.27364000  0.66384000  1.0
  H  H5  1  0.95450000  0.22636000  0.16384000  1.0
  H  H6  1  0.95450000  0.72636000  0.33616000  1.0
  H  H7  1  0.04550000  0.77364000  0.83616000  1.0
  H  H8  1  0.27085000  0.20469000  0.74063000  1.0
  H  H9  1  0.72915000  0.29531000  0.24063000  1.0
  H  H10  1  0.72915000  0.79531000  0.25937000  1.0
  H  H11  1  0.27085000  0.70469000  0.75937000  1.0
  H  H12  1  0.99060000  0.96556000  0.92296000  1.0
  H  H13  1  0.00940000  0.53444000  0.42297000  1.0
  H  H14  1  0.00940000  0.03444000  0.07704000  1.0
  H  H15  1  0.99060000  0.46556000  0.57704000  1.0
  H  H16  1  0.16523000  0.62280000  0.09468000  1.0
  H  H17  1  0.83477000  0.87720000  0.59468000  1.0
  H  H18  1  0.83477000  0.37720000  0.90532000  1.0
  H  H19  1  0.16523000  0.12280000  0.40532000  1.0
  H  H20  1  0.07417000  0.39446000  0.05638000  1.0
  H  H21  1  0.92583000  0.10554000  0.55638000  1.0
  H  H22  1  0.92583000  0.60554000  0.94362000  1.0
  H  H23  1  0.07417000  0.89446000  0.44362000  1.0
  H  H24  1  0.20176000  0.28094000  0.93393000  1.0
  H  H25  1  0.79824000  0.21906000  0.43393000  1.0
  H  H26  1  0.79824000  0.71906000  0.06607000  1.0
  H  H27  1  0.20175000  0.78094000  0.56607000  1.0
  H  H28  1  0.47986000  0.60194000  0.87463000  1.0
  H  H29  1  0.52014000  0.89805000  0.37463000  1.0
  H  H30  1  0.52014000  0.39805000  0.12537000  1.0
  H  H31  1  0.47986000  0.10194000  0.62537000  1.0
  H  H32  1  0.44271000  0.87441000  0.68481000  1.0
  H  H33  1  0.55729000  0.62559000  0.18481000  1.0
  H  H34  1  0.55729000  0.12558000  0.31519000  1.0
  H  H35  1  0.44271000  0.37442000  0.81519000  1.0
  H  H36  1  0.53311000  0.76119000  0.72702000  1.0
  H  H37  1  0.46689000  0.73881000  0.22702000  1.0
  H  H38  1  0.46689000  0.23881000  0.27298000  1.0
  H  H39  1  0.53311000  0.26119000  0.77298000  1.0
  C  C40  1  0.90426000  0.15074000  0.75108000  1.0
  C  C41  1  0.09574000  0.34926000  0.25108000  1.0
  C  C42  1  0.09574000  0.84926000  0.24892000  1.0
  C  C43  1  0.90426000  0.65074000  0.74892000  1.0
  C  C44  1  0.03952000  0.20342000  0.72008000  1.0
  C  C45  1  0.96048000  0.29658000  0.22008000  1.0
  C  C46  1  0.96048000  0.79658000  0.27992000  1.0
  C  C47  1  0.03952000  0.70342000  0.77992000  1.0
  C  C48  1  0.16330000  0.16604000  0.76301000  1.0
  C  C49  1  0.83670000  0.33396000  0.26301000  1.0
  C  C50  1  0.83670000  0.83396000  0.23699000  1.0
  C  C51  1  0.16330000  0.66604000  0.73699000  1.0
  C  C52  1  0.14737000  0.08259000  0.83959000  1.0
  C  C53  1  0.85263000  0.41741000  0.33959000  1.0
  C  C54  1  0.85263000  0.91741000  0.16041000  1.0
  C  C55  1  0.14737000  0.58258000  0.66041000  1.0
  C  C56  1  0.00783000  0.03234000  0.86465000  1.0
  C  C57  1  0.99217000  0.46767000  0.36465000  1.0
  C  C58  1  0.99217000  0.96766000  0.13535000  1.0
  C  C59  1  0.00783000  0.53233000  0.63535000  1.0
  C  C60  1  0.76460000  0.19164000  0.71241000  1.0
  C  C61  1  0.23540000  0.30836000  0.21241000  1.0
  C  C62  1  0.23540000  0.80836000  0.28759000  1.0
  C  C63  1  0.76460000  0.69164000  0.78759000  1.0
  C  C64  1  0.27502000  0.05234000  0.89771000  1.0
  C  C65  1  0.72498000  0.44766000  0.39771000  1.0
  C  C66  1  0.72497000  0.94766000  0.10229000  1.0
  C  C67  1  0.27503000  0.55234000  0.60229000  1.0
  C  C68  1  0.38522000  0.76375000  0.00728000  1.0
  C  C69  1  0.61478000  0.73625000  0.50728000  1.0
  C  C70  1  0.61477000  0.23626000  0.99272000  1.0
  C  C71  1  0.38523000  0.26374000  0.49272000  1.0
  C  C72  1  0.32851000  0.62868000  0.98717000  1.0
  C  C73  1  0.67149000  0.87132000  0.48717000  1.0
  C  C74  1  0.67149000  0.37133000  0.01283000  1.0
  C  C75  1  0.32851000  0.12867000  0.51283000  1.0
  C  C76  1  0.21338000  0.56951000  0.03917000  1.0
  C  C77  1  0.78661000  0.93049000  0.53916000  1.0
  C  C78  1  0.78661000  0.43049000  0.96084000  1.0
  C  C79  1  0.21338000  0.06951000  0.46083000  1.0
  C  C80  1  0.16457000  0.44389000  0.01871000  1.0
  C  C81  1  0.83543000  0.05611000  0.51871000  1.0
  C  C82  1  0.83543000  0.55611000  0.98129000  1.0
  C  C83  1  0.16457000  0.94389000  0.48129000  1.0
  C  C84  1  0.23488000  0.38049000  0.94917000  1.0
  C  C85  1  0.76512000  0.11951000  0.44917000  1.0
  C  C86  1  0.76512000  0.61951000  0.05083000  1.0
  C  C87  1  0.23488000  0.88049000  0.55083000  1.0
  C  C88  1  0.39033000  0.55870000  0.91696000  1.0
  C  C89  1  0.60967000  0.94131000  0.41696000  1.0
  C  C90  1  0.60967000  0.44131000  0.08304000  1.0
  C  C91  1  0.39033000  0.05869000  0.58304000  1.0
  N  N92  1  0.88934000  0.06272000  0.81994000  1.0
  N  N93  1  0.11066000  0.43728000  0.31994000  1.0
  N  N94  1  0.11066000  0.93728000  0.18006000  1.0
  N  N95  1  0.88934000  0.56272000  0.68006000  1.0
  N  N96  1  0.34552000  0.43634000  0.89876000  1.0
  N  N97  1  0.65448000  0.06366000  0.39876000  1.0
  N  N98  1  0.65448000  0.56366000  0.10124000  1.0
  N  N99  1  0.34552000  0.93634000  0.60124000  1.0
  O  O100  1  0.50566000  0.84737000  0.73865000  1.0
  O  O101  1  0.49435000  0.65263000  0.23865000  1.0
  O  O102  1  0.49435000  0.15263000  0.26135000  1.0
  O  O103  1  0.50565000  0.34737000  0.76135000  1.0
  O  O104  1  0.77175000  0.29325000  0.66450000  1.0
  O  O105  1  0.22825000  0.20675000  0.16450000  1.0
  O  O106  1  0.22825000  0.70674000  0.33550000  1.0
  O  O107  1  0.77175000  0.79326000  0.83550000  1.0
  O  O108  1  0.64944000  0.12224000  0.73329000  1.0
  O  O109  1  0.35056000  0.37776000  0.23330000  1.0
  O  O110  1  0.35056000  0.87776000  0.26671000  1.0
  O  O111  1  0.64944000  0.62224000  0.76671000  1.0
  O  O112  1  0.39442000  0.05025000  0.85524000  1.0
  O  O113  1  0.60558000  0.44975000  0.35524000  1.0
  O  O114  1  0.60558000  0.94975000  0.14476000  1.0
  O  O115  1  0.39442000  0.55025000  0.64476000  1.0
  O  O116  1  0.25126000  0.03481000  0.98485000  1.0
  O  O117  1  0.74874000  0.46518000  0.48485000  1.0
  O  O118  1  0.74874000  0.96518000  0.01514000  1.0
  O  O119  1  0.25125000  0.53482000  0.51515000  1.0
  O  O120  1  0.48037000  0.81718000  0.95259000  1.0
  O  O121  1  0.51963000  0.68282000  0.45259000  1.0
  O  O122  1  0.51963000  0.18283000  0.04741000  1.0
  O  O123  1  0.48037000  0.31717000  0.54741000  1.0
  O  O124  1  0.33315000  0.81499000  0.07853000  1.0
  O  O125  1  0.66686000  0.68501000  0.57853000  1.0
  O  O126  1  0.66686000  0.18501000  0.92147000  1.0
  O  O127  1  0.33314000  0.31499000  0.42147000  1.0
