# generated using pymatgen
data_AgH6C15S4N2(OF)3
_symmetry_space_group_name_H-M   'P 1'
_cell_length_a   11.59170000
_cell_length_b   12.34270000
_cell_length_c   13.93300000
_cell_angle_alpha   80.38810000
_cell_angle_beta   77.89790000
_cell_angle_gamma   64.40460000
_symmetry_Int_Tables_number   1
_chemical_formula_structural   AgH6C15S4N2(OF)3
_chemical_formula_sum   'Ag3 H18 C45 S12 N6 O9 F9'
_cell_volume   1751.24780960
_cell_formula_units_Z   3
loop_
 _symmetry_equiv_pos_site_id
 _symmetry_equiv_pos_as_xyz
  1  'x, y, z'
loop_
 _atom_site_type_symbol
 _atom_site_label
 _atom_site_symmetry_multiplicity
 _atom_site_fract_x
 _atom_site_fract_y
 _atom_site_fract_z
 _atom_site_occupancy
  Ag  Ag0  1  0.32905000  0.13687000  0.31668000  1.0
  Ag  Ag1  1  0.08962000  0.14639000  0.57752000  1.0
  Ag  Ag2  1  0.83229000  0.05558000  0.55935000  1.0
  H  H3  1  0.98856000  0.59736000  0.20486000  1.0
  H  H4  1  0.86261000  0.72597000  0.05865000  1.0
  H  H5  1  0.01525000  0.45037000  0.79581000  1.0
  H  H6  1  0.88873000  0.57726000  0.65441000  1.0
  H  H7  1  0.63028000  0.97944000  0.77634000  1.0
  H  H8  1  0.48517000  0.10664000  0.64011000  1.0
  H  H9  1  0.46325000  0.70098000  0.66312000  1.0
  H  H10  1  0.59568000  0.55996000  0.80166000  1.0
  H  H11  1  0.44787000  0.80532000  0.08373000  1.0
  H  H12  1  0.57895000  0.66666667  0.21891000  1.0
  H  H13  1  0.86372000  0.28939000  0.06260000  1.0
  H  H14  1  0.00495000  0.14575000  0.19720000  1.0
  H  H15  1  0.70116000  0.09789000  0.21887000  1.0
  H  H16  1  0.57257000  0.23388000  0.07708000  1.0
  H  H17  1  0.29717000  0.62916000  0.20489000  1.0
  H  H18  1  0.17959000  0.75585000  0.05861000  1.0
  H  H19  1  0.33420000  0.47105000  0.80179000  1.0
  H  H20  1  0.21121000  0.59152000  0.65398000  1.0
  C  C21  1  0.16371000  0.35727000  0.17198000  1.0
  C  C22  1  0.08175000  0.44727000  0.11245000  1.0
  C  C23  1  0.99847000  0.56459000  0.13453000  1.0
  C  C24  1  0.93251000  0.63238000  0.05641000  1.0
  C  C25  1  0.96509000  0.56791000  0.97417000  1.0
  C  C26  1  0.91712000  0.60846000  0.88195000  1.0
  C  C27  1  0.94650000  0.54417000  0.80039000  1.0
  C  C28  1  0.87785000  0.61289000  0.72370000  1.0
  C  C29  1  0.79604000  0.73074000  0.74552000  1.0
  C  C30  1  0.70982000  0.82591000  0.68686000  1.0
  C  C31  1  0.62992000  0.94404000  0.70995000  1.0
  C  C32  1  0.55396000  0.01277000  0.63722000  1.0
  C  C33  1  0.57623000  0.94706000  0.55789000  1.0
  C  C34  1  0.51650000  0.98870000  0.47413000  1.0
  C  C35  1  0.17391000  0.85314000  0.37003000  1.0
  C  C36  1  0.29692000  0.93994000  0.70627000  1.0
  C  C37  1  0.37921000  0.84444000  0.76233000  1.0
  C  C38  1  0.45877000  0.72862000  0.73442000  1.0
  C  C39  1  0.52877000  0.65389000  0.80858000  1.0
  C  C40  1  0.50294000  0.71141000  0.89371000  1.0
  C  C41  1  0.55571000  0.66222000  0.98368000  1.0
  C  C42  1  0.52356000  0.71571000  0.07156000  1.0
  C  C43  1  0.59408000  0.63969000  0.14516000  1.0
  C  C44  1  0.68138000  0.52701000  0.11441000  1.0
  C  C45  1  0.76981000  0.42655000  0.16810000  1.0
  C  C46  1  0.85591000  0.31386000  0.13590000  1.0
  C  C47  1  0.93029000  0.23645000  0.20679000  1.0
  C  C48  1  0.90061000  0.28992000  0.29447000  1.0
  C  C49  1  0.95270000  0.23902000  0.38104000  1.0
  C  C50  1  0.08091000  0.49613000  0.43947000  1.0
  C  C51  1  0.64932000  0.20137000  0.39553000  1.0
  C  C52  1  0.59289000  0.24871000  0.31052000  1.0
  C  C53  1  0.62763000  0.18955000  0.22497000  1.0
  C  C54  1  0.55882000  0.26221000  0.15000000  1.0
  C  C55  1  0.47186000  0.37718000  0.17719000  1.0
  C  C56  1  0.38939000  0.47351000  0.11671000  1.0
  C  C57  1  0.30831000  0.59215000  0.13621000  1.0
  C  C58  1  0.24439000  0.66060000  0.05692000  1.0
  C  C59  1  0.27552000  0.59513000  0.97582000  1.0
  C  C60  1  0.22990000  0.63304000  0.88234000  1.0
  C  C61  1  0.26471000  0.56494000  0.80200000  1.0
  C  C62  1  0.20065000  0.62946000  0.72221000  1.0
  C  C63  1  0.11708000  0.74795000  0.74167000  1.0
  C  C64  1  0.03578000  0.83348000  0.67905000  1.0
  C  C65  1  0.79086000  0.25456000  0.85347000  1.0
  S  S66  1  0.07763000  0.42202000  0.99470000  1.0
  S  S67  1  0.80533000  0.75521000  0.86182000  1.0
  S  S68  1  0.69257000  0.80122000  0.57315000  1.0
  S  S69  1  0.25359000  0.91570000  0.25810000  1.0
  S  S70  1  0.39125000  0.85960000  0.88105000  1.0
  S  S71  1  0.67417000  0.51690000  0.99365000  1.0
  S  S72  1  0.78130000  0.43590000  0.28797000  1.0
  S  S73  1  0.17432000  0.37975000  0.53219000  1.0
  S  S74  1  0.47352000  0.39338000  0.29750000  1.0
  S  S75  1  0.38554000  0.44828000  0.99892000  1.0
  S  S76  1  0.11760000  0.77812000  0.85888000  1.0
  S  S77  1  0.84445000  0.11901000  0.78555000  1.0
  N  N78  1  0.23445000  0.28212000  0.22089000  1.0
  N  N79  1  0.46562000  0.02596000  0.40425000  1.0
  N  N80  1  0.22897000  0.01953000  0.65832000  1.0
  N  N81  1  0.99218000  0.19795000  0.45549000  1.0
  N  N82  1  0.70184000  0.15720000  0.46428000  1.0
  N  N83  1  0.96758000  0.90298000  0.62554000  1.0
  O  O84  1  0.19348000  0.04542000  0.27182000  1.0
  O  O85  1  0.39032000  0.85595000  0.26758000  1.0
  O  O86  1  0.21568000  0.88496000  0.17662000  1.0
  O  O87  1  0.07179000  0.35621000  0.60194000  1.0
  O  O88  1  0.26213000  0.27921000  0.47377000  1.0
  O  O89  1  0.23533000  0.44112000  0.57039000  1.0
  O  O90  1  0.85811000  0.17062000  0.68237000  1.0
  O  O91  1  0.73720000  0.08287000  0.81409000  1.0
  O  O92  1  0.96569000  0.03728000  0.81960000  1.0
  F  F93  1  0.21462000  0.73188000  0.37009000  1.0
  F  F94  1  0.20122000  0.87406000  0.45363000  1.0
  F  F95  1  0.04261000  0.90444000  0.37451000  1.0
  F  F96  1  0.00790000  0.45721000  0.40083000  1.0
  F  F97  1  0.99841000  0.60025000  0.48118000  1.0
  F  F98  1  0.16030000  0.52408000  0.36269000  1.0
  F  F99  1  0.88029000  0.30187000  0.83523000  1.0
  F  F100  1  0.77011000  0.22614000  0.95283000  1.0
  F  F101  1  0.67774000  0.34249000  0.82807000  1.0
