# generated using pymatgen
data_CuH44C28(NO)4
_symmetry_space_group_name_H-M   'P 1'
_cell_length_a   8.41103000
_cell_length_b   9.14701000
_cell_length_c   9.20496000
_cell_angle_alpha   88.77230000
_cell_angle_beta   69.88800000
_cell_angle_gamma   84.72380000
_symmetry_Int_Tables_number   1
_chemical_formula_structural   CuH44C28(NO)4
_chemical_formula_sum   'Cu1 H44 C28 N4 O4'
_cell_volume   662.14986058
_cell_formula_units_Z   1
loop_
 _symmetry_equiv_pos_site_id
 _symmetry_equiv_pos_as_xyz
  1  'x, y, z'
loop_
 _atom_site_type_symbol
 _atom_site_label
 _atom_site_symmetry_multiplicity
 _atom_site_fract_x
 _atom_site_fract_y
 _atom_site_fract_z
 _atom_site_occupancy
  Cu  Cu0  1  0.00000000  0.00000000  0.00000000  1.0
  H  H1  1  0.15176000  0.14969000  0.12186000  1.0
  H  H2  1  0.84824000  0.85031000  0.87814000  1.0
  H  H3  1  0.29182000  0.96771000  0.82013000  1.0
  H  H4  1  0.70818000  0.03229000  0.17987000  1.0
  H  H5  1  0.12433000  0.40207000  0.02929000  1.0
  H  H6  1  0.87567000  0.59794000  0.97071000  1.0
  H  H7  1  0.99098000  0.33493000  0.93653000  1.0
  H  H8  1  0.00902000  0.66507000  0.06347000  1.0
  H  H9  1  0.35716000  0.20512000  0.88231000  1.0
  H  H10  1  0.64284000  0.79489000  0.11769000  1.0
  H  H11  1  0.31117000  0.35734000  0.77885000  1.0
  H  H12  1  0.68882000  0.64267000  0.22115000  1.0
  H  H13  1  0.36322000  0.13719000  0.62857000  1.0
  H  H14  1  0.63678000  0.86281000  0.37143000  1.0
  H  H15  1  0.12624000  0.16314000  0.53601000  1.0
  H  H16  1  0.87376000  0.83686000  0.46399000  1.0
  H  H17  1  0.14434000  0.33675000  0.60560000  1.0
  H  H18  1  0.85566000  0.66325000  0.39440000  1.0
  H  H19  1  0.98197000  0.22606000  0.72036000  1.0
  H  H20  1  0.01803000  0.77394000  0.27964000  1.0
  H  H21  1  0.05870000  0.95368000  0.64214000  1.0
  H  H22  1  0.94130000  0.04632000  0.35786000  1.0
  H  H23  1  0.80095000  0.27809000  0.18043000  1.0
  H  H24  1  0.19905000  0.72191000  0.81957000  1.0
  H  H25  1  0.03405000  0.30504000  0.36953000  1.0
  H  H26  1  0.96594000  0.69496000  0.63046000  1.0
  H  H27  1  0.97217000  0.44653000  0.26095000  1.0
  H  H28  1  0.02782000  0.55347000  0.73906000  1.0
  H  H29  1  0.79315000  0.46872000  0.54228000  1.0
  H  H30  1  0.20685000  0.53128000  0.45772000  1.0
  H  H31  1  0.66930000  0.44116000  0.42604000  1.0
  H  H32  1  0.33070000  0.55883000  0.57396000  1.0
  H  H33  1  0.58529000  0.28144000  0.65578000  1.0
  H  H34  1  0.41470000  0.71856000  0.34422000  1.0
  H  H35  1  0.79464000  0.20638000  0.61540000  1.0
  H  H36  1  0.20535000  0.79361000  0.38461000  1.0
  H  H37  1  0.36146000  0.96449000  0.47323000  1.0
  H  H38  1  0.63854000  0.03551000  0.52677000  1.0
  H  H39  1  0.42482000  0.82785000  0.58713000  1.0
  H  H40  1  0.57518000  0.17215000  0.41287000  1.0
  H  H41  1  0.65479000  0.66089000  0.78742000  1.0
  H  H42  1  0.34522000  0.33910000  0.21259000  1.0
  H  H43  1  0.22901000  0.60123000  0.19578000  1.0
  H  H44  1  0.77100000  0.39877000  0.80422000  1.0
  C  C45  1  0.10013000  0.30488000  0.97438000  1.0
  C  C46  1  0.89987000  0.69512000  0.02562000  1.0
  C  C47  1  0.25950000  0.25758000  0.83860000  1.0
  C  C48  1  0.74049000  0.74242000  0.16140000  1.0
  C  C49  1  0.23656000  0.15641000  0.71823000  1.0
  C  C50  1  0.76344000  0.84359000  0.28178000  1.0
  C  C51  1  0.11415000  0.22448000  0.64116000  1.0
  C  C52  1  0.88585000  0.77552000  0.35884000  1.0
  C  C53  1  0.16154000  0.90559000  0.68215000  1.0
  C  C54  1  0.83846000  0.09441000  0.31785000  1.0
  C  C55  1  0.90003000  0.23193000  0.22587000  1.0
  C  C56  1  0.09997000  0.76807000  0.77413000  1.0
  C  C57  1  0.93020000  0.34805000  0.32865000  1.0
  C  C58  1  0.06979000  0.65195000  0.67135000  1.0
  C  C59  1  0.76873000  0.38773000  0.46757000  1.0
  C  C60  1  0.23126000  0.61226000  0.53243000  1.0
  C  C61  1  0.70410000  0.25165000  0.56009000  1.0
  C  C62  1  0.29590000  0.74834000  0.43991000  1.0
  C  C63  1  0.32231000  0.86613000  0.54235000  1.0
  C  C64  1  0.67769000  0.13386000  0.45765000  1.0
  C  C65  1  0.58862000  0.58882000  0.88020000  1.0
  C  C66  1  0.41139000  0.41118000  0.11980000  1.0
  C  C67  1  0.34782000  0.55572000  0.11037000  1.0
  C  C68  1  0.65219000  0.44428000  0.88964000  1.0
  C  C69  1  0.43587000  0.64666000  0.99083000  1.0
  C  C70  1  0.56414000  0.35334000  0.00917000  1.0
  C  C71  1  0.36761000  0.80409000  0.97871000  1.0
  C  C72  1  0.63240000  0.19590000  0.02129000  1.0
  N  N73  1  0.05044000  0.18678000  0.08838000  1.0
  N  N74  1  0.94956000  0.81322000  0.91162000  1.0
  N  N75  1  0.18776000  0.01244000  0.78867000  1.0
  N  N76  1  0.81224000  0.98756000  0.21132000  1.0
  O  O77  1  0.45360000  0.87630000  0.86280000  1.0
  O  O78  1  0.54641000  0.12370000  0.13720000  1.0
  O  O79  1  0.22687000  0.85053000  0.08045000  1.0
  O  O80  1  0.77314000  0.14946000  0.91955000  1.0
