# generated using pymatgen
data_NiH8(CO2)4
_symmetry_space_group_name_H-M   'P 1'
_cell_length_a   6.67427000
_cell_length_b   7.99839000
_cell_length_c   7.99860000
_cell_angle_alpha   111.90200000
_cell_angle_beta   95.60140000
_cell_angle_gamma   95.60070000
_symmetry_Int_Tables_number   1
_chemical_formula_structural   NiH8(CO2)4
_chemical_formula_sum   'Ni2 H16 C8 O16'
_cell_volume   390.10795882
_cell_formula_units_Z   2
loop_
 _symmetry_equiv_pos_site_id
 _symmetry_equiv_pos_as_xyz
  1  'x, y, z'
loop_
 _atom_site_type_symbol
 _atom_site_label
 _atom_site_symmetry_multiplicity
 _atom_site_fract_x
 _atom_site_fract_y
 _atom_site_fract_z
 _atom_site_occupancy
  Ni  Ni0  1  0.00000000  0.00000000  0.50000000  1.0
  Ni  Ni1  1  0.50000000  0.50000000  0.00000000  1.0
  H  H2  1  0.95018000  0.28067000  0.40608000  1.0
  H  H3  1  0.54982000  0.59392000  0.71933000  1.0
  H  H4  1  0.04982000  0.71933000  0.59392000  1.0
  H  H5  1  0.45019000  0.40608000  0.28067000  1.0
  H  H6  1  0.75858000  0.22843000  0.48495000  1.0
  H  H7  1  0.74141000  0.51505000  0.77157000  1.0
  H  H8  1  0.24142000  0.77157000  0.51506000  1.0
  H  H9  1  0.25859000  0.48495000  0.22843000  1.0
  H  H10  1  0.61749000  0.84593000  0.34992000  1.0
  H  H11  1  0.88250000  0.65008000  0.15406000  1.0
  H  H12  1  0.38250000  0.15406000  0.65007000  1.0
  H  H13  1  0.11750000  0.34992000  0.84594000  1.0
  H  H14  1  0.62795000  0.86122000  0.55657000  1.0
  H  H15  1  0.87205000  0.44343000  0.13878000  1.0
  H  H16  1  0.37205000  0.13878000  0.44343000  1.0
  H  H17  1  0.12795000  0.55657000  0.86122000  1.0
  C  C18  1  0.99379000  0.94863000  0.10174000  1.0
  C  C19  1  0.50621000  0.89825000  0.05137000  1.0
  C  C20  1  0.00621000  0.05138000  0.89828000  1.0
  C  C21  1  0.49379000  0.10173000  0.94863000  1.0
  C  C22  1  0.99964000  0.86832000  0.90420000  1.0
  C  C23  1  0.50038000  0.09582000  0.13169000  1.0
  C  C24  1  0.00036000  0.13168000  0.09580000  1.0
  C  C25  1  0.49966000  0.90420000  0.86831000  1.0
  O  O26  1  0.98588000  0.87994000  0.22001000  1.0
  O  O27  1  0.51413000  0.78001000  0.12005000  1.0
  O  O28  1  0.01411000  0.12006000  0.77999000  1.0
  O  O29  1  0.48588000  0.22002000  0.87994000  1.0
  O  O30  1  0.00054000  0.70866000  0.79006000  1.0
  O  O31  1  0.49945000  0.20993000  0.29133000  1.0
  O  O32  1  0.99944000  0.29133000  0.20994000  1.0
  O  O33  1  0.50056000  0.79006000  0.70867000  1.0
  O  O34  1  0.90771000  0.24893000  0.50896000  1.0
  O  O35  1  0.59229000  0.49104000  0.75106000  1.0
  O  O36  1  0.09229000  0.75106000  0.49104000  1.0
  O  O37  1  0.40772000  0.50896000  0.24894000  1.0
  O  O38  1  0.69502000  0.90744000  0.47409000  1.0
  O  O39  1  0.80498000  0.52591000  0.09256000  1.0
  O  O40  1  0.30497000  0.09256000  0.52592000  1.0
  O  O41  1  0.19502000  0.47408000  0.90744000  1.0
