# generated using pymatgen
data_CuH22C12O5
_symmetry_space_group_name_H-M   'P 1'
_cell_length_a   8.90847000
_cell_length_b   9.41627000
_cell_length_c   10.47890000
_cell_angle_alpha   84.16430000
_cell_angle_beta   67.65420000
_cell_angle_gamma   70.88440000
_symmetry_Int_Tables_number   1
_chemical_formula_structural   CuH22C12O5
_chemical_formula_sum   'Cu2 H44 C24 O10'
_cell_volume   767.91739110
_cell_formula_units_Z   2
loop_
 _symmetry_equiv_pos_site_id
 _symmetry_equiv_pos_as_xyz
  1  'x, y, z'
loop_
 _atom_site_type_symbol
 _atom_site_label
 _atom_site_symmetry_multiplicity
 _atom_site_fract_x
 _atom_site_fract_y
 _atom_site_fract_z
 _atom_site_occupancy
  Cu  Cu0  1  0.12297000  0.03201000  0.50743000  1.0
  Cu  Cu1  1  0.87702000  0.96798000  0.49257000  1.0
  H  H2  1  0.26945000  0.67795000  0.79353000  1.0
  H  H3  1  0.73056000  0.32205000  0.20647000  1.0
  H  H4  1  0.30428000  0.48089000  0.79252000  1.0
  H  H5  1  0.69574000  0.51912000  0.20747000  1.0
  H  H6  1  0.39582000  0.56990000  0.63761000  1.0
  H  H7  1  0.60420000  0.43011000  0.36239000  1.0
  H  H8  1  0.17423000  0.36877000  0.66837000  1.0
  H  H9  1  0.82579000  0.63122000  0.33162000  1.0
  H  H10  1  0.03026000  0.48720000  0.59367000  1.0
  H  H11  1  0.96976000  0.51281000  0.40632000  1.0
  H  H12  1  0.25257000  0.46394000  0.51455000  1.0
  H  H13  1  0.74745000  0.53606000  0.48544000  1.0
  H  H14  1  0.94654000  0.71673000  0.90232000  1.0
  H  H15  1  0.05348000  0.28327000  0.09766000  1.0
  H  H16  1  0.85016000  0.64173000  0.81577000  1.0
  H  H17  1  0.14986000  0.35828000  0.18421000  1.0
  H  H18  1  0.98708000  0.51897000  0.89543000  1.0
  H  H19  1  0.01293000  0.48103000  0.10456000  1.0
  H  H20  1  0.69133000  0.15030000  0.08772000  1.0
  H  H21  1  0.30867000  0.84969000  0.91228000  1.0
  H  H22  1  0.75969000  0.98740000  0.98226000  1.0
  H  H23  1  0.24029000  0.01259000  0.01775000  1.0
  H  H24  1  0.90037000  0.09445000  0.95724000  1.0
  H  H25  1  0.09962000  0.90554000  0.04276000  1.0
  H  H26  1  0.43123000  0.26418000  0.02251000  1.0
  H  H27  1  0.56875000  0.73583000  0.97750000  1.0
  H  H28  1  0.45401000  0.27940000  0.84597000  1.0
  H  H29  1  0.54597000  0.72061000  0.15404000  1.0
  H  H30  1  0.49344000  0.09984000  0.92015000  1.0
  H  H31  1  0.50653000  0.90016000  0.07986000  1.0
  H  H32  1  0.84589000  0.35114000  0.84992000  1.0
  H  H33  1  0.15409000  0.64885000  0.15009000  1.0
  H  H34  1  0.66099000  0.43158000  0.80745000  1.0
  H  H35  1  0.33900000  0.56841000  0.19257000  1.0
  H  H36  1  0.63961000  0.41099000  0.98373000  1.0
  H  H37  1  0.36039000  0.58899000  0.01627000  1.0
  H  H38  1  0.44450000  0.12132000  0.66332000  1.0
  H  H39  1  0.55550000  0.87868000  0.33667000  1.0
  H  H40  1  0.27850000  0.03376000  0.72619000  1.0
  H  H41  1  0.72150000  0.96625000  0.27381000  1.0
  H  H42  1  0.52826000  0.19230000  0.42064000  1.0
  H  H43  1  0.47175000  0.80770000  0.57937000  1.0
  H  H44  1  0.41786000  0.15117000  0.32324000  1.0
  H  H45  1  0.58214000  0.84884000  0.67676000  1.0
  C  C46  1  0.08084000  0.75318000  0.62271000  1.0
  C  C47  1  0.91917000  0.24681000  0.37728000  1.0
  C  C48  1  0.12171000  0.60723000  0.70164000  1.0
  C  C49  1  0.87830000  0.39277000  0.29835000  1.0
  C  C50  1  0.28253000  0.58334000  0.73283000  1.0
  C  C51  1  0.71748000  0.41667000  0.26717000  1.0
  C  C52  1  0.14570000  0.47439000  0.61417000  1.0
  C  C53  1  0.85432000  0.52561000  0.38582000  1.0
  C  C54  1  0.96642000  0.62268000  0.83718000  1.0
  C  C55  1  0.03359000  0.37733000  0.16281000  1.0
  C  C56  1  0.80548000  0.12777000  0.73597000  1.0
  C  C57  1  0.19449000  0.87223000  0.26404000  1.0
  C  C58  1  0.69436000  0.20129000  0.88032000  1.0
  C  C59  1  0.30563000  0.79870000  0.11968000  1.0
  C  C60  1  0.76658000  0.10182000  0.98282000  1.0
  C  C61  1  0.23341000  0.89818000  0.01718000  1.0
  C  C62  1  0.50732000  0.21147000  0.91928000  1.0
  C  C63  1  0.49265000  0.78854000  0.08073000  1.0
  C  C64  1  0.71152000  0.35839000  0.88020000  1.0
  C  C65  1  0.28847000  0.64160000  0.11981000  1.0
  C  C66  1  0.39169000  0.04196000  0.63804000  1.0
  C  C67  1  0.60831000  0.95805000  0.36196000  1.0
  C  C68  1  0.47301000  0.11072000  0.40279000  1.0
  C  C69  1  0.52700000  0.88928000  0.59721000  1.0
  O  O70  1  0.17589000  0.83602000  0.59992000  1.0
  O  O71  1  0.82410000  0.16400000  0.40010000  1.0
  O  O72  1  0.04812000  0.21961000  0.41192000  1.0
  O  O73  1  0.95192000  0.78037000  0.58806000  1.0
  O  O74  1  0.96023000  0.12708000  0.68917000  1.0
  O  O75  1  0.03974000  0.87293000  0.31081000  1.0
  O  O76  1  0.26349000  0.92794000  0.32407000  1.0
  O  O77  1  0.73650000  0.07202000  0.67595000  1.0
  O  O78  1  0.33282000  0.10047000  0.52691000  1.0
  O  O79  1  0.66718000  0.89953000  0.47309000  1.0
