# generated using pymatgen
data_Mn2H23C15NO9
_symmetry_space_group_name_H-M   'P 1'
_cell_length_a   13.61260000
_cell_length_b   14.09640000
_cell_length_c   22.85170000
_cell_angle_alpha   88.55660000
_cell_angle_beta   89.99970000
_cell_angle_gamma   89.99950000
_symmetry_Int_Tables_number   1
_chemical_formula_structural   Mn2H23C15NO9
_chemical_formula_sum   'Mn16 H184 C120 N8 O72'
_cell_volume   4383.59059789
_cell_formula_units_Z   8
loop_
 _symmetry_equiv_pos_site_id
 _symmetry_equiv_pos_as_xyz
  1  'x, y, z'
loop_
 _atom_site_type_symbol
 _atom_site_label
 _atom_site_symmetry_multiplicity
 _atom_site_fract_x
 _atom_site_fract_y
 _atom_site_fract_z
 _atom_site_occupancy
  Mn  Mn0  1  0.22157000  0.47195000  0.66188000  1.0
  Mn  Mn1  1  0.72157000  0.02805000  0.83812000  1.0
  Mn  Mn2  1  0.77843000  0.52805000  0.33812000  1.0
  Mn  Mn3  1  0.27843000  0.97195000  0.16188000  1.0
  Mn  Mn4  1  0.48858000  0.15071000  0.63260000  1.0
  Mn  Mn5  1  0.98859000  0.34928000  0.86740000  1.0
  Mn  Mn6  1  0.51141000  0.84928000  0.36740000  1.0
  Mn  Mn7  1  0.01142000  0.65071000  0.13260000  1.0
  Mn  Mn8  1  0.99948000  0.52695000  0.25498000  1.0
  Mn  Mn9  1  0.49947000  0.97305000  0.24502000  1.0
  Mn  Mn10  1  0.00053000  0.47305000  0.74502000  1.0
  Mn  Mn11  1  0.50053000  0.02695000  0.75497000  1.0
  Mn  Mn12  1  0.25376000  0.26267000  0.60862000  1.0
  Mn  Mn13  1  0.75376000  0.23734000  0.89138000  1.0
  Mn  Mn14  1  0.74624000  0.73733000  0.39138000  1.0
  Mn  Mn15  1  0.24625000  0.76266000  0.10862000  1.0
  H  H16  1  0.27318000  0.55714000  0.46510000  1.0
  H  H17  1  0.77318000  0.94286000  0.03491000  1.0
  H  H18  1  0.72682000  0.44286000  0.53491000  1.0
  H  H19  1  0.22682000  0.05714000  0.96509000  1.0
  H  H20  1  0.29067000  0.44140000  0.43677000  1.0
  H  H21  1  0.79066000  0.05861000  0.06323000  1.0
  H  H22  1  0.70934000  0.55860000  0.56323000  1.0
  H  H23  1  0.20934000  0.94140000  0.93677000  1.0
  H  H24  1  0.09291000  0.52748000  0.47294000  1.0
  H  H25  1  0.59291000  0.97252000  0.02707000  1.0
  H  H26  1  0.90709000  0.47252000  0.52706000  1.0
  H  H27  1  0.40709000  0.02748000  0.97294000  1.0
  H  H28  1  0.13604000  0.51733000  0.40047000  1.0
  H  H29  1  0.63603000  0.98267000  0.09954000  1.0
  H  H30  1  0.86397000  0.48267000  0.59953000  1.0
  H  H31  1  0.36396000  0.01734000  0.90046000  1.0
  H  H32  1  0.14536000  0.33797000  0.41726000  1.0
  H  H33  1  0.64536000  0.16204000  0.08275000  1.0
  H  H34  1  0.85464000  0.66203000  0.58274000  1.0
  H  H35  1  0.35464000  0.83797000  0.91725000  1.0
  H  H36  1  0.08962000  0.35130000  0.48591000  1.0
  H  H37  1  0.58962000  0.14870000  0.01409000  1.0
  H  H38  1  0.91038000  0.64870000  0.51409000  1.0
  H  H39  1  0.41038000  0.85131000  0.98591000  1.0
  H  H40  1  0.93921000  0.42392000  0.43655000  1.0
  H  H41  1  0.43920000  0.07608000  0.06345000  1.0
  H  H42  1  0.06079000  0.57608000  0.56345000  1.0
  H  H43  1  0.56079000  0.92393000  0.93655000  1.0
  H  H44  1  0.96407000  0.30875000  0.41309000  1.0
  H  H45  1  0.46406000  0.19126000  0.08691000  1.0
  H  H46  1  0.03593000  0.69125000  0.58691000  1.0
  H  H47  1  0.53593000  0.80875000  0.91309000  1.0
  H  H48  1  0.41379000  0.03121000  0.50738000  1.0
  H  H49  1  0.91379000  0.46878000  0.99263000  1.0
  H  H50  1  0.58621000  0.96879000  0.49262000  1.0
  H  H51  1  0.08621000  0.53121000  0.00738000  1.0
  H  H52  1  0.30932000  0.96880000  0.53266000  1.0
  H  H53  1  0.80934000  0.53120000  0.96734000  1.0
  H  H54  1  0.69067000  0.03120000  0.46734000  1.0
  H  H55  1  0.19067000  0.46880000  0.03266000  1.0
  H  H56  1  0.30928000  0.97780000  0.42498000  1.0
  H  H57  1  0.80928000  0.52220000  0.07501000  1.0
  H  H58  1  0.69071000  0.02219000  0.57502000  1.0
  H  H59  1  0.19072000  0.47780000  0.92499000  1.0
  H  H60  1  0.20579000  0.03665000  0.45404000  1.0
  H  H61  1  0.70580000  0.46335000  0.04595000  1.0
  H  H62  1  0.79421000  0.96336000  0.54595000  1.0
  H  H63  1  0.29421000  0.53664000  0.95405000  1.0
  H  H64  1  0.26968000  0.13143000  0.37247000  1.0
  H  H65  1  0.76968000  0.36857000  0.12753000  1.0
  H  H66  1  0.73031000  0.86857000  0.62753000  1.0
  H  H67  1  0.23032000  0.63143000  0.87248000  1.0
  H  H68  1  0.28553000  0.19351000  0.43795000  1.0
  H  H69  1  0.78553000  0.30650000  0.06205000  1.0
  H  H70  1  0.71447000  0.80649000  0.56205000  1.0
  H  H71  1  0.21447000  0.69350000  0.93795000  1.0
  H  H72  1  0.46367000  0.14604000  0.44072000  1.0
  H  H73  1  0.96367000  0.35396000  0.05929000  1.0
  H  H74  1  0.53633000  0.85395000  0.55928000  1.0
  H  H75  1  0.03633000  0.64604000  0.94072000  1.0
  H  H76  1  0.43138000  0.21378000  0.37668000  1.0
  H  H77  1  0.93137000  0.28622000  0.12333000  1.0
  H  H78  1  0.56862000  0.78622000  0.62332000  1.0
  H  H79  1  0.06862000  0.71378000  0.87667000  1.0
  H  H80  1  0.45138000  0.47583000  0.72324000  1.0
  H  H81  1  0.95138000  0.02415000  0.77676000  1.0
  H  H82  1  0.54863000  0.52416000  0.27676000  1.0
  H  H83  1  0.04862000  0.97583000  0.22324000  1.0
  H  H84  1  0.44521000  0.51718000  0.65115000  1.0
  H  H85  1  0.94522000  0.98282000  0.84886000  1.0
  H  H86  1  0.55479000  0.48282000  0.34886000  1.0
  H  H87  1  0.05479000  0.01718000  0.15114000  1.0
  H  H88  1  0.61806000  0.43529000  0.63659000  1.0
  H  H89  1  0.11807000  0.06471000  0.86342000  1.0
  H  H90  1  0.38194000  0.56471000  0.36341000  1.0
  H  H91  1  0.88194000  0.93529000  0.13659000  1.0
  H  H92  1  0.61330000  0.54262000  0.67463000  1.0
  H  H93  1  0.11331000  0.95738000  0.82538000  1.0
  H  H94  1  0.38670000  0.45738000  0.32537000  1.0
  H  H95  1  0.88670000  0.04262000  0.17462000  1.0
  H  H96  1  0.61692000  0.34371000  0.73242000  1.0
  H  H97  1  0.11692000  0.15629000  0.76759000  1.0
  H  H98  1  0.38308000  0.65629000  0.26758000  1.0
  H  H99  1  0.88307000  0.84372000  0.23242000  1.0
  H  H100  1  0.61066000  0.45047000  0.77030000  1.0
  H  H101  1  0.11066000  0.04952000  0.72971000  1.0
  H  H102  1  0.38934000  0.54953000  0.22970000  1.0
  H  H103  1  0.88934000  0.95048000  0.27030000  1.0
  H  H104  1  0.78280000  0.38948000  0.69193000  1.0
  H  H105  1  0.28280000  0.11052000  0.80807000  1.0
  H  H106  1  0.21721000  0.61051000  0.30807000  1.0
  H  H107  1  0.71720000  0.88949000  0.19193000  1.0
  H  H108  1  0.77648000  0.49936000  0.72507000  1.0
  H  H109  1  0.27648000  0.00064000  0.77493000  1.0
  H  H110  1  0.22352000  0.50064000  0.27493000  1.0
  H  H111  1  0.72352000  0.99937000  0.22507000  1.0
  H  H112  1  0.21043000  0.25322000  0.83872000  1.0
  H  H113  1  0.71042000  0.24678000  0.66128000  1.0
  H  H114  1  0.78958000  0.74678000  0.16128000  1.0
  H  H115  1  0.28957000  0.75323000  0.33872000  1.0
  H  H116  1  0.22200000  0.35483000  0.87944000  1.0
  H  H117  1  0.72200000  0.14517000  0.62055000  1.0
  H  H118  1  0.77800000  0.64517000  0.12056000  1.0
  H  H119  1  0.27800000  0.85485000  0.37944000  1.0
  H  H120  1  0.37509000  0.27940000  0.79362000  1.0
  H  H121  1  0.87509000  0.22060000  0.70638000  1.0
  H  H122  1  0.62491000  0.72060000  0.20639000  1.0
  H  H123  1  0.12491000  0.77940000  0.29361000  1.0
  H  H124  1  0.38238000  0.39374000  0.82300000  1.0
  H  H125  1  0.88238000  0.10626000  0.67700000  1.0
  H  H126  1  0.61762000  0.60626000  0.17700000  1.0
  H  H127  1  0.11761000  0.89374000  0.32300000  1.0
  H  H128  1  0.38248000  0.32752000  0.92379000  1.0
  H  H129  1  0.88249000  0.17248000  0.57621000  1.0
  H  H130  1  0.61752000  0.67247000  0.07621000  1.0
  H  H131  1  0.11751000  0.82752000  0.42379000  1.0
  H  H132  1  0.36299000  0.21151000  0.89881000  1.0
  H  H133  1  0.86300000  0.28849000  0.60119000  1.0
  H  H134  1  0.63701000  0.78848000  0.10119000  1.0
  H  H135  1  0.13700000  0.71152000  0.39880000  1.0
  H  H136  1  0.54726000  0.32587000  0.86451000  1.0
  H  H137  1  0.04726000  0.17413000  0.63549000  1.0
  H  H138  1  0.45274000  0.67413000  0.13549000  1.0
  H  H139  1  0.95274000  0.82588000  0.36451000  1.0
  H  H140  1  0.54136000  0.25785000  0.92930000  1.0
  H  H141  1  0.04137000  0.24214000  0.57070000  1.0
  H  H142  1  0.45865000  0.74214000  0.07070000  1.0
  H  H143  1  0.95864000  0.75786000  0.42930000  1.0
  H  H144  1  0.18928000  0.62516000  0.74777000  1.0
  H  H145  1  0.68929000  0.87485000  0.75223000  1.0
  H  H146  1  0.81071000  0.37485000  0.25224000  1.0
  H  H147  1  0.31070000  0.12515000  0.24776000  1.0
  H  H148  1  0.40867000  0.72831000  0.68543000  1.0
  H  H149  1  0.90868000  0.77170000  0.81456000  1.0
  H  H150  1  0.59132000  0.27170000  0.31457000  1.0
  H  H151  1  0.09131000  0.22830000  0.18544000  1.0
  H  H152  1  0.42085000  0.80694000  0.74581000  1.0
  H  H153  1  0.92086000  0.69306000  0.75419000  1.0
  H  H154  1  0.57914000  0.19307000  0.25419000  1.0
  H  H155  1  0.07914000  0.30694000  0.24582000  1.0
  H  H156  1  0.34994000  0.84215000  0.68392000  1.0
  H  H157  1  0.84995000  0.65786000  0.81608000  1.0
  H  H158  1  0.65005000  0.15787000  0.31608000  1.0
  H  H159  1  0.15004000  0.34214000  0.18393000  1.0
  H  H160  1  0.17053000  0.74807000  0.79882000  1.0
  H  H161  1  0.67053000  0.75193000  0.70118000  1.0
  H  H162  1  0.82946000  0.25194000  0.20118000  1.0
  H  H163  1  0.32947000  0.24806000  0.29882000  1.0
  H  H164  1  0.19988000  0.85557000  0.75953000  1.0
  H  H165  1  0.69988000  0.64443000  0.74047000  1.0
  H  H166  1  0.80011000  0.14443000  0.24047000  1.0
  H  H167  1  0.30012000  0.35556000  0.25953000  1.0
  H  H168  1  0.27953000  0.81422000  0.81645000  1.0
  H  H169  1  0.77953000  0.68577000  0.68355000  1.0
  H  H170  1  0.72046000  0.18578000  0.18355000  1.0
  H  H171  1  0.22047000  0.31422000  0.31645000  1.0
  H  H172  1  0.48101000  0.29214000  0.53354000  1.0
  H  H173  1  0.98103000  0.20785000  0.96646000  1.0
  H  H174  1  0.51898000  0.70784000  0.46646000  1.0
  H  H175  1  0.01898000  0.79214000  0.03354000  1.0
  H  H176  1  0.72932000  0.22260000  0.49832000  1.0
  H  H177  1  0.22933000  0.27740000  0.00168000  1.0
  H  H178  1  0.27068000  0.77740000  0.50168000  1.0
  H  H179  1  0.77067000  0.72260000  0.99832000  1.0
  H  H180  1  0.74682000  0.32973000  0.45438000  1.0
  H  H181  1  0.24683000  0.17027000  0.04562000  1.0
  H  H182  1  0.25317000  0.67028000  0.54562000  1.0
  H  H183  1  0.75317000  0.82973000  0.95438000  1.0
  H  H184  1  0.69420000  0.22707000  0.42270000  1.0
  H  H185  1  0.19422000  0.27293000  0.07730000  1.0
  H  H186  1  0.30580000  0.77293000  0.57729000  1.0
  H  H187  1  0.80579000  0.72707000  0.92271000  1.0
  H  H188  1  0.48376000  0.39133000  0.46289000  1.0
  H  H189  1  0.98377000  0.10867000  0.03712000  1.0
  H  H190  1  0.51624000  0.60867000  0.53712000  1.0
  H  H191  1  0.01624000  0.89133000  0.96289000  1.0
  H  H192  1  0.54263000  0.34599000  0.39950000  1.0
  H  H193  1  0.04265000  0.15402000  0.10051000  1.0
  H  H194  1  0.45736000  0.65401000  0.60050000  1.0
  H  H195  1  0.95736000  0.84598000  0.89950000  1.0
  H  H196  1  0.60207000  0.43563000  0.43979000  1.0
  H  H197  1  0.10208000  0.06437000  0.06022000  1.0
  H  H198  1  0.39793000  0.56437000  0.56022000  1.0
  H  H199  1  0.89792000  0.93563000  0.93979000  1.0
  C  C200  1  0.25170000  0.44248000  0.52782000  1.0
  C  C201  1  0.75170000  0.05753000  0.97218000  1.0
  C  C202  1  0.74830000  0.55752000  0.47218000  1.0
  C  C203  1  0.24830000  0.94248000  0.02782000  1.0
  C  C204  1  0.24520000  0.48397000  0.46598000  1.0
  C  C205  1  0.74519000  0.01603000  0.03403000  1.0
  C  C206  1  0.75481000  0.51603000  0.53402000  1.0
  C  C207  1  0.25480000  0.98397000  0.96598000  1.0
  C  C208  1  0.13820000  0.48341000  0.44428000  1.0
  C  C209  1  0.63820000  0.01660000  0.05572000  1.0
  C  C210  1  0.86180000  0.51659000  0.55572000  1.0
  C  C211  1  0.36180000  0.98341000  0.94428000  1.0
  C  C212  1  0.09476000  0.38339000  0.44161000  1.0
  C  C213  1  0.59475000  0.11662000  0.05839000  1.0
  C  C214  1  0.90525000  0.61661000  0.55839000  1.0
  C  C215  1  0.40525000  0.88339000  0.94161000  1.0
  C  C216  1  0.99353000  0.38169000  0.41282000  1.0
  C  C217  1  0.49352000  0.11831000  0.08718000  1.0
  C  C218  1  0.00647000  0.61831000  0.58718000  1.0
  C  C219  1  0.50647000  0.88170000  0.91282000  1.0
  C  C220  1  0.99372000  0.41790000  0.34999000  1.0
  C  C221  1  0.49370000  0.08211000  0.15002000  1.0
  C  C222  1  0.00629000  0.58210000  0.65002000  1.0
  C  C223  1  0.50629000  0.91790000  0.84998000  1.0
  C  C224  1  0.30332000  0.11676000  0.54687000  1.0
  C  C225  1  0.80333000  0.38324000  0.95312000  1.0
  C  C226  1  0.69668000  0.88324000  0.45312000  1.0
  C  C227  1  0.19668000  0.61676000  0.04687000  1.0
  C  C228  1  0.33346000  0.03453000  0.50988000  1.0
  C  C229  1  0.83347000  0.46546000  0.99011000  1.0
  C  C230  1  0.66653000  0.96546000  0.49011000  1.0
  C  C231  1  0.16653000  0.53454000  0.00989000  1.0
  C  C232  1  0.28604000  0.04046000  0.44901000  1.0
  C  C233  1  0.78605000  0.45954000  0.05098000  1.0
  C  C234  1  0.71395000  0.95954000  0.55098000  1.0
  C  C235  1  0.21395000  0.54045000  0.94902000  1.0
  C  C236  1  0.31108000  0.13137000  0.41388000  1.0
  C  C237  1  0.81107000  0.36864000  0.08612000  1.0
  C  C238  1  0.68893000  0.86863000  0.58611000  1.0
  C  C239  1  0.18893000  0.63136000  0.91388000  1.0
  C  C240  1  0.42110000  0.14528000  0.39990000  1.0
  C  C241  1  0.92110000  0.35473000  0.10011000  1.0
  C  C242  1  0.57890000  0.85472000  0.60010000  1.0
  C  C243  1  0.07890000  0.64528000  0.89990000  1.0
  C  C244  1  0.43515000  0.36816000  0.66112000  1.0
  C  C245  1  0.93516000  0.13183000  0.83888000  1.0
  C  C246  1  0.56485000  0.63183000  0.33888000  1.0
  C  C247  1  0.06485000  0.86816000  0.16112000  1.0
  C  C248  1  0.47927000  0.46182000  0.67896000  1.0
  C  C249  1  0.97928000  0.03817000  0.82105000  1.0
  C  C250  1  0.52073000  0.53817000  0.32104000  1.0
  C  C251  1  0.02073000  0.96182000  0.17895000  1.0
  C  C252  1  0.59118000  0.46733000  0.67705000  1.0
  C  C253  1  0.09118000  0.03267000  0.82296000  1.0
  C  C254  1  0.40882000  0.53267000  0.32295000  1.0
  C  C255  1  0.90882000  0.96733000  0.17705000  1.0
  C  C256  1  0.63914000  0.41862000  0.73009000  1.0
  C  C257  1  0.13914000  0.08138000  0.76991000  1.0
  C  C258  1  0.36087000  0.58139000  0.26991000  1.0
  C  C259  1  0.86086000  0.91862000  0.23009000  1.0
  C  C260  1  0.75085000  0.42557000  0.72980000  1.0
  C  C261  1  0.25085000  0.07443000  0.77020000  1.0
  C  C262  1  0.24916000  0.57443000  0.27020000  1.0
  C  C263  1  0.74915000  0.92558000  0.22980000  1.0
  C  C264  1  0.79740000  0.38084000  0.78398000  1.0
  C  C265  1  0.29739000  0.11916000  0.71602000  1.0
  C  C266  1  0.20260000  0.61916000  0.21602000  1.0
  C  C267  1  0.70260000  0.88084000  0.28398000  1.0
  C  C268  1  0.18681000  0.38186000  0.79111000  1.0
  C  C269  1  0.68681000  0.11813000  0.70888000  1.0
  C  C270  1  0.81319000  0.61813000  0.20889000  1.0
  C  C271  1  0.31319000  0.88187000  0.29111000  1.0
  C  C272  1  0.24248000  0.32496000  0.83701000  1.0
  C  C273  1  0.74248000  0.17504000  0.66299000  1.0
  C  C274  1  0.75752000  0.67504000  0.16299000  1.0
  C  C275  1  0.25752000  0.82497000  0.33701000  1.0
  C  C276  1  0.35373000  0.32162000  0.83135000  1.0
  C  C277  1  0.85373000  0.17839000  0.66864000  1.0
  C  C278  1  0.64627000  0.67838000  0.16865000  1.0
  C  C279  1  0.14627000  0.82162000  0.33135000  1.0
  C  C280  1  0.39892000  0.27969000  0.88760000  1.0
  C  C281  1  0.89892000  0.22031000  0.61240000  1.0
  C  C282  1  0.60108000  0.72031000  0.11240000  1.0
  C  C283  1  0.10107000  0.77969000  0.38760000  1.0
  C  C284  1  0.50965000  0.26413000  0.88502000  1.0
  C  C285  1  0.00966000  0.23587000  0.61498000  1.0
  C  C286  1  0.49035000  0.73587000  0.11498000  1.0
  C  C287  1  0.99035000  0.76414000  0.38502000  1.0
  C  C288  1  0.25431000  0.65123000  0.72350000  1.0
  C  C289  1  0.75431000  0.84877000  0.77650000  1.0
  C  C290  1  0.74569000  0.34878000  0.27650000  1.0
  C  C291  1  0.24568000  0.15122000  0.22350000  1.0
  C  C292  1  0.37146000  0.78094000  0.71193000  1.0
  C  C293  1  0.87147000  0.71907000  0.78806000  1.0
  C  C294  1  0.62853000  0.21907000  0.28807000  1.0
  C  C295  1  0.12852000  0.28093000  0.21194000  1.0
  C  C296  1  0.23083000  0.79156000  0.78110000  1.0
  C  C297  1  0.73084000  0.70844000  0.71890000  1.0
  C  C298  1  0.76916000  0.20844000  0.21890000  1.0
  C  C299  1  0.26916000  0.29155000  0.28109000  1.0
  C  C300  1  0.55435000  0.26136000  0.52616000  1.0
  C  C301  1  0.05436000  0.23863000  0.97384000  1.0
  C  C302  1  0.44564000  0.73863000  0.47384000  1.0
  C  C303  1  0.94564000  0.76136000  0.02616000  1.0
  C  C304  1  0.69933000  0.26791000  0.46303000  1.0
  C  C305  1  0.19934000  0.23209000  0.03698000  1.0
  C  C306  1  0.30066000  0.73209000  0.53697000  1.0
  C  C307  1  0.80066000  0.76791000  0.96303000  1.0
  C  C308  1  0.55488000  0.37268000  0.44373000  1.0
  C  C309  1  0.05489000  0.12732000  0.05628000  1.0
  C  C310  1  0.44511000  0.62732000  0.55627000  1.0
  C  C311  1  0.94511000  0.87267000  0.94373000  1.0
  C  C312  1  0.45984000  0.06626000  0.36229000  1.0
  C  C313  1  0.95984000  0.43374000  0.13771000  1.0
  C  C314  1  0.54015000  0.93372000  0.63771000  1.0
  C  C315  1  0.04016000  0.56626000  0.86229000  1.0
  C  C316  1  0.54188000  0.17747000  0.85198000  1.0
  C  C317  1  0.04188000  0.32253000  0.64802000  1.0
  C  C318  1  0.45813000  0.82254000  0.14802000  1.0
  C  C319  1  0.95813000  0.67747000  0.35198000  1.0
  N  N320  1  0.28553000  0.73688000  0.73890000  1.0
  N  N321  1  0.78554000  0.76313000  0.76110000  1.0
  N  N322  1  0.71446000  0.26313000  0.26110000  1.0
  N  N323  1  0.21445000  0.23687000  0.23890000  1.0
  N  N324  1  0.60223000  0.30039000  0.48037000  1.0
  N  N325  1  0.10224000  0.19961000  0.01964000  1.0
  N  N326  1  0.39777000  0.69961000  0.51963000  1.0
  N  N327  1  0.89776000  0.80039000  0.98037000  1.0
  O  O328  1  0.23317000  0.49849000  0.56966000  1.0
  O  O329  1  0.73317000  0.00151000  0.93034000  1.0
  O  O330  1  0.76684000  0.50151000  0.43034000  1.0
  O  O331  1  0.26683000  0.99848000  0.06966000  1.0
  O  O332  1  0.27162000  0.35455000  0.53359000  1.0
  O  O333  1  0.77159000  0.14545000  0.96641000  1.0
  O  O334  1  0.72839000  0.64544000  0.46641000  1.0
  O  O335  1  0.22840000  0.85455000  0.03359000  1.0
  O  O336  1  0.91277000  0.44909000  0.32720000  1.0
  O  O337  1  0.41276000  0.05091000  0.17280000  1.0
  O  O338  1  0.08723000  0.55091000  0.67280000  1.0
  O  O339  1  0.58723000  0.94909000  0.82720000  1.0
  O  O340  1  0.07194000  0.42006000  0.31990000  1.0
  O  O341  1  0.57192000  0.07996000  0.18011000  1.0
  O  O342  1  0.92807000  0.57994000  0.68011000  1.0
  O  O343  1  0.42807000  0.92006000  0.81989000  1.0
  O  O344  1  0.21386000  0.13886000  0.55273000  1.0
  O  O345  1  0.71387000  0.36114000  0.94727000  1.0
  O  O346  1  0.78614000  0.86114000  0.44727000  1.0
  O  O347  1  0.28614000  0.63886000  0.05273000  1.0
  O  O348  1  0.37047000  0.16738000  0.57176000  1.0
  O  O349  1  0.87048000  0.33261000  0.92823000  1.0
  O  O350  1  0.62953000  0.83262000  0.42823000  1.0
  O  O351  1  0.12953000  0.66739000  0.07176000  1.0
  O  O352  1  0.49036000  0.29805000  0.65246000  1.0
  O  O353  1  0.99035000  0.20195000  0.84755000  1.0
  O  O354  1  0.50965000  0.70195000  0.34754000  1.0
  O  O355  1  0.00965000  0.79804000  0.15246000  1.0
  O  O356  1  0.34120000  0.36616000  0.65481000  1.0
  O  O357  1  0.84120000  0.13383000  0.84519000  1.0
  O  O358  1  0.65881000  0.63383000  0.34520000  1.0
  O  O359  1  0.15880000  0.86616000  0.15480000  1.0
  O  O360  1  0.88793000  0.40185000  0.79528000  1.0
  O  O361  1  0.38793000  0.09816000  0.70472000  1.0
  O  O362  1  0.11207000  0.59815000  0.20472000  1.0
  O  O363  1  0.61207000  0.90185000  0.29528000  1.0
  O  O364  1  0.74625000  0.32537000  0.81521000  1.0
  O  O365  1  0.24624000  0.17462000  0.68478000  1.0
  O  O366  1  0.25375000  0.67463000  0.18479000  1.0
  O  O367  1  0.75375000  0.82537000  0.31521000  1.0
  O  O368  1  0.23098000  0.43536000  0.75482000  1.0
  O  O369  1  0.73098000  0.06464000  0.74518000  1.0
  O  O370  1  0.76902000  0.56464000  0.24518000  1.0
  O  O371  1  0.26902000  0.93536000  0.25482000  1.0
  O  O372  1  0.09200000  0.37403000  0.79296000  1.0
  O  O373  1  0.59200000  0.12595000  0.70703000  1.0
  O  O374  1  0.90800000  0.62596000  0.20703000  1.0
  O  O375  1  0.40800000  0.87404000  0.29296000  1.0
  O  O376  1  0.29462000  0.60314000  0.68449000  1.0
  O  O377  1  0.79462000  0.89686000  0.81551000  1.0
  O  O378  1  0.70539000  0.39687000  0.31551000  1.0
  O  O379  1  0.20537000  0.10313000  0.18449000  1.0
  O  O380  1  0.58733000  0.19552000  0.55835000  1.0
  O  O381  1  0.08734000  0.30447000  0.94165000  1.0
  O  O382  1  0.41266000  0.80447000  0.44165000  1.0
  O  O383  1  0.91266000  0.69552000  0.05835000  1.0
  O  O384  1  0.45664000  0.07809000  0.30663000  1.0
  O  O385  1  0.95664000  0.42191000  0.19337000  1.0
  O  O386  1  0.54336000  0.92190000  0.69337000  1.0
  O  O387  1  0.04336000  0.57809000  0.80663000  1.0
  O  O388  1  0.49039000  0.99194000  0.38924000  1.0
  O  O389  1  0.99040000  0.50806000  0.11076000  1.0
  O  O390  1  0.50959000  0.00804000  0.61076000  1.0
  O  O391  1  0.00961000  0.49194000  0.88924000  1.0
  O  O392  1  0.63413000  0.15582000  0.85591000  1.0
  O  O393  1  0.13413000  0.34417000  0.64409000  1.0
  O  O394  1  0.36588000  0.84418000  0.14409000  1.0
  O  O395  1  0.86588000  0.65583000  0.35591000  1.0
  O  O396  1  0.48034000  0.13079000  0.82336000  1.0
  O  O397  1  0.98034000  0.36921000  0.67664000  1.0
  O  O398  1  0.51968000  0.86922000  0.17663000  1.0
  O  O399  1  0.01967000  0.63080000  0.32336000  1.0
