# generated using pymatgen
data_AgH3C4(NO)3
_symmetry_space_group_name_H-M   'P 1'
_cell_length_a   3.52263000
_cell_length_b   10.63930000
_cell_length_c   16.54410000
_cell_angle_alpha   88.85540000
_cell_angle_beta   84.05970000
_cell_angle_gamma   80.66940000
_symmetry_Int_Tables_number   1
_chemical_formula_structural   AgH3C4(NO)3
_chemical_formula_sum   'Ag4 H12 C16 N12 O12'
_cell_volume   608.55273015
_cell_formula_units_Z   4
loop_
 _symmetry_equiv_pos_site_id
 _symmetry_equiv_pos_as_xyz
  1  'x, y, z'
loop_
 _atom_site_type_symbol
 _atom_site_label
 _atom_site_symmetry_multiplicity
 _atom_site_fract_x
 _atom_site_fract_y
 _atom_site_fract_z
 _atom_site_occupancy
  Ag  Ag0  1  0.50910000  0.84386000  0.84391000  1.0
  Ag  Ag1  1  0.19822000  0.65639000  0.65592000  1.0
  Ag  Ag2  1  0.49089000  0.15614000  0.15609000  1.0
  Ag  Ag3  1  0.80179000  0.34361000  0.34408000  1.0
  H  H4  1  0.92923000  0.86819000  0.19603000  1.0
  H  H5  1  0.98931000  0.63259000  0.30414000  1.0
  H  H6  1  0.07080000  0.13180000  0.80396000  1.0
  H  H7  1  0.01068000  0.36741000  0.69585000  1.0
  H  H8  1  0.10299000  0.65318000  0.12513000  1.0
  H  H9  1  0.87681000  0.84798000  0.37480000  1.0
  H  H10  1  0.89702000  0.34682000  0.87487000  1.0
  H  H11  1  0.12316000  0.15202000  0.62520000  1.0
  H  H12  1  0.94416000  0.64419000  0.97974000  1.0
  H  H13  1  0.56251000  0.85694000  0.51973000  1.0
  H  H14  1  0.05583000  0.35579000  0.02026000  1.0
  H  H15  1  0.43747000  0.14306000  0.48027000  1.0
  C  C16  1  0.60317000  0.94321000  0.02040000  1.0
  C  C17  1  0.56559000  0.55704000  0.47956000  1.0
  C  C18  1  0.39681000  0.05678000  0.97960000  1.0
  C  C19  1  0.43444000  0.44296000  0.52044000  1.0
  C  C20  1  0.86270000  0.85397000  0.13427000  1.0
  C  C21  1  0.84751000  0.64674000  0.36580000  1.0
  C  C22  1  0.13729000  0.14602000  0.86573000  1.0
  C  C23  1  0.15250000  0.35326000  0.63420000  1.0
  C  C24  1  0.95664000  0.73665000  0.09543000  1.0
  C  C25  1  0.78490000  0.76422000  0.40446000  1.0
  C  C26  1  0.04336000  0.26334000  0.90457000  1.0
  C  C27  1  0.21508000  0.23578000  0.59554000  1.0
  C  C28  1  0.87059000  0.73127000  0.01541000  1.0
  C  C29  1  0.61347000  0.76956000  0.48432000  1.0
  C  C30  1  0.12941000  0.26872000  0.98459000  1.0
  C  C31  1  0.38652000  0.23045000  0.51568000  1.0
  N  N32  1  0.69517000  0.83448000  0.97786000  1.0
  N  N33  1  0.50505000  0.66603000  0.52191000  1.0
  N  N34  1  0.30482000  0.16550000  0.02214000  1.0
  N  N35  1  0.49496000  0.33396000  0.47809000  1.0
  N  N36  1  0.68656000  0.95739000  0.09678000  1.0
  N  N37  1  0.73866000  0.54300000  0.40332000  1.0
  N  N38  1  0.31345000  0.04261000  0.90322000  1.0
  N  N39  1  0.26135000  0.45699000  0.59667000  1.0
  N  N40  1  0.82942000  0.94663000  0.67383000  1.0
  N  N41  1  0.45328000  0.55255000  0.82626000  1.0
  N  N42  1  0.17059000  0.05337000  0.32618000  1.0
  N  N43  1  0.54673000  0.44745000  0.17374000  1.0
  O  O44  1  0.00138000  0.94804000  0.60380000  1.0
  O  O45  1  0.55512000  0.55115000  0.89655000  1.0
  O  O46  1  0.99865000  0.05196000  0.39621000  1.0
  O  O47  1  0.44487000  0.44885000  0.10345000  1.0
  O  O48  1  0.71019000  0.04596000  0.71459000  1.0
  O  O49  1  0.47753000  0.45332000  0.78505000  1.0
  O  O50  1  0.28979000  0.95403000  0.28541000  1.0
  O  O51  1  0.52252000  0.54669000  0.21494000  1.0
  O  O52  1  0.77034000  0.83739000  0.70603000  1.0
  O  O53  1  0.31495000  0.66152000  0.79422000  1.0
  O  O54  1  0.22967000  0.16261000  0.29397000  1.0
  O  O55  1  0.68504000  0.33848000  0.20578000  1.0
