# generated using pymatgen
data_AlH15(C3O)12
_symmetry_space_group_name_H-M   'P 1'
_cell_length_a   4.15340000
_cell_length_b   20.08788213
_cell_length_c   20.42540000
_cell_angle_alpha   117.71222731
_cell_angle_beta   95.39490000
_cell_angle_gamma   95.61732509
_symmetry_Int_Tables_number   1
_chemical_formula_structural   AlH15(C3O)12
_chemical_formula_sum   'Al1 H15 C36 O12'
_cell_volume   1482.48138303
_cell_formula_units_Z   1
loop_
 _symmetry_equiv_pos_site_id
 _symmetry_equiv_pos_as_xyz
  1  'x, y, z'
loop_
 _atom_site_type_symbol
 _atom_site_label
 _atom_site_symmetry_multiplicity
 _atom_site_fract_x
 _atom_site_fract_y
 _atom_site_fract_z
 _atom_site_occupancy
  Al  Al0  1  0.47536000  0.50281000  0.50413000  1.0
  H  H1  1  0.86042000  0.69290000  0.70744000  1.0
  H  H2  1  0.95374000  0.76409000  0.84752000  1.0
  H  H3  1  0.07043000  0.29239000  0.31623000  1.0
  H  H4  1  0.92410000  0.15011000  0.24474000  1.0
  H  H5  1  0.38118000  0.69115000  0.48317000  1.0
  H  H6  1  0.42106000  0.76306000  0.41130000  1.0
  H  H7  1  0.55335000  0.29624000  0.49043000  1.0
  H  H8  1  0.43405000  0.15386000  0.42334000  1.0
  H  H9  1  0.34762000  0.51586000  0.71223000  1.0
  H  H10  1  0.41337000  0.58236000  0.85220000  1.0
  H  H11  1  0.63526000  0.52117000  0.30911000  1.0
  H  H12  1  0.69359000  0.58865000  0.23333000  1.0
  H  H13  1  0.69067000  0.94646000  0.36661000  1.0
  H  H14  1  0.38559000  0.63107000  0.04791000  1.0
  H  H15  1  0.63943000  0.82640000  0.00647000  1.0
  C  C16  1  0.05229000  0.55983000  0.61845000  1.0
  C  C17  1  0.98128000  0.56112000  0.44498000  1.0
  C  C18  1  0.89222000  0.38704000  0.44851000  1.0
  C  C19  1  0.98666000  0.67016000  0.73990000  1.0
  C  C20  1  0.03613000  0.70935000  0.81763000  1.0
  C  C21  1  0.92749000  0.26149000  0.33852000  1.0
  C  C22  1  0.84906000  0.18265000  0.29910000  1.0
  C  C23  1  0.22624000  0.67043000  0.42932000  1.0
  C  C24  1  0.24956000  0.71010000  0.38922000  1.0
  C  C25  1  0.63919000  0.26352000  0.43747000  1.0
  C  C26  1  0.57162000  0.18454000  0.40005000  1.0
  C  C27  1  0.25766000  0.56953000  0.74256000  1.0
  C  C28  1  0.29590000  0.60671000  0.82027000  1.0
  C  C29  1  0.80835000  0.57375000  0.33051000  1.0
  C  C30  1  0.83981000  0.61142000  0.28854000  1.0
  C  C31  1  0.10049000  0.60064000  0.70193000  1.0
  C  C32  1  0.18905000  0.67762000  0.85879000  1.0
  C  C33  1  0.23500000  0.71731000  0.93813000  1.0
  C  C34  1  0.27563000  0.75400000  0.00648000  1.0
  C  C35  1  0.30865000  0.79534000  0.08584000  1.0
  C  C36  1  0.81976000  0.30249000  0.40740000  1.0
  C  C37  1  0.67153000  0.14316000  0.32977000  1.0
  C  C38  1  0.58987000  0.06309000  0.28877000  1.0
  C  C39  1  0.51804000  0.99462000  0.24721000  1.0
  C  C40  1  0.42433000  0.91497000  0.20447000  1.0
  C  C41  1  0.00318000  0.60251000  0.40075000  1.0
  C  C42  1  0.05886000  0.68060000  0.31776000  1.0
  C  C43  1  0.09582000  0.71978000  0.27598000  1.0
  C  C44  1  0.13876000  0.75478000  0.24137000  1.0
  C  C45  1  0.21643000  0.79507000  0.20232000  1.0
  C  C46  1  0.43046000  0.87471000  0.12604000  1.0
  C  C47  1  0.31748000  0.87453000  0.24160000  1.0
  C  C48  1  0.20030000  0.75620000  0.12389000  1.0
  C  C49  1  0.24075000  0.91609000  0.32013000  1.0
  C  C50  1  0.00860000  0.67690000  0.08124000  1.0
  C  C51  1  0.55314000  0.91953000  0.08871000  1.0
  O  O52  1  0.13968000  0.41962000  0.43558000  1.0
  O  O53  1  0.25442000  0.51517000  0.58751000  1.0
  O  O54  1  0.23574000  0.57335000  0.49199000  1.0
  O  O55  1  0.69982000  0.42133000  0.49441000  1.0
  O  O56  1  0.71402000  0.51721000  0.43330000  1.0
  O  O57  1  0.81185000  0.57321000  0.58497000  1.0
  O  O58  1  0.46105000  0.95572000  0.37994000  1.0
  O  O59  1  0.94515000  0.91045000  0.32421000  1.0
  O  O60  1  0.13512000  0.61788000  0.03674000  1.0
  O  O61  1  0.71729000  0.67038000  0.08883000  1.0
  O  O62  1  0.68619000  0.88183000  0.02546000  1.0
  O  O63  1  0.54828000  0.98740000  0.11434000  1.0
