# generated using pymatgen
data_Zn2H9C11NO7
_symmetry_space_group_name_H-M   'P 1'
_cell_length_a   7.46660000
_cell_length_b   11.81500000
_cell_length_c   13.71500000
_cell_angle_alpha   85.94180000
_cell_angle_beta   89.99980000
_cell_angle_gamma   89.99990000
_symmetry_Int_Tables_number   1
_chemical_formula_structural   Zn2H9C11NO7
_chemical_formula_sum   'Zn8 H36 C44 N4 O28'
_cell_volume   1206.87458134
_cell_formula_units_Z   4
loop_
 _symmetry_equiv_pos_site_id
 _symmetry_equiv_pos_as_xyz
  1  'x, y, z'
loop_
 _atom_site_type_symbol
 _atom_site_label
 _atom_site_symmetry_multiplicity
 _atom_site_fract_x
 _atom_site_fract_y
 _atom_site_fract_z
 _atom_site_occupancy
  Zn  Zn0  1  0.55921000  0.17480000  0.89611000  1.0
  Zn  Zn1  1  0.05921000  0.82520000  0.60390000  1.0
  Zn  Zn2  1  0.44079000  0.82520000  0.10389000  1.0
  Zn  Zn3  1  0.94079000  0.17480000  0.39611000  1.0
  Zn  Zn4  1  0.77810000  0.08785000  0.21098000  1.0
  Zn  Zn5  1  0.27809000  0.91215000  0.28902000  1.0
  Zn  Zn6  1  0.22191000  0.91215000  0.78902000  1.0
  Zn  Zn7  1  0.72191000  0.08785000  0.71098000  1.0
  H  H8  1  0.83850000  0.04808000  0.87373000  1.0
  H  H9  1  0.33850000  0.95192000  0.62627000  1.0
  H  H10  1  0.16150000  0.95192000  0.12627000  1.0
  H  H11  1  0.66150000  0.04808000  0.37373000  1.0
  H  H12  1  0.22039000  0.22398000  0.14466000  1.0
  H  H13  1  0.72038000  0.77602000  0.35534000  1.0
  H  H14  1  0.77962000  0.77602000  0.85534000  1.0
  H  H15  1  0.27962000  0.22398000  0.64466000  1.0
  H  H16  1  0.35423000  0.34212000  0.11130000  1.0
  H  H17  1  0.85422000  0.65788000  0.38870000  1.0
  H  H18  1  0.64577000  0.65788000  0.88870000  1.0
  H  H19  1  0.14578000  0.34213000  0.61130000  1.0
  H  H20  1  0.99347000  0.19650000  0.95592000  1.0
  H  H21  1  0.49346000  0.80349000  0.54408000  1.0
  H  H22  1  0.00654000  0.80349000  0.04408000  1.0
  H  H23  1  0.50654000  0.19651000  0.45592000  1.0
  H  H24  1  0.11611000  0.11225000  0.04194000  1.0
  H  H25  1  0.61611000  0.88775000  0.45806000  1.0
  H  H26  1  0.88389000  0.88775000  0.95806000  1.0
  H  H27  1  0.38389000  0.11225000  0.54194000  1.0
  H  H28  1  0.09843000  0.28445000  0.81501000  1.0
  H  H29  1  0.59843000  0.71554000  0.68499000  1.0
  H  H30  1  0.90157000  0.71554000  0.18499000  1.0
  H  H31  1  0.40157000  0.28446000  0.31501000  1.0
  H  H32  1  0.03475000  0.46228000  0.71898000  1.0
  H  H33  1  0.53475000  0.53772000  0.78102000  1.0
  H  H34  1  0.96525000  0.53772000  0.28101000  1.0
  H  H35  1  0.46525000  0.46228000  0.21899000  1.0
  H  H36  1  0.31410000  0.47857000  0.04642000  1.0
  H  H37  1  0.81410000  0.52143000  0.45358000  1.0
  H  H38  1  0.68590000  0.52143000  0.95358000  1.0
  H  H39  1  0.18590000  0.47857000  0.54642000  1.0
  H  H40  1  0.23729000  0.65206000  0.95082000  1.0
  H  H41  1  0.73729000  0.34794000  0.54918000  1.0
  H  H42  1  0.76271000  0.34794000  0.04918000  1.0
  H  H43  1  0.26271000  0.65206000  0.45082000  1.0
  C  C44  1  0.49130000  0.18761000  0.10755000  1.0
  C  C45  1  0.99130000  0.81239000  0.39245000  1.0
  C  C46  1  0.50870000  0.81239000  0.89245000  1.0
  C  C47  1  0.00870000  0.18761000  0.60755000  1.0
  C  C48  1  0.32037000  0.25674000  0.09093000  1.0
  C  C49  1  0.82037000  0.74326000  0.40907000  1.0
  C  C50  1  0.67963000  0.74326000  0.90907000  1.0
  C  C51  1  0.17963000  0.25675000  0.59093000  1.0
  C  C52  1  0.18871000  0.08902000  0.89696000  1.0
  C  C53  1  0.68869000  0.91098000  0.60304000  1.0
  C  C54  1  0.81130000  0.91098000  0.10304000  1.0
  C  C55  1  0.31130000  0.08902000  0.39696000  1.0
  C  C56  1  0.13005000  0.16664000  0.97421000  1.0
  C  C57  1  0.63005000  0.83336000  0.52579000  1.0
  C  C58  1  0.86995000  0.83335000  0.02579000  1.0
  C  C59  1  0.36995000  0.16665000  0.47421000  1.0
  C  C60  1  0.21280000  0.36484000  0.93942000  1.0
  C  C61  1  0.71280000  0.63516000  0.56059000  1.0
  C  C62  1  0.78719000  0.63516000  0.06059000  1.0
  C  C63  1  0.28719000  0.36484000  0.43941000  1.0
  C  C64  1  0.13199000  0.36404000  0.84609000  1.0
  C  C65  1  0.63199000  0.63596000  0.65391000  1.0
  C  C66  1  0.86801000  0.63596000  0.15391000  1.0
  C  C67  1  0.36801000  0.36404000  0.34609000  1.0
  C  C68  1  0.09677000  0.46435000  0.79080000  1.0
  C  C69  1  0.59677000  0.53565000  0.70920000  1.0
  C  C70  1  0.90322000  0.53565000  0.20920000  1.0
  C  C71  1  0.40322000  0.46435000  0.29080000  1.0
  C  C72  1  0.25346000  0.47104000  0.97503000  1.0
  C  C73  1  0.75346000  0.52896000  0.52497000  1.0
  C  C74  1  0.74654000  0.52895000  0.02497000  1.0
  C  C75  1  0.24654000  0.47105000  0.47503000  1.0
  C  C76  1  0.21081000  0.57088000  0.92063000  1.0
  C  C77  1  0.71081000  0.42912000  0.57937000  1.0
  C  C78  1  0.78919000  0.42912000  0.07937000  1.0
  C  C79  1  0.28919000  0.57088000  0.42063000  1.0
  C  C80  1  0.13481000  0.56968000  0.82709000  1.0
  C  C81  1  0.63480000  0.43032000  0.67291000  1.0
  C  C82  1  0.86519000  0.43032000  0.17291000  1.0
  C  C83  1  0.36519000  0.56968000  0.32709000  1.0
  C  C84  1  0.10191000  0.67755000  0.76890000  1.0
  C  C85  1  0.60191000  0.32244000  0.73110000  1.0
  C  C86  1  0.89810000  0.32244000  0.23110000  1.0
  C  C87  1  0.39809000  0.67756000  0.26890000  1.0
  N  N88  1  0.24755000  0.26115000  0.99231000  1.0
  N  N89  1  0.74755000  0.73885000  0.50769000  1.0
  N  N90  1  0.75245000  0.73885000  0.00769000  1.0
  N  N91  1  0.25245000  0.26115000  0.49231000  1.0
  O  O92  1  0.59046000  0.15915000  0.03780000  1.0
  O  O93  1  0.09045000  0.84085000  0.46220000  1.0
  O  O94  1  0.40955000  0.84085000  0.96220000  1.0
  O  O95  1  0.90955000  0.15915000  0.53780000  1.0
  O  O96  1  0.53465000  0.16429000  0.19616000  1.0
  O  O97  1  0.03465000  0.83571000  0.30384000  1.0
  O  O98  1  0.46535000  0.83571000  0.80384000  1.0
  O  O99  1  0.96536000  0.16429000  0.69616000  1.0
  O  O100  1  0.33730000  0.09879000  0.85278000  1.0
  O  O101  1  0.83730000  0.90120000  0.64722000  1.0
  O  O102  1  0.66270000  0.90120000  0.14722000  1.0
  O  O103  1  0.16270000  0.09880000  0.35278000  1.0
  O  O104  1  0.08130000  0.00874000  0.87871000  1.0
  O  O105  1  0.58130000  0.99126000  0.62129000  1.0
  O  O106  1  0.91870000  0.99126000  0.12129000  1.0
  O  O107  1  0.41870000  0.00874000  0.37871000  1.0
  O  O108  1  0.09824000  0.67645000  0.67502000  1.0
  O  O109  1  0.59825000  0.32355000  0.82498000  1.0
  O  O110  1  0.90176000  0.32355000  0.32498000  1.0
  O  O111  1  0.40176000  0.67645000  0.17502000  1.0
  O  O112  1  0.08006000  0.76728000  0.81481000  1.0
  O  O113  1  0.58006000  0.23272000  0.68519000  1.0
  O  O114  1  0.91995000  0.23272000  0.18519000  1.0
  O  O115  1  0.41994000  0.76728000  0.31481000  1.0
  O  O116  1  0.71358000  0.05340000  0.85171000  1.0
  O  O117  1  0.21358000  0.94659000  0.64829000  1.0
  O  O118  1  0.28642000  0.94659000  0.14829000  1.0
  O  O119  1  0.78642000  0.05341000  0.35171000  1.0
