# generated using pymatgen
data_GdPH12C13NO11
_symmetry_space_group_name_H-M   'P 1'
_cell_length_a   7.30174000
_cell_length_b   9.58421000
_cell_length_c   12.31400000
_cell_angle_alpha   111.26380000
_cell_angle_beta   91.91050000
_cell_angle_gamma   90.79410000
_symmetry_Int_Tables_number   1
_chemical_formula_structural   GdPH12C13NO11
_chemical_formula_sum   'Gd2 P2 H24 C26 N2 O22'
_cell_volume   802.32554196
_cell_formula_units_Z   2
loop_
 _symmetry_equiv_pos_site_id
 _symmetry_equiv_pos_as_xyz
  1  'x, y, z'
loop_
 _atom_site_type_symbol
 _atom_site_label
 _atom_site_symmetry_multiplicity
 _atom_site_fract_x
 _atom_site_fract_y
 _atom_site_fract_z
 _atom_site_occupancy
  Gd  Gd0  1  0.25352000  0.69997000  0.40706000  1.0
  Gd  Gd1  1  0.74647000  0.30004000  0.59294000  1.0
  P  P2  1  0.28552000  0.48038000  0.10458000  1.0
  P  P3  1  0.71448000  0.51961000  0.89542000  1.0
  H  H4  1  0.87693000  0.72966000  0.34128000  1.0
  H  H5  1  0.12305000  0.27034000  0.65872000  1.0
  H  H6  1  0.89542000  0.90116000  0.41319000  1.0
  H  H7  1  0.10455000  0.09885000  0.58682000  1.0
  H  H8  1  0.35937000  0.52913000  0.94739000  1.0
  H  H9  1  0.64063000  0.47087000  0.05262000  1.0
  H  H10  1  0.22486000  0.72631000  0.70846000  1.0
  H  H11  1  0.77516000  0.27368000  0.29154000  1.0
  H  H12  1  0.41630000  0.74351000  0.95832000  1.0
  H  H13  1  0.58371000  0.25649000  0.04167000  1.0
  H  H14  1  0.48708000  0.79267000  0.15358000  1.0
  H  H15  1  0.51292000  0.20732000  0.84641000  1.0
  H  H16  1  0.41624000  0.04656000  0.30376000  1.0
  H  H17  1  0.58377000  0.95343000  0.69624000  1.0
  H  H18  1  0.26925000  0.23293000  0.24046000  1.0
  H  H19  1  0.73075000  0.76706000  0.75954000  1.0
  H  H20  1  0.03302000  0.21720000  0.86149000  1.0
  H  H21  1  0.96697000  0.78279000  0.13851000  1.0
  H  H22  1  0.10712000  0.96484000  0.72546000  1.0
  H  H23  1  0.89288000  0.03515000  0.27454000  1.0
  H  H24  1  0.08395000  0.34923000  0.18493000  1.0
  H  H25  1  0.91605000  0.65076000  0.81507000  1.0
  H  H26  1  0.98279000  0.38509000  0.06634000  1.0
  H  H27  1  0.01721000  0.61491000  0.93366000  1.0
  C  C28  1  0.41541000  0.87758000  0.13082000  1.0
  C  C29  1  0.58461000  0.12242000  0.86918000  1.0
  C  C30  1  0.37436000  0.01718000  0.21270000  1.0
  C  C31  1  0.62566000  0.98282000  0.78730000  1.0
  C  C32  1  0.28985000  0.12151000  0.17635000  1.0
  C  C33  1  0.71016000  0.87849000  0.82365000  1.0
  C  C34  1  0.23712000  0.08670000  0.05754000  1.0
  C  C35  1  0.76288000  0.91330000  0.94246000  1.0
  C  C36  1  0.14723000  0.18864000  0.01459000  1.0
  C  C37  1  0.85277000  0.81136000  0.98540000  1.0
  C  C38  1  0.10298000  0.14127000  0.89600000  1.0
  C  C39  1  0.89702000  0.85872000  0.10400000  1.0
  C  C40  1  0.14410000  0.99755000  0.81793000  1.0
  C  C41  1  0.85591000  0.00245000  0.18207000  1.0
  C  C42  1  0.23192000  0.89566000  0.85698000  1.0
  C  C43  1  0.76809000  0.10434000  0.14303000  1.0
  C  C44  1  0.27917000  0.94159000  0.97806000  1.0
  C  C45  1  0.72083000  0.05840000  0.02194000  1.0
  C  C46  1  0.10683000  0.34308000  0.09590000  1.0
  C  C47  1  0.89317000  0.65691000  0.90410000  1.0
  C  C48  1  0.45652000  0.42909000  0.45210000  1.0
  C  C49  1  0.54348000  0.57091000  0.54790000  1.0
  C  C50  1  0.04072000  0.54038000  0.56251000  1.0
  C  C51  1  0.95929000  0.45962000  0.43750000  1.0
  C  C52  1  0.42518000  0.03996000  0.54319000  1.0
  C  C53  1  0.57483000  0.96004000  0.45681000  1.0
  N  N54  1  0.36972000  0.84488000  0.01843000  1.0
  N  N55  1  0.63029000  0.15512000  0.98157000  1.0
  O  O56  1  0.25321000  0.62062000  0.21239000  1.0
  O  O57  1  0.74679000  0.37938000  0.78762000  1.0
  O  O58  1  0.96848000  0.80993000  0.37707000  1.0
  O  O59  1  0.03150000  0.19008000  0.62291000  1.0
  O  O60  1  0.24466000  0.51365000  0.98894000  1.0
  O  O61  1  0.75533000  0.48635000  0.01107000  1.0
  O  O62  1  0.47806000  0.41992000  0.10329000  1.0
  O  O63  1  0.52194000  0.58008000  0.89672000  1.0
  O  O64  1  0.27798000  0.75681000  0.79083000  1.0
  O  O65  1  0.72202000  0.24319000  0.20917000  1.0
  O  O66  1  0.34776000  0.45193000  0.37816000  1.0
  O  O67  1  0.65219000  0.54807000  0.62183000  1.0
  O  O68  1  0.49974000  0.30374000  0.45610000  1.0
  O  O69  1  0.50025000  0.69627000  0.54390000  1.0
  O  O70  1  0.13062000  0.66247000  0.57872000  1.0
  O  O71  1  0.86941000  0.33754000  0.42128000  1.0
  O  O72  1  0.01449000  0.48176000  0.63688000  1.0
  O  O73  1  0.98553000  0.51827000  0.36311000  1.0
  O  O74  1  0.27227000  0.96738000  0.53009000  1.0
  O  O75  1  0.72772000  0.03261000  0.46991000  1.0
  O  O76  1  0.46500000  0.16736000  0.61804000  1.0
  O  O77  1  0.53500000  0.83264000  0.38195000  1.0
