# generated using pymatgen
data_HgH22C32N4(ClO)2
_symmetry_space_group_name_H-M   'P 1'
_cell_length_a   11.65190000
_cell_length_b   16.20060000
_cell_length_c   17.05800000
_cell_angle_alpha   104.02000000
_cell_angle_beta   90.00000000
_cell_angle_gamma   89.99990000
_symmetry_Int_Tables_number   1
_chemical_formula_structural   HgH22C32N4(ClO)2
_chemical_formula_sum   'Hg4 H88 C128 N16 Cl8 O8'
_cell_volume   3124.08075102
_cell_formula_units_Z   4
loop_
 _symmetry_equiv_pos_site_id
 _symmetry_equiv_pos_as_xyz
  1  'x, y, z'
loop_
 _atom_site_type_symbol
 _atom_site_label
 _atom_site_symmetry_multiplicity
 _atom_site_fract_x
 _atom_site_fract_y
 _atom_site_fract_z
 _atom_site_occupancy
  Hg  Hg0  1  0.69656000  0.03079000  0.33899000  1.0
  Hg  Hg1  1  0.19656000  0.46921000  0.66101000  1.0
  Hg  Hg2  1  0.30344000  0.96921000  0.66101000  1.0
  Hg  Hg3  1  0.80344000  0.53079000  0.33899000  1.0
  H  H4  1  0.14899000  0.73206000  0.26687000  1.0
  H  H5  1  0.64899000  0.76794000  0.73313000  1.0
  H  H6  1  0.85101000  0.26794000  0.73313000  1.0
  H  H7  1  0.35101000  0.23206000  0.26687000  1.0
  H  H8  1  0.15445000  0.48144000  0.23670000  1.0
  H  H9  1  0.65445000  0.01856000  0.76330000  1.0
  H  H10  1  0.84555000  0.51856000  0.76330000  1.0
  H  H11  1  0.34555000  0.98144000  0.23670000  1.0
  H  H12  1  0.97240000  0.07455000  0.34605000  1.0
  H  H13  1  0.47240000  0.42545000  0.65395000  1.0
  H  H14  1  0.02760000  0.92545000  0.65395000  1.0
  H  H15  1  0.52760000  0.57455000  0.34605000  1.0
  H  H16  1  0.16354000  0.00923000  0.29953000  1.0
  H  H17  1  0.66354000  0.49077000  0.70047000  1.0
  H  H18  1  0.83646000  0.99077000  0.70047000  1.0
  H  H19  1  0.33646000  0.50923000  0.29953000  1.0
  H  H20  1  0.99167000  0.76533000  0.23301000  1.0
  H  H21  1  0.49167000  0.73467000  0.76699000  1.0
  H  H22  1  0.00833000  0.23467000  0.76699000  1.0
  H  H23  1  0.50833000  0.26533000  0.23301000  1.0
  H  H24  1  0.80871000  0.84153000  0.27794000  1.0
  H  H25  1  0.30871000  0.65847000  0.72206000  1.0
  H  H26  1  0.19129000  0.15847000  0.72206000  1.0
  H  H27  1  0.69129000  0.34153000  0.27794000  1.0
  H  H28  1  0.43717000  0.79117000  0.28446000  1.0
  H  H29  1  0.93717000  0.70883000  0.71554000  1.0
  H  H30  1  0.56283000  0.20883000  0.71554000  1.0
  H  H31  1  0.06283000  0.29118000  0.28446000  1.0
  H  H32  1  0.59965000  0.69271000  0.24013000  1.0
  H  H33  1  0.09965000  0.80730000  0.75987000  1.0
  H  H34  1  0.40035000  0.30729000  0.75988000  1.0
  H  H35  1  0.90035000  0.19271000  0.24013000  1.0
  H  H36  1  0.67216000  0.55474000  0.16268000  1.0
  H  H37  1  0.17216000  0.94526000  0.83732000  1.0
  H  H38  1  0.32784000  0.44526000  0.83732000  1.0
  H  H39  1  0.82784000  0.05474000  0.16268000  1.0
  H  H40  1  0.63678000  0.41032000  0.07583000  1.0
  H  H41  1  0.13678000  0.08968000  0.92417000  1.0
  H  H42  1  0.36322000  0.58968000  0.92417000  1.0
  H  H43  1  0.86322000  0.91033000  0.07583000  1.0
  H  H44  1  0.43818000  0.36599000  0.02931000  1.0
  H  H45  1  0.93818000  0.13401000  0.97069000  1.0
  H  H46  1  0.56182000  0.63400000  0.97069000  1.0
  H  H47  1  0.06182000  0.86599000  0.02932000  1.0
  H  H48  1  0.27578000  0.46606000  0.06813000  1.0
  H  H49  1  0.77578000  0.03394000  0.93187000  1.0
  H  H50  1  0.72422000  0.53394000  0.93187000  1.0
  H  H51  1  0.22422000  0.96606000  0.06814000  1.0
  H  H52  1  0.29299000  0.69470000  0.04306000  1.0
  H  H53  1  0.79299000  0.80530000  0.95694000  1.0
  H  H54  1  0.70701000  0.30530000  0.95694000  1.0
  H  H55  1  0.20701000  0.19470000  0.04306000  1.0
  H  H56  1  0.22298000  0.74712000  0.92701000  1.0
  H  H57  1  0.72297000  0.75288000  0.07299000  1.0
  H  H58  1  0.77702000  0.25288000  0.07299000  1.0
  H  H59  1  0.27703000  0.24712000  0.92701000  1.0
  H  H60  1  0.01920000  0.72368000  0.88184000  1.0
  H  H61  1  0.51920000  0.77632000  0.11816000  1.0
  H  H62  1  0.98080000  0.27632000  0.11816000  1.0
  H  H63  1  0.48080000  0.22368000  0.88184000  1.0
  H  H64  1  0.88648000  0.64643000  0.95160000  1.0
  H  H65  1  0.38648000  0.85357000  0.04840000  1.0
  H  H66  1  0.11352000  0.35356000  0.04840000  1.0
  H  H67  1  0.61352000  0.14643000  0.95160000  1.0
  H  H68  1  0.84964000  0.56962000  0.05780000  1.0
  H  H69  1  0.34964000  0.93038000  0.94220000  1.0
  H  H70  1  0.15036000  0.43038000  0.94219000  1.0
  H  H71  1  0.65036000  0.06962000  0.05781000  1.0
  H  H72  1  0.92001000  0.51694000  0.17513000  1.0
  H  H73  1  0.42001000  0.98306000  0.82487000  1.0
  H  H74  1  0.07999000  0.48306000  0.82487000  1.0
  H  H75  1  0.57999000  0.01694000  0.17513000  1.0
  H  H76  1  0.14511000  0.69087000  0.46604000  1.0
  H  H77  1  0.64512000  0.80913000  0.53396000  1.0
  H  H78  1  0.85488000  0.30913000  0.53396000  1.0
  H  H79  1  0.35489000  0.19087000  0.46604000  1.0
  H  H80  1  0.17628000  0.63839000  0.59158000  1.0
  H  H81  1  0.67628000  0.86161000  0.40842000  1.0
  H  H82  1  0.82371000  0.36161000  0.40842000  1.0
  H  H83  1  0.32372000  0.13839000  0.59158000  1.0
  H  H84  1  0.15364000  0.38671000  0.46363000  1.0
  H  H85  1  0.65364000  0.11329000  0.53637000  1.0
  H  H86  1  0.84636000  0.61329000  0.53637000  1.0
  H  H87  1  0.34636000  0.88671000  0.46363000  1.0
  H  H88  1  0.11537000  0.42841000  0.33389000  1.0
  H  H89  1  0.61537000  0.07159000  0.66611000  1.0
  H  H90  1  0.88463000  0.57159000  0.66610000  1.0
  H  H91  1  0.38463000  0.92841000  0.33389000  1.0
  C  C92  1  0.98176000  0.00614000  0.32126000  1.0
  C  C93  1  0.48176000  0.49386000  0.67874000  1.0
  C  C94  1  0.01824000  0.99386000  0.67874000  1.0
  C  C95  1  0.51824000  0.50614000  0.32126000  1.0
  C  C96  1  0.08748000  0.96962000  0.29569000  1.0
  C  C97  1  0.58748000  0.53038000  0.70431000  1.0
  C  C98  1  0.91252000  0.03038000  0.70432000  1.0
  C  C99  1  0.41252000  0.46962000  0.29568000  1.0
  C  C100  1  0.09387000  0.88168000  0.26424000  1.0
  C  C101  1  0.59387000  0.61832000  0.73576000  1.0
  C  C102  1  0.90613000  0.11832000  0.73576000  1.0
  C  C103  1  0.40613000  0.38168000  0.26424000  1.0
  C  C104  1  0.99264000  0.83390000  0.25800000  1.0
  C  C105  1  0.49264000  0.66610000  0.74200000  1.0
  C  C106  1  0.00736000  0.16610000  0.74200000  1.0
  C  C107  1  0.50736000  0.33390000  0.25800000  1.0
  C  C108  1  0.89023000  0.87565000  0.28367000  1.0
  C  C109  1  0.39023000  0.62434000  0.71633000  1.0
  C  C110  1  0.10977000  0.12435000  0.71633000  1.0
  C  C111  1  0.60977000  0.37566000  0.28367000  1.0
  C  C112  1  0.20712000  0.84104000  0.23669000  1.0
  C  C113  1  0.70712000  0.65896000  0.76330000  1.0
  C  C114  1  0.79288000  0.15896000  0.76331000  1.0
  C  C115  1  0.29288000  0.34104000  0.23669000  1.0
  C  C116  1  0.31066000  0.70548000  0.21532000  1.0
  C  C117  1  0.81066000  0.79452000  0.78468000  1.0
  C  C118  1  0.68934000  0.29452000  0.78468000  1.0
  C  C119  1  0.18934000  0.20548000  0.21532000  1.0
  C  C120  1  0.42283000  0.72933000  0.24339000  1.0
  C  C121  1  0.92283000  0.77067000  0.75661000  1.0
  C  C122  1  0.57717000  0.27067000  0.75661000  1.0
  C  C123  1  0.07717000  0.22933000  0.24339000  1.0
  C  C124  1  0.51306000  0.67465000  0.21804000  1.0
  C  C125  1  0.01305000  0.82535000  0.78196000  1.0
  C  C126  1  0.48695000  0.32535000  0.78196000  1.0
  C  C127  1  0.98695000  0.17465000  0.21804000  1.0
  C  C128  1  0.49447000  0.59344000  0.16540000  1.0
  C  C129  1  0.99447000  0.90656000  0.83460000  1.0
  C  C130  1  0.50553000  0.40656000  0.83460000  1.0
  C  C131  1  0.00553000  0.09344000  0.16540000  1.0
  C  C132  1  0.58580000  0.53500000  0.14125000  1.0
  C  C133  1  0.08580000  0.96501000  0.85874000  1.0
  C  C134  1  0.41420000  0.46500000  0.85875000  1.0
  C  C135  1  0.91420000  0.03500000  0.14125000  1.0
  C  C136  1  0.56579000  0.45472000  0.09332000  1.0
  C  C137  1  0.06579000  0.04528000  0.90668000  1.0
  C  C138  1  0.43421000  0.54528000  0.90668000  1.0
  C  C139  1  0.93421000  0.95472000  0.09332000  1.0
  C  C140  1  0.45326000  0.42980000  0.06680000  1.0
  C  C141  1  0.95326000  0.07020000  0.93320000  1.0
  C  C142  1  0.54674000  0.57020000  0.93320000  1.0
  C  C143  1  0.04674000  0.92980000  0.06680000  1.0
  C  C144  1  0.36266000  0.48552000  0.08816000  1.0
  C  C145  1  0.86266000  0.01448000  0.91184000  1.0
  C  C146  1  0.63734000  0.51448000  0.91183000  1.0
  C  C147  1  0.13734000  0.98552000  0.08816000  1.0
  C  C148  1  0.38005000  0.56841000  0.13806000  1.0
  C  C149  1  0.88005000  0.93159000  0.86194000  1.0
  C  C150  1  0.61995000  0.43159000  0.86194000  1.0
  C  C151  1  0.11995000  0.06841000  0.13806000  1.0
  C  C152  1  0.28793000  0.62704000  0.16298000  1.0
  C  C153  1  0.78793000  0.87296000  0.83703000  1.0
  C  C154  1  0.71207000  0.37296000  0.83703000  1.0
  C  C155  1  0.21207000  0.12704000  0.16297000  1.0
  C  C156  1  0.16840000  0.60860000  0.13226000  1.0
  C  C157  1  0.66840000  0.89140000  0.86774000  1.0
  C  C158  1  0.83160000  0.39140000  0.86774000  1.0
  C  C159  1  0.33160000  0.10860000  0.13226000  1.0
  C  C160  1  0.13011000  0.63911000  0.06455000  1.0
  C  C161  1  0.63011000  0.86089000  0.93546000  1.0
  C  C162  1  0.86989000  0.36089000  0.93546000  1.0
  C  C163  1  0.36989000  0.13911000  0.06455000  1.0
  C  C164  1  0.20418000  0.68384000  0.02306000  1.0
  C  C165  1  0.70417000  0.81616000  0.97694000  1.0
  C  C166  1  0.79583000  0.31616000  0.97694000  1.0
  C  C167  1  0.29583000  0.18385000  0.02306000  1.0
  C  C168  1  0.16462000  0.71368000  0.95878000  1.0
  C  C169  1  0.66462000  0.78632000  0.04122000  1.0
  C  C170  1  0.83538000  0.28632000  0.04122000  1.0
  C  C171  1  0.33538000  0.21368000  0.95879000  1.0
  C  C172  1  0.04914000  0.70064000  0.93313000  1.0
  C  C173  1  0.54914000  0.79935000  0.06687000  1.0
  C  C174  1  0.95086000  0.29936000  0.06688000  1.0
  C  C175  1  0.45086000  0.20065000  0.93313000  1.0
  C  C176  1  0.97506000  0.65775000  0.97223000  1.0
  C  C177  1  0.47506000  0.84224000  0.02777000  1.0
  C  C178  1  0.02494000  0.34225000  0.02777000  1.0
  C  C179  1  0.52494000  0.15776000  0.97224000  1.0
  C  C180  1  0.01285000  0.62610000  0.03842000  1.0
  C  C181  1  0.51284000  0.87390000  0.96158000  1.0
  C  C182  1  0.98715000  0.37390000  0.96158000  1.0
  C  C183  1  0.48716000  0.12611000  0.03842000  1.0
  C  C184  1  0.93794000  0.58138000  0.07905000  1.0
  C  C185  1  0.43794000  0.91862000  0.92095000  1.0
  C  C186  1  0.06206000  0.41862000  0.92094000  1.0
  C  C187  1  0.56206000  0.08138000  0.07905000  1.0
  C  C188  1  0.97579000  0.55256000  0.14395000  1.0
  C  C189  1  0.47579000  0.94744000  0.85605000  1.0
  C  C190  1  0.02421000  0.44743000  0.85605000  1.0
  C  C191  1  0.52421000  0.05256000  0.14395000  1.0
  C  C192  1  0.09042000  0.56758000  0.17126000  1.0
  C  C193  1  0.59041000  0.93241000  0.82874000  1.0
  C  C194  1  0.90958000  0.43241000  0.82873000  1.0
  C  C195  1  0.40958000  0.06758000  0.17126000  1.0
  C  C196  1  0.10830000  0.59668000  0.31609000  1.0
  C  C197  1  0.60831000  0.90332000  0.68391000  1.0
  C  C198  1  0.89169000  0.40332000  0.68391000  1.0
  C  C199  1  0.39169000  0.09668000  0.31609000  1.0
  C  C200  1  0.13056000  0.56348000  0.38962000  1.0
  C  C201  1  0.63057000  0.93652000  0.61037000  1.0
  C  C202  1  0.86944000  0.43652000  0.61037000  1.0
  C  C203  1  0.36943000  0.06348000  0.38962000  1.0
  C  C204  1  0.14715000  0.62301000  0.46332000  1.0
  C  C205  1  0.64715000  0.87699000  0.53668000  1.0
  C  C206  1  0.85285000  0.37699000  0.53668000  1.0
  C  C207  1  0.35285000  0.12301000  0.46332000  1.0
  C  C208  1  0.16486000  0.59406000  0.53275000  1.0
  C  C209  1  0.66486000  0.90594000  0.46725000  1.0
  C  C210  1  0.83514000  0.40594000  0.46725000  1.0
  C  C211  1  0.33514000  0.09406000  0.53275000  1.0
  C  C212  1  0.15136000  0.45344000  0.46120000  1.0
  C  C213  1  0.65136000  0.04656000  0.53880000  1.0
  C  C214  1  0.84865000  0.54656000  0.53880000  1.0
  C  C215  1  0.34864000  0.95344000  0.46120000  1.0
  C  C216  1  0.13200000  0.47693000  0.38901000  1.0
  C  C217  1  0.63201000  0.02307000  0.61099000  1.0
  C  C218  1  0.86800000  0.52307000  0.61099000  1.0
  C  C219  1  0.36799000  0.97693000  0.38901000  1.0
  N  N220  1  0.88524000  0.95994000  0.31530000  1.0
  N  N221  1  0.38524000  0.54006000  0.68470000  1.0
  N  N222  1  0.11476000  0.04006000  0.68470000  1.0
  N  N223  1  0.61476000  0.45994000  0.31530000  1.0
  N  N224  1  0.21618000  0.75990000  0.24260000  1.0
  N  N225  1  0.71618000  0.74010000  0.75741000  1.0
  N  N226  1  0.78382000  0.24010000  0.75740000  1.0
  N  N227  1  0.28382000  0.25990000  0.24260000  1.0
  N  N228  1  0.12245000  0.54237000  0.24311000  1.0
  N  N229  1  0.62245000  0.95763000  0.75689000  1.0
  N  N230  1  0.87755000  0.45763000  0.75689000  1.0
  N  N231  1  0.37755000  0.04237000  0.24311000  1.0
  N  N232  1  0.16722000  0.51081000  0.53160000  1.0
  N  N233  1  0.66722000  0.98919000  0.46840000  1.0
  N  N234  1  0.83278000  0.48919000  0.46840000  1.0
  N  N235  1  0.33278000  0.01081000  0.53160000  1.0
  Cl  Cl236  1  0.60263000  0.90448000  0.26267000  1.0
  Cl  Cl237  1  0.10263000  0.59552000  0.73732000  1.0
  Cl  Cl238  1  0.39737000  0.09552000  0.73732000  1.0
  Cl  Cl239  1  0.89737000  0.40448000  0.26267000  1.0
  Cl  Cl240  1  0.74487000  0.17764000  0.37519000  1.0
  Cl  Cl241  1  0.24487000  0.32236000  0.62481000  1.0
  Cl  Cl242  1  0.25513000  0.82236000  0.62481000  1.0
  Cl  Cl243  1  0.75513000  0.67764000  0.37519000  1.0
  O  O244  1  0.28529000  0.87974000  0.21027000  1.0
  O  O245  1  0.78529000  0.62026000  0.78972000  1.0
  O  O246  1  0.71471000  0.12026000  0.78973000  1.0
  O  O247  1  0.21471000  0.37974000  0.21027000  1.0
  O  O248  1  0.07785000  0.67244000  0.32491000  1.0
  O  O249  1  0.57786000  0.82756000  0.67509000  1.0
  O  O250  1  0.92214000  0.32755000  0.67509000  1.0
  O  O251  1  0.42214000  0.17244000  0.32491000  1.0
