# generated using pymatgen
data_InH15C16(NO2)4
_symmetry_space_group_name_H-M   'P 1'
_cell_length_a   14.30050000
_cell_length_b   18.68390000
_cell_length_c   18.68400000
_cell_angle_alpha   113.71900000
_cell_angle_beta   104.78600000
_cell_angle_gamma   104.78600000
_symmetry_Int_Tables_number   1
_chemical_formula_structural   InH15C16(NO2)4
_chemical_formula_sum   'In6 H90 C96 N24 O48'
_cell_volume   4041.89762064
_cell_formula_units_Z   6
loop_
 _symmetry_equiv_pos_site_id
 _symmetry_equiv_pos_as_xyz
  1  'x, y, z'
loop_
 _atom_site_type_symbol
 _atom_site_label
 _atom_site_symmetry_multiplicity
 _atom_site_fract_x
 _atom_site_fract_y
 _atom_site_fract_z
 _atom_site_occupancy
  In  In0  1  0.39741000  0.57335000  0.07367000  1.0
  In  In1  1  0.32370000  0.92636000  0.49982000  1.0
  In  In2  1  0.82406000  0.50017000  0.42664000  1.0
  In  In3  1  0.82369000  0.49981000  0.92636000  1.0
  In  In4  1  0.32406000  0.42664000  0.50017000  1.0
  In  In5  1  0.89743000  0.07366000  0.57335000  1.0
  H  H6  1  0.34864000  0.67662000  0.23611000  1.0
  H  H7  1  0.11266000  0.76382000  0.44065000  1.0
  H  H8  1  0.67206000  0.55926000  0.32326000  1.0
  H  H9  1  0.61265000  0.44065000  0.76382000  1.0
  H  H10  1  0.17206000  0.32326000  0.55926000  1.0
  H  H11  1  0.84865000  0.23611000  0.67662000  1.0
  H  H12  1  0.52562000  0.94696000  0.34747000  1.0
  H  H13  1  0.17812000  0.65268000  0.59986000  1.0
  H  H14  1  0.57847000  0.40029000  0.05293000  1.0
  H  H15  1  0.67811000  0.59986000  0.65268000  1.0
  H  H16  1  0.07847000  0.05293000  0.40028000  1.0
  H  H17  1  0.02562000  0.34747000  0.94696000  1.0
  H  H18  1  0.61235000  0.91253000  0.24688000  1.0
  H  H19  1  0.36550000  0.75338000  0.66609000  1.0
  H  H20  1  0.69968000  0.33412000  0.08736000  1.0
  H  H21  1  0.86550000  0.66609000  0.75338000  1.0
  H  H22  1  0.19968000  0.08735000  0.33412000  1.0
  H  H23  1  0.11235000  0.24688000  0.91253000  1.0
  H  H24  1  0.69434000  0.87415000  0.17235000  1.0
  H  H25  1  0.52206000  0.82758000  0.70184000  1.0
  H  H26  1  0.82034000  0.29832000  0.12574000  1.0
  H  H27  1  0.02205000  0.70184000  0.82758000  1.0
  H  H28  1  0.32034000  0.12574000  0.29831000  1.0
  H  H29  1  0.19433000  0.17234000  0.87415000  1.0
  H  H30  1  0.79938000  0.81645000  0.09257000  1.0
  H  H31  1  0.70690000  0.90724000  0.72375000  1.0
  H  H32  1  0.98309000  0.27622000  0.18345000  1.0
  H  H33  1  0.20689000  0.72375000  0.90724000  1.0
  H  H34  1  0.48309000  0.18345000  0.27622000  1.0
  H  H35  1  0.29938000  0.09257000  0.81647000  1.0
  H  H36  1  0.57870000  0.56343000  0.00319000  1.0
  H  H37  1  0.57552000  0.99675000  0.56025000  1.0
  H  H38  1  0.01527000  0.43951000  0.43648000  1.0
  H  H39  1  0.07552000  0.56025000  0.99675000  1.0
  H  H40  1  0.51527000  0.43648000  0.43951000  1.0
  H  H41  1  0.07872000  0.00320000  0.56344000  1.0
  H  H42  1  0.41168000  0.47375000  0.74256000  1.0
  H  H43  1  0.66884000  0.25747000  0.73119000  1.0
  H  H44  1  0.93813000  0.26889000  0.52628000  1.0
  H  H45  1  0.16884000  0.73119000  0.25747000  1.0
  H  H46  1  0.43813000  0.52628000  0.26889000  1.0
  H  H47  1  0.91168000  0.74256000  0.47375000  1.0
  H  H48  1  0.44399000  0.54711000  0.85274000  1.0
  H  H49  1  0.59098000  0.14725000  0.69432000  1.0
  H  H50  1  0.89708000  0.30579000  0.45297000  1.0
  H  H51  1  0.09097000  0.69432000  0.14725000  1.0
  H  H52  1  0.39708000  0.45297000  0.30579000  1.0
  H  H53  1  0.94398000  0.85274000  0.54711000  1.0
  H  H54  1  0.31100000  0.49425000  0.77612000  1.0
  H  H55  1  0.53451000  0.22379000  0.71791000  1.0
  H  H56  1  0.81705000  0.28212000  0.50590000  1.0
  H  H57  1  0.03451000  0.71791000  0.22379000  1.0
  H  H58  1  0.31705000  0.50590000  0.28212000  1.0
  H  H59  1  0.81100000  0.77612000  0.49424000  1.0
  H  H60  1  0.39954000  0.34453000  0.70616000  1.0
  H  H61  1  0.69341000  0.29377000  0.63831000  1.0
  H  H62  1  0.05534000  0.36175000  0.65564000  1.0
  H  H63  1  0.19341000  0.63832000  0.29377000  1.0
  H  H64  1  0.55534000  0.65564000  0.36175000  1.0
  H  H65  1  0.89953000  0.70616000  0.34453000  1.0
  H  H66  1  0.27043000  0.29710000  0.70029000  1.0
  H  H67  1  0.57028000  0.29971000  0.59667000  1.0
  H  H68  1  0.97359000  0.40326000  0.70295000  1.0
  H  H69  1  0.07029000  0.59668000  0.29971000  1.0
  H  H70  1  0.47359000  0.70295000  0.40326000  1.0
  H  H71  1  0.77043000  0.70029000  0.29711000  1.0
  H  H72  1  0.38313000  0.29627000  0.76949000  1.0
  H  H73  1  0.61375000  0.23042000  0.52672000  1.0
  H  H74  1  0.08721000  0.47333000  0.70392000  1.0
  H  H75  1  0.11375000  0.52672000  0.23042000  1.0
  H  H76  1  0.58720000  0.70392000  0.47333000  1.0
  H  H77  1  0.88313000  0.76950000  0.29627000  1.0
  H  H78  1  0.27362000  0.29893000  0.84979000  1.0
  H  H79  1  0.42375000  0.15020000  0.44904000  1.0
  H  H80  1  0.97479000  0.55094000  0.70119000  1.0
  H  H81  1  0.92374000  0.44904000  0.15020000  1.0
  H  H82  1  0.47478000  0.70119000  0.55093000  1.0
  H  H83  1  0.77362000  0.84979000  0.29894000  1.0
  H  H84  1  0.33973000  0.37194000  0.96252000  1.0
  H  H85  1  0.37709000  0.03745000  0.40930000  1.0
  H  H86  1  0.96800000  0.59071000  0.62823000  1.0
  H  H87  1  0.87709000  0.40930000  0.03745000  1.0
  H  H88  1  0.46800000  0.62822000  0.59070000  1.0
  H  H89  1  0.83973000  0.96253000  0.37194000  1.0
  H  H90  1  0.41159000  0.33213000  0.90191000  1.0
  H  H91  1  0.50961000  0.09810000  0.43015000  1.0
  H  H92  1  0.07973000  0.56997000  0.66816000  1.0
  H  H93  1  0.00961000  0.43016000  0.09811000  1.0
  H  H94  1  0.57973000  0.66816000  0.56997000  1.0
  H  H95  1  0.91160000  0.90191000  0.33213000  1.0
  C  C96  1  0.40653000  0.73033000  0.23995000  1.0
  C  C97  1  0.16673000  0.76003000  0.49054000  1.0
  C  C98  1  0.67627000  0.50943000  0.26957000  1.0
  C  C99  1  0.66666667  0.49054000  0.76003000  1.0
  C  C100  1  0.17627000  0.26957000  0.50942000  1.0
  C  C101  1  0.90653000  0.23995000  0.73033000  1.0
  C  C102  1  0.43216000  0.81422000  0.30124000  1.0
  C  C103  1  0.13106000  0.69878000  0.51318000  1.0
  C  C104  1  0.61794000  0.48683000  0.18568000  1.0
  C  C105  1  0.63106000  0.51319000  0.69878000  1.0
  C  C106  1  0.11794000  0.18568000  0.48683000  1.0
  C  C107  1  0.93216000  0.30124000  0.81422000  1.0
  C  C108  1  0.50470000  0.88065000  0.30152000  1.0
  C  C109  1  0.20322000  0.69859000  0.57946000  1.0
  C  C110  1  0.62387000  0.42060000  0.11923000  1.0
  C  C111  1  0.70322000  0.57947000  0.69860000  1.0
  C  C112  1  0.12387000  0.11923000  0.42060000  1.0
  C  C113  1  0.00470000  0.30152000  0.88065000  1.0
  C  C114  1  0.55278000  0.86094000  0.24440000  1.0
  C  C115  1  0.30842000  0.75577000  0.61691000  1.0
  C  C116  1  0.69170000  0.38321000  0.13893000  1.0
  C  C117  1  0.80842000  0.61692000  0.75578000  1.0
  C  C118  1  0.19170000  0.13893000  0.38321000  1.0
  C  C119  1  0.05278000  0.24440000  0.86095000  1.0
  C  C120  1  0.52611000  0.77532000  0.18687000  1.0
  C  C121  1  0.33933000  0.81318000  0.58867000  1.0
  C  C122  1  0.75083000  0.41140000  0.22456000  1.0
  C  C123  1  0.83933000  0.58868000  0.81318000  1.0
  C  C124  1  0.25082000  0.22456000  0.41139000  1.0
  C  C125  1  0.02611000  0.18687000  0.77533000  1.0
  C  C126  1  0.58226000  0.74826000  0.13139000  1.0
  C  C127  1  0.45094000  0.86860000  0.61698000  1.0
  C  C128  1  0.83406000  0.38304000  0.25164000  1.0
  C  C129  1  0.95094000  0.61698000  0.86860000  1.0
  C  C130  1  0.33406000  0.25164000  0.38303000  1.0
  C  C131  1  0.08227000  0.13139000  0.74827000  1.0
  C  C132  1  0.67014000  0.80553000  0.13410000  1.0
  C  C133  1  0.53611000  0.86582000  0.67146000  1.0
  C  C134  1  0.86473000  0.32859000  0.19435000  1.0
  C  C135  1  0.03611000  0.67145000  0.86582000  1.0
  C  C136  1  0.36473000  0.19435000  0.32858000  1.0
  C  C137  1  0.17015000  0.13409000  0.80554000  1.0
  C  C138  1  0.72876000  0.77396000  0.09013000  1.0
  C  C139  1  0.63869000  0.90971000  0.68376000  1.0
  C  C140  1  0.95494000  0.31621000  0.22594000  1.0
  C  C141  1  0.13868000  0.68375000  0.90971000  1.0
  C  C142  1  0.45493000  0.22593000  0.31621000  1.0
  C  C143  1  0.22877000  0.09013000  0.77396000  1.0
  C  C144  1  0.69905000  0.68575000  0.04440000  1.0
  C  C145  1  0.65468000  0.95550000  0.64132000  1.0
  C  C146  1  0.01334000  0.35857000  0.31415000  1.0
  C  C147  1  0.15468000  0.64132000  0.95549000  1.0
  C  C148  1  0.51334000  0.31414000  0.35856000  1.0
  C  C149  1  0.19906000  0.04441000  0.68576000  1.0
  C  C150  1  0.60657000  0.63258000  0.04013000  1.0
  C  C151  1  0.56648000  0.95982000  0.59247000  1.0
  C  C152  1  0.97398000  0.40735000  0.36732000  1.0
  C  C153  1  0.06648000  0.59247000  0.95982000  1.0
  C  C154  1  0.47398000  0.36732000  0.40734000  1.0
  C  C155  1  0.10659000  0.04014000  0.63259000  1.0
  C  C156  1  0.38363000  0.82934000  0.36530000  1.0
  C  C157  1  0.01845000  0.63475000  0.46425000  1.0
  C  C158  1  0.55449000  0.53591000  0.17062000  1.0
  C  C159  1  0.51845000  0.46424000  0.63476000  1.0
  C  C160  1  0.05449000  0.17062000  0.53591000  1.0
  C  C161  1  0.88362000  0.36530000  0.82934000  1.0
  C  C162  1  0.76593000  0.64793000  0.00380000  1.0
  C  C163  1  0.76220000  0.99608000  0.64408000  1.0
  C  C164  1  0.11803000  0.35578000  0.35194000  1.0
  C  C165  1  0.26219000  0.64409000  0.99607000  1.0
  C  C166  1  0.61803000  0.35193000  0.35577000  1.0
  C  C167  1  0.26595000  0.00381000  0.64794000  1.0
  C  C168  1  0.36556000  0.42730000  0.88552000  1.0
  C  C169  1  0.47992000  0.11447000  0.54166000  1.0
  C  C170  1  0.93860000  0.45838000  0.57287000  1.0
  C  C171  1  0.97992000  0.54167000  0.11447000  1.0
  C  C172  1  0.43860000  0.57287000  0.45838000  1.0
  C  C173  1  0.86557000  0.88553000  0.42731000  1.0
  C  C174  1  0.38600000  0.48726000  0.79509000  1.0
  C  C175  1  0.59065000  0.20488000  0.69206000  1.0
  C  C176  1  0.89905000  0.30801000  0.51285000  1.0
  C  C177  1  0.09065000  0.69207000  0.20488000  1.0
  C  C178  1  0.39905000  0.51285000  0.30801000  1.0
  C  C179  1  0.88600000  0.79509000  0.48726000  1.0
  C  C180  1  0.35503000  0.33340000  0.74325000  1.0
  C  C181  1  0.61183000  0.25670000  0.59006000  1.0
  C  C182  1  0.02197000  0.40996000  0.66666667  1.0
  C  C183  1  0.11183000  0.59006000  0.25669000  1.0
  C  C184  1  0.52197000  0.66666667  0.40996000  1.0
  C  C185  1  0.85503000  0.74326000  0.33340000  1.0
  C  C186  1  0.34652000  0.35329000  0.90140000  1.0
  C  C187  1  0.44502000  0.09859000  0.45179000  1.0
  C  C188  1  0.99348000  0.54825000  0.64690000  1.0
  C  C189  1  0.94502000  0.45179000  0.09859000  1.0
  C  C190  1  0.49347000  0.64690000  0.54825000  1.0
  C  C191  1  0.84653000  0.90140000  0.35329000  1.0
  N  N192  1  0.45145000  0.71185000  0.18424000  1.0
  N  N193  1  0.26734000  0.81577000  0.52777000  1.0
  N  N194  1  0.73967000  0.47222000  0.28805000  1.0
  N  N195  1  0.76734000  0.52778000  0.81577000  1.0
  N  N196  1  0.23967000  0.28805000  0.47221000  1.0
  N  N197  1  0.95145000  0.18424000  0.71185000  1.0
  N  N198  1  0.55008000  0.66314000  0.08177000  1.0
  N  N199  1  0.46835000  0.91823000  0.58147000  1.0
  N  N200  1  0.88691000  0.41845000  0.33677000  1.0
  N  N201  1  0.96834000  0.58147000  0.91823000  1.0
  N  N202  1  0.38691000  0.33677000  0.41845000  1.0
  N  N203  1  0.05009000  0.08177000  0.66315000  1.0
  N  N204  1  0.23928000  0.46318000  0.09745000  1.0
  N  N205  1  0.14190000  0.90261000  0.36583000  1.0
  N  N206  1  0.77622000  0.63414000  0.53680000  1.0
  N  N207  1  0.64190000  0.36583000  0.90261000  1.0
  N  N208  1  0.27623000  0.53680000  0.63414000  1.0
  N  N209  1  0.73929000  0.09745000  0.46319000  1.0
  N  N210  1  0.37312000  0.41625000  0.81213000  1.0
  N  N211  1  0.56088000  0.18785000  0.60403000  1.0
  N  N212  1  0.95729000  0.39603000  0.58387000  1.0
  N  N213  1  0.06088000  0.60403000  0.18785000  1.0
  N  N214  1  0.45729000  0.58387000  0.39603000  1.0
  N  N215  1  0.87312000  0.81213000  0.41625000  1.0
  O  O216  1  0.34279000  0.77026000  0.37771000  1.0
  O  O217  1  0.96508000  0.62249000  0.39285000  1.0
  O  O218  1  0.57311000  0.60754000  0.22963000  1.0
  O  O219  1  0.46508000  0.39285000  0.62249000  1.0
  O  O220  1  0.07311000  0.22963000  0.60754000  1.0
  O  O221  1  0.84278000  0.37771000  0.77026000  1.0
  O  O222  1  0.38943000  0.90666000  0.40486000  1.0
  O  O223  1  0.98476000  0.59504000  0.50192000  1.0
  O  O224  1  0.48276000  0.49808000  0.09336000  1.0
  O  O225  1  0.48475000  0.50191000  0.59505000  1.0
  O  O226  1  0.98277000  0.09336000  0.49808000  1.0
  O  O227  1  0.88942000  0.40486000  0.90666000  1.0
  O  O228  1  0.73496000  0.56648000  0.97797000  1.0
  O  O229  1  0.75707000  0.02186000  0.58842000  1.0
  O  O230  1  0.16858000  0.41140000  0.43339000  1.0
  O  O231  1  0.25706000  0.58842000  0.02185000  1.0
  O  O232  1  0.66858000  0.43339000  0.41139000  1.0
  O  O233  1  0.23497000  0.97798000  0.56649000  1.0
  O  O234  1  0.84164000  0.69298000  0.99884000  1.0
  O  O235  1  0.84287000  0.00109000  0.69414000  1.0
  O  O236  1  0.14861000  0.30575000  0.30685000  1.0
  O  O237  1  0.34286000  0.69414000  0.00108000  1.0
  O  O238  1  0.64861000  0.30684000  0.30575000  1.0
  O  O239  1  0.34165000  0.99885000  0.69299000  1.0
  O  O240  1  0.23867000  0.42746000  0.02364000  1.0
  O  O241  1  0.21504000  0.97648000  0.40407000  1.0
  O  O242  1  0.81113000  0.59585000  0.57237000  1.0
  O  O243  1  0.71504000  0.40407000  0.97648000  1.0
  O  O244  1  0.31114000  0.57237000  0.59585000  1.0
  O  O245  1  0.73867000  0.02364000  0.42746000  1.0
  O  O246  1  0.31156000  0.54019000  0.15184000  1.0
  O  O247  1  0.15973000  0.84818000  0.38839000  1.0
  O  O248  1  0.77129000  0.61153000  0.45976000  1.0
  O  O249  1  0.65972000  0.38839000  0.84817000  1.0
  O  O250  1  0.27129000  0.45976000  0.61153000  1.0
  O  O251  1  0.81157000  0.15184000  0.54019000  1.0
  O  O252  1  0.17512000  0.42833000  0.11965000  1.0
  O  O253  1  0.05563000  0.88039000  0.30864000  1.0
  O  O254  1  0.74733000  0.69139000  0.57190000  1.0
  O  O255  1  0.55563000  0.30864000  0.88039000  1.0
  O  O256  1  0.24733000  0.57190000  0.69140000  1.0
  O  O257  1  0.67513000  0.11966000  0.42834000  1.0
  O  O258  1  0.37400000  0.50035000  0.93824000  1.0
  O  O259  1  0.43560000  0.06177000  0.56202000  1.0
  O  O260  1  0.87385000  0.43801000  0.49985000  1.0
  O  O261  1  0.93559000  0.56202000  0.06177000  1.0
  O  O262  1  0.37385000  0.49984000  0.43801000  1.0
  O  O263  1  0.87401000  0.93824000  0.50036000  1.0
