# generated using pymatgen
data_UH16(C3O2)4
_symmetry_space_group_name_H-M   'P 1'
_cell_length_a   8.52127000
_cell_length_b   8.77613000
_cell_length_c   10.96340000
_cell_angle_alpha   79.31880000
_cell_angle_beta   85.76710000
_cell_angle_gamma   75.29210000
_symmetry_Int_Tables_number   1
_chemical_formula_structural   UH16(C3O2)4
_chemical_formula_sum   'U2 H32 C24 O16'
_cell_volume   778.97018459
_cell_formula_units_Z   2
loop_
 _symmetry_equiv_pos_site_id
 _symmetry_equiv_pos_as_xyz
  1  'x, y, z'
loop_
 _atom_site_type_symbol
 _atom_site_label
 _atom_site_symmetry_multiplicity
 _atom_site_fract_x
 _atom_site_fract_y
 _atom_site_fract_z
 _atom_site_occupancy
  U  U0  1  0.39733000  0.73985000  0.01934000  1.0
  U  U1  1  0.60267000  0.26014000  0.98066000  1.0
  H  H2  1  0.89852000  0.57680000  0.05195000  1.0
  H  H3  1  0.10148000  0.42321000  0.94804000  1.0
  H  H4  1  0.39545000  0.14499000  0.43596000  1.0
  H  H5  1  0.60454000  0.85501000  0.56404000  1.0
  H  H6  1  0.50778000  0.16876000  0.29576000  1.0
  H  H7  1  0.49223000  0.83124000  0.70425000  1.0
  H  H8  1  0.05328000  0.06589000  0.24983000  1.0
  H  H9  1  0.94671000  0.93412000  0.75016000  1.0
  H  H10  1  0.08525000  0.06945000  0.40660000  1.0
  H  H11  1  0.91474000  0.93055000  0.59339000  1.0
  H  H12  1  0.06086000  0.51575000  0.35323000  1.0
  H  H13  1  0.93914000  0.48426000  0.64678000  1.0
  H  H14  1  0.11823000  0.33758000  0.46367000  1.0
  H  H15  1  0.88177000  0.66242000  0.53633000  1.0
  H  H16  1  0.32561000  0.56190000  0.41189000  1.0
  H  H17  1  0.67440000  0.43810000  0.58811000  1.0
  H  H18  1  0.51375000  0.42710000  0.38350000  1.0
  H  H19  1  0.48626000  0.57289000  0.61649000  1.0
  H  H20  1  0.38005000  0.36894000  0.50576000  1.0
  H  H21  1  0.61995000  0.63106000  0.49424000  1.0
  H  H22  1  0.29824000  0.82130000  0.33589000  1.0
  H  H23  1  0.70174000  0.17870000  0.66411000  1.0
  H  H24  1  0.33759000  0.90718000  0.46257000  1.0
  H  H25  1  0.66240000  0.09282000  0.53744000  1.0
  H  H26  1  0.49121000  0.86022000  0.34575000  1.0
  H  H27  1  0.50878000  0.13978000  0.65426000  1.0
  H  H28  1  0.78910000  0.44429000  0.34888000  1.0
  H  H29  1  0.21090000  0.55571000  0.65112000  1.0
  H  H30  1  0.86457000  0.26478000  0.45629000  1.0
  H  H31  1  0.13544000  0.73521000  0.54371000  1.0
  H  H32  1  0.78443000  0.25669000  0.31210000  1.0
  H  H33  1  0.21557000  0.74331000  0.68790000  1.0
  C  C34  1  0.30111000  0.36591000  0.32231000  1.0
  C  C35  1  0.69889000  0.63409000  0.67769000  1.0
  C  C36  1  0.38355000  0.18660000  0.33523000  1.0
  C  C37  1  0.61644000  0.81340000  0.66477000  1.0
  C  C38  1  0.29591000  0.07561000  0.28872000  1.0
  C  C39  1  0.70409000  0.92439000  0.71128000  1.0
  C  C40  1  0.11020000  0.12240000  0.31012000  1.0
  C  C41  1  0.88980000  0.87761000  0.68987000  1.0
  C  C42  1  0.02517000  0.30142000  0.29717000  1.0
  C  C43  1  0.97483000  0.69858000  0.70283000  1.0
  C  C44  1  0.12151000  0.38784000  0.36385000  1.0
  C  C45  1  0.87849000  0.61216000  0.63615000  1.0
  C  C46  1  0.32002000  0.47136000  0.19675000  1.0
  C  C47  1  0.67999000  0.52862000  0.80325000  1.0
  C  C48  1  0.38579000  0.43601000  0.41117000  1.0
  C  C49  1  0.61421000  0.56399000  0.58883000  1.0
  C  C50  1  0.34667000  0.05129000  0.15558000  1.0
  C  C51  1  0.65333000  0.94870000  0.84442000  1.0
  C  C52  1  0.36028000  0.90465000  0.36300000  1.0
  C  C53  1  0.63972000  0.09535000  0.63700000  1.0
  C  C54  1  0.01317000  0.38458000  0.16231000  1.0
  C  C55  1  0.98682000  0.61543000  0.83769000  1.0
  C  C56  1  0.85465000  0.31824000  0.35746000  1.0
  C  C57  1  0.14535000  0.68177000  0.64254000  1.0
  O  O58  1  0.23562000  0.77764000  0.91190000  1.0
  O  O59  1  0.76441000  0.22234000  0.08809000  1.0
  O  O60  1  0.55395000  0.70170000  0.13049000  1.0
  O  O61  1  0.44605000  0.29830000  0.86953000  1.0
  O  O62  1  0.23566000  0.61543000  0.18041000  1.0
  O  O63  1  0.76433000  0.38455000  0.81957000  1.0
  O  O64  1  0.42946000  0.42932000  0.11355000  1.0
  O  O65  1  0.57056000  0.57066000  0.88646000  1.0
  O  O66  1  0.47132000  0.09640000  0.10729000  1.0
  O  O67  1  0.52869000  0.90358000  0.89272000  1.0
  O  O68  1  0.27833000  0.96692000  0.10433000  1.0
  O  O69  1  0.72168000  0.03308000  0.89567000  1.0
  O  O70  1  0.89941000  0.51768000  0.14314000  1.0
  O  O71  1  0.10059000  0.48233000  0.85686000  1.0
  O  O72  1  0.11170000  0.33173000  0.08088000  1.0
  O  O73  1  0.88830000  0.66828000  0.91912000  1.0
