# generated using pymatgen
data_CuH15C8S2INO
_symmetry_space_group_name_H-M   'P 1'
_cell_length_a   8.09389000
_cell_length_b   10.46990000
_cell_length_c   14.43590000
_cell_angle_alpha   90.00000000
_cell_angle_beta   90.48760000
_cell_angle_gamma   90.00000000
_symmetry_Int_Tables_number   1
_chemical_formula_structural   CuH15C8S2INO
_chemical_formula_sum   'Cu4 H60 C32 S8 I4 N4 O4'
_cell_volume   1223.28589905
_cell_formula_units_Z   4
loop_
 _symmetry_equiv_pos_site_id
 _symmetry_equiv_pos_as_xyz
  1  'x, y, z'
loop_
 _atom_site_type_symbol
 _atom_site_label
 _atom_site_symmetry_multiplicity
 _atom_site_fract_x
 _atom_site_fract_y
 _atom_site_fract_z
 _atom_site_occupancy
  Cu  Cu0  1  0.03263000  0.62991000  0.00958000  1.0
  Cu  Cu1  1  0.96736000  0.12991000  0.49042000  1.0
  Cu  Cu2  1  0.96737000  0.37009000  0.99042000  1.0
  Cu  Cu3  1  0.03263000  0.87009000  0.50958000  1.0
  H  H4  1  0.41830000  0.71374000  0.01951000  1.0
  H  H5  1  0.58170000  0.21374000  0.48049000  1.0
  H  H6  1  0.58170000  0.28626000  0.98049000  1.0
  H  H7  1  0.41830000  0.78626000  0.51951000  1.0
  H  H8  1  0.31505000  0.85972000  0.04829000  1.0
  H  H9  1  0.68495000  0.35972000  0.45171000  1.0
  H  H10  1  0.68495000  0.14028000  0.95171000  1.0
  H  H11  1  0.31505000  0.64028000  0.54829000  1.0
  H  H12  1  0.45340000  0.85681000  0.95289000  1.0
  H  H13  1  0.54660000  0.35681000  0.54711000  1.0
  H  H14  1  0.54660000  0.14319000  0.04711000  1.0
  H  H15  1  0.45340000  0.64319000  0.45289000  1.0
  H  H16  1  0.35690000  0.58218000  0.87358000  1.0
  H  H17  1  0.64310000  0.08218000  0.62642000  1.0
  H  H18  1  0.64310000  0.41782000  0.12642000  1.0
  H  H19  1  0.35690000  0.91782000  0.37358000  1.0
  H  H20  1  0.19786000  0.61799000  0.79117000  1.0
  H  H21  1  0.80214000  0.11799000  0.70883000  1.0
  H  H22  1  0.80214000  0.38201000  0.20883000  1.0
  H  H23  1  0.19786000  0.88201000  0.29117000  1.0
  H  H24  1  0.35493000  0.81364000  0.74119000  1.0
  H  H25  1  0.64507000  0.31364000  0.75881000  1.0
  H  H26  1  0.64507000  0.18636000  0.25881000  1.0
  H  H27  1  0.35493000  0.68636000  0.24119000  1.0
  H  H28  1  0.51300000  0.77732000  0.82143000  1.0
  H  H29  1  0.48700000  0.27732000  0.67857000  1.0
  H  H30  1  0.48699000  0.22269000  0.17857000  1.0
  H  H31  1  0.51300000  0.72269000  0.32143000  1.0
  H  H32  1  0.72778000  0.67307000  0.52706000  1.0
  H  H33  1  0.27222000  0.17307000  0.97294000  1.0
  H  H34  1  0.27222000  0.32693000  0.47294000  1.0
  H  H35  1  0.72778000  0.82693000  0.02706000  1.0
  H  H36  1  0.66354000  0.53241000  0.58811000  1.0
  H  H37  1  0.33646000  0.03241000  0.91189000  1.0
  H  H38  1  0.33645000  0.46759000  0.41189000  1.0
  H  H39  1  0.66355000  0.96759000  0.08811000  1.0
  H  H40  1  0.97416000  0.54760000  0.58021000  1.0
  H  H41  1  0.02584000  0.04760000  0.91979000  1.0
  H  H42  1  0.02584000  0.45240000  0.41979000  1.0
  H  H43  1  0.97416000  0.95240000  0.08021000  1.0
  H  H44  1  0.90206000  0.55450000  0.69660000  1.0
  H  H45  1  0.09794000  0.05450000  0.80339000  1.0
  H  H46  1  0.09794000  0.44550000  0.30339000  1.0
  H  H47  1  0.90206000  0.94550000  0.19661000  1.0
  H  H48  1  0.86403000  0.78497000  0.78594000  1.0
  H  H49  1  0.13597000  0.28496000  0.71406000  1.0
  H  H50  1  0.13597000  0.21503000  0.21406000  1.0
  H  H51  1  0.86403000  0.71503000  0.28594000  1.0
  H  H52  1  0.90845000  0.93096000  0.72645000  1.0
  H  H53  1  0.09156000  0.43096000  0.77355000  1.0
  H  H54  1  0.09156000  0.06904000  0.27355000  1.0
  H  H55  1  0.90844000  0.56904000  0.22645000  1.0
  H  H56  1  0.60795000  0.88649000  0.71671000  1.0
  H  H57  1  0.39206000  0.38649000  0.78329000  1.0
  H  H58  1  0.39205000  0.11351000  0.28329000  1.0
  H  H59  1  0.60795000  0.61351000  0.21671000  1.0
  H  H60  1  0.69812000  0.87748000  0.60527000  1.0
  H  H61  1  0.30189000  0.37748000  0.89473000  1.0
  H  H62  1  0.30189000  0.12252000  0.39473000  1.0
  H  H63  1  0.69811000  0.62252000  0.10527000  1.0
  C  C64  1  0.36212000  0.80109000  0.99144000  1.0
  C  C65  1  0.63788000  0.30109000  0.50856000  1.0
  C  C66  1  0.63788000  0.19891000  0.00856000  1.0
  C  C67  1  0.36213000  0.69891000  0.49144000  1.0
  C  C68  1  0.29575000  0.65916000  0.83472000  1.0
  C  C69  1  0.70425000  0.15916000  0.66528000  1.0
  C  C70  1  0.70425000  0.34084000  0.16528000  1.0
  C  C71  1  0.29575000  0.84084000  0.33472000  1.0
  C  C72  1  0.41794000  0.73396000  0.77678000  1.0
  C  C73  1  0.58206000  0.23396000  0.72322000  1.0
  C  C74  1  0.58206000  0.26604000  0.22322000  1.0
  C  C75  1  0.41794000  0.76604000  0.27678000  1.0
  C  C76  1  0.50090000  0.64974000  0.70503000  1.0
  C  C77  1  0.49911000  0.14974000  0.79498000  1.0
  C  C78  1  0.49910000  0.35026000  0.29497000  1.0
  C  C79  1  0.50090000  0.85026000  0.20503000  1.0
  C  C80  1  0.72649000  0.62453000  0.59484000  1.0
  C  C81  1  0.27350000  0.12453000  0.90516000  1.0
  C  C82  1  0.27350000  0.37547000  0.40516000  1.0
  C  C83  1  0.72649000  0.87546000  0.09484000  1.0
  C  C84  1  0.90270000  0.60453000  0.62960000  1.0
  C  C85  1  0.09730000  0.10452000  0.87040000  1.0
  C  C86  1  0.09730000  0.39548000  0.37040000  1.0
  C  C87  1  0.90269000  0.89548000  0.12960000  1.0
  C  C88  1  0.86385000  0.83274000  0.71807000  1.0
  C  C89  1  0.13614000  0.33274000  0.78193000  1.0
  C  C90  1  0.13615000  0.16726000  0.28193000  1.0
  C  C91  1  0.86386000  0.66727000  0.21807000  1.0
  C  C92  1  0.69254000  0.83114000  0.67377000  1.0
  C  C93  1  0.30746000  0.33114000  0.82623000  1.0
  C  C94  1  0.30746000  0.16886000  0.32623000  1.0
  C  C95  1  0.69254000  0.66886000  0.17377000  1.0
  S  S96  1  0.18966000  0.75936000  0.91749000  1.0
  S  S97  1  0.81034000  0.25936000  0.58251000  1.0
  S  S98  1  0.81033000  0.24064000  0.08251000  1.0
  S  S99  1  0.18967000  0.74064000  0.41749000  1.0
  S  S100  1  0.01465000  0.75435000  0.64498000  1.0
  S  S101  1  0.98535000  0.25435000  0.85502000  1.0
  S  S102  1  0.98535000  0.24565000  0.35502000  1.0
  S  S103  1  0.01465000  0.74566000  0.14498000  1.0
  I  I104  1  0.22451000  0.44695000  0.08620000  1.0
  I  I105  1  0.77549000  0.94695000  0.41380000  1.0
  I  I106  1  0.77549000  0.55305000  0.91380000  1.0
  I  I107  1  0.22451000  0.05305000  0.58620000  1.0
  N  N108  1  0.63222000  0.70128000  0.66004000  1.0
  N  N109  1  0.36778000  0.20128000  0.83996000  1.0
  N  N110  1  0.36778000  0.29872000  0.33996000  1.0
  N  N111  1  0.63222000  0.79872000  0.16004000  1.0
  O  O112  1  0.44930000  0.53991000  0.68742000  1.0
  O  O113  1  0.55070000  0.03991000  0.81258000  1.0
  O  O114  1  0.55070000  0.46009000  0.31258000  1.0
  O  O115  1  0.44930000  0.96009000  0.18742000  1.0
