# generated using pymatgen
data_CuH20C22(NO4)2
_symmetry_space_group_name_H-M   'P 1'
_cell_length_a   9.30802000
_cell_length_b   9.42923000
_cell_length_c   11.64100000
_cell_angle_alpha   90.00160000
_cell_angle_beta   90.00060000
_cell_angle_gamma   81.22440000
_symmetry_Int_Tables_number   1
_chemical_formula_structural   CuH20C22(NO4)2
_chemical_formula_sum   'Cu2 H40 C44 N4 O16'
_cell_volume   1009.74041624
_cell_formula_units_Z   2
loop_
 _symmetry_equiv_pos_site_id
 _symmetry_equiv_pos_as_xyz
  1  'x, y, z'
loop_
 _atom_site_type_symbol
 _atom_site_label
 _atom_site_symmetry_multiplicity
 _atom_site_fract_x
 _atom_site_fract_y
 _atom_site_fract_z
 _atom_site_occupancy
  Cu  Cu0  1  0.00000000  0.00000000  0.00000000  1.0
  Cu  Cu1  1  0.50000000  0.00000000  0.50000000  1.0
  H  H2  1  0.67596000  0.11488000  0.08378000  1.0
  H  H3  1  0.17597000  0.11488000  0.41622000  1.0
  H  H4  1  0.32403000  0.88512000  0.91622000  1.0
  H  H5  1  0.82403000  0.88512000  0.58377000  1.0
  H  H6  1  0.54191000  0.18859000  0.24588000  1.0
  H  H7  1  0.04191000  0.18859000  0.25413000  1.0
  H  H8  1  0.45809000  0.81141000  0.75412000  1.0
  H  H9  1  0.95809000  0.81141000  0.74587000  1.0
  H  H10  1  0.36029000  0.37007000  0.33933000  1.0
  H  H11  1  0.86030000  0.37007000  0.16069000  1.0
  H  H12  1  0.63971000  0.62993000  0.66067000  1.0
  H  H13  1  0.13970000  0.62993000  0.83931000  1.0
  H  H14  1  0.21141000  0.56104000  0.22238000  1.0
  H  H15  1  0.71141000  0.56103000  0.27763000  1.0
  H  H16  1  0.78859000  0.43896000  0.77761000  1.0
  H  H17  1  0.28859000  0.43897000  0.72237000  1.0
  H  H18  1  0.24382000  0.56247000  0.01031000  1.0
  H  H19  1  0.74382000  0.56247000  0.48970000  1.0
  H  H20  1  0.75618000  0.43753000  0.98969000  1.0
  H  H21  1  0.25617000  0.43754000  0.51029000  1.0
  H  H22  1  0.41894000  0.37520000  0.91463000  1.0
  H  H23  1  0.91894000  0.37520000  0.58539000  1.0
  H  H24  1  0.58106000  0.62480000  0.08538000  1.0
  H  H25  1  0.08105000  0.62480000  0.41461000  1.0
  H  H26  1  0.92549000  0.20700000  0.86480000  1.0
  H  H27  1  0.42549000  0.20701000  0.63520000  1.0
  H  H28  1  0.07451000  0.79299000  0.13520000  1.0
  H  H29  1  0.57451000  0.79299000  0.36480000  1.0
  H  H30  1  0.01994000  0.40617000  0.92719000  1.0
  H  H31  1  0.51994000  0.40617000  0.57282000  1.0
  H  H32  1  0.98006000  0.59383000  0.07281000  1.0
  H  H33  1  0.48006000  0.59383000  0.42718000  1.0
  H  H34  1  0.15953000  0.25292000  0.91540000  1.0
  H  H35  1  0.65953000  0.25293000  0.58460000  1.0
  H  H36  1  0.84047000  0.74708000  0.08460000  1.0
  H  H37  1  0.34047000  0.74707000  0.41540000  1.0
  H  H38  1  0.08614000  0.30654000  0.05285000  1.0
  H  H39  1  0.58613000  0.30654000  0.44716000  1.0
  H  H40  1  0.91386000  0.69346000  0.94715000  1.0
  H  H41  1  0.41386000  0.69346000  0.55284000  1.0
  C  C42  1  0.73013000  0.01905000  0.86397000  1.0
  C  C43  1  0.23014000  0.01904000  0.63603000  1.0
  C  C44  1  0.26987000  0.98094000  0.13603000  1.0
  C  C45  1  0.76987000  0.98096000  0.36397000  1.0
  C  C46  1  0.65161000  0.03139000  0.75349000  1.0
  C  C47  1  0.15162000  0.03137000  0.74652000  1.0
  C  C48  1  0.34839000  0.96861000  0.24651000  1.0
  C  C49  1  0.84839000  0.96862000  0.25349000  1.0
  C  C50  1  0.53431000  0.13581000  0.80841000  1.0
  C  C51  1  0.03434000  0.13578000  0.69159000  1.0
  C  C52  1  0.46569000  0.86420000  0.19159000  1.0
  C  C53  1  0.96568000  0.86421000  0.30841000  1.0
  C  C54  1  0.61408000  0.11823000  0.91804000  1.0
  C  C55  1  0.11410000  0.11822000  0.58196000  1.0
  C  C56  1  0.38592000  0.88176000  0.08196000  1.0
  C  C57  1  0.88591000  0.88178000  0.41804000  1.0
  C  C58  1  0.47517000  0.26952000  0.19390000  1.0
  C  C59  1  0.97518000  0.26951000  0.30612000  1.0
  C  C60  1  0.52483000  0.73048000  0.80610000  1.0
  C  C61  1  0.02482000  0.73049000  0.69388000  1.0
  C  C62  1  0.37357000  0.37307000  0.24636000  1.0
  C  C63  1  0.87357000  0.37306000  0.25366000  1.0
  C  C64  1  0.62643000  0.62693000  0.75364000  1.0
  C  C65  1  0.12643000  0.62694000  0.74634000  1.0
  C  C66  1  0.28910000  0.47871000  0.18090000  1.0
  C  C67  1  0.78910000  0.47870000  0.31911000  1.0
  C  C68  1  0.71090000  0.52129000  0.81910000  1.0
  C  C69  1  0.21090000  0.52130000  0.68089000  1.0
  C  C70  1  0.30652000  0.47822000  0.06166000  1.0
  C  C71  1  0.80652000  0.47822000  0.43835000  1.0
  C  C72  1  0.69348000  0.52178000  0.93834000  1.0
  C  C73  1  0.19347000  0.52178000  0.56165000  1.0
  C  C74  1  0.40567000  0.37376000  0.00744000  1.0
  C  C75  1  0.90568000  0.37376000  0.49258000  1.0
  C  C76  1  0.59432000  0.62624000  0.99256000  1.0
  C  C77  1  0.09432000  0.62624000  0.50742000  1.0
  C  C78  1  0.49059000  0.26891000  0.07390000  1.0
  C  C79  1  0.99059000  0.26891000  0.42612000  1.0
  C  C80  1  0.50941000  0.73109000  0.92610000  1.0
  C  C81  1  0.00941000  0.73109000  0.57389000  1.0
  C  C82  1  0.06045000  0.29901000  0.96169000  1.0
  C  C83  1  0.56045000  0.29901000  0.53831000  1.0
  C  C84  1  0.93955000  0.70099000  0.03831000  1.0
  C  C85  1  0.43955000  0.70099000  0.46168000  1.0
  N  N86  1  0.59780000  0.16322000  0.02625000  1.0
  N  N87  1  0.09781000  0.16322000  0.47375000  1.0
  N  N88  1  0.40220000  0.83677000  0.97375000  1.0
  N  N89  1  0.90219000  0.83678000  0.52625000  1.0
  O  O90  1  0.85143000  0.94940000  0.89300000  1.0
  O  O91  1  0.35144000  0.94940000  0.60700000  1.0
  O  O92  1  0.14857000  0.05060000  0.10700000  1.0
  O  O93  1  0.64857000  0.05060000  0.39299000  1.0
  O  O94  1  0.67415000  0.97793000  0.65595000  1.0
  O  O95  1  0.17416000  0.97792000  0.84404000  1.0
  O  O96  1  0.32585000  0.02207000  0.34405000  1.0
  O  O97  1  0.82584000  0.02208000  0.15595000  1.0
  O  O98  1  0.41967000  0.20923000  0.77226000  1.0
  O  O99  1  0.91968000  0.20923000  0.72775000  1.0
  O  O100  1  0.58034000  0.79076000  0.22775000  1.0
  O  O101  1  0.08032000  0.79078000  0.27226000  1.0
  O  O102  1  0.94793000  0.20975000  0.95041000  1.0
  O  O103  1  0.44793000  0.20975000  0.54959000  1.0
  O  O104  1  0.05207000  0.79025000  0.04959000  1.0
  O  O105  1  0.55207000  0.79025000  0.45041000  1.0
