# generated using pymatgen
data_CdAg2H16(C3N)8
_symmetry_space_group_name_H-M   'P 1'
_cell_length_a   8.89048000
_cell_length_b   11.15520000
_cell_length_c   13.28150000
_cell_angle_alpha   90.00000000
_cell_angle_beta   104.74100000
_cell_angle_gamma   90.00000000
_symmetry_Int_Tables_number   1
_chemical_formula_structural   CdAg2H16(C3N)8
_chemical_formula_sum   'Cd2 Ag4 H32 C48 N16'
_cell_volume   1273.83963384
_cell_formula_units_Z   2
loop_
 _symmetry_equiv_pos_site_id
 _symmetry_equiv_pos_as_xyz
  1  'x, y, z'
loop_
 _atom_site_type_symbol
 _atom_site_label
 _atom_site_symmetry_multiplicity
 _atom_site_fract_x
 _atom_site_fract_y
 _atom_site_fract_z
 _atom_site_occupancy
  Cd  Cd0  1  0.00000000  0.00000000  0.00000000  1.0
  Cd  Cd1  1  0.50000000  0.50000000  0.50000000  1.0
  Ag  Ag2  1  0.67323000  0.32101000  0.15871000  1.0
  Ag  Ag3  1  0.82677000  0.82101000  0.34129000  1.0
  Ag  Ag4  1  0.32677000  0.67899000  0.84129000  1.0
  Ag  Ag5  1  0.17324000  0.17899000  0.65871000  1.0
  H  H6  1  0.61688000  0.99154000  0.18308000  1.0
  H  H7  1  0.88312000  0.49154000  0.31692000  1.0
  H  H8  1  0.38312000  0.00846000  0.81692000  1.0
  H  H9  1  0.11688000  0.50846000  0.68308000  1.0
  H  H10  1  0.37025000  0.96562000  0.04566000  1.0
  H  H11  1  0.12975000  0.46562000  0.45434000  1.0
  H  H12  1  0.62975000  0.03438000  0.95434000  1.0
  H  H13  1  0.87025000  0.53438000  0.54566000  1.0
  H  H14  1  0.11341000  0.13454000  0.22354000  1.0
  H  H15  1  0.38659000  0.63454000  0.27646000  1.0
  H  H16  1  0.88659000  0.86546000  0.77646000  1.0
  H  H17  1  0.61341000  0.36546000  0.72354000  1.0
  H  H18  1  0.34989000  0.17229000  0.36864000  1.0
  H  H19  1  0.15012000  0.67229000  0.13136000  1.0
  H  H20  1  0.65012000  0.82771000  0.63136000  1.0
  H  H21  1  0.84988000  0.32771000  0.86864000  1.0
  H  H22  1  0.80202000  0.10470000  0.26812000  1.0
  H  H23  1  0.69798000  0.60470000  0.23188000  1.0
  H  H24  1  0.19798000  0.89530000  0.73188000  1.0
  H  H25  1  0.30202000  0.39530000  0.76812000  1.0
  H  H26  1  0.03886000  0.14391000  0.40997000  1.0
  H  H27  1  0.46114000  0.64391000  0.09003000  1.0
  H  H28  1  0.96114000  0.85609000  0.59003000  1.0
  H  H29  1  0.53886000  0.35609000  0.90997000  1.0
  H  H30  1  0.78900000  0.14531000  0.63350000  1.0
  H  H31  1  0.71100000  0.64531000  0.86650000  1.0
  H  H32  1  0.21100000  0.85469000  0.36650000  1.0
  H  H33  1  0.28900000  0.35469000  0.13350000  1.0
  H  H34  1  0.53940000  0.10948000  0.50148000  1.0
  H  H35  1  0.96060000  0.60948000  0.99852000  1.0
  H  H36  1  0.46059000  0.89053000  0.49852000  1.0
  H  H37  1  0.03941000  0.39053000  0.00148000  1.0
  C  C38  1  0.80831000  0.23922000  0.07502000  1.0
  C  C39  1  0.69169000  0.73922000  0.42498000  1.0
  C  C40  1  0.19169000  0.76078000  0.92498000  1.0
  C  C41  1  0.30832000  0.26078000  0.57502000  1.0
  C  C42  1  0.88182000  0.88257000  0.20913000  1.0
  C  C43  1  0.61817000  0.38257000  0.29087000  1.0
  C  C44  1  0.11817000  0.11743000  0.79087000  1.0
  C  C45  1  0.38181000  0.61743000  0.70913000  1.0
  C  C46  1  0.50478000  0.08325000  0.28924000  1.0
  C  C47  1  0.99522000  0.58325000  0.21076000  1.0
  C  C48  1  0.49522000  0.91675000  0.71076000  1.0
  C  C49  1  0.00478000  0.41675000  0.78924000  1.0
  C  C50  1  0.50861000  0.02647000  0.19551000  1.0
  C  C51  1  0.99139000  0.52647000  0.30450000  1.0
  C  C52  1  0.49139000  0.97353000  0.80450000  1.0
  C  C53  1  0.00861000  0.47353000  0.69550000  1.0
  C  C54  1  0.37119000  0.01104000  0.11858000  1.0
  C  C55  1  0.12881000  0.51104000  0.38143000  1.0
  C  C56  1  0.62881000  0.98896000  0.88143000  1.0
  C  C57  1  0.87119000  0.48896000  0.61857000  1.0
  C  C58  1  0.22795000  0.10433000  0.21838000  1.0
  C  C59  1  0.27205000  0.60433000  0.28162000  1.0
  C  C60  1  0.77205000  0.89567000  0.78162000  1.0
  C  C61  1  0.72795000  0.39567000  0.71838000  1.0
  C  C62  1  0.35966000  0.12361000  0.29945000  1.0
  C  C63  1  0.14034000  0.62361000  0.20055000  1.0
  C  C64  1  0.64034000  0.87639000  0.70055000  1.0
  C  C65  1  0.85966000  0.37639000  0.79945000  1.0
  C  C66  1  0.64849000  0.10209000  0.37228000  1.0
  C  C67  1  0.85151000  0.60209000  0.12772000  1.0
  C  C68  1  0.35151000  0.89791000  0.62772000  1.0
  C  C69  1  0.14849000  0.39791000  0.87228000  1.0
  C  C70  1  0.79292000  0.11135000  0.34806000  1.0
  C  C71  1  0.70708000  0.61135000  0.15194000  1.0
  C  C72  1  0.20708000  0.88865000  0.65194000  1.0
  C  C73  1  0.29292000  0.38865000  0.84806000  1.0
  C  C74  1  0.92568000  0.13446000  0.42713000  1.0
  C  C75  1  0.57432000  0.63446000  0.07287000  1.0
  C  C76  1  0.07431000  0.86554000  0.57287000  1.0
  C  C77  1  0.42569000  0.36554000  0.92713000  1.0
  C  C78  1  0.78636000  0.13595000  0.55121000  1.0
  C  C79  1  0.71364000  0.63595000  0.94879000  1.0
  C  C80  1  0.21363000  0.86405000  0.44879000  1.0
  C  C81  1  0.28637000  0.36405000  0.05121000  1.0
  C  C82  1  0.64716000  0.11466000  0.47712000  1.0
  C  C83  1  0.85284000  0.61466000  0.02288000  1.0
  C  C84  1  0.35283000  0.88534000  0.52288000  1.0
  C  C85  1  0.14717000  0.38534000  0.97712000  1.0
  N  N86  1  0.88240000  0.18233000  0.03083000  1.0
  N  N87  1  0.61760000  0.68233000  0.46917000  1.0
  N  N88  1  0.11760000  0.81767000  0.96917000  1.0
  N  N89  1  0.38240000  0.31767000  0.53083000  1.0
  N  N90  1  0.90966000  0.91801000  0.13283000  1.0
  N  N91  1  0.59034000  0.41801000  0.36717000  1.0
  N  N92  1  0.09034000  0.08199000  0.86717000  1.0
  N  N93  1  0.40965000  0.58199000  0.63283000  1.0
  N  N94  1  0.23263000  0.04860000  0.12945000  1.0
  N  N95  1  0.26737000  0.54860000  0.37055000  1.0
  N  N96  1  0.76737000  0.95140000  0.87055000  1.0
  N  N97  1  0.73263000  0.45139000  0.62945000  1.0
  N  N98  1  0.92377000  0.14665000  0.52725000  1.0
  N  N99  1  0.57623000  0.64665000  0.97275000  1.0
  N  N100  1  0.07623000  0.85335000  0.47275000  1.0
  N  N101  1  0.42377000  0.35334000  0.02725000  1.0
