# generated using pymatgen
data_Zn4H42C64N4O25
_symmetry_space_group_name_H-M   'P 1'
_cell_length_a   11.13710000
_cell_length_b   14.07980000
_cell_length_c   26.62040000
_cell_angle_alpha   90.02260000
_cell_angle_beta   89.76740000
_cell_angle_gamma   89.90650000
_symmetry_Int_Tables_number   1
_chemical_formula_structural   Zn4H42C64N4O25
_chemical_formula_sum   'Zn4 H42 C64 N4 O25'
_cell_volume   4174.25513416
_cell_formula_units_Z   1
loop_
 _symmetry_equiv_pos_site_id
 _symmetry_equiv_pos_as_xyz
  1  'x, y, z'
loop_
 _atom_site_type_symbol
 _atom_site_label
 _atom_site_symmetry_multiplicity
 _atom_site_fract_x
 _atom_site_fract_y
 _atom_site_fract_z
 _atom_site_occupancy
  Zn  Zn0  1  0.50309000  0.39991000  0.49892000  1.0
  Zn  Zn1  1  0.50159000  0.59805000  0.50001000  1.0
  Zn  Zn2  1  0.50336000  0.60150000  0.08041000  1.0
  Zn  Zn3  1  0.50259000  0.40353000  0.08121000  1.0
  H  H4  1  0.63148000  0.24743000  0.44376000  1.0
  H  H5  1  0.36821000  0.75008000  0.55426000  1.0
  H  H6  1  0.63458000  0.75131000  0.44569000  1.0
  H  H7  1  0.63726000  0.92607000  0.44342000  1.0
  H  H8  1  0.36888000  0.24717000  0.55396000  1.0
  H  H9  1  0.36440000  0.07225000  0.55587000  1.0
  H  H10  1  0.50098000  0.65511000  0.24313000  1.0
  H  H11  1  0.42168000  0.27987000  0.24251000  1.0
  H  H12  1  0.58189000  0.27861000  0.24227000  1.0
  H  H13  1  0.58223000  0.28041000  0.33679000  1.0
  H  H14  1  0.42194000  0.28121000  0.33730000  1.0
  H  H15  1  0.49780000  0.34725000  0.65975000  1.0
  H  H16  1  0.49953000  0.65193000  0.92013000  1.0
  H  H17  1  0.50006000  0.34812000  0.91936000  1.0
  H  H18  1  0.49983000  0.34931000  0.82753000  1.0
  H  H19  1  0.50006000  0.65118000  0.66082000  1.0
  H  H20  1  0.50056000  0.64962000  0.75259000  1.0
  H  H21  1  0.89020000  0.34501000  0.49979000  1.0
  H  H22  1  0.88812000  0.72088000  0.46607000  1.0
  H  H23  1  0.88556000  0.72103000  0.53315000  1.0
  H  H24  1  0.11161000  0.71948000  0.53412000  1.0
  H  H25  1  0.11427000  0.71989000  0.46704000  1.0
  H  H26  1  0.63188000  0.75288000  0.13443000  1.0
  H  H27  1  0.37024000  0.25245000  0.02601000  1.0
  H  H28  1  0.63415000  0.24946000  0.13456000  1.0
  H  H29  1  0.63836000  0.07425000  0.13565000  1.0
  H  H30  1  0.36945000  0.75535000  0.02514000  1.0
  H  H31  1  0.36600000  0.93032000  0.02345000  1.0
  H  H32  1  0.89012000  0.65565000  0.07987000  1.0
  H  H33  1  0.88903000  0.28004000  0.11428000  1.0
  H  H34  1  0.88770000  0.27938000  0.04724000  1.0
  H  H35  1  0.11381000  0.28114000  0.04618000  1.0
  H  H36  1  0.11534000  0.28076000  0.11325000  1.0
  H  H37  1  0.70080000  0.11424000  0.41647000  1.0
  H  H38  1  0.29988000  0.88320000  0.58230000  1.0
  H  H39  1  0.49985000  0.27680000  0.72895000  1.0
  H  H40  1  0.50164000  0.72219000  0.85096000  1.0
  H  H41  1  0.70142000  0.88529000  0.16188000  1.0
  H  H42  1  0.30214000  0.11989000  0.99765000  1.0
  H  H43  1  0.49830000  0.65859000  0.37597000  1.0
  H  H44  1  0.20764000  0.34244000  0.49831000  1.0
  H  H45  1  0.20778000  0.65803000  0.08167000  1.0
  C  C46  1  0.49735000  0.49884000  0.59773000  1.0
  C  C47  1  0.26304000  0.49954000  0.49935000  1.0
  C  C48  1  0.50169000  0.50112000  0.39948000  1.0
  C  C49  1  0.73690000  0.49607000  0.49856000  1.0
  C  C50  1  0.49840000  0.50116000  0.98233000  1.0
  C  C51  1  0.26356000  0.50105000  0.08057000  1.0
  C  C52  1  0.50242000  0.50336000  0.17920000  1.0
  C  C53  1  0.73775000  0.50443000  0.08055000  1.0
  C  C54  1  0.57305000  0.20547000  0.46830000  1.0
  C  C55  1  0.57773000  0.10625000  0.46698000  1.0
  C  C56  1  0.42723000  0.79232000  0.53010000  1.0
  C  C57  1  0.42296000  0.89155000  0.53182000  1.0
  C  C58  1  0.57500000  0.79298000  0.46965000  1.0
  C  C59  1  0.57572000  0.89133000  0.46897000  1.0
  C  C60  1  0.42696000  0.20526000  0.52946000  1.0
  C  C61  1  0.42582000  0.10688000  0.53021000  1.0
  C  C62  1  0.50144000  0.05167000  0.49892000  1.0
  C  C63  1  0.49953000  0.94634000  0.50011000  1.0
  C  C64  1  0.50276000  0.50265000  0.23539000  1.0
  C  C65  1  0.50235000  0.50217000  0.34404000  1.0
  C  C66  1  0.50297000  0.41836000  0.26317000  1.0
  C  C67  1  0.50189000  0.58858000  0.31585000  1.0
  C  C68  1  0.50286000  0.41902000  0.31539000  1.0
  C  C69  1  0.50225000  0.58750000  0.26299000  1.0
  C  C70  1  0.50207000  0.31084000  0.25981000  1.0
  C  C71  1  0.50206000  0.31163000  0.31927000  1.0
  C  C72  1  0.49776000  0.49901000  0.65381000  1.0
  C  C73  1  0.49869000  0.50029000  0.92616000  1.0
  C  C74  1  0.49780000  0.41413000  0.68065000  1.0
  C  C75  1  0.49855000  0.41233000  0.73305000  1.0
  C  C76  1  0.49910000  0.58503000  0.89924000  1.0
  C  C77  1  0.49959000  0.58671000  0.84685000  1.0
  C  C78  1  0.49921000  0.41527000  0.89909000  1.0
  C  C79  1  0.49941000  0.41671000  0.84700000  1.0
  C  C80  1  0.49892000  0.58391000  0.68098000  1.0
  C  C81  1  0.49948000  0.58228000  0.73306000  1.0
  C  C82  1  0.49909000  0.49781000  0.76210000  1.0
  C  C83  1  0.49936000  0.50114000  0.81790000  1.0
  C  C84  1  0.87097000  0.49751000  0.49941000  1.0
  C  C85  1  0.13047000  0.49842000  0.49984000  1.0
  C  C86  1  0.93688000  0.58193000  0.49983000  1.0
  C  C87  1  0.06355000  0.41188000  0.49968000  1.0
  C  C88  1  0.06173000  0.58145000  0.50015000  1.0
  C  C89  1  0.93728000  0.41274000  0.49965000  1.0
  C  C90  1  0.92850000  0.68945000  0.49983000  1.0
  C  C91  1  0.07059000  0.68884000  0.50027000  1.0
  C  C92  1  0.57382000  0.79541000  0.11013000  1.0
  C  C93  1  0.57895000  0.89460000  0.11164000  1.0
  C  C94  1  0.42894000  0.20976000  0.04997000  1.0
  C  C95  1  0.42492000  0.11056000  0.04780000  1.0
  C  C96  1  0.57559000  0.20798000  0.11036000  1.0
  C  C97  1  0.57685000  0.10959000  0.11047000  1.0
  C  C98  1  0.42789000  0.79681000  0.04943000  1.0
  C  C99  1  0.42730000  0.89519000  0.04882000  1.0
  C  C100  1  0.50306000  0.94981000  0.08001000  1.0
  C  C101  1  0.50121000  0.05514000  0.07916000  1.0
  C  C102  1  0.87178000  0.50318000  0.08030000  1.0
  C  C103  1  0.13106000  0.50228000  0.08025000  1.0
  C  C104  1  0.93796000  0.41873000  0.08027000  1.0
  C  C105  1  0.06386000  0.58883000  0.08033000  1.0
  C  C106  1  0.06276000  0.41923000  0.08009000  1.0
  C  C107  1  0.93762000  0.58797000  0.08015000  1.0
  C  C108  1  0.92999000  0.31123000  0.08046000  1.0
  C  C109  1  0.07209000  0.31183000  0.08005000  1.0
  N  N110  1  0.49988000  0.25413000  0.49865000  1.0
  N  N111  1  0.50108000  0.74387000  0.49992000  1.0
  N  N112  1  0.50049000  0.74736000  0.07993000  1.0
  N  N113  1  0.50199000  0.25761000  0.08039000  1.0
  O  O114  1  0.49684000  0.41847000  0.57554000  1.0
  O  O115  1  0.49772000  0.57967000  0.57607000  1.0
  O  O116  1  0.31666000  0.57895000  0.49986000  1.0
  O  O117  1  0.31702000  0.41800000  0.49825000  1.0
  O  O118  1  0.49933000  0.58256000  0.42213000  1.0
  O  O119  1  0.50317000  0.42161000  0.42196000  1.0
  O  O120  1  0.68543000  0.41525000  0.49836000  1.0
  O  O121  1  0.68392000  0.57651000  0.49809000  1.0
  O  O122  1  0.49742000  0.58209000  0.00393000  1.0
  O  O123  1  0.49916000  0.42086000  0.00437000  1.0
  O  O124  1  0.31712000  0.42154000  0.08005000  1.0
  O  O125  1  0.31726000  0.58257000  0.08145000  1.0
  O  O126  1  0.50068000  0.42241000  0.15766000  1.0
  O  O127  1  0.50365000  0.58372000  0.15717000  1.0
  O  O128  1  0.68587000  0.58524000  0.08023000  1.0
  O  O129  1  0.68549000  0.42391000  0.08105000  1.0
  O  O130  1  0.65703000  0.06468000  0.43442000  1.0
  O  O131  1  0.34376000  0.93295000  0.56455000  1.0
  O  O132  1  0.49893000  0.32413000  0.75566000  1.0
  O  O133  1  0.50038000  0.67492000  0.82423000  1.0
  O  O134  1  0.65834000  0.93541000  0.14413000  1.0
  O  O135  1  0.34624000  0.06975000  0.01493000  1.0
  O  O136  1  0.50077000  0.67426000  0.33910000  1.0
  O  O137  1  0.11953000  0.32636000  0.49935000  1.0
  O  O138  1  0.11961000  0.67429000  0.08063000  1.0
