# generated using pymatgen
data_Zn4H36C60O13
_symmetry_space_group_name_H-M   'P 1'
_cell_length_a   23.38290000
_cell_length_b   23.38290000
_cell_length_c   29.79970000
_cell_angle_alpha   66.90790000
_cell_angle_beta   66.90790000
_cell_angle_gamma   60.01070000
_symmetry_Int_Tables_number   1
_chemical_formula_structural   Zn4H36C60O13
_chemical_formula_sum   'Zn16 H144 C240 O52'
_cell_volume   12581.57081600
_cell_formula_units_Z   4
loop_
 _symmetry_equiv_pos_site_id
 _symmetry_equiv_pos_as_xyz
  1  'x, y, z'
loop_
 _atom_site_type_symbol
 _atom_site_label
 _atom_site_symmetry_multiplicity
 _atom_site_fract_x
 _atom_site_fract_y
 _atom_site_fract_z
 _atom_site_occupancy
  Zn  Zn0  1  0.86546000  0.92344000  0.44237000  1.0
  Zn  Zn1  1  0.76866000  0.86554000  0.44232000  1.0
  Zn  Zn2  1  0.92334000  0.76875000  0.44238000  1.0
  Zn  Zn3  1  0.36554000  0.26866000  0.94232000  1.0
  Zn  Zn4  1  0.26875000  0.42334000  0.94238000  1.0
  Zn  Zn5  1  0.42344000  0.36546000  0.94237000  1.0
  Zn  Zn6  1  0.81913000  0.81915000  0.54250000  1.0
  Zn  Zn7  1  0.31915000  0.31913000  0.04250000  1.0
  Zn  Zn8  1  0.03959000  0.19461000  0.62642000  1.0
  Zn  Zn9  1  0.13944000  0.03952000  0.62643000  1.0
  Zn  Zn10  1  0.19459000  0.13948000  0.62638000  1.0
  Zn  Zn11  1  0.53952000  0.63944000  0.12643000  1.0
  Zn  Zn12  1  0.63948000  0.69459000  0.12638000  1.0
  Zn  Zn13  1  0.69462000  0.53959000  0.12642000  1.0
  Zn  Zn14  1  0.09122000  0.09129000  0.72610000  1.0
  Zn  Zn15  1  0.59129000  0.59122000  0.22610000  1.0
  H  H16  1  0.86509000  0.04372000  0.51140000  1.0
  H  H17  1  0.77667000  0.92606000  0.64588000  1.0
  H  H18  1  0.05527000  0.94803000  0.35800000  1.0
  H  H19  1  0.08062000  0.77707000  0.31935000  1.0
  H  H20  1  0.85781000  0.11182000  0.56129000  1.0
  H  H21  1  0.76782000  0.99479000  0.69641000  1.0
  H  H22  1  0.16096000  0.95065000  0.29314000  1.0
  H  H23  1  0.18534000  0.78044000  0.25263000  1.0
  H  H24  1  0.90425000  0.10478000  0.61971000  1.0
  H  H25  1  0.70767000  0.10654000  0.70888000  1.0
  H  H26  1  0.29285000  0.75813000  0.23690000  1.0
  H  H27  1  0.89432000  0.17716000  0.66745000  1.0
  H  H28  1  0.57965000  0.86515000  0.51138000  1.0
  H  H29  1  0.65142000  0.77665000  0.64581000  1.0
  H  H30  1  0.63859000  0.05534000  0.35792000  1.0
  H  H31  1  0.82281000  0.08075000  0.31934000  1.0
  H  H32  1  0.46900000  0.85783000  0.56133000  1.0
  H  H33  1  0.54106000  0.76778000  0.69638000  1.0
  H  H34  1  0.59520000  0.16102000  0.29303000  1.0
  H  H35  1  0.78151000  0.18542000  0.25259000  1.0
  H  H36  1  0.37130000  0.90410000  0.61964000  1.0
  H  H37  1  0.47683000  0.70770000  0.70902000  1.0
  H  H38  1  0.71206000  0.29290000  0.23689000  1.0
  H  H39  1  0.26111000  0.89422000  0.66742000  1.0
  H  H40  1  0.04389000  0.57991000  0.51134000  1.0
  H  H41  1  0.92617000  0.65151000  0.64583000  1.0
  H  H42  1  0.94827000  0.63864000  0.35791000  1.0
  H  H43  1  0.77715000  0.82269000  0.31936000  1.0
  H  H44  1  0.11175000  0.46914000  0.56128000  1.0
  H  H45  1  0.99476000  0.54110000  0.69639000  1.0
  H  H46  1  0.95082000  0.59508000  0.29312000  1.0
  H  H47  1  0.78047000  0.78126000  0.25269000  1.0
  H  H48  1  0.10484000  0.37134000  0.61957000  1.0
  H  H49  1  0.10628000  0.47685000  0.70902000  1.0
  H  H50  1  0.75817000  0.71192000  0.23687000  1.0
  H  H51  1  0.17720000  0.26117000  0.66732000  1.0
  H  H52  1  0.36515000  0.07965000  0.01138000  1.0
  H  H53  1  0.27665000  0.15142000  0.14581000  1.0
  H  H54  1  0.55534000  0.13859000  0.85792000  1.0
  H  H55  1  0.58075000  0.32281000  0.81934000  1.0
  H  H56  1  0.35783000  0.96900000  0.06133000  1.0
  H  H57  1  0.26778000  0.04106000  0.19638000  1.0
  H  H58  1  0.66102000  0.09520000  0.79303000  1.0
  H  H59  1  0.68542000  0.28151000  0.75259000  1.0
  H  H60  1  0.40409000  0.87130000  0.11964000  1.0
  H  H61  1  0.20770000  0.97683000  0.20902000  1.0
  H  H62  1  0.79290000  0.21206000  0.73689000  1.0
  H  H63  1  0.39422000  0.76111000  0.16742000  1.0
  H  H64  1  0.07991000  0.54390000  0.01134000  1.0
  H  H65  1  0.15151000  0.42617000  0.14583000  1.0
  H  H66  1  0.13864000  0.44827000  0.85791000  1.0
  H  H67  1  0.32269000  0.27715000  0.81936000  1.0
  H  H68  1  0.96914000  0.61175000  0.06128000  1.0
  H  H69  1  0.04110000  0.49476000  0.19639000  1.0
  H  H70  1  0.09508000  0.45082000  0.79312000  1.0
  H  H71  1  0.28126000  0.28047000  0.75269000  1.0
  H  H72  1  0.87134000  0.60485000  0.11957000  1.0
  H  H73  1  0.97685000  0.60629000  0.20902000  1.0
  H  H74  1  0.21192000  0.25817000  0.73687000  1.0
  H  H75  1  0.76117000  0.67720000  0.16731000  1.0
  H  H76  1  0.54372000  0.36509000  0.01140000  1.0
  H  H77  1  0.42606000  0.27667000  0.14588000  1.0
  H  H78  1  0.44803000  0.55527000  0.85801000  1.0
  H  H79  1  0.27707000  0.58062000  0.81935000  1.0
  H  H80  1  0.61182000  0.35781000  0.06129000  1.0
  H  H81  1  0.49479000  0.26781000  0.19641000  1.0
  H  H82  1  0.45065000  0.66096000  0.79314000  1.0
  H  H83  1  0.28044000  0.68534000  0.75263000  1.0
  H  H84  1  0.60478000  0.40425000  0.11971000  1.0
  H  H85  1  0.60654000  0.20767000  0.20888000  1.0
  H  H86  1  0.25813000  0.79285000  0.73690000  1.0
  H  H87  1  0.67716000  0.39432000  0.16745000  1.0
  H  H88  1  0.07986000  0.02727000  0.51790000  1.0
  H  H89  1  0.03555000  0.03381000  0.45218000  1.0
  H  H90  1  0.87674000  0.23117000  0.47007000  1.0
  H  H91  1  0.92414000  0.22532000  0.53371000  1.0
  H  H92  1  0.96373000  0.02660000  0.43078000  1.0
  H  H93  1  0.92698000  0.03213000  0.36189000  1.0
  H  H94  1  0.86615000  0.14460000  0.30867000  1.0
  H  H95  1  0.88216000  0.24634000  0.39292000  1.0
  H  H96  1  0.87818000  0.23722000  0.24819000  1.0
  H  H97  1  0.80894000  0.34670000  0.19771000  1.0
  H  H98  1  0.70069000  0.42566000  0.32944000  1.0
  H  H99  1  0.76947000  0.31615000  0.38050000  1.0
  H  H100  1  0.37513000  0.07983000  0.51787000  1.0
  H  H101  1  0.47855000  0.03552000  0.45216000  1.0
  H  H102  1  0.42195000  0.87679000  0.47000000  1.0
  H  H103  1  0.31685000  0.92418000  0.53367000  1.0
  H  H104  1  0.57899000  0.96370000  0.43083000  1.0
  H  H105  1  0.67915000  0.92690000  0.36203000  1.0
  H  H106  1  0.68086000  0.86600000  0.30877000  1.0
  H  H107  1  0.47881000  0.88207000  0.39285000  1.0
  H  H108  1  0.63659000  0.87793000  0.24818000  1.0
  H  H109  1  0.64654000  0.80875000  0.19776000  1.0
  H  H110  1  0.54405000  0.70068000  0.32958000  1.0
  H  H111  1  0.53390000  0.76946000  0.38056000  1.0
  H  H112  1  0.02721000  0.37502000  0.51796000  1.0
  H  H113  1  0.03368000  0.47851000  0.45224000  1.0
  H  H114  1  0.23106000  0.42222000  0.47006000  1.0
  H  H115  1  0.22528000  0.31702000  0.53371000  1.0
  H  H116  1  0.02648000  0.57908000  0.43079000  1.0
  H  H117  1  0.03211000  0.67913000  0.36189000  1.0
  H  H118  1  0.14465000  0.68062000  0.30871000  1.0
  H  H119  1  0.24622000  0.47867000  0.39302000  1.0
  H  H120  1  0.23725000  0.63636000  0.24826000  1.0
  H  H121  1  0.34680000  0.64648000  0.19777000  1.0
  H  H122  1  0.42572000  0.54408000  0.32951000  1.0
  H  H123  1  0.31618000  0.53383000  0.38058000  1.0
  H  H124  1  0.57983000  0.87513000  0.01787000  1.0
  H  H125  1  0.53552000  0.97855000  0.95216000  1.0
  H  H126  1  0.37679000  0.92196000  0.97001000  1.0
  H  H127  1  0.42418000  0.81685000  0.03367000  1.0
  H  H128  1  0.46370000  0.07899000  0.93083000  1.0
  H  H129  1  0.42690000  0.17915000  0.86203000  1.0
  H  H130  1  0.36600000  0.18086000  0.80877000  1.0
  H  H131  1  0.38207000  0.97881000  0.89285000  1.0
  H  H132  1  0.37793000  0.13659000  0.74818000  1.0
  H  H133  1  0.30875000  0.14654000  0.69776000  1.0
  H  H134  1  0.20068000  0.04405000  0.82958000  1.0
  H  H135  1  0.26946000  0.03390000  0.88056000  1.0
  H  H136  1  0.87502000  0.52721000  0.01796000  1.0
  H  H137  1  0.97851000  0.53368000  0.95224000  1.0
  H  H138  1  0.92222000  0.73106000  0.97006000  1.0
  H  H139  1  0.81702000  0.72528000  0.03371000  1.0
  H  H140  1  0.07908000  0.52648000  0.93079000  1.0
  H  H141  1  0.17913000  0.53211000  0.86189000  1.0
  H  H142  1  0.18062000  0.64464000  0.80871000  1.0
  H  H143  1  0.97867000  0.74622000  0.89302000  1.0
  H  H144  1  0.13636000  0.73725000  0.74826000  1.0
  H  H145  1  0.14648000  0.84680000  0.69777000  1.0
  H  H146  1  0.04408000  0.92572000  0.82951000  1.0
  H  H147  1  0.03383000  0.81618000  0.88058000  1.0
  H  H148  1  0.52727000  0.57986000  0.01790000  1.0
  H  H149  1  0.53381000  0.53555000  0.95218000  1.0
  H  H150  1  0.73117000  0.37674000  0.97007000  1.0
  H  H151  1  0.72532000  0.42414000  0.03371000  1.0
  H  H152  1  0.52660000  0.46373000  0.93078000  1.0
  H  H153  1  0.53213000  0.42698000  0.86189000  1.0
  H  H154  1  0.64460000  0.36615000  0.80867000  1.0
  H  H155  1  0.74634000  0.38216000  0.89292000  1.0
  H  H156  1  0.73722000  0.37818000  0.74819000  1.0
  H  H157  1  0.84670000  0.30894000  0.69771000  1.0
  H  H158  1  0.92566000  0.20069000  0.82944000  1.0
  H  H159  1  0.81615000  0.26947000  0.88050000  1.0
  C  C160  1  0.82704000  0.93999000  0.54509000  1.0
  C  C161  1  0.99967000  0.85743000  0.38210000  1.0
  C  C162  1  0.82143000  0.98072000  0.57562000  1.0
  C  C163  1  0.06185000  0.86172000  0.34283000  1.0
  C  C164  1  0.84441000  0.03308000  0.55201000  1.0
  C  C165  1  0.79376000  0.96726000  0.62781000  1.0
  C  C166  1  0.08412000  0.91137000  0.33485000  1.0
  C  C167  1  0.09918000  0.81461000  0.31302000  1.0
  C  C168  1  0.84025000  0.07095000  0.58013000  1.0
  C  C169  1  0.78872000  0.00600000  0.65575000  1.0
  C  C170  1  0.14312000  0.91296000  0.29810000  1.0
  C  C171  1  0.15759000  0.81667000  0.27613000  1.0
  C  C172  1  0.81205000  0.05834000  0.63243000  1.0
  C  C173  1  0.18098000  0.86579000  0.26795000  1.0
  C  C174  1  0.80702000  0.09975000  0.66173000  1.0
  C  C175  1  0.24308000  0.86737000  0.22823000  1.0
  C  C176  1  0.85904000  0.12093000  0.64980000  1.0
  C  C177  1  0.74957000  0.12021000  0.70102000  1.0
  C  C178  1  0.29614000  0.80685000  0.21564000  1.0
  C  C179  1  0.85357000  0.16129000  0.67671000  1.0
  C  C180  1  0.68786000  0.82702000  0.54502000  1.0
  C  C181  1  0.76069000  0.99981000  0.38209000  1.0
  C  C182  1  0.62220000  0.82144000  0.57556000  1.0
  C  C183  1  0.73348000  0.06194000  0.34280000  1.0
  C  C184  1  0.57042000  0.84444000  0.55199000  1.0
  C  C185  1  0.61117000  0.79376000  0.62775000  1.0
  C  C186  1  0.66959000  0.08418000  0.33477000  1.0
  C  C187  1  0.77306000  0.09929000  0.31300000  1.0
  C  C188  1  0.50863000  0.84024000  0.58014000  1.0
  C  C189  1  0.54956000  0.78869000  0.65572000  1.0
  C  C190  1  0.64577000  0.14317000  0.29800000  1.0
  C  C191  1  0.74951000  0.15766000  0.27609000  1.0
  C  C192  1  0.49717000  0.81201000  0.63244000  1.0
  C  C193  1  0.68522000  0.18103000  0.26787000  1.0
  C  C194  1  0.43150000  0.80695000  0.66176000  1.0
  C  C195  1  0.66130000  0.24312000  0.22815000  1.0
  C  C196  1  0.37024000  0.85894000  0.64979000  1.0
  C  C197  1  0.42915000  0.74955000  0.70110000  1.0
  C  C198  1  0.68131000  0.29620000  0.21562000  1.0
  C  C199  1  0.30844000  0.85349000  0.67671000  1.0
  C  C200  1  0.94004000  0.68798000  0.54507000  1.0
  C  C201  1  0.85753000  0.76068000  0.38206000  1.0
  C  C202  1  0.98086000  0.62237000  0.57557000  1.0
  C  C203  1  0.86184000  0.73345000  0.34279000  1.0
  C  C204  1  0.03320000  0.57062000  0.55197000  1.0
  C  C205  1  0.96737000  0.61128000  0.62777000  1.0
  C  C206  1  0.91156000  0.66956000  0.33478000  1.0
  C  C207  1  0.81471000  0.77294000  0.31302000  1.0
  C  C208  1  0.07094000  0.50877000  0.58011000  1.0
  C  C209  1  0.00603000  0.54964000  0.65572000  1.0
  C  C210  1  0.91312000  0.64566000  0.29807000  1.0
  C  C211  1  0.81675000  0.74932000  0.27617000  1.0
  C  C212  1  0.05831000  0.49725000  0.63243000  1.0
  C  C213  1  0.86589000  0.68501000  0.26798000  1.0
  C  C214  1  0.09963000  0.43153000  0.66174000  1.0
  C  C215  1  0.86741000  0.66106000  0.22826000  1.0
  C  C216  1  0.12087000  0.37028000  0.64974000  1.0
  C  C217  1  0.11999000  0.42917000  0.70111000  1.0
  C  C218  1  0.80690000  0.68114000  0.21564000  1.0
  C  C219  1  0.16121000  0.30850000  0.67666000  1.0
  C  C220  1  0.32702000  0.18786000  0.04502000  1.0
  C  C221  1  0.49981000  0.26068000  0.88209000  1.0
  C  C222  1  0.32144000  0.12220000  0.07556000  1.0
  C  C223  1  0.56194000  0.23348000  0.84279000  1.0
  C  C224  1  0.34444000  0.07042000  0.05199000  1.0
  C  C225  1  0.29376000  0.11117000  0.12775000  1.0
  C  C226  1  0.58418000  0.16959000  0.83477000  1.0
  C  C227  1  0.59929000  0.27306000  0.81300000  1.0
  C  C228  1  0.34024000  0.00863000  0.08014000  1.0
  C  C229  1  0.28870000  0.04956000  0.15572000  1.0
  C  C230  1  0.64317000  0.14577000  0.79800000  1.0
  C  C231  1  0.65766000  0.24951000  0.77609000  1.0
  C  C232  1  0.31201000  0.99717000  0.13244000  1.0
  C  C233  1  0.68102000  0.18522000  0.76787000  1.0
  C  C234  1  0.30695000  0.93150000  0.16176000  1.0
  C  C235  1  0.74312000  0.16130000  0.72815000  1.0
  C  C236  1  0.35894000  0.87024000  0.14979000  1.0
  C  C237  1  0.24955000  0.92915000  0.20110000  1.0
  C  C238  1  0.79620000  0.18131000  0.71562000  1.0
  C  C239  1  0.35350000  0.80843000  0.17671000  1.0
  C  C240  1  0.18798000  0.44004000  0.04507000  1.0
  C  C241  1  0.26068000  0.35753000  0.88206000  1.0
  C  C242  1  0.12236000  0.48086000  0.07557000  1.0
  C  C243  1  0.23345000  0.36185000  0.84279000  1.0
  C  C244  1  0.07062000  0.53320000  0.05197000  1.0
  C  C245  1  0.11128000  0.46738000  0.12777000  1.0
  C  C246  1  0.16956000  0.41156000  0.83478000  1.0
  C  C247  1  0.27294000  0.31471000  0.81302000  1.0
  C  C248  1  0.00877000  0.57094000  0.08011000  1.0
  C  C249  1  0.04964000  0.50603000  0.15572000  1.0
  C  C250  1  0.14566000  0.41312000  0.79807000  1.0
  C  C251  1  0.24932000  0.31675000  0.77616000  1.0
  C  C252  1  0.99725000  0.55831000  0.13243000  1.0
  C  C253  1  0.18501000  0.36589000  0.76798000  1.0
  C  C254  1  0.93153000  0.59963000  0.16174000  1.0
  C  C255  1  0.16106000  0.36742000  0.72826000  1.0
  C  C256  1  0.87028000  0.62087000  0.14974000  1.0
  C  C257  1  0.92917000  0.61999000  0.20111000  1.0
  C  C258  1  0.18114000  0.30690000  0.71565000  1.0
  C  C259  1  0.80850000  0.66120000  0.17666000  1.0
  C  C260  1  0.43999000  0.32704000  0.04508000  1.0
  C  C261  1  0.35743000  0.49968000  0.88210000  1.0
  C  C262  1  0.48072000  0.32143000  0.07562000  1.0
  C  C263  1  0.36172000  0.56185000  0.84283000  1.0
  C  C264  1  0.53308000  0.34442000  0.05201000  1.0
  C  C265  1  0.46726000  0.29376000  0.12781000  1.0
  C  C266  1  0.41137000  0.58412000  0.83485000  1.0
  C  C267  1  0.31461000  0.59918000  0.81302000  1.0
  C  C268  1  0.57095000  0.34025000  0.08013000  1.0
  C  C269  1  0.50600000  0.28872000  0.15575000  1.0
  C  C270  1  0.41296000  0.64312000  0.79810000  1.0
  C  C271  1  0.31667000  0.65759000  0.77613000  1.0
  C  C272  1  0.55834000  0.31205000  0.13243000  1.0
  C  C273  1  0.36579000  0.68098000  0.76795000  1.0
  C  C274  1  0.59975000  0.30702000  0.16173000  1.0
  C  C275  1  0.36737000  0.74308000  0.72823000  1.0
  C  C276  1  0.62093000  0.35904000  0.14980000  1.0
  C  C277  1  0.62021000  0.24957000  0.20102000  1.0
  C  C278  1  0.30685000  0.79614000  0.71564000  1.0
  C  C279  1  0.66129000  0.35357000  0.17671000  1.0
  C  C280  1  0.03359000  0.12207000  0.56817000  1.0
  C  C281  1  0.00497000  0.12587000  0.52985000  1.0
  C  C282  1  0.03540000  0.07174000  0.50703000  1.0
  C  C283  1  0.00985000  0.07555000  0.47053000  1.0
  C  C284  1  0.95263000  0.13293000  0.45597000  1.0
  C  C285  1  0.92205000  0.18664000  0.47962000  1.0
  C  C286  1  0.94800000  0.18351000  0.51569000  1.0
  C  C287  1  0.92667000  0.13628000  0.41662000  1.0
  C  C288  1  0.93870000  0.07623000  0.40714000  1.0
  C  C289  1  0.91760000  0.07921000  0.36830000  1.0
  C  C290  1  0.88346000  0.14204000  0.33868000  1.0
  C  C291  1  0.86832000  0.20294000  0.34828000  1.0
  C  C292  1  0.89071000  0.19919000  0.38707000  1.0
  C  C293  1  0.82886000  0.26888000  0.31801000  1.0
  C  C294  1  0.83893000  0.27822000  0.26629000  1.0
  C  C295  1  0.80064000  0.33935000  0.23784000  1.0
  C  C296  1  0.75047000  0.39286000  0.26046000  1.0
  C  C297  1  0.74000000  0.38413000  0.31197000  1.0
  C  C298  1  0.77895000  0.32304000  0.34024000  1.0
  C  C299  1  0.70908000  0.45783000  0.22971000  1.0
  C  C300  1  0.27622000  0.03368000  0.56813000  1.0
  C  C301  1  0.33938000  0.00498000  0.52985000  1.0
  C  C302  1  0.38594000  0.03538000  0.50700000  1.0
  C  C303  1  0.44415000  0.00983000  0.47050000  1.0
  C  C304  1  0.45856000  0.95258000  0.45594000  1.0
  C  C305  1  0.41171000  0.92206000  0.47958000  1.0
  C  C306  1  0.35284000  0.94803000  0.51566000  1.0
  C  C307  1  0.52059000  0.92658000  0.41664000  1.0
  C  C308  1  0.57808000  0.93861000  0.40720000  1.0
  C  C309  1  0.63509000  0.91747000  0.36840000  1.0
  C  C310  1  0.63609000  0.88328000  0.33877000  1.0
  C  C311  1  0.58073000  0.86815000  0.34832000  1.0
  C  C312  1  0.52327000  0.89057000  0.38707000  1.0
  C  C313  1  0.58441000  0.82872000  0.31804000  1.0
  C  C314  1  0.61667000  0.83874000  0.26632000  1.0
  C  C315  1  0.62213000  0.80047000  0.23790000  1.0
  C  C316  1  0.59610000  0.75034000  0.26055000  1.0
  C  C317  1  0.56381000  0.73994000  0.31206000  1.0
  C  C318  1  0.55781000  0.77888000  0.34029000  1.0
  C  C319  1  0.60325000  0.70895000  0.22980000  1.0
  C  C320  1  0.12214000  0.27623000  0.56816000  1.0
  C  C321  1  0.12584000  0.33940000  0.52988000  1.0
  C  C322  1  0.07169000  0.38589000  0.50707000  1.0
  C  C323  1  0.07544000  0.44416000  0.47058000  1.0
  C  C324  1  0.13280000  0.45862000  0.45601000  1.0
  C  C325  1  0.18654000  0.41186000  0.47964000  1.0
  C  C326  1  0.18346000  0.35296000  0.51570000  1.0
  C  C327  1  0.13614000  0.52058000  0.41668000  1.0
  C  C328  1  0.07613000  0.57811000  0.40719000  1.0
  C  C329  1  0.07917000  0.63504000  0.36833000  1.0
  C  C330  1  0.14203000  0.63591000  0.33873000  1.0
  C  C331  1  0.20290000  0.58052000  0.34835000  1.0
  C  C332  1  0.19908000  0.52315000  0.38716000  1.0
  C  C333  1  0.26889000  0.58420000  0.31808000  1.0
  C  C334  1  0.27825000  0.61648000  0.26636000  1.0
  C  C335  1  0.33941000  0.62204000  0.23790000  1.0
  C  C336  1  0.39293000  0.59605000  0.26053000  1.0
  C  C337  1  0.38420000  0.56375000  0.31204000  1.0
  C  C338  1  0.32308000  0.55769000  0.34031000  1.0
  C  C339  1  0.45790000  0.60326000  0.22976000  1.0
  C  C340  1  0.53368000  0.77623000  0.06813000  1.0
  C  C341  1  0.50498000  0.83938000  0.02985000  1.0
  C  C342  1  0.53538000  0.88594000  0.00700000  1.0
  C  C343  1  0.50983000  0.94415000  0.97050000  1.0
  C  C344  1  0.45258000  0.95856000  0.95594000  1.0
  C  C345  1  0.42206000  0.91171000  0.97958000  1.0
  C  C346  1  0.44802000  0.85284000  0.01566000  1.0
  C  C347  1  0.42658000  0.02060000  0.91664000  1.0
  C  C348  1  0.43861000  0.07808000  0.90720000  1.0
  C  C349  1  0.41747000  0.13509000  0.86840000  1.0
  C  C350  1  0.38328000  0.13609000  0.83877000  1.0
  C  C351  1  0.36815000  0.08073000  0.84832000  1.0
  C  C352  1  0.39057000  0.02328000  0.88707000  1.0
  C  C353  1  0.32872000  0.08441000  0.81804000  1.0
  C  C354  1  0.33874000  0.11667000  0.76632000  1.0
  C  C355  1  0.30047000  0.12213000  0.73790000  1.0
  C  C356  1  0.25034000  0.09610000  0.76056000  1.0
  C  C357  1  0.23994000  0.06381000  0.81206000  1.0
  C  C358  1  0.27888000  0.05781000  0.84029000  1.0
  C  C359  1  0.20895000  0.10324000  0.72980000  1.0
  C  C360  1  0.77622000  0.62214000  0.06816000  1.0
  C  C361  1  0.83940000  0.62584000  0.02988000  1.0
  C  C362  1  0.88589000  0.57169000  0.00707000  1.0
  C  C363  1  0.94416000  0.57544000  0.97058000  1.0
  C  C364  1  0.95862000  0.63280000  0.95601000  1.0
  C  C365  1  0.91186000  0.68654000  0.97964000  1.0
  C  C366  1  0.85296000  0.68346000  0.01570000  1.0
  C  C367  1  0.02058000  0.63614000  0.91669000  1.0
  C  C368  1  0.07810000  0.57613000  0.90719000  1.0
  C  C369  1  0.13504000  0.57917000  0.86833000  1.0
  C  C370  1  0.13591000  0.64203000  0.83873000  1.0
  C  C371  1  0.08052000  0.70290000  0.84835000  1.0
  C  C372  1  0.02315000  0.69908000  0.88716000  1.0
  C  C373  1  0.08420000  0.76889000  0.81808000  1.0
  C  C374  1  0.11648000  0.77825000  0.76636000  1.0
  C  C375  1  0.12204000  0.83941000  0.73790000  1.0
  C  C376  1  0.09605000  0.89293000  0.76053000  1.0
  C  C377  1  0.06375000  0.88420000  0.81204000  1.0
  C  C378  1  0.05768000  0.82308000  0.84031000  1.0
  C  C379  1  0.10326000  0.95790000  0.72976000  1.0
  C  C380  1  0.62207000  0.53359000  0.06817000  1.0
  C  C381  1  0.62587000  0.50497000  0.02985000  1.0
  C  C382  1  0.57174000  0.53540000  0.00703000  1.0
  C  C383  1  0.57555000  0.50985000  0.97053000  1.0
  C  C384  1  0.63293000  0.45263000  0.95597000  1.0
  C  C385  1  0.68664000  0.42205000  0.97962000  1.0
  C  C386  1  0.68351000  0.44800000  0.01569000  1.0
  C  C387  1  0.63628000  0.42667000  0.91662000  1.0
  C  C388  1  0.57623000  0.43870000  0.90714000  1.0
  C  C389  1  0.57921000  0.41760000  0.86830000  1.0
  C  C390  1  0.64204000  0.38346000  0.83868000  1.0
  C  C391  1  0.70294000  0.36832000  0.84828000  1.0
  C  C392  1  0.69919000  0.39071000  0.88707000  1.0
  C  C393  1  0.76888000  0.32886000  0.81801000  1.0
  C  C394  1  0.77822000  0.33893000  0.76629000  1.0
  C  C395  1  0.83935000  0.30064000  0.73783000  1.0
  C  C396  1  0.89286000  0.25047000  0.76046000  1.0
  C  C397  1  0.88413000  0.24000000  0.81197000  1.0
  C  C398  1  0.82304000  0.27895000  0.84024000  1.0
  C  C399  1  0.95783000  0.20908000  0.72971000  1.0
  O  O400  1  0.84758000  0.95981000  0.49734000  1.0
  O  O401  1  0.96046000  0.90678000  0.40351000  1.0
  O  O402  1  0.81422000  0.99017000  0.39132000  1.0
  O  O403  1  0.81124000  0.88894000  0.56851000  1.0
  O  O404  1  0.69526000  0.84751000  0.49728000  1.0
  O  O405  1  0.72915000  0.96057000  0.40353000  1.0
  O  O406  1  0.80443000  0.81424000  0.39126000  1.0
  O  O407  1  0.73124000  0.81126000  0.56848000  1.0
  O  O408  1  0.95984000  0.69543000  0.49732000  1.0
  O  O409  1  0.90683000  0.72914000  0.40352000  1.0
  O  O410  1  0.99004000  0.80431000  0.39133000  1.0
  O  O411  1  0.88889000  0.73128000  0.56855000  1.0
  O  O412  1  0.34751000  0.19526000  0.99728000  1.0
  O  O413  1  0.46057000  0.22915000  0.90353000  1.0
  O  O414  1  0.31424000  0.30443000  0.89126000  1.0
  O  O415  1  0.31126000  0.23124000  0.06848000  1.0
  O  O416  1  0.19543000  0.45984000  0.99732000  1.0
  O  O417  1  0.22914000  0.40683000  0.90352000  1.0
  O  O418  1  0.30431000  0.49003000  0.89133000  1.0
  O  O419  1  0.23128000  0.38889000  0.06855000  1.0
  O  O420  1  0.45981000  0.34758000  0.99734000  1.0
  O  O421  1  0.40678000  0.46046000  0.90351000  1.0
  O  O422  1  0.49017000  0.31422000  0.89132000  1.0
  O  O423  1  0.38894000  0.31124000  0.06851000  1.0
  O  O424  1  0.84373000  0.84385000  0.46856000  1.0
  O  O425  1  0.34385000  0.34373000  0.96856000  1.0
  O  O426  1  0.00630000  0.17463000  0.58541000  1.0
  O  O427  1  0.08332000  0.06643000  0.58084000  1.0
  O  O428  1  0.66120000  0.50352000  0.25247000  1.0
  O  O429  1  0.72490000  0.46247000  0.18250000  1.0
  O  O430  1  0.23372000  0.00635000  0.58541000  1.0
  O  O431  1  0.26942000  0.08350000  0.58072000  1.0
  O  O432  1  0.58247000  0.66119000  0.25253000  1.0
  O  O433  1  0.63018000  0.72464000  0.18262000  1.0
  O  O434  1  0.17470000  0.23378000  0.58541000  1.0
  O  O435  1  0.06658000  0.26934000  0.58078000  1.0
  O  O436  1  0.50370000  0.58242000  0.25250000  1.0
  O  O437  1  0.46242000  0.63028000  0.18260000  1.0
  O  O438  1  0.50635000  0.73372000  0.08541000  1.0
  O  O439  1  0.58350000  0.76942000  0.08072000  1.0
  O  O440  1  0.16119000  0.08247000  0.75253000  1.0
  O  O441  1  0.22464000  0.13018000  0.68262000  1.0
  O  O442  1  0.73378000  0.67470000  0.08541000  1.0
  O  O443  1  0.76934000  0.56658000  0.08078000  1.0
  O  O444  1  0.08242000  0.00370000  0.75250000  1.0
  O  O445  1  0.13028000  0.96242000  0.68260000  1.0
  O  O446  1  0.67463000  0.50630000  0.08541000  1.0
  O  O447  1  0.56642000  0.58332000  0.08084000  1.0
  O  O448  1  0.00352000  0.16120000  0.75247000  1.0
  O  O449  1  0.96247000  0.22490000  0.68250000  1.0
  O  O450  1  0.11601000  0.11600000  0.65200000  1.0
  O  O451  1  0.61600000  0.61601000  0.15200000  1.0
