# generated using pymatgen
data_Zn4H6C26S4Br2O17
_symmetry_space_group_name_H-M   'P 1'
_cell_length_a   19.62620000
_cell_length_b   19.66150000
_cell_length_c   33.26560000
_cell_angle_alpha   79.27590000
_cell_angle_beta   79.36790000
_cell_angle_gamma   64.08300000
_symmetry_Int_Tables_number   1
_chemical_formula_structural   Zn4H6C26S4Br2O17
_chemical_formula_sum   'Zn16 H24 C104 S16 Br8 O68'
_cell_volume   11266.33012537
_cell_formula_units_Z   4
loop_
 _symmetry_equiv_pos_site_id
 _symmetry_equiv_pos_as_xyz
  1  'x, y, z'
loop_
 _atom_site_type_symbol
 _atom_site_label
 _atom_site_symmetry_multiplicity
 _atom_site_fract_x
 _atom_site_fract_y
 _atom_site_fract_z
 _atom_site_occupancy
  Zn  Zn0  1  0.05759000  0.39933000  0.47936000  1.0
  Zn  Zn1  1  0.98461000  0.48317000  0.56018000  1.0
  Zn  Zn2  1  0.05710000  0.56383000  0.48274000  1.0
  Zn  Zn3  1  0.90047000  0.55435000  0.47915000  1.0
  Zn  Zn4  1  0.69379000  0.34933000  0.27151000  1.0
  Zn  Zn5  1  0.68732000  0.19160000  0.26714000  1.0
  Zn  Zn6  1  0.77145000  0.26285000  0.18978000  1.0
  Zn  Zn7  1  0.84801000  0.19398000  0.27275000  1.0
  Zn  Zn8  1  0.26713000  0.76753000  0.68963000  1.0
  Zn  Zn9  1  0.34942000  0.69685000  0.77060000  1.0
  Zn  Zn10  1  0.19109000  0.84862000  0.77263000  1.0
  Zn  Zn11  1  0.19182000  0.68739000  0.76755000  1.0
  Zn  Zn12  1  0.55996000  0.05983000  0.98248000  1.0
  Zn  Zn13  1  0.40105000  0.05644000  0.97813000  1.0
  Zn  Zn14  1  0.55460000  0.89975000  0.97874000  1.0
  Zn  Zn15  1  0.48501000  0.98025000  0.06056000  1.0
  H  H16  1  0.74526000  0.44852000  0.35470000  1.0
  H  H17  1  0.99876000  0.29216000  0.40359000  1.0
  H  H18  1  0.20669000  0.69534000  0.59921000  1.0
  H  H19  1  0.05887000  0.54045000  0.65079000  1.0
  H  H20  1  0.46125000  0.24164000  0.34081000  1.0
  H  H21  1  0.47983000  0.69955000  0.59997000  1.0
  H  H22  1  0.20288000  0.97924000  0.60242000  1.0
  H  H23  1  0.94024000  0.97748000  0.35345000  1.0
  H  H24  1  0.64504000  0.15781000  0.04887000  1.0
  H  H25  1  0.59013000  0.10766000  0.20031000  1.0
  H  H26  1  0.54819000  0.76781000  0.14892000  1.0
  H  H27  1  0.16427000  0.13835000  0.04112000  1.0
  H  H28  1  0.29971000  0.00654000  0.89601000  1.0
  H  H29  1  0.45504000  0.75548000  0.84502000  1.0
  H  H30  1  0.30217000  0.28021000  0.89961000  1.0
  H  H31  1  0.78690000  0.00745000  0.90993000  1.0
  H  H32  1  0.80350000  0.57065000  0.36195000  1.0
  H  H33  1  0.02507000  0.25286000  0.31376000  1.0
  H  H34  1  0.09204000  0.74840000  0.53522000  1.0
  H  H35  1  0.00536000  0.65476000  0.71620000  1.0
  H  H36  1  0.79254000  0.13841000  0.08049000  1.0
  H  H37  1  0.60831000  0.96108000  0.17173000  1.0
  H  H38  1  0.17755000  0.95325000  0.88978000  1.0
  H  H39  1  0.49606000  0.72308000  0.93267000  1.0
  C  C40  1  0.06116000  0.31616000  0.56279000  1.0
  C  C41  1  0.07244000  0.56699000  0.56920000  1.0
  C  C42  1  0.18251000  0.44116000  0.43885000  1.0
  C  C43  1  0.93517000  0.68533000  0.43883000  1.0
  C  C44  1  0.93164000  0.42660000  0.43275000  1.0
  C  C45  1  0.81741000  0.56196000  0.56205000  1.0
  C  C46  1  0.56438000  0.31229000  0.31158000  1.0
  C  C47  1  0.67797000  0.18315000  0.18076000  1.0
  C  C48  1  0.69272000  0.43073000  0.18783000  1.0
  C  C49  1  0.93749000  0.18562000  0.19047000  1.0
  C  C50  1  0.81697000  0.31903000  0.32079000  1.0
  C  C51  1  0.80839000  0.06692000  0.31151000  1.0
  C  C52  1  0.43385000  0.68823000  0.68721000  1.0
  C  C53  1  0.31994000  0.82289000  0.81682000  1.0
  C  C54  1  0.18753000  0.93383000  0.68925000  1.0
  C  C55  1  0.06520000  0.80776000  0.81196000  1.0
  C  C56  1  0.18349000  0.67842000  0.68081000  1.0
  C  C57  1  0.31577000  0.56673000  0.81127000  1.0
  C  C58  1  0.43823000  0.18431000  0.93783000  1.0
  C  C59  1  0.42950000  0.93339000  0.92969000  1.0
  C  C60  1  0.68246000  0.93818000  0.93817000  1.0
  C  C61  1  0.56184000  0.81378000  0.06190000  1.0
  C  C62  1  0.56815000  0.07109000  0.06860000  1.0
  C  C63  1  0.31758000  0.06153000  0.06158000  1.0
  C  C64  1  0.89947000  0.39784000  0.40560000  1.0
  C  C65  1  0.84575000  0.34401000  0.35146000  1.0
  C  C66  1  0.82651000  0.44235000  0.39288000  1.0
  C  C67  1  0.91712000  0.29787000  0.36579000  1.0
  C  C68  1  0.80108000  0.41505000  0.36548000  1.0
  C  C69  1  0.94341000  0.32603000  0.39233000  1.0
  C  C70  1  0.10531000  0.59272000  0.59742000  1.0
  C  C71  1  0.15765000  0.64565000  0.65260000  1.0
  C  C72  1  0.14864000  0.63521000  0.58208000  1.0
  C  C73  1  0.11722000  0.60033000  0.66794000  1.0
  C  C74  1  0.17354000  0.66178000  0.61004000  1.0
  C  C75  1  0.09096000  0.57506000  0.63997000  1.0
  C  C76  1  0.30438000  0.45616000  0.40195000  1.0
  C  C77  1  0.44460000  0.29827000  0.34899000  1.0
  C  C78  1  0.25749000  0.41770000  0.41426000  1.0
  C  C79  1  0.48984000  0.33799000  0.33671000  1.0
  C  C80  1  0.37659000  0.34146000  0.37262000  1.0
  C  C81  1  0.37206000  0.41284000  0.37801000  1.0
  C  C82  1  0.72623000  0.57595000  0.63006000  1.0
  C  C83  1  0.52443000  0.67122000  0.62024000  1.0
  C  C84  1  0.74328000  0.58470000  0.58742000  1.0
  C  C85  1  0.50898000  0.66216000  0.66271000  1.0
  C  C86  1  0.60385000  0.63920000  0.60819000  1.0
  C  C87  1  0.64676000  0.60686000  0.64196000  1.0
  C  C88  1  0.07588000  0.22574000  0.63119000  1.0
  C  C89  1  0.17397000  0.02407000  0.62240000  1.0
  C  C90  1  0.08572000  0.24242000  0.58855000  1.0
  C  C91  1  0.16332000  0.00910000  0.66489000  1.0
  C  C92  1  0.14248000  0.10325000  0.61001000  1.0
  C  C93  1  0.10841000  0.14645000  0.64350000  1.0
  C  C94  1  0.84214000  0.79965000  0.39475000  1.0
  C  C95  1  0.89849000  0.95413000  0.35541000  1.0
  C  C96  1  0.90849000  0.75985000  0.41377000  1.0
  C  C97  1  0.83234000  0.99233000  0.33655000  1.0
  C  C98  1  0.90224000  0.88362000  0.37665000  1.0
  C  C99  1  0.83856000  0.87017000  0.37352000  1.0
  C  C100  1  0.64612000  0.15890000  0.15121000  1.0
  C  C101  1  0.59179000  0.10379000  0.09798000  1.0
  C  C102  1  0.66072000  0.17539000  0.10829000  1.0
  C  C103  1  0.57384000  0.09067000  0.14089000  1.0
  C  C104  1  0.63393000  0.14677000  0.08223000  1.0
  C  C105  1  0.60216000  0.11772000  0.16695000  1.0
  C  C106  1  0.67627000  0.52148000  0.11945000  1.0
  C  C107  1  0.57754000  0.72318000  0.12881000  1.0
  C  C108  1  0.66791000  0.50458000  0.16214000  1.0
  C  C109  1  0.58726000  0.73854000  0.08632000  1.0
  C  C110  1  0.61026000  0.64390000  0.14103000  1.0
  C  C111  1  0.64368000  0.60094000  0.10745000  1.0
  C  C112  1  0.08541000  0.12624000  0.17947000  1.0
  C  C113  1  0.17217000  0.12391000  0.07362000  1.0
  C  C114  1  0.01303000  0.16206000  0.16649000  1.0
  C  C115  1  0.24355000  0.08737000  0.08725000  1.0
  C  C116  1  0.11434000  0.13834000  0.10727000  1.0
  C  C117  1  0.14330000  0.11252000  0.14572000  1.0
  C  C118  1  0.34923000  0.85475000  0.84379000  1.0
  C  C119  1  0.40426000  0.90597000  0.89853000  1.0
  C  C120  1  0.30498000  0.92704000  0.85709000  1.0
  C  C121  1  0.45015000  0.83534000  0.88359000  1.0
  C  C122  1  0.33291000  0.95125000  0.88476000  1.0
  C  C123  1  0.42142000  0.81031000  0.85673000  1.0
  C  C124  1  0.41019000  0.44880000  0.85294000  1.0
  C  C125  1  0.34688000  0.30024000  0.89572000  1.0
  C  C126  1  0.34229000  0.49153000  0.83563000  1.0
  C  C127  1  0.41486000  0.25880000  0.91264000  1.0
  C  C128  1  0.34526000  0.36946000  0.87358000  1.0
  C  C129  1  0.41210000  0.37906000  0.87447000  1.0
  C  C130  1  0.94183000  0.79419000  0.84742000  1.0
  C  C131  1  0.80276000  0.95144000  0.90111000  1.0
  C  C132  1  0.98952000  0.83180000  0.83581000  1.0
  C  C133  1  0.75664000  0.91256000  0.91267000  1.0
  C  C134  1  0.87031000  0.90840000  0.87715000  1.0
  C  C135  1  0.87382000  0.83775000  0.87108000  1.0
  C  C136  1  0.77077000  0.51550000  0.40988000  1.0
  C  C137  1  0.96453000  0.21647000  0.35699000  1.0
  C  C138  1  0.17558000  0.64873000  0.53699000  1.0
  C  C139  1  0.10559000  0.57179000  0.71297000  1.0
  C  C140  1  0.69866000  0.22768000  0.08846000  1.0
  C  C141  1  0.52005000  0.05433000  0.16046000  1.0
  C  C142  1  0.23152000  0.98305000  0.84038000  1.0
  C  C143  1  0.53180000  0.78764000  0.89211000  1.0
  S  S144  1  0.29688000  0.32841000  0.39676000  1.0
  S  S145  1  0.45066000  0.42736000  0.35377000  1.0
  S  S146  1  0.66179000  0.63011000  0.56200000  1.0
  S  S147  1  0.58997000  0.61486000  0.68833000  1.0
  S  S148  1  0.13504000  0.16071000  0.56366000  1.0
  S  S149  1  0.11568000  0.09024000  0.69010000  1.0
  S  S150  1  0.96643000  0.80888000  0.40544000  1.0
  S  S151  1  0.77426000  0.94370000  0.34447000  1.0
  S  S152  1  0.61972000  0.58608000  0.18732000  1.0
  S  S153  1  0.63553000  0.65755000  0.06094000  1.0
  S  S154  1  0.01611000  0.17962000  0.11296000  1.0
  S  S155  1  0.24131000  0.07091000  0.14063000  1.0
  S  S156  1  0.28114000  0.44585000  0.84560000  1.0
  S  S157  1  0.47715000  0.30304000  0.90190000  1.0
  S  S158  1  0.95051000  0.92091000  0.85346000  1.0
  S  S159  1  0.79416000  0.82433000  0.89443000  1.0
  Br  Br160  1  0.28593000  0.55203000  0.41474000  1.0
  Br  Br161  1  0.79552000  0.52901000  0.66947000  1.0
  Br  Br162  1  0.02703000  0.29523000  0.67019000  1.0
  Br  Br163  1  0.76490000  0.76756000  0.39488000  1.0
  Br  Br164  1  0.72242000  0.45194000  0.08051000  1.0
  Br  Br165  1  0.10868000  0.09839000  0.23407000  1.0
  Br  Br166  1  0.49263000  0.47483000  0.84963000  1.0
  Br  Br167  1  0.95999000  0.69849000  0.83422000  1.0
  O  O168  1  0.00067000  0.49945000  0.49975000  1.0
  O  O169  1  0.08297000  0.31433000  0.52403000  1.0
  O  O170  1  0.04219000  0.52131000  0.58551000  1.0
  O  O171  1  0.15446000  0.50584000  0.45210000  1.0
  O  O172  1  0.02030000  0.37529000  0.58087000  1.0
  O  O173  1  0.15185000  0.39370000  0.44465000  1.0
  O  O174  1  0.07639000  0.59431000  0.53142000  1.0
  O  O175  1  0.00204000  0.66038000  0.44984000  1.0
  O  O176  1  0.89322000  0.49593000  0.43921000  1.0
  O  O177  1  0.89024000  0.65223000  0.44757000  1.0
  O  O178  1  0.99442000  0.38045000  0.44626000  1.0
  O  O179  1  0.87683000  0.53499000  0.58064000  1.0
  O  O180  1  0.81546000  0.57206000  0.52299000  1.0
  O  O181  1  0.74960000  0.24993000  0.25021000  1.0
  O  O182  1  0.59448000  0.36011000  0.30180000  1.0
  O  O183  1  0.65413000  0.17427000  0.21876000  1.0
  O  O184  1  0.72585000  0.37110000  0.16951000  1.0
  O  O185  1  0.59258000  0.24466000  0.30171000  1.0
  O  O186  1  0.67849000  0.43340000  0.22693000  1.0
  O  O187  1  0.72744000  0.20918000  0.16510000  1.0
  O  O188  1  0.88042000  0.22049000  0.16954000  1.0
  O  O189  1  0.86412000  0.25866000  0.30526000  1.0
  O  O190  1  0.93462000  0.16950000  0.22948000  1.0
  O  O191  1  0.74914000  0.36034000  0.31230000  1.0
  O  O192  1  0.74510000  0.09153000  0.29642000  1.0
  O  O193  1  0.85284000  0.10028000  0.30698000  1.0
  O  O194  1  0.24931000  0.75069000  0.75001000  1.0
  O  O195  1  0.37559000  0.72637000  0.66777000  1.0
  O  O196  1  0.36743000  0.76203000  0.80197000  1.0
  O  O197  1  0.17274000  0.93320000  0.72838000  1.0
  O  O198  1  0.43386000  0.67024000  0.72624000  1.0
  O  O199  1  0.22076000  0.87601000  0.66920000  1.0
  O  O200  1  0.24950000  0.85876000  0.81194000  1.0
  O  O201  1  0.09334000  0.85735000  0.80394000  1.0
  O  O202  1  0.16030000  0.66956000  0.71897000  1.0
  O  O203  1  0.09645000  0.74060000  0.80157000  1.0
  O  O204  1  0.22502000  0.71329000  0.66423000  1.0
  O  O205  1  0.35767000  0.60296000  0.80617000  1.0
  O  O206  1  0.25158000  0.58944000  0.79744000  1.0
  O  O207  1  0.49986000  0.99928000  0.00006000  1.0
  O  O208  1  0.50591000  0.15496000  0.94819000  1.0
  O  O209  1  0.38906000  0.00152000  0.93773000  1.0
  O  O210  1  0.64896000  0.89342000  0.94452000  1.0
  O  O211  1  0.38946000  0.15552000  0.94726000  1.0
  O  O212  1  0.65833000  0.00239000  0.95184000  1.0
  O  O213  1  0.48871000  0.88527000  0.94606000  1.0
  O  O214  1  0.57840000  0.81431000  0.02281000  1.0
  O  O215  1  0.54079000  0.02282000  0.08458000  1.0
  O  O216  1  0.52576000  0.87174000  0.08165000  1.0
  O  O217  1  0.57884000  0.09293000  0.03041000  1.0
  O  O218  1  0.31626000  0.07392000  0.02255000  1.0
  O  O219  1  0.37662000  0.02850000  0.08086000  1.0
  O  O220  1  0.76330000  0.58153000  0.38516000  1.0
  O  O221  1  0.72930000  0.51647000  0.44184000  1.0
  O  O222  1  0.02642000  0.20422000  0.32801000  1.0
  O  O223  1  0.95329000  0.16333000  0.37693000  1.0
  O  O224  1  0.13746000  0.71973000  0.51739000  1.0
  O  O225  1  0.23204000  0.60234000  0.51967000  1.0
  O  O226  1  0.03516000  0.60890000  0.73344000  1.0
  O  O227  1  0.15301000  0.51500000  0.72953000  1.0
  O  O228  1  0.77299000  0.19328000  0.07215000  1.0
  O  O229  1  0.66413000  0.29638000  0.08364000  1.0
  O  O230  1  0.55298000  0.98096000  0.17848000  1.0
  O  O231  1  0.45131000  0.08938000  0.16352000  1.0
  O  O232  1  0.16596000  0.99223000  0.86599000  1.0
  O  O233  1  0.23008000  0.02289000  0.80777000  1.0
  O  O234  1  0.54465000  0.72356000  0.91947000  1.0
  O  O235  1  0.58450000  0.80107000  0.87329000  1.0
