# generated using pymatgen
data_CuH5C5(NO2)3
_symmetry_space_group_name_H-M   'P 1'
_cell_length_a   6.34185000
_cell_length_b   10.94084693
_cell_length_c   13.30930000
_cell_angle_alpha   78.58497163
_cell_angle_beta   89.99650000
_cell_angle_gamma   73.17004637
_symmetry_Int_Tables_number   1
_chemical_formula_structural   CuH5C5(NO2)3
_chemical_formula_sum   'Cu4 H20 C20 N12 O24'
_cell_volume   864.81634244
_cell_formula_units_Z   4
loop_
 _symmetry_equiv_pos_site_id
 _symmetry_equiv_pos_as_xyz
  1  'x, y, z'
loop_
 _atom_site_type_symbol
 _atom_site_label
 _atom_site_symmetry_multiplicity
 _atom_site_fract_x
 _atom_site_fract_y
 _atom_site_fract_z
 _atom_site_occupancy
  Cu  Cu0  1  0.70973000  0.72541000  0.15197000  1.0
  Cu  Cu1  1  0.43538000  0.27473000  0.34802000  1.0
  Cu  Cu2  1  0.29019000  0.27463000  0.84801000  1.0
  Cu  Cu3  1  0.56461000  0.72524000  0.65200000  1.0
  H  H4  1  0.34768000  0.65763000  0.84623000  1.0
  H  H5  1  0.00613000  0.34242000  0.65386000  1.0
  H  H6  1  0.65233000  0.34237000  0.15376000  1.0
  H  H7  1  0.99384000  0.65758000  0.34614000  1.0
  H  H8  1  0.85716000  0.82287000  0.76697000  1.0
  H  H9  1  0.68067000  0.17678000  0.73301000  1.0
  H  H10  1  0.14284000  0.17712000  0.23304000  1.0
  H  H11  1  0.31930000  0.82324000  0.26699000  1.0
  H  H12  1  0.92478000  0.82651000  0.95338000  1.0
  H  H13  1  0.75176000  0.17342000  0.54651000  1.0
  H  H14  1  0.07523000  0.17349000  0.04663000  1.0
  H  H15  1  0.24825000  0.82657000  0.45350000  1.0
  H  H16  1  0.00926000  0.47113000  0.23817000  1.0
  H  H17  1  0.48087000  0.52886000  0.26195000  1.0
  H  H18  1  0.99074000  0.52886000  0.76181000  1.0
  H  H19  1  0.51912000  0.47114000  0.73805000  1.0
  H  H20  1  0.08399000  0.54287000  0.13209000  1.0
  H  H21  1  0.62732000  0.45709000  0.36806000  1.0
  H  H22  1  0.91599000  0.45712000  0.86790000  1.0
  H  H23  1  0.37265000  0.54292000  0.63193000  1.0
  C  C24  1  0.39590000  0.64066000  0.05843000  1.0
  C  C25  1  0.03701000  0.35920000  0.44175000  1.0
  C  C26  1  0.60411000  0.35934000  0.94156000  1.0
  C  C27  1  0.96301000  0.64080000  0.55825000  1.0
  C  C28  1  0.51588000  0.69664000  0.97244000  1.0
  C  C29  1  0.21319000  0.30338000  0.52762000  1.0
  C  C30  1  0.48412000  0.30336000  0.02757000  1.0
  C  C31  1  0.78681000  0.69663000  0.47237000  1.0
  C  C32  1  0.47613000  0.69592000  0.86980000  1.0
  C  C33  1  0.17282000  0.30408000  0.63027000  1.0
  C  C34  1  0.52386000  0.30409000  0.13019000  1.0
  C  C35  1  0.82715000  0.69592000  0.36973000  1.0
  C  C36  1  0.75907000  0.78678000  0.82645000  1.0
  C  C37  1  0.54649000  0.21294000  0.67354000  1.0
  C  C38  1  0.24092000  0.21322000  0.17357000  1.0
  C  C39  1  0.45348000  0.78706000  0.32645000  1.0
  C  C40  1  0.79718000  0.78849000  0.92923000  1.0
  C  C41  1  0.58625000  0.21139000  0.57071000  1.0
  C  C42  1  0.20284000  0.21151000  0.07078000  1.0
  C  C43  1  0.41377000  0.78861000  0.42928000  1.0
  N  N44  1  0.67655000  0.74240000  0.00084000  1.0
  N  N45  1  0.41948000  0.25758000  0.49915000  1.0
  N  N46  1  0.32347000  0.25759000  0.99916000  1.0
  N  N47  1  0.58053000  0.74243000  0.50085000  1.0
  N  N48  1  0.60069000  0.73917000  0.79794000  1.0
  N  N49  1  0.34058000  0.26062000  0.70209000  1.0
  N  N50  1  0.39931000  0.26084000  0.20206000  1.0
  N  N51  1  0.65938000  0.73937000  0.29790000  1.0
  N  N52  1  0.82625000  0.95142000  0.13262000  1.0
  N  N53  1  0.77790000  0.04889000  0.36739000  1.0
  N  N54  1  0.17378000  0.04856000  0.86739000  1.0
  N  N55  1  0.22212000  0.95113000  0.63261000  1.0
  O  O56  1  0.45848000  0.64852000  0.14888000  1.0
  O  O57  1  0.10726000  0.35139000  0.35125000  1.0
  O  O58  1  0.54153000  0.35147000  0.85113000  1.0
  O  O59  1  0.89277000  0.64862000  0.64874000  1.0
  O  O60  1  0.25328000  0.58899000  0.03943000  1.0
  O  O61  1  0.84283000  0.41066000  0.46088000  1.0
  O  O62  1  0.74669000  0.41101000  0.96056000  1.0
  O  O63  1  0.15718000  0.58933000  0.53911000  1.0
  O  O64  1  0.93046000  0.82540000  0.14518000  1.0
  O  O65  1  0.75601000  0.17491000  0.35474000  1.0
  O  O66  1  0.06952000  0.17461000  0.85484000  1.0
  O  O67  1  0.24399000  0.82508000  0.64526000  1.0
  O  O68  1  0.94136000  0.02625000  0.13121000  1.0
  O  O69  1  0.96785000  0.97414000  0.36906000  1.0
  O  O70  1  0.05866000  0.97372000  0.86882000  1.0
  O  O71  1  0.03216000  0.02588000  0.63094000  1.0
  O  O72  1  0.62025000  0.98767000  0.12304000  1.0
  O  O73  1  0.60818000  0.01256000  0.37682000  1.0
  O  O74  1  0.37980000  0.01233000  0.87696000  1.0
  O  O75  1  0.39187000  0.98744000  0.62318000  1.0
  O  O76  1  0.95557000  0.53249000  0.17205000  1.0
  O  O77  1  0.48856000  0.46751000  0.32809000  1.0
  O  O78  1  0.04441000  0.46750000  0.82794000  1.0
  O  O79  1  0.51140000  0.53251000  0.67191000  1.0
