# generated using pymatgen
data_HoZnH11C12(N2O5)2
_symmetry_space_group_name_H-M   'P 1'
_cell_length_a   8.99648000
_cell_length_b   13.03710742
_cell_length_c   18.33321464
_cell_angle_alpha   71.49287751
_cell_angle_beta   75.80072803
_cell_angle_gamma   69.83578184
_symmetry_Int_Tables_number   1
_chemical_formula_structural   HoZnH11C12(N2O5)2
_chemical_formula_sum   'Ho4 Zn4 H44 C48 N16 O40'
_cell_volume   1891.65732970
_cell_formula_units_Z   4
loop_
 _symmetry_equiv_pos_site_id
 _symmetry_equiv_pos_as_xyz
  1  'x, y, z'
loop_
 _atom_site_type_symbol
 _atom_site_label
 _atom_site_symmetry_multiplicity
 _atom_site_fract_x
 _atom_site_fract_y
 _atom_site_fract_z
 _atom_site_occupancy
  Ho  Ho0  1  0.76166000  0.58573000  0.49617000  1.0
  Ho  Ho1  1  0.84354000  0.91417000  0.00379000  1.0
  Ho  Ho2  1  0.23835000  0.41427000  0.50383000  1.0
  Ho  Ho3  1  0.15646000  0.08583000  0.99621000  1.0
  Zn  Zn4  1  0.79214000  0.08720000  0.33936000  1.0
  Zn  Zn5  1  0.21871000  0.41287000  0.16069000  1.0
  Zn  Zn6  1  0.20786000  0.91280000  0.66064000  1.0
  Zn  Zn7  1  0.78131000  0.58712000  0.83931000  1.0
  H  H8  1  0.46470000  0.61696000  0.43754000  1.0
  H  H9  1  0.51906000  0.88308000  0.06242000  1.0
  H  H10  1  0.53530000  0.38304000  0.56246000  1.0
  H  H11  1  0.48093000  0.11692000  0.93759000  1.0
  H  H12  1  0.59004000  0.51535000  0.41066000  1.0
  H  H13  1  0.51617000  0.98455000  0.08939000  1.0
  H  H14  1  0.40996000  0.48465000  0.58934000  1.0
  H  H15  1  0.48383000  0.01545000  0.91061000  1.0
  H  H16  1  0.01638000  0.55955000  0.36453000  1.0
  H  H17  1  0.94018000  0.94053000  0.13540000  1.0
  H  H18  1  0.98363000  0.44044000  0.63547000  1.0
  H  H19  1  0.05981000  0.05947000  0.86461000  1.0
  H  H20  1  0.86445000  0.61313000  0.32016000  1.0
  H  H21  1  0.79751000  0.88687000  0.17983000  1.0
  H  H22  1  0.13555000  0.38687000  0.67984000  1.0
  H  H23  1  0.20248000  0.11313000  0.82017000  1.0
  H  H24  1  0.26576000  0.81012000  0.48287000  1.0
  H  H25  1  0.55857000  0.69010000  0.01713000  1.0
  H  H26  1  0.73424000  0.18988000  0.51713000  1.0
  H  H27  1  0.44143000  0.30990000  0.98287000  1.0
  H  H28  1  0.10551000  0.11519000  0.41646000  1.0
  H  H29  1  0.63698000  0.38507000  0.08363000  1.0
  H  H30  1  0.89449000  0.88481000  0.58354000  1.0
  H  H31  1  0.36302000  0.61493000  0.91637000  1.0
  H  H32  1  0.23183000  0.05953000  0.33887000  1.0
  H  H33  1  0.63007000  0.44084000  0.16119000  1.0
  H  H34  1  0.76816000  0.94047000  0.66114000  1.0
  H  H35  1  0.36994000  0.55916000  0.83880000  1.0
  H  H36  1  0.28998000  0.00644000  0.43283000  1.0
  H  H37  1  0.72897000  0.49397000  0.06718000  1.0
  H  H38  1  0.71002000  0.99356000  0.56717000  1.0
  H  H39  1  0.27104000  0.50603000  0.93281000  1.0
  H  H40  1  0.35249000  0.93584000  0.79205000  1.0
  H  H41  1  0.08035000  0.56410000  0.70800000  1.0
  H  H42  1  0.64752000  0.06416000  0.20794000  1.0
  H  H43  1  0.91965000  0.43590000  0.29200000  1.0
  H  H44  1  0.51581000  0.85183000  0.84495000  1.0
  H  H45  1  0.21237000  0.64823000  0.65493000  1.0
  H  H46  1  0.48419000  0.14817000  0.15505000  1.0
  H  H47  1  0.78762000  0.35177000  0.34507000  1.0
  H  H48  1  0.33492000  0.81507000  0.86820000  1.0
  H  H49  1  0.01795000  0.68468000  0.63180000  1.0
  H  H50  1  0.66508000  0.18493000  0.13180000  1.0
  H  H51  1  0.98205000  0.31532000  0.36820000  1.0
  C  C52  1  0.76428000  0.85949000  0.42706000  1.0
  C  C53  1  0.05085000  0.64051000  0.07265000  1.0
  C  C54  1  0.23571000  0.14052000  0.57294000  1.0
  C  C55  1  0.94915000  0.35949000  0.92735000  1.0
  C  C56  1  0.92608000  0.86212000  0.43288000  1.0
  C  C57  1  0.22096000  0.63798000  0.06695000  1.0
  C  C58  1  0.07392000  0.13788000  0.56712000  1.0
  C  C59  1  0.77904000  0.36202000  0.93305000  1.0
  C  C60  1  0.06321000  0.78058000  0.45914000  1.0
  C  C61  1  0.30282000  0.71954000  0.04076000  1.0
  C  C62  1  0.93679000  0.21942000  0.54086000  1.0
  C  C63  1  0.69718000  0.28046000  0.95924000  1.0
  C  C64  1  0.11593000  0.65705000  0.47952000  1.0
  C  C65  1  0.25233000  0.84307000  0.02050000  1.0
  C  C66  1  0.88407000  0.34295000  0.52048000  1.0
  C  C67  1  0.74767000  0.15693000  0.97950000  1.0
  C  C68  1  0.10309000  0.95040000  0.42028000  1.0
  C  C69  1  0.47353000  0.54983000  0.07975000  1.0
  C  C70  1  0.89691000  0.04960000  0.57972000  1.0
  C  C71  1  0.52648000  0.45017000  0.92024000  1.0
  C  C72  1  0.18709000  0.03771000  0.40160000  1.0
  C  C73  1  0.62618000  0.46262000  0.09845000  1.0
  C  C74  1  0.81290000  0.96230000  0.59840000  1.0
  C  C75  1  0.37383000  0.53738000  0.90154000  1.0
  C  C76  1  0.44517000  0.72374000  0.59055000  1.0
  C  C77  1  0.75939000  0.77632000  0.90935000  1.0
  C  C78  1  0.55483000  0.27626000  0.40945000  1.0
  C  C79  1  0.24061000  0.22368000  0.09065000  1.0
  C  C80  1  0.50048000  0.72285000  0.65983000  1.0
  C  C81  1  0.88315000  0.77719000  0.84008000  1.0
  C  C82  1  0.49952000  0.27715000  0.34017000  1.0
  C  C83  1  0.11685000  0.22281000  0.15992000  1.0
  C  C84  1  0.62319000  0.64953000  0.70235000  1.0
  C  C85  1  0.97512000  0.85049000  0.79757000  1.0
  C  C86  1  0.37680000  0.35047000  0.29765000  1.0
  C  C87  1  0.02487000  0.14951000  0.20243000  1.0
  C  C88  1  0.76094000  0.55170000  0.69041000  1.0
  C  C89  1  0.00347000  0.94818000  0.80958000  1.0
  C  C90  1  0.23906000  0.44830000  0.30959000  1.0
  C  C91  1  0.99653000  0.05182000  0.19042000  1.0
  C  C92  1  0.48095000  0.78109000  0.76213000  1.0
  C  C93  1  0.02405000  0.71899000  0.73776000  1.0
  C  C94  1  0.51905000  0.21891000  0.23787000  1.0
  C  C95  1  0.97595000  0.28101000  0.26224000  1.0
  C  C96  1  0.41870000  0.84993000  0.81991000  1.0
  C  C97  1  0.08837000  0.65004000  0.68005000  1.0
  C  C98  1  0.58130000  0.15007000  0.18009000  1.0
  C  C99  1  0.91163000  0.34996000  0.31995000  1.0
  N  N100  1  0.95462000  0.96575000  0.40845000  1.0
  N  N101  1  0.32863000  0.53439000  0.09151000  1.0
  N  N102  1  0.04538000  0.03425000  0.59156000  1.0
  N  N103  1  0.67137000  0.46561000  0.90849000  1.0
  N  N104  1  0.17131000  0.83934000  0.45055000  1.0
  N  N105  1  0.46100000  0.66088000  0.04944000  1.0
  N  N106  1  0.82869000  0.16066000  0.54945000  1.0
  N  N107  1  0.53900000  0.33912000  0.95056000  1.0
  N  N108  1  0.41401000  0.80482000  0.69828000  1.0
  N  N109  1  0.91696000  0.69523000  0.80162000  1.0
  N  N110  1  0.58598000  0.19518000  0.30172000  1.0
  N  N111  1  0.08303000  0.30477000  0.19838000  1.0
  N  N112  1  0.60748000  0.68721000  0.76676000  1.0
  N  N113  1  0.06149000  0.81281000  0.73316000  1.0
  N  N114  1  0.39251000  0.31279000  0.23324000  1.0
  N  N115  1  0.93851000  0.18719000  0.26684000  1.0
  O  O116  1  0.72258000  0.76942000  0.46189000  1.0
  O  O117  1  0.95410000  0.73044000  0.03759000  1.0
  O  O118  1  0.27741000  0.23059000  0.53811000  1.0
  O  O119  1  0.04590000  0.26956000  0.96241000  1.0
  O  O120  1  0.67662000  0.94928000  0.38969000  1.0
  O  O121  1  0.01549000  0.55078000  0.11019000  1.0
  O  O122  1  0.32337000  0.05072000  0.61032000  1.0
  O  O123  1  0.98451000  0.44922000  0.88981000  1.0
  O  O124  1  0.01726000  0.59853000  0.49712000  1.0
  O  O125  1  0.11259000  0.90154000  0.00319000  1.0
  O  O126  1  0.98275000  0.40147000  0.50288000  1.0
  O  O127  1  0.88740000  0.09846000  0.99682000  1.0
  O  O128  1  0.26532000  0.60539000  0.47864000  1.0
  O  O129  1  0.34924000  0.89478000  0.02133000  1.0
  O  O130  1  0.73468000  0.39461000  0.52136000  1.0
  O  O131  1  0.65076000  0.10522000  0.97867000  1.0
  O  O132  1  0.51082000  0.64034000  0.55893000  1.0
  O  O133  1  0.70993000  0.85986000  0.94086000  1.0
  O  O134  1  0.48918000  0.35966000  0.44107000  1.0
  O  O135  1  0.29007000  0.14014000  0.05914000  1.0
  O  O136  1  0.32754000  0.80643000  0.56674000  1.0
  O  O137  1  0.70073000  0.69356000  0.93322000  1.0
  O  O138  1  0.67246000  0.19357000  0.43326000  1.0
  O  O139  1  0.29927000  0.30644000  0.06678000  1.0
  O  O140  1  0.79857000  0.52298000  0.62535000  1.0
  O  O141  1  0.94763000  0.97670000  0.87474000  1.0
  O  O142  1  0.20143000  0.47701000  0.37466000  1.0
  O  O143  1  0.05237000  0.02330000  0.12526000  1.0
  O  O144  1  0.84457000  0.49994000  0.74470000  1.0
  O  O145  1  0.08955000  0.00001000  0.75529000  1.0
  O  O146  1  0.15543000  0.50006000  0.25530000  1.0
  O  O147  1  0.91045000  0.99999000  0.24471000  1.0
  O  O148  1  0.57905000  0.59055000  0.41514000  1.0
  O  O149  1  0.58471000  0.90933000  0.08488000  1.0
  O  O150  1  0.42095000  0.40945000  0.58486000  1.0
  O  O151  1  0.41529000  0.09067000  0.91512000  1.0
  O  O152  1  0.89759000  0.59866000  0.36985000  1.0
  O  O153  1  0.86596000  0.90123000  0.13015000  1.0
  O  O154  1  0.10241000  0.40134000  0.63015000  1.0
  O  O155  1  0.13404000  0.09877000  0.86985000  1.0
