# generated using pymatgen
data_CdH12C12(NO4)2
_symmetry_space_group_name_H-M   'P 1'
_cell_length_a   5.62365000
_cell_length_b   6.87093000
_cell_length_c   9.32053000
_cell_angle_alpha   73.64230000
_cell_angle_beta   85.64050000
_cell_angle_gamma   76.76690000
_symmetry_Int_Tables_number   1
_chemical_formula_structural   CdH12C12(NO4)2
_chemical_formula_sum   'Cd1 H12 C12 N2 O8'
_cell_volume   336.36320398
_cell_formula_units_Z   1
loop_
 _symmetry_equiv_pos_site_id
 _symmetry_equiv_pos_as_xyz
  1  'x, y, z'
loop_
 _atom_site_type_symbol
 _atom_site_label
 _atom_site_symmetry_multiplicity
 _atom_site_fract_x
 _atom_site_fract_y
 _atom_site_fract_z
 _atom_site_occupancy
  Cd  Cd0  1  0.00001000  0.00000000  0.99999000  1.0
  H  H1  1  0.51290000  0.87372000  0.72972000  1.0
  H  H2  1  0.48710000  0.12626000  0.27026000  1.0
  H  H3  1  0.62427000  0.86940000  0.46071000  1.0
  H  H4  1  0.37575000  0.13063000  0.53927000  1.0
  H  H5  1  0.35865000  0.56901000  0.60449000  1.0
  H  H6  1  0.64134000  0.43099000  0.39553000  1.0
  H  H7  1  0.21726000  0.57862000  0.86850000  1.0
  H  H8  1  0.78270000  0.42132000  0.13154000  1.0
  H  H9  1  0.64725000  0.28899000  0.85277000  1.0
  H  H10  1  0.35278000  0.71099000  0.14726000  1.0
  H  H11  1  0.48552000  0.23469000  0.00611000  1.0
  H  H12  1  0.51452000  0.76532000  0.99388000  1.0
  C  C13  1  0.69505000  0.80891000  0.69335000  1.0
  C  C14  1  0.30495000  0.19110000  0.30665000  1.0
  C  C15  1  0.76083000  0.80910000  0.54767000  1.0
  C  C16  1  0.23915000  0.19092000  0.45234000  1.0
  C  C17  1  0.00293000  0.73383000  0.51011000  1.0
  C  C18  1  0.99709000  0.26620000  0.48989000  1.0
  C  C19  1  0.17062000  0.64126000  0.62624000  1.0
  C  C20  1  0.82937000  0.35874000  0.37375000  1.0
  C  C21  1  0.09913000  0.64111000  0.77167000  1.0
  C  C22  1  0.90087000  0.35888000  0.22833000  1.0
  C  C23  1  0.08035000  0.76174000  0.34844000  1.0
  C  C24  1  0.91965000  0.23824000  0.65156000  1.0
  N  N25  1  0.86667000  0.73301000  0.80199000  1.0
  N  N26  1  0.13332000  0.26700000  0.19799000  1.0
  O  O27  1  0.80821000  0.75315000  0.93851000  1.0
  O  O28  1  0.19175000  0.24684000  0.06150000  1.0
  O  O29  1  0.91868000  0.87376000  0.25211000  1.0
  O  O30  1  0.08133000  0.12625000  0.74789000  1.0
  O  O31  1  0.29816000  0.67854000  0.32152000  1.0
  O  O32  1  0.70188000  0.32146000  0.67848000  1.0
  O  O33  1  0.65078000  0.25392000  0.96605000  1.0
  O  O34  1  0.34917000  0.74609000  0.03393000  1.0
