# generated using pymatgen
data_MnH9C13(NO2)2
_symmetry_space_group_name_H-M   'P 1'
_cell_length_a   10.92820000
_cell_length_b   15.18420000
_cell_length_c   16.36820000
_cell_angle_alpha   89.99910000
_cell_angle_beta   98.43220000
_cell_angle_gamma   89.99950000
_symmetry_Int_Tables_number   1
_chemical_formula_structural   MnH9C13(NO2)2
_chemical_formula_sum   'Mn8 H72 C104 N16 O32'
_cell_volume   2686.71267851
_cell_formula_units_Z   8
loop_
 _symmetry_equiv_pos_site_id
 _symmetry_equiv_pos_as_xyz
  1  'x, y, z'
loop_
 _atom_site_type_symbol
 _atom_site_label
 _atom_site_symmetry_multiplicity
 _atom_site_fract_x
 _atom_site_fract_y
 _atom_site_fract_z
 _atom_site_occupancy
  Mn  Mn0  1  0.29547000  0.64000000  0.11385000  1.0
  Mn  Mn1  1  0.70454000  0.13999000  0.38615000  1.0
  Mn  Mn2  1  0.70452000  0.36000000  0.88615000  1.0
  Mn  Mn3  1  0.29546000  0.86001000  0.61384000  1.0
  Mn  Mn4  1  0.74812000  0.99293000  0.22040000  1.0
  Mn  Mn5  1  0.25190000  0.49292000  0.27960000  1.0
  Mn  Mn6  1  0.25187000  0.00708000  0.77960000  1.0
  Mn  Mn7  1  0.74811000  0.50707000  0.72041000  1.0
  H  H8  1  0.27300000  0.50773000  0.96482000  1.0
  H  H9  1  0.72702000  0.00773000  0.53519000  1.0
  H  H10  1  0.72702000  0.49227000  0.03519000  1.0
  H  H11  1  0.27298000  0.99228000  0.46479000  1.0
  H  H12  1  0.17346000  0.49909000  0.81631000  1.0
  H  H13  1  0.82654000  0.99910000  0.68370000  1.0
  H  H14  1  0.82655000  0.50091000  0.18369000  1.0
  H  H15  1  0.17347000  0.00090000  0.31628000  1.0
  H  H16  1  0.05514000  0.63150000  0.75437000  1.0
  H  H17  1  0.94482000  0.13151000  0.74565000  1.0
  H  H18  1  0.94484000  0.36849000  0.24565000  1.0
  H  H19  1  0.05519000  0.86848000  0.25434000  1.0
  H  H20  1  0.05387000  0.76746000  0.83918000  1.0
  H  H21  1  0.94610000  0.26747000  0.66083000  1.0
  H  H22  1  0.94609000  0.23252000  0.16083000  1.0
  H  H23  1  0.05392000  0.73253000  0.33916000  1.0
  H  H24  1  0.10387000  0.88208000  0.90399000  1.0
  H  H25  1  0.89611000  0.38207000  0.59601000  1.0
  H  H26  1  0.89612000  0.11792000  0.09601000  1.0
  H  H27  1  0.10389000  0.61793000  0.40399000  1.0
  H  H28  1  0.12466000  0.00869000  0.00056000  1.0
  H  H29  1  0.87533000  0.50869000  0.49944000  1.0
  H  H30  1  0.87535000  0.99131000  0.99944000  1.0
  H  H31  1  0.12465000  0.49132000  0.50055000  1.0
  H  H32  1  0.19340000  0.98077000  0.15252000  1.0
  H  H33  1  0.80661000  0.48077000  0.34747000  1.0
  H  H34  1  0.80661000  0.01923000  0.84748000  1.0
  H  H35  1  0.19337000  0.51924000  0.65252000  1.0
  H  H36  1  0.25093000  0.82593000  0.19766000  1.0
  H  H37  1  0.74909000  0.32592000  0.30233000  1.0
  H  H38  1  0.74907000  0.17408000  0.80234000  1.0
  H  H39  1  0.25091000  0.67408000  0.69765000  1.0
  H  H40  1  0.52566000  0.32089000  0.23251000  1.0
  H  H41  1  0.47436000  0.82088000  0.26750000  1.0
  H  H42  1  0.47435000  0.67912000  0.76749000  1.0
  H  H43  1  0.52565000  0.17912000  0.73251000  1.0
  H  H44  1  0.42929000  0.42342000  0.98694000  1.0
  H  H45  1  0.57072000  0.92340000  0.51307000  1.0
  H  H46  1  0.57070000  0.57659000  0.01306000  1.0
  H  H47  1  0.42930000  0.07659000  0.48694000  1.0
  H  H48  1  0.58740000  0.16326000  0.02406000  1.0
  H  H49  1  0.41258000  0.66326000  0.47594000  1.0
  H  H50  1  0.41259000  0.83675000  0.97593000  1.0
  H  H51  1  0.58741000  0.33674000  0.52406000  1.0
  H  H52  1  0.93722000  0.72117000  0.23297000  1.0
  H  H53  1  0.06282000  0.22116000  0.26702000  1.0
  H  H54  1  0.06278000  0.27884000  0.76703000  1.0
  H  H55  1  0.93720000  0.77884000  0.73298000  1.0
  H  H56  1  0.75942000  0.79605000  0.99144000  1.0
  H  H57  1  0.24058000  0.29604000  0.50857000  1.0
  H  H58  1  0.24058000  0.20395000  0.00856000  1.0
  H  H59  1  0.75943000  0.70394000  0.49144000  1.0
  H  H60  1  0.99370000  0.56537000  0.02153000  1.0
  H  H61  1  0.00630000  0.06538000  0.47847000  1.0
  H  H62  1  0.00631000  0.43463000  0.97849000  1.0
  H  H63  1  0.99368000  0.93462000  0.52152000  1.0
  H  H64  1  0.44694000  0.32248000  0.87347000  1.0
  H  H65  1  0.55304000  0.82247000  0.62653000  1.0
  H  H66  1  0.55305000  0.67753000  0.12652000  1.0
  H  H67  1  0.44695000  0.17752000  0.37348000  1.0
  H  H68  1  0.51181000  0.22322000  0.88795000  1.0
  H  H69  1  0.48816000  0.72321000  0.61205000  1.0
  H  H70  1  0.48817000  0.77679000  0.11204000  1.0
  H  H71  1  0.51184000  0.27678000  0.38795000  1.0
  H  H72  1  0.86386000  0.59770000  0.89036000  1.0
  H  H73  1  0.13612000  0.09770000  0.60964000  1.0
  H  H74  1  0.13614000  0.40228000  0.10965000  1.0
  H  H75  1  0.86388000  0.90228000  0.39035000  1.0
  H  H76  1  0.77796000  0.69227000  0.87523000  1.0
  H  H77  1  0.22202000  0.19226000  0.62477000  1.0
  H  H78  1  0.22204000  0.30772000  0.12478000  1.0
  H  H79  1  0.77798000  0.80772000  0.37522000  1.0
  C  C80  1  0.22415000  0.56374000  0.93368000  1.0
  C  C81  1  0.77586000  0.06373000  0.56632000  1.0
  C  C82  1  0.77586000  0.43627000  0.06633000  1.0
  C  C83  1  0.22415000  0.93626000  0.43366000  1.0
  C  C84  1  0.16889000  0.55961000  0.85142000  1.0
  C  C85  1  0.83110000  0.05961000  0.64859000  1.0
  C  C86  1  0.83111000  0.44040000  0.14858000  1.0
  C  C87  1  0.16890000  0.94039000  0.35139000  1.0
  C  C88  1  0.10519000  0.63324000  0.81687000  1.0
  C  C89  1  0.89478000  0.13325000  0.68314000  1.0
  C  C90  1  0.89478000  0.36675000  0.18314000  1.0
  C  C91  1  0.10523000  0.86675000  0.31685000  1.0
  C  C92  1  0.10221000  0.70886000  0.86467000  1.0
  C  C93  1  0.89776000  0.20886000  0.63533000  1.0
  C  C94  1  0.89775000  0.29113000  0.13533000  1.0
  C  C95  1  0.10226000  0.79113000  0.36466000  1.0
  C  C96  1  0.16141000  0.70867000  0.94625000  1.0
  C  C97  1  0.83859000  0.20866000  0.55376000  1.0
  C  C98  1  0.83858000  0.29132000  0.05375000  1.0
  C  C99  1  0.16142000  0.79133000  0.44623000  1.0
  C  C100  1  0.16503000  0.78691000  0.00031000  1.0
  C  C101  1  0.83497000  0.28690000  0.49969000  1.0
  C  C102  1  0.83497000  0.21309000  0.99969000  1.0
  C  C103  1  0.16503000  0.71310000  0.50030000  1.0
  C  C104  1  0.13282000  0.87124000  0.96975000  1.0
  C  C105  1  0.86717000  0.37124000  0.53025000  1.0
  C  C106  1  0.86719000  0.12876000  0.03026000  1.0
  C  C107  1  0.13282000  0.62877000  0.46974000  1.0
  C  C108  1  0.14406000  0.94228000  0.02415000  1.0
  C  C109  1  0.85593000  0.44227000  0.47586000  1.0
  C  C110  1  0.85595000  0.05772000  0.97586000  1.0
  C  C111  1  0.14405000  0.55774000  0.52414000  1.0
  C  C112  1  0.18455000  0.92716000  0.10784000  1.0
  C  C113  1  0.81545000  0.42715000  0.39215000  1.0
  C  C114  1  0.81546000  0.07285000  0.89216000  1.0
  C  C115  1  0.18453000  0.57285000  0.60784000  1.0
  C  C116  1  0.21582000  0.84158000  0.13352000  1.0
  C  C117  1  0.78419000  0.34156000  0.36648000  1.0
  C  C118  1  0.78418000  0.15843000  0.86648000  1.0
  C  C119  1  0.21580000  0.65844000  0.63352000  1.0
  C  C120  1  0.63120000  0.16855000  0.18965000  1.0
  C  C121  1  0.36880000  0.66856000  0.31036000  1.0
  C  C122  1  0.36879000  0.83144000  0.81035000  1.0
  C  C123  1  0.63121000  0.33144000  0.68965000  1.0
  C  C124  1  0.56348000  0.23557000  0.13340000  1.0
  C  C125  1  0.43652000  0.73556000  0.36660000  1.0
  C  C126  1  0.43651000  0.76443000  0.86659000  1.0
  C  C127  1  0.56348000  0.26443000  0.63341000  1.0
  C  C128  1  0.51885000  0.31206000  0.16605000  1.0
  C  C129  1  0.48117000  0.81205000  0.33395000  1.0
  C  C130  1  0.48116000  0.68795000  0.83394000  1.0
  C  C131  1  0.51885000  0.18794000  0.66606000  1.0
  C  C132  1  0.46763000  0.37869000  0.11290000  1.0
  C  C133  1  0.53239000  0.87867000  0.38710000  1.0
  C  C134  1  0.53237000  0.62132000  0.88710000  1.0
  C  C135  1  0.46764000  0.12132000  0.61291000  1.0
  C  C136  1  0.42066000  0.46075000  0.14806000  1.0
  C  C137  1  0.57938000  0.96073000  0.35195000  1.0
  C  C138  1  0.57935000  0.53926000  0.85194000  1.0
  C  C139  1  0.42064000  0.03926000  0.64806000  1.0
  C  C140  1  0.46259000  0.36912000  0.02757000  1.0
  C  C141  1  0.53742000  0.86910000  0.47244000  1.0
  C  C142  1  0.53740000  0.63089000  0.97243000  1.0
  C  C143  1  0.46260000  0.13089000  0.52757000  1.0
  C  C144  1  0.50500000  0.29177000  0.99469000  1.0
  C  C145  1  0.49499000  0.79176000  0.50531000  1.0
  C  C146  1  0.49499000  0.70824000  0.00531000  1.0
  C  C147  1  0.50502000  0.20824000  0.49469000  1.0
  C  C148  1  0.55307000  0.22411000  0.04784000  1.0
  C  C149  1  0.44692000  0.72410000  0.45217000  1.0
  C  C150  1  0.44692000  0.77590000  0.95216000  1.0
  C  C151  1  0.55308000  0.27589000  0.54784000  1.0
  C  C152  1  0.06545000  0.58145000  0.18650000  1.0
  C  C153  1  0.93457000  0.08144000  0.31350000  1.0
  C  C154  1  0.93456000  0.41856000  0.81352000  1.0
  C  C155  1  0.06543000  0.91856000  0.68649000  1.0
  C  C156  1  0.97408000  0.63680000  0.13266000  1.0
  C  C157  1  0.02593000  0.13679000  0.36734000  1.0
  C  C158  1  0.02592000  0.36321000  0.86735000  1.0
  C  C159  1  0.97407000  0.86320000  0.63266000  1.0
  C  C160  1  0.91932000  0.70827000  0.16707000  1.0
  C  C161  1  0.08070000  0.20826000  0.33293000  1.0
  C  C162  1  0.08067000  0.29175000  0.83294000  1.0
  C  C163  1  0.91932000  0.79175000  0.66707000  1.0
  C  C164  1  0.84535000  0.76649000  0.11489000  1.0
  C  C165  1  0.15466000  0.26648000  0.38511000  1.0
  C  C166  1  0.15465000  0.23352000  0.88511000  1.0
  C  C167  1  0.84534000  0.73351000  0.61489000  1.0
  C  C168  1  0.81815000  0.74976000  0.03025000  1.0
  C  C169  1  0.18185000  0.24975000  0.46974000  1.0
  C  C170  1  0.18185000  0.25024000  0.96975000  1.0
  C  C171  1  0.81816000  0.75023000  0.53026000  1.0
  C  C172  1  0.86643000  0.67450000  0.99543000  1.0
  C  C173  1  0.13356000  0.17449000  0.50456000  1.0
  C  C174  1  0.13356000  0.32550000  0.00458000  1.0
  C  C175  1  0.86644000  0.82550000  0.49543000  1.0
  C  C176  1  0.94871000  0.62043000  0.04778000  1.0
  C  C177  1  0.05130000  0.12043000  0.45221000  1.0
  C  C178  1  0.05129000  0.37957000  0.95223000  1.0
  C  C179  1  0.94869000  0.87957000  0.54777000  1.0
  C  C180  1  0.80231000  0.84959000  0.15058000  1.0
  C  C181  1  0.19771000  0.34959000  0.34942000  1.0
  C  C182  1  0.19769000  0.15041000  0.84942000  1.0
  C  C183  1  0.80229000  0.65041000  0.65059000  1.0
  N  N184  1  0.22005000  0.63599000  0.98019000  1.0
  N  N185  1  0.77996000  0.13598000  0.51981000  1.0
  N  N186  1  0.77995000  0.36403000  0.01982000  1.0
  N  N187  1  0.22005000  0.86403000  0.48017000  1.0
  N  N188  1  0.20731000  0.77300000  0.08124000  1.0
  N  N189  1  0.79269000  0.27300000  0.41876000  1.0
  N  N190  1  0.79268000  0.22700000  0.91877000  1.0
  N  N191  1  0.20731000  0.72700000  0.58123000  1.0
  N  N192  1  0.51239000  0.28625000  0.90942000  1.0
  N  N193  1  0.48760000  0.78624000  0.59058000  1.0
  N  N194  1  0.48760000  0.71376000  0.09057000  1.0
  N  N195  1  0.51240000  0.21375000  0.40942000  1.0
  N  N196  1  0.84014000  0.65634000  0.91312000  1.0
  N  N197  1  0.15984000  0.15634000  0.58688000  1.0
  N  N198  1  0.15985000  0.34364000  0.08689000  1.0
  N  N199  1  0.84016000  0.84364000  0.41311000  1.0
  O  O200  1  0.65095000  0.18674000  0.26664000  1.0
  O  O201  1  0.34904000  0.68675000  0.23337000  1.0
  O  O202  1  0.34904000  0.81325000  0.73336000  1.0
  O  O203  1  0.65097000  0.31326000  0.76664000  1.0
  O  O204  1  0.66828000  0.09974000  0.15652000  1.0
  O  O205  1  0.33171000  0.59974000  0.34347000  1.0
  O  O206  1  0.33170000  0.90026000  0.84347000  1.0
  O  O207  1  0.66829000  0.40026000  0.65652000  1.0
  O  O208  1  0.39952000  0.52675000  0.09959000  1.0
  O  O209  1  0.60052000  0.02673000  0.40042000  1.0
  O  O210  1  0.60049000  0.47326000  0.90041000  1.0
  O  O211  1  0.39951000  0.97326000  0.59958000  1.0
  O  O212  1  0.40523000  0.45980000  0.22363000  1.0
  O  O213  1  0.59479000  0.95979000  0.27637000  1.0
  O  O214  1  0.59478000  0.54021000  0.77636000  1.0
  O  O215  1  0.40522000  0.04021000  0.72363000  1.0
  O  O216  1  0.15712000  0.54819000  0.15355000  1.0
  O  O217  1  0.84291000  0.04818000  0.34644000  1.0
  O  O218  1  0.84290000  0.45182000  0.84645000  1.0
  O  O219  1  0.15709000  0.95182000  0.65355000  1.0
  O  O220  1  0.05776000  0.56849000  0.26176000  1.0
  O  O221  1  0.94225000  0.06849000  0.23824000  1.0
  O  O222  1  0.94225000  0.43151000  0.73826000  1.0
  O  O223  1  0.05774000  0.93152000  0.76175000  1.0
  O  O224  1  0.82593000  0.86115000  0.22929000  1.0
  O  O225  1  0.17409000  0.36114000  0.27071000  1.0
  O  O226  1  0.17408000  0.13887000  0.77070000  1.0
  O  O227  1  0.82590000  0.63886000  0.72930000  1.0
  O  O228  1  0.74733000  0.90898000  0.10388000  1.0
  O  O229  1  0.25271000  0.40896000  0.39613000  1.0
  O  O230  1  0.25267000  0.09103000  0.89612000  1.0
  O  O231  1  0.74731000  0.59103000  0.60388000  1.0
