# generated using pymatgen
data_Mn2H50C49N6O11
_symmetry_space_group_name_H-M   'P 1'
_cell_length_a   11.26500000
_cell_length_b   11.62640000
_cell_length_c   20.68100000
_cell_angle_alpha   96.74370000
_cell_angle_beta   91.32930000
_cell_angle_gamma   108.52200000
_symmetry_Int_Tables_number   1
_chemical_formula_structural   Mn2H50C49N6O11
_chemical_formula_sum   'Mn4 H100 C98 N12 O22'
_cell_volume   2545.27836615
_cell_formula_units_Z   2
loop_
 _symmetry_equiv_pos_site_id
 _symmetry_equiv_pos_as_xyz
  1  'x, y, z'
loop_
 _atom_site_type_symbol
 _atom_site_label
 _atom_site_symmetry_multiplicity
 _atom_site_fract_x
 _atom_site_fract_y
 _atom_site_fract_z
 _atom_site_occupancy
  Mn  Mn0  1  0.14037000  0.48958000  0.23962000  1.0
  Mn  Mn1  1  0.85974000  0.51053000  0.76049000  1.0
  Mn  Mn2  1  0.00005000  0.99998000  0.49997000  1.0
  Mn  Mn3  1  0.49997000  0.49993000  0.00002000  1.0
  H  H4  1  0.15168000  0.26427000  0.22046000  1.0
  H  H5  1  0.18022000  0.31543000  0.29835000  1.0
  H  H6  1  0.23873000  0.09248000  0.56000000  1.0
  H  H7  1  0.15484000  0.96316000  0.58204000  1.0
  H  H8  1  0.52632000  0.28543000  0.97228000  1.0
  H  H9  1  0.38873000  0.24232000  0.00173000  1.0
  H  H10  1  0.02678000  0.66036000  0.32873000  1.0
  H  H11  1  0.62245000  0.60857000  0.87380000  1.0
  H  H12  1  0.56241000  0.60951000  0.75866000  1.0
  H  H13  1  0.33132000  0.63726000  0.14966000  1.0
  H  H14  1  0.26009000  0.40975000  0.91095000  1.0
  H  H15  1  0.18389000  0.39834000  0.79554000  1.0
  H  H16  1  0.55280000  0.76925000  0.15030000  1.0
  H  H17  1  0.58047000  0.75976000  0.35851000  1.0
  H  H18  1  0.09413000  0.13572000  0.38175000  1.0
  H  H19  1  0.95849000  0.84410000  0.32540000  1.0
  H  H20  1  0.35503000  0.62673000  0.34828000  1.0
  H  H21  1  0.77009000  0.78457000  0.27844000  1.0
  H  H22  1  0.74345000  0.92121000  0.30300000  1.0
  H  H23  1  0.89479000  0.40972000  0.14736000  1.0
  H  H24  1  0.68003000  0.26119000  0.12734000  1.0
  H  H25  1  0.74118000  0.13004000  0.30869000  1.0
  H  H26  1  0.02505000  0.82176000  0.11979000  1.0
  H  H27  1  0.76342000  0.82515000  0.15949000  1.0
  H  H28  1  0.75263000  0.97046000  0.18799000  1.0
  H  H29  1  0.20112000  0.86765000  0.45819000  1.0
  H  H30  1  0.32901000  0.84384000  0.36338000  1.0
  H  H31  1  0.27684000  0.40520000  0.67510000  1.0
  H  H32  1  0.23744000  0.53710000  0.69968000  1.0
  H  H33  1  0.45951000  0.66630000  0.67919000  1.0
  H  H34  1  0.48903000  0.53143000  0.64805000  1.0
  H  H35  1  0.09592000  0.64239000  0.13295000  1.0
  H  H36  1  0.22170000  0.12743000  0.28577000  1.0
  H  H37  1  0.30865000  0.98787000  0.21398000  1.0
  H  H38  1  0.36984000  0.88372000  0.24762000  1.0
  H  H39  1  0.95129000  0.27707000  0.31919000  1.0
  H  H40  1  0.56728000  0.99728000  0.18614000  1.0
  H  H41  1  0.50573000  0.11203000  0.16809000  1.0
  H  H42  1  0.33391000  0.77027000  0.52588000  1.0
  H  H43  1  0.59927000  0.58298000  0.56255000  1.0
  H  H44  1  0.88300000  0.34300000  0.56625000  1.0
  H  H45  1  0.95306000  0.01591000  0.25920000  1.0
  H  H46  1  0.97150000  0.99865000  0.17380000  1.0
  H  H47  1  0.31817000  0.48867000  0.56032000  1.0
  H  H48  1  0.27718000  0.61605000  0.59447000  1.0
  H  H49  1  0.86383000  0.31345000  0.04044000  1.0
  H  H50  1  0.54268000  0.05173000  0.30695000  1.0
  H  H51  1  0.47634000  0.16158000  0.28615000  1.0
  H  H52  1  0.74994000  0.72503000  0.49928000  1.0
  H  H53  1  0.49496000  0.90215000  0.46090000  1.0
  H  H54  1  0.84831000  0.73575000  0.77954000  1.0
  H  H55  1  0.81978000  0.68459000  0.70164000  1.0
  H  H56  1  0.76128000  0.90752000  0.44000000  1.0
  H  H57  1  0.84517000  0.03683000  0.41796000  1.0
  H  H58  1  0.47369000  0.71455000  0.02772000  1.0
  H  H59  1  0.61128000  0.75763000  0.99826000  1.0
  H  H60  1  0.97321000  0.33963000  0.67126000  1.0
  H  H61  1  0.37753000  0.39141000  0.12620000  1.0
  H  H62  1  0.43758000  0.39048000  0.24134000  1.0
  H  H63  1  0.66869000  0.36276000  0.85033000  1.0
  H  H64  1  0.73989000  0.59023000  0.08904000  1.0
  H  H65  1  0.81609000  0.60165000  0.20445000  1.0
  H  H66  1  0.44722000  0.23075000  0.84970000  1.0
  H  H67  1  0.41953000  0.24025000  0.64149000  1.0
  H  H68  1  0.90588000  0.86429000  0.61826000  1.0
  H  H69  1  0.04151000  0.15589000  0.67460000  1.0
  H  H70  1  0.64496000  0.37328000  0.65171000  1.0
  H  H71  1  0.22991000  0.21542000  0.72156000  1.0
  H  H72  1  0.25655000  0.07878000  0.69700000  1.0
  H  H73  1  0.10521000  0.59028000  0.85264000  1.0
  H  H74  1  0.31997000  0.73881000  0.87266000  1.0
  H  H75  1  0.25883000  0.86997000  0.69131000  1.0
  H  H76  1  0.97494000  0.17824000  0.88021000  1.0
  H  H77  1  0.23658000  0.17485000  0.84052000  1.0
  H  H78  1  0.24737000  0.02954000  0.81202000  1.0
  H  H79  1  0.79889000  0.13236000  0.54182000  1.0
  H  H80  1  0.67098000  0.15615000  0.63662000  1.0
  H  H81  1  0.72315000  0.59480000  0.32489000  1.0
  H  H82  1  0.76256000  0.46289000  0.30031000  1.0
  H  H83  1  0.54049000  0.33370000  0.32080000  1.0
  H  H84  1  0.51096000  0.46856000  0.35194000  1.0
  H  H85  1  0.90407000  0.35761000  0.86704000  1.0
  H  H86  1  0.77830000  0.87257000  0.71424000  1.0
  H  H87  1  0.69136000  0.01214000  0.78603000  1.0
  H  H88  1  0.63016000  0.11628000  0.75239000  1.0
  H  H89  1  0.04871000  0.72294000  0.68080000  1.0
  H  H90  1  0.43272000  0.00272000  0.81387000  1.0
  H  H91  1  0.49426000  0.88796000  0.83192000  1.0
  H  H92  1  0.66608000  0.22973000  0.47412000  1.0
  H  H93  1  0.40073000  0.41702000  0.43744000  1.0
  H  H94  1  0.11701000  0.65701000  0.43375000  1.0
  H  H95  1  0.04694000  0.98409000  0.74080000  1.0
  H  H96  1  0.02850000  0.00135000  0.82621000  1.0
  H  H97  1  0.68182000  0.51133000  0.43968000  1.0
  H  H98  1  0.72281000  0.38395000  0.40552000  1.0
  H  H99  1  0.13615000  0.68657000  0.95955000  1.0
  H  H100  1  0.45732000  0.94827000  0.69306000  1.0
  H  H101  1  0.52367000  0.83842000  0.71386000  1.0
  H  H102  1  0.25005000  0.27497000  0.50072000  1.0
  H  H103  1  0.50504000  0.09785000  0.53911000  1.0
  C  C104  1  0.96458000  0.24091000  0.46292000  1.0
  C  C105  1  0.11788000  0.43761000  0.38325000  1.0
  C  C106  1  0.98944000  0.37625000  0.48101000  1.0
  C  C107  1  0.02491000  0.69977000  0.28352000  1.0
  C  C108  1  0.52484000  0.56572000  0.85507000  1.0
  C  C109  1  0.48988000  0.56475000  0.78982000  1.0
  C  C110  1  0.05615000  0.46661000  0.44373000  1.0
  C  C111  1  0.38954000  0.66806000  0.19511000  1.0
  C  C112  1  0.32342000  0.45285000  0.87520000  1.0
  C  C113  1  0.28193000  0.44677000  0.81093000  1.0
  C  C114  1  0.51404000  0.74272000  0.19617000  1.0
  C  C115  1  0.58677000  0.77682000  0.25520000  1.0
  C  C116  1  0.52794000  0.73552000  0.31118000  1.0
  C  C117  1  0.14648000  0.07131000  0.37578000  1.0
  C  C118  1  0.10041000  0.37861000  0.09333000  1.0
  C  C119  1  0.98624000  0.80153000  0.28101000  1.0
  C  C120  1  0.98380000  0.84824000  0.22155000  1.0
  C  C121  1  0.36533000  0.50465000  0.76643000  1.0
  C  C122  1  0.40354000  0.66159000  0.30599000  1.0
  C  C123  1  0.72417000  0.84749000  0.26164000  1.0
  C  C124  1  0.85788000  0.34447000  0.18154000  1.0
  C  C125  1  0.73711000  0.26107000  0.17069000  1.0
  C  C126  1  0.68976000  0.17957000  0.21578000  1.0
  C  C127  1  0.76976000  0.18787000  0.27031000  1.0
  C  C128  1  0.02447000  0.78996000  0.16742000  1.0
  C  C129  1  0.78651000  0.89730000  0.20170000  1.0
  C  C130  1  0.20658000  0.92210000  0.41819000  1.0
  C  C131  1  0.27904000  0.91047000  0.36581000  1.0
  C  C132  1  0.28401000  0.98242000  0.31558000  1.0
  C  C133  1  0.31737000  0.50151000  0.69744000  1.0
  C  C134  1  0.41405000  0.57285000  0.65437000  1.0
  C  C135  1  0.06352000  0.68958000  0.17409000  1.0
  C  C136  1  0.21818000  0.06637000  0.32243000  1.0
  C  C137  1  0.35914000  0.97469000  0.25729000  1.0
  C  C138  1  0.88975000  0.27262000  0.27701000  1.0
  C  C139  1  0.56008000  0.08709000  0.20583000  1.0
  C  C140  1  0.27042000  0.58231000  0.02551000  1.0
  C  C141  1  0.42415000  0.75533000  0.51956000  1.0
  C  C142  1  0.57019000  0.65097000  0.54028000  1.0
  C  C143  1  0.93512000  0.41146000  0.53663000  1.0
  C  C144  1  0.93050000  0.94960000  0.21446000  1.0
  C  C145  1  0.35682000  0.58116000  0.58786000  1.0
  C  C146  1  0.92457000  0.39538000  0.02275000  1.0
  C  C147  1  0.48850000  0.07348000  0.26792000  1.0
  C  C148  1  0.65513000  0.72978000  0.50449000  1.0
  C  C149  1  0.51419000  0.82944000  0.48398000  1.0
  C  C150  1  0.45097000  0.66228000  0.54840000  1.0
  C  C151  1  0.12981000  0.54112000  0.01584000  1.0
  C  C152  1  0.05325000  0.43579000  0.04014000  1.0
  C  C153  1  0.03543000  0.75909000  0.53708000  1.0
  C  C154  1  0.88211000  0.56239000  0.61675000  1.0
  C  C155  1  0.01057000  0.62375000  0.51898000  1.0
  C  C156  1  0.97508000  0.30022000  0.71648000  1.0
  C  C157  1  0.47514000  0.43425000  0.14493000  1.0
  C  C158  1  0.51010000  0.43524000  0.21018000  1.0
  C  C159  1  0.94385000  0.53339000  0.55626000  1.0
  C  C160  1  0.61047000  0.33195000  0.80488000  1.0
  C  C161  1  0.67657000  0.54713000  0.12479000  1.0
  C  C162  1  0.71805000  0.55321000  0.18906000  1.0
  C  C163  1  0.48597000  0.25728000  0.80383000  1.0
  C  C164  1  0.41324000  0.22318000  0.74480000  1.0
  C  C165  1  0.47206000  0.26448000  0.68882000  1.0
  C  C166  1  0.85353000  0.92870000  0.62423000  1.0
  C  C167  1  0.89960000  0.62144000  0.90667000  1.0
  C  C168  1  0.01376000  0.19846000  0.71899000  1.0
  C  C169  1  0.01619000  0.15176000  0.77845000  1.0
  C  C170  1  0.63466000  0.49534000  0.23356000  1.0
  C  C171  1  0.59646000  0.33842000  0.69401000  1.0
  C  C172  1  0.27583000  0.15250000  0.73837000  1.0
  C  C173  1  0.14212000  0.65553000  0.81846000  1.0
  C  C174  1  0.26289000  0.73893000  0.82931000  1.0
  C  C175  1  0.31024000  0.82043000  0.78423000  1.0
  C  C176  1  0.23024000  0.81213000  0.72970000  1.0
  C  C177  1  0.97552000  0.21004000  0.83258000  1.0
  C  C178  1  0.21349000  0.10270000  0.79830000  1.0
  C  C179  1  0.79343000  0.07790000  0.58182000  1.0
  C  C180  1  0.72096000  0.08952000  0.63420000  1.0
  C  C181  1  0.71599000  0.01758000  0.68443000  1.0
  C  C182  1  0.68263000  0.49848000  0.30256000  1.0
  C  C183  1  0.58595000  0.42715000  0.34563000  1.0
  C  C184  1  0.93647000  0.31042000  0.82590000  1.0
  C  C185  1  0.78183000  0.93363000  0.67758000  1.0
  C  C186  1  0.64086000  0.02531000  0.74272000  1.0
  C  C187  1  0.11026000  0.72738000  0.72299000  1.0
  C  C188  1  0.43992000  0.91291000  0.79418000  1.0
  C  C189  1  0.72957000  0.41769000  0.97448000  1.0
  C  C190  1  0.57585000  0.24467000  0.48044000  1.0
  C  C191  1  0.42980000  0.34903000  0.45972000  1.0
  C  C192  1  0.06488000  0.58854000  0.46337000  1.0
  C  C193  1  0.06950000  0.05040000  0.78555000  1.0
  C  C194  1  0.64317000  0.41884000  0.41214000  1.0
  C  C195  1  0.07543000  0.60464000  0.97724000  1.0
  C  C196  1  0.51150000  0.92652000  0.73208000  1.0
  C  C197  1  0.34487000  0.27023000  0.49550000  1.0
  C  C198  1  0.48580000  0.17057000  0.51602000  1.0
  C  C199  1  0.54903000  0.33771000  0.45159000  1.0
  C  C200  1  0.87018000  0.45890000  0.98414000  1.0
  C  C201  1  0.94673000  0.56422000  0.95985000  1.0
  N  N202  1  0.44325000  0.51233000  0.89762000  1.0
  N  N203  1  0.13899000  0.99918000  0.42293000  1.0
  N  N204  1  0.06275000  0.64368000  0.23106000  1.0
  N  N205  1  0.93484000  0.35117000  0.23357000  1.0
  N  N206  1  0.62801000  0.81749000  0.47598000  1.0
  N  N207  1  0.33450000  0.62705000  0.24871000  1.0
  N  N208  1  0.55673000  0.48765000  0.10239000  1.0
  N  N209  1  0.86103000  0.00083000  0.57708000  1.0
  N  N210  1  0.93725000  0.35632000  0.76893000  1.0
  N  N211  1  0.06517000  0.64883000  0.76643000  1.0
  N  N212  1  0.37199000  0.18251000  0.52402000  1.0
  N  N213  1  0.66552000  0.37296000  0.75129000  1.0
  O  O214  1  0.14116000  0.51738000  0.34337000  1.0
  O  O215  1  0.02949000  0.19208000  0.49505000  1.0
  O  O216  1  0.14231000  0.33772000  0.37450000  1.0
  O  O217  1  0.87397000  0.18482000  0.42131000  1.0
  O  O218  1  0.20917000  0.32612000  0.25271000  1.0
  O  O219  1  0.15836000  0.46064000  0.14197000  1.0
  O  O220  1  0.15594000  0.04904000  0.57740000  1.0
  O  O221  1  0.07545000  0.26605000  0.09141000  1.0
  O  O222  1  0.43737000  0.29310000  0.97123000  1.0
  O  O223  1  0.31997000  0.49756000  0.02777000  1.0
  O  O224  1  0.33081000  0.69564000  0.02783000  1.0
  O  O225  1  0.85884000  0.48263000  0.65663000  1.0
  O  O226  1  0.97052000  0.80793000  0.50496000  1.0
  O  O227  1  0.85769000  0.66230000  0.62549000  1.0
  O  O228  1  0.12605000  0.81517000  0.57868000  1.0
  O  O229  1  0.79083000  0.67389000  0.74728000  1.0
  O  O230  1  0.84167000  0.53942000  0.85802000  1.0
  O  O231  1  0.84408000  0.95096000  0.42259000  1.0
  O  O232  1  0.92453000  0.73397000  0.90860000  1.0
  O  O233  1  0.56264000  0.70687000  0.02877000  1.0
  O  O234  1  0.68001000  0.50241000  0.97221000  1.0
  O  O235  1  0.66920000  0.30435000  0.97217000  1.0
