# generated using pymatgen
data_Ca3H14(C3O4)4
_symmetry_space_group_name_H-M   'P 1'
_cell_length_a   6.05678000
_cell_length_b   10.36260000
_cell_length_c   16.18728561
_cell_angle_alpha   107.22601487
_cell_angle_beta   99.42565041
_cell_angle_gamma   91.09020000
_symmetry_Int_Tables_number   1
_chemical_formula_structural   Ca3H14(C3O4)4
_chemical_formula_sum   'Ca6 H28 C24 O32'
_cell_volume   954.84300498
_cell_formula_units_Z   2
loop_
 _symmetry_equiv_pos_site_id
 _symmetry_equiv_pos_as_xyz
  1  'x, y, z'
loop_
 _atom_site_type_symbol
 _atom_site_label
 _atom_site_symmetry_multiplicity
 _atom_site_fract_x
 _atom_site_fract_y
 _atom_site_fract_z
 _atom_site_occupancy
  Ca  Ca0  1  0.74175000  0.11977000  0.00273000  1.0
  Ca  Ca1  1  0.25824000  0.88023000  0.99727000  1.0
  Ca  Ca2  1  0.47039000  0.81177000  0.39105000  1.0
  Ca  Ca3  1  0.52960000  0.18823000  0.60894000  1.0
  Ca  Ca4  1  0.03740000  0.42001000  0.60918000  1.0
  Ca  Ca5  1  0.96260000  0.57999000  0.39082000  1.0
  H  H6  1  0.38202000  0.28223000  0.98931000  1.0
  H  H7  1  0.61798000  0.71778000  0.01069000  1.0
  H  H8  1  0.54884000  0.39454000  0.06486000  1.0
  H  H9  1  0.45116000  0.60546000  0.93514000  1.0
  H  H10  1  0.93650000  0.22278000  0.87610000  1.0
  H  H11  1  0.06352000  0.77722000  0.12391000  1.0
  H  H12  1  0.68146000  0.19523000  0.83078000  1.0
  H  H13  1  0.31855000  0.80477000  0.16923000  1.0
  H  H14  1  0.02001000  0.65064000  0.76413000  1.0
  H  H15  1  0.97998000  0.34936000  0.23587000  1.0
  H  H16  1  0.48451000  0.02130000  0.29578000  1.0
  H  H17  1  0.51549000  0.97870000  0.70422000  1.0
  H  H18  1  0.52904000  0.73479000  0.80744000  1.0
  H  H19  1  0.47096000  0.26521000  0.19256000  1.0
  H  H20  1  0.64651000  0.86426000  0.77536000  1.0
  H  H21  1  0.35349000  0.13574000  0.22464000  1.0
  H  H22  1  0.66881000  0.81580000  0.63818000  1.0
  H  H23  1  0.33119000  0.18420000  0.36182000  1.0
  H  H24  1  0.44119000  0.69126000  0.60864000  1.0
  H  H25  1  0.55881000  0.30874000  0.39136000  1.0
  H  H26  1  0.85892000  0.19323000  0.36535000  1.0
  H  H27  1  0.14108000  0.80676000  0.63465000  1.0
  H  H28  1  0.06811000  0.09694000  0.40075000  1.0
  H  H29  1  0.93188000  0.90306000  0.59925000  1.0
  H  H30  1  0.03929000  0.01306000  0.22364000  1.0
  H  H31  1  0.96070000  0.98694000  0.77635000  1.0
  H  H32  1  0.81106000  0.11854000  0.22651000  1.0
  H  H33  1  0.18894000  0.88146000  0.77349000  1.0
  C  C34  1  0.86703000  0.79773000  0.86575000  1.0
  C  C35  1  0.13296000  0.20227000  0.13425000  1.0
  C  C36  1  0.67985000  0.76652000  0.78682000  1.0
  C  C37  1  0.32015000  0.23348000  0.21318000  1.0
  C  C38  1  0.71891000  0.65877000  0.70164000  1.0
  C  C39  1  0.28110000  0.34124000  0.29836000  1.0
  C  C40  1  0.62518000  0.70656000  0.62232000  1.0
  C  C41  1  0.37482000  0.29344000  0.37768000  1.0
  C  C42  1  0.70504000  0.63981000  0.53630000  1.0
  C  C43  1  0.29496000  0.36020000  0.46370000  1.0
  C  C44  1  0.58866000  0.52208000  0.69128000  1.0
  C  C45  1  0.41134000  0.47791000  0.30872000  1.0
  C  C46  1  0.79325000  0.10941000  0.46498000  1.0
  C  C47  1  0.20674000  0.89058000  0.53502000  1.0
  C  C48  1  0.88565000  0.09865000  0.38198000  1.0
  C  C49  1  0.11434000  0.90135000  0.61801000  1.0
  C  C50  1  0.80468000  0.97591000  0.30036000  1.0
  C  C51  1  0.19533000  0.02409000  0.69964000  1.0
  C  C52  1  0.85715000  0.01494000  0.22081000  1.0
  C  C53  1  0.14285000  0.98506000  0.77919000  1.0
  C  C54  1  0.74220000  0.92208000  0.13241000  1.0
  C  C55  1  0.25780000  0.07792000  0.86759000  1.0
  C  C56  1  0.93003000  0.85144000  0.31176000  1.0
  C  C57  1  0.06998000  0.14856000  0.68825000  1.0
  O  O58  1  0.02098000  0.71617000  0.87026000  1.0
  O  O59  1  0.97901000  0.28383000  0.12974000  1.0
  O  O60  1  0.49671000  0.29935000  0.04446000  1.0
  O  O61  1  0.50330000  0.70065000  0.95555000  1.0
  O  O62  1  0.87190000  0.90964000  0.92650000  1.0
  O  O63  1  0.12809000  0.09036000  0.07349000  1.0
  O  O64  1  0.78138000  0.21279000  0.88732000  1.0
  O  O65  1  0.21862000  0.78720000  0.11268000  1.0
  O  O66  1  0.69076000  0.70713000  0.48142000  1.0
  O  O67  1  0.30923000  0.29288000  0.51858000  1.0
  O  O68  1  0.78575000  0.52500000  0.52078000  1.0
  O  O69  1  0.21426000  0.47500000  0.47922000  1.0
  O  O70  1  0.69729000  0.41602000  0.67710000  1.0
  O  O71  1  0.30272000  0.58398000  0.32290000  1.0
  O  O72  1  0.38287000  0.52746000  0.69547000  1.0
  O  O73  1  0.61714000  0.47254000  0.30453000  1.0
  O  O74  1  0.95354000  0.64196000  0.70153000  1.0
  O  O75  1  0.04647000  0.35804000  0.29847000  1.0
  O  O76  1  0.70858000  0.00663000  0.47870000  1.0
  O  O77  1  0.29141000  0.99337000  0.52130000  1.0
  O  O78  1  0.80431000  0.22766000  0.51974000  1.0
  O  O79  1  0.19569000  0.77234000  0.48026000  1.0
  O  O80  1  0.61450000  0.97759000  0.08295000  1.0
  O  O81  1  0.38550000  0.02241000  0.91705000  1.0
  O  O82  1  0.77544000  0.79711000  0.11091000  1.0
  O  O83  1  0.22456000  0.20289000  0.88909000  1.0
  O  O84  1  0.82019000  0.75809000  0.32695000  1.0
  O  O85  1  0.17981000  0.24191000  0.67305000  1.0
  O  O86  1  0.13712000  0.85798000  0.30872000  1.0
  O  O87  1  0.86288000  0.14201000  0.69128000  1.0
  O  O88  1  0.56606000  0.93952000  0.28872000  1.0
  O  O89  1  0.43393000  0.06048000  0.71127000  1.0
