# generated using pymatgen
data_ZnH7C7(NO)3
_symmetry_space_group_name_H-M   'P 1'
_cell_length_a   10.21200000
_cell_length_b   14.11963614
_cell_length_c   14.12220000
_cell_angle_alpha   114.38310467
_cell_angle_beta   103.94600000
_cell_angle_gamma   103.94768863
_symmetry_Int_Tables_number   1
_chemical_formula_structural   ZnH7C7(NO)3
_chemical_formula_sum   'Zn6 H42 C42 N18 O18'
_cell_volume   1661.05631523
_cell_formula_units_Z   6
loop_
 _symmetry_equiv_pos_site_id
 _symmetry_equiv_pos_as_xyz
  1  'x, y, z'
loop_
 _atom_site_type_symbol
 _atom_site_label
 _atom_site_symmetry_multiplicity
 _atom_site_fract_x
 _atom_site_fract_y
 _atom_site_fract_z
 _atom_site_occupancy
  Zn  Zn0  1  0.81666000  0.33161000  0.71400000  1.0
  Zn  Zn1  1  0.10241000  0.28595000  0.61740000  1.0
  Zn  Zn2  1  0.48505000  0.38246000  0.66842000  1.0
  Zn  Zn3  1  0.99239000  0.67486000  0.38751000  1.0
  Zn  Zn4  1  0.60507000  0.61246000  0.28744000  1.0
  Zn  Zn5  1  0.31756000  0.71271000  0.32513000  1.0
  H  H6  1  0.79325000  0.71216000  0.82082000  1.0
  H  H7  1  0.97198000  0.17917000  0.89105000  1.0
  H  H8  1  0.08083000  0.10901000  0.28812000  1.0
  H  H9  1  0.90786000  0.67086000  0.67616000  1.0
  H  H10  1  0.23112000  0.32405000  0.99489000  1.0
  H  H11  1  0.23583000  0.00503000  0.32914000  1.0
  H  H12  1  0.02381000  0.79908000  0.80370000  1.0
  H  H13  1  0.21943000  0.19643000  0.99548000  1.0
  H  H14  1  0.22366000  0.00425000  0.20090000  1.0
  H  H15  1  0.06119000  0.67497000  0.77280000  1.0
  H  H16  1  0.28822000  0.22753000  0.90260000  1.0
  H  H17  1  0.38537000  0.09712000  0.32486000  1.0
  H  H18  1  0.06338000  0.71390000  0.96161000  1.0
  H  H19  1  0.10191000  0.03863000  0.75236000  1.0
  H  H20  1  0.34939000  0.24754000  0.28607000  1.0
  H  H21  1  0.20574000  0.75310000  0.12875000  1.0
  H  H22  1  0.07704000  0.87102000  0.62437000  1.0
  H  H23  1  0.45261000  0.37555000  0.24648000  1.0
  H  H24  1  0.81014000  0.71630000  0.19817000  1.0
  H  H25  1  0.61216000  0.80206000  0.51828000  1.0
  H  H26  1  0.09416000  0.48200000  0.28400000  1.0
  H  H27  1  0.49310000  0.79181000  0.67452000  1.0
  H  H28  1  0.81881000  0.32525000  0.11733000  1.0
  H  H29  1  0.70143000  0.88249000  0.20782000  1.0
  H  H30  1  0.28184000  0.69706000  0.70319000  1.0
  H  H31  1  0.57903000  0.29678000  0.99377000  1.0
  H  H32  1  0.58517000  0.00622000  0.30274000  1.0
  H  H33  1  0.40285000  0.82623000  0.82797000  1.0
  H  H34  1  0.57503000  0.17198000  0.99820000  1.0
  H  H35  1  0.57706000  0.00163000  0.17351000  1.0
  H  H36  1  0.23532000  0.81782000  0.74322000  1.0
  H  H37  1  0.49229000  0.25689000  0.07446000  1.0
  H  H38  1  0.41786000  0.92552000  0.18206000  1.0
  H  H39  1  0.57879000  0.96870000  0.72030000  1.0
  H  H40  1  0.85832000  0.27961000  0.24847000  1.0
  H  H41  1  0.60979000  0.75126000  0.03111000  1.0
  H  H42  1  0.71441000  0.13748000  0.76189000  1.0
  H  H43  1  0.95238000  0.23845000  0.37560000  1.0
  H  H44  1  0.57678000  0.62413000  0.86293000  1.0
  H  H45  1  0.30502000  0.18587000  0.70182000  1.0
  H  H46  1  0.60287000  0.29810000  0.48402000  1.0
  H  H47  1  0.11869000  0.51595000  0.81370000  1.0
  C  C48  1  0.80167000  0.54866000  0.76886000  1.0
  C  C49  1  0.03278000  0.23134000  0.77979000  1.0
  C  C50  1  0.25303000  0.22021000  0.45145000  1.0
  C  C51  1  0.87855000  0.67778000  0.82577000  1.0
  C  C52  1  0.05257000  0.17437000  0.85194000  1.0
  C  C53  1  0.20053000  0.14803000  0.32234000  1.0
  C  C54  1  0.97378000  0.70726000  0.76578000  1.0
  C  C55  1  0.20761000  0.23445000  0.94167000  1.0
  C  C56  1  0.26566000  0.05816000  0.29269000  1.0
  C  C57  1  0.89859000  0.73462000  0.01875000  1.0
  C  C58  1  0.87996000  0.98131000  0.71590000  1.0
  C  C59  1  0.16411000  0.28424000  0.26550000  1.0
  C  C60  1  0.97847000  0.74026000  0.12335000  1.0
  C  C61  1  0.85529000  0.87666000  0.61699000  1.0
  C  C62  1  0.23841000  0.38314000  0.25977000  1.0
  C  C63  1  0.12068000  0.74384000  0.16201000  1.0
  C  C64  1  0.95874000  0.83788000  0.58189000  1.0
  C  C65  1  0.37689000  0.41813000  0.25594000  1.0
  C  C66  1  0.91926000  0.72576000  0.19882000  1.0
  C  C67  1  0.72057000  0.80126000  0.52705000  1.0
  C  C68  1  0.19377000  0.47318000  0.27441000  1.0
  C  C69  1  0.30936000  0.76987000  0.54785000  1.0
  C  C70  1  0.76176000  0.45210000  0.22198000  1.0
  C  C71  1  0.53985000  0.77804000  0.23021000  1.0
  C  C72  1  0.40384000  0.82279000  0.67441000  1.0
  C  C73  1  0.72958000  0.32548000  0.14832000  1.0
  C  C74  1  0.58123000  0.85154000  0.17711000  1.0
  C  C75  1  0.32531000  0.78906000  0.74120000  1.0
  C  C76  1  0.58431000  0.25878000  0.04775000  1.0
  C  C77  1  0.53660000  0.95216000  0.21079000  1.0
  C  C78  1  0.40268000  0.01379000  0.72768000  1.0
  C  C79  1  0.67483000  0.27246000  0.28611000  1.0
  C  C80  1  0.38865000  0.71370000  0.98628000  1.0
  C  C81  1  0.48126000  0.12078000  0.73615000  1.0
  C  C82  1  0.74493000  0.26408000  0.38468000  1.0
  C  C83  1  0.36018000  0.61518000  0.87928000  1.0
  C  C84  1  0.62590000  0.16630000  0.74722000  1.0
  C  C85  1  0.87850000  0.25301000  0.41907000  1.0
  C  C86  1  0.45940000  0.58071000  0.83392000  1.0
  C  C87  1  0.41690000  0.19182000  0.71670000  1.0
  C  C88  1  0.69995000  0.28336000  0.47511000  1.0
  C  C89  1  0.22472000  0.52484000  0.80798000  1.0
  N  N90  1  0.96528000  0.72300000  0.94410000  1.0
  N  N91  1  0.02125000  0.05607000  0.77889000  1.0
  N  N92  1  0.24223000  0.22106000  0.27706000  1.0
  N  N93  1  0.14356000  0.73226000  0.25329000  1.0
  N  N94  1  0.89026000  0.74661000  0.47903000  1.0
  N  N95  1  0.41135000  0.52101000  0.26755000  1.0
  N  N96  1  0.01945000  0.72055000  0.27625000  1.0
  N  N97  1  0.74324000  0.72374000  0.44440000  1.0
  N  N98  1  0.29909000  0.55578000  0.27949000  1.0
  N  N99  1  0.47634000  0.94436000  0.72150000  1.0
  N  N100  1  0.75468000  0.27839000  0.22281000  1.0
  N  N101  1  0.53179000  0.77685000  0.05557000  1.0
  N  N102  1  0.64534000  0.25721000  0.73484000  1.0
  N  N103  1  0.91026000  0.26522000  0.52227000  1.0
  N  N104  1  0.38797000  0.47756000  0.74286000  1.0
  N  N105  1  0.51635000  0.27306000  0.71547000  1.0
  N  N106  1  0.80061000  0.28449000  0.55750000  1.0
  N  N107  1  0.24303000  0.44243000  0.72674000  1.0
  O  O108  1  0.88002000  0.49783000  0.79347000  1.0
  O  O109  1  0.08625000  0.20652000  0.70420000  1.0
  O  O110  1  0.38224000  0.29559000  0.50219000  1.0
  O  O111  1  0.66855000  0.50269000  0.70149000  1.0
  O  O112  1  0.96742000  0.29900000  0.80138000  1.0
  O  O113  1  0.16602000  0.19877000  0.49751000  1.0
  O  O114  1  0.77240000  0.73521000  0.99648000  1.0
  O  O115  1  0.77599000  0.00354000  0.73870000  1.0
  O  O116  1  0.03740000  0.26158000  0.26507000  1.0
  O  O117  1  0.17449000  0.70949000  0.50972000  1.0
  O  O118  1  0.66498000  0.49024000  0.19984000  1.0
  O  O119  1  0.46511000  0.80015000  0.29041000  1.0
  O  O120  1  0.37953000  0.79201000  0.49112000  1.0
  O  O121  1  0.88868000  0.50881000  0.30078000  1.0
  O  O122  1  0.58823000  0.69936000  0.20833000  1.0
  O  O123  1  0.27320000  0.98771000  0.72113000  1.0
  O  O124  1  0.55195000  0.27905000  0.26653000  1.0
  O  O125  1  0.28538000  0.73337000  0.01244000  1.0
