# generated using pymatgen
data_Al6H57C90O28F5
_symmetry_space_group_name_H-M   'P 1'
_cell_length_a   11.94352929
_cell_length_b   12.11760000
_cell_length_c   28.05360000
_cell_angle_alpha   89.59330000
_cell_angle_beta   89.96482324
_cell_angle_gamma   116.60228806
_symmetry_Int_Tables_number   1
_chemical_formula_structural   Al6H57C90O28F5
_chemical_formula_sum   'Al6 H57 C90 O28 F5'
_cell_volume   3630.16861004
_cell_formula_units_Z   1
loop_
 _symmetry_equiv_pos_site_id
 _symmetry_equiv_pos_as_xyz
  1  'x, y, z'
loop_
 _atom_site_type_symbol
 _atom_site_label
 _atom_site_symmetry_multiplicity
 _atom_site_fract_x
 _atom_site_fract_y
 _atom_site_fract_z
 _atom_site_occupancy
  Al  Al0  1  0.59731000  0.40379000  0.50473000  1.0
  Al  Al1  1  0.33362000  0.41370000  0.50264000  1.0
  Al  Al2  1  0.56908000  0.65421000  0.50133000  1.0
  Al  Al3  1  0.07324000  0.93338000  0.01745000  1.0
  Al  Al4  1  0.08315000  0.67429000  0.01567000  1.0
  Al  Al5  1  0.32784000  0.90448000  0.01866000  1.0
  H  H6  1  0.23762000  0.45007000  0.72228000  1.0
  H  H7  1  0.51815000  0.31941000  0.81374000  1.0
  H  H8  1  0.17529000  0.98080000  0.80038000  1.0
  H  H9  1  0.22248000  0.43920000  0.37258000  1.0
  H  H10  1  0.12814000  0.56358000  0.23445000  1.0
  H  H11  1  0.10296000  0.57494000  0.14702000  1.0
  H  H12  1  0.21107000  0.46883000  0.28526000  1.0
  H  H13  1  0.52744000  0.77843000  0.21760000  1.0
  H  H14  1  0.49912000  0.80112000  0.13140000  1.0
  H  H15  1  0.48991000  0.81978000  0.38497000  1.0
  H  H16  1  0.84150000  0.82314000  0.38183000  1.0
  H  H17  1  0.89411000  0.51564000  0.13875000  1.0
  H  H18  1  0.89760000  0.84516000  0.29567000  1.0
  H  H19  1  0.81585000  0.83616000  0.22094000  1.0
  H  H20  1  0.87472000  0.86194000  0.13472000  1.0
  H  H21  1  0.67925000  0.45170000  0.27856000  1.0
  H  H22  1  0.63586000  0.43084000  0.36528000  1.0
  H  H23  1  0.54103000  0.22749000  0.38490000  1.0
  H  H24  1  0.40751000  0.86550000  0.79618000  1.0
  H  H25  1  0.15723000  0.95624000  0.24974000  1.0
  H  H26  1  0.12853000  0.90831000  0.16319000  1.0
  H  H27  1  0.15205000  0.14289000  0.29572000  1.0
  H  H28  1  0.16928000  0.20013000  0.38187000  1.0
  H  H29  1  0.41716000  0.84665000  0.70787000  1.0
  H  H30  1  0.89795000  0.87885000  0.70890000  1.0
  H  H31  1  0.76244000  0.48257000  0.71341000  1.0
  H  H32  1  0.51715000  0.35474000  0.72612000  1.0
  H  H33  1  0.67611000  0.04727000  0.22843000  1.0
  H  H34  1  0.71554000  0.12367000  0.28392000  1.0
  H  H35  1  0.81326000  0.06369000  0.25879000  1.0
  H  H36  1  0.67784000  0.92392000  0.32516000  1.0
  H  H37  1  0.64725000  0.84805000  0.27049000  1.0
  H  H38  1  0.46343000  0.90579000  0.26032000  1.0
  H  H39  1  0.49195000  0.95846000  0.31949000  1.0
  H  H40  1  0.17202000  0.21269000  0.86034000  1.0
  H  H41  1  0.02527000  0.21452000  0.85647000  1.0
  H  H42  1  0.05883000  0.11683000  0.81884000  1.0
  H  H43  1  0.07796000  0.30535000  0.77355000  1.0
  H  H44  1  0.22206000  0.29817000  0.77566000  1.0
  H  H45  1  0.28863000  0.44190000  0.84533000  1.0
  H  H46  1  0.14595000  0.44831000  0.84484000  1.0
  H  H47  1  0.65391000  0.30323000  0.04268000  1.0
  H  H48  1  0.71974000  0.42969000  0.08220000  1.0
  H  H49  1  0.78966000  0.32861000  0.07588000  1.0
  H  H50  1  0.66575000  0.27499000  0.15190000  1.0
  H  H51  1  0.59165000  0.15378000  0.11074000  1.0
  H  H52  1  0.45148000  0.25228000  0.08636000  1.0
  H  H53  1  0.51891000  0.36066000  0.13239000  1.0
  H  H54  1  0.81648000  0.34428000  0.89020000  1.0
  H  H55  1  0.79824000  0.24476000  0.84137000  1.0
  H  H56  1  0.94520000  0.32201000  0.87015000  1.0
  H  H57  1  0.94453000  0.42874000  0.79172000  1.0
  H  H58  1  0.96735000  0.52608000  0.84115000  1.0
  H  H59  1  0.73309000  0.45875000  0.84234000  1.0
  H  H60  1  0.72033000  0.37680000  0.78874000  1.0
  H  H61  1  0.67970000  0.26929000  0.48142000  1.0
  H  H62  1  0.98803000  0.06032000  0.98812000  1.0
  C  C63  1  0.38473000  0.28255000  0.57391000  1.0
  C  C64  1  0.37076000  0.77499000  0.77959000  1.0
  C  C65  1  0.37592000  0.76470000  0.73055000  1.0
  C  C66  1  0.32738000  0.64674000  0.70969000  1.0
  C  C67  1  0.31744000  0.66854000  0.80882000  1.0
  C  C68  1  0.30986000  0.68066000  0.85867000  1.0
  C  C69  1  0.33464000  0.63483000  0.65972000  1.0
  C  C70  1  0.29907000  0.68851000  0.90162000  1.0
  C  C71  1  0.77997000  0.65919000  0.61346000  1.0
  C  C72  1  0.87430000  0.79361000  0.72862000  1.0
  C  C73  1  0.89030000  0.79527000  0.77736000  1.0
  C  C74  1  0.37036000  0.60170000  0.56903000  1.0
  C  C75  1  0.81400000  0.57305000  0.78127000  1.0
  C  C76  1  0.79836000  0.57033000  0.73210000  1.0
  C  C77  1  0.82740000  0.67907000  0.70538000  1.0
  C  C78  1  0.86206000  0.68852000  0.80502000  1.0
  C  C79  1  0.88383000  0.69842000  0.85457000  1.0
  C  C80  1  0.80503000  0.67114000  0.65577000  1.0
  C  C81  1  0.90653000  0.70836000  0.89713000  1.0
  C  C82  1  0.35494000  0.23457000  0.62181000  1.0
  C  C83  1  0.44352000  0.27298000  0.74284000  1.0
  C  C84  1  0.44426000  0.25326000  0.79154000  1.0
  C  C85  1  0.72545000  0.62810000  0.56685000  1.0
  C  C86  1  0.25161000  0.06181000  0.78454000  1.0
  C  C87  1  0.25254000  0.08429000  0.73614000  1.0
  C  C88  1  0.34704000  0.18875000  0.71367000  1.0
  C  C89  1  0.34843000  0.14748000  0.81297000  1.0
  C  C90  1  0.34543000  0.12774000  0.86281000  1.0
  C  C91  1  0.34684000  0.21010000  0.66421000  1.0
  C  C92  1  0.33666000  0.10865000  0.90567000  1.0
  C  C93  1  0.35725000  0.62830000  0.38411000  1.0
  C  C94  1  0.27638000  0.52933000  0.35602000  1.0
  C  C95  1  0.27042000  0.54688000  0.30736000  1.0
  C  C96  1  0.37590000  0.26658000  0.43817000  1.0
  C  C97  1  0.34254000  0.66226000  0.28518000  1.0
  C  C98  1  0.42153000  0.76349000  0.31377000  1.0
  C  C99  1  0.42789000  0.74352000  0.36264000  1.0
  C  C100  1  0.21042000  0.61266000  0.21190000  1.0
  C  C101  1  0.19549000  0.61935000  0.16301000  1.0
  C  C102  1  0.41860000  0.74722000  0.15410000  1.0
  C  C103  1  0.43355000  0.73636000  0.20274000  1.0
  C  C104  1  0.32978000  0.67166000  0.23293000  1.0
  C  C105  1  0.29908000  0.68890000  0.13376000  1.0
  C  C106  1  0.73702000  0.62490000  0.37888000  1.0
  C  C107  1  0.37701000  0.60695000  0.43478000  1.0
  C  C108  1  0.80809000  0.74227000  0.35901000  1.0
  C  C109  1  0.83778000  0.75408000  0.31062000  1.0
  C  C110  1  0.79348000  0.65002000  0.28084000  1.0
  C  C111  1  0.71827000  0.53316000  0.30097000  1.0
  C  C112  1  0.69264000  0.52110000  0.34945000  1.0
  C  C113  1  0.84644000  0.57492000  0.20430000  1.0
  C  C114  1  0.87631000  0.58601000  0.15632000  1.0
  C  C115  1  0.86485000  0.78063000  0.15471000  1.0
  C  C116  1  0.83377000  0.76621000  0.20286000  1.0
  C  C117  1  0.82402000  0.66311000  0.22953000  1.0
  C  C118  1  0.70105000  0.60402000  0.43014000  1.0
  C  C119  1  0.88675000  0.69034000  0.13114000  1.0
  C  C120  1  0.35598000  0.21767000  0.38870000  1.0
  C  C121  1  0.45583000  0.20962000  0.36545000  1.0
  C  C122  1  0.44565000  0.18259000  0.31736000  1.0
  C  C123  1  0.33763000  0.15742000  0.29089000  1.0
  C  C124  1  0.23690000  0.16116000  0.31564000  1.0
  C  C125  1  0.24589000  0.19247000  0.36359000  1.0
  C  C126  1  0.22427000  0.01819000  0.22374000  1.0
  C  C127  1  0.20908000  0.99067000  0.17553000  1.0
  C  C128  1  0.40158000  0.17681000  0.15660000  1.0
  C  C129  1  0.34399000  0.62449000  0.61686000  1.0
  C  C130  1  0.41164000  0.20132000  0.20543000  1.0
  C  C131  1  0.32647000  0.12558000  0.23985000  1.0
  C  C132  1  0.29731000  0.06858000  0.14232000  1.0
  C  C133  1  0.95408000  0.73413000  0.94493000  1.0
  C  C134  1  0.27436000  0.71201000  0.94947000  1.0
  C  C135  1  0.30693000  0.06180000  0.95371000  1.0
  C  C136  1  0.93462000  0.71234000  0.08134000  1.0
  C  C137  1  0.27830000  0.71129000  0.08336000  1.0
  C  C138  1  0.27383000  0.03101000  0.09124000  1.0
  C  C139  1  0.27415000  0.54023000  0.73909000  1.0
  C  C140  1  0.26857000  0.54873000  0.78844000  1.0
  C  C141  1  0.49975000  0.89229000  0.29471000  1.0
  C  C142  1  0.63913000  0.92345000  0.28949000  1.0
  C  C143  1  0.71537000  0.04620000  0.26383000  1.0
  C  C144  1  0.21401000  0.43769000  0.82106000  1.0
  C  C145  1  0.15280000  0.31100000  0.79788000  1.0
  C  C146  1  0.09940000  0.20812000  0.83531000  1.0
  C  C147  1  0.49493000  0.26543000  0.12173000  1.0
  C  C148  1  0.61621000  0.25125000  0.11754000  1.0
  C  C149  1  0.69963000  0.33260000  0.07749000  1.0
  C  C150  1  0.78329000  0.45738000  0.80952000  1.0
  C  C151  1  0.89906000  0.44107000  0.82407000  1.0
  C  C152  1  0.86278000  0.33187000  0.85822000  1.0
  O  O153  1  0.70806000  0.52535000  0.55016000  1.0
  O  O154  1  0.30037000  0.50543000  0.45450000  1.0
  O  O155  1  0.47490000  0.68856000  0.45537000  1.0
  O  O156  1  0.68827000  0.69041000  0.45262000  1.0
  O  O157  1  0.49854000  0.49128000  0.50301000  1.0
  O  O158  1  0.20379000  0.04773000  0.97085000  1.0
  O  O159  1  0.98579000  0.84216000  0.95991000  1.0
  O  O160  1  0.96459000  0.64631000  0.96777000  1.0
  O  O161  1  0.17135000  0.63391000  0.96875000  1.0
  O  O162  1  0.35354000  0.81209000  0.96839000  1.0
  O  O163  1  0.38650000  0.03195000  0.97422000  1.0
  O  O164  1  0.49597000  0.31475000  0.56059000  1.0
  O  O165  1  0.16834000  0.01060000  0.07467000  1.0
  O  O166  1  0.95285000  0.81247000  0.06125000  1.0
  O  O167  1  0.96113000  0.62940000  0.06269000  1.0
  O  O168  1  0.17469000  0.63871000  0.06393000  1.0
  O  O169  1  0.36278000  0.80809000  0.06279000  1.0
  O  O170  1  0.36033000  0.01653000  0.06859000  1.0
  O  O171  1  0.16279000  0.83695000  0.01660000  1.0
  O  O172  1  0.29791000  0.29283000  0.54987000  1.0
  O  O173  1  0.29332000  0.49997000  0.55005000  1.0
  O  O174  1  0.47197000  0.68142000  0.54999000  1.0
  O  O175  1  0.69338000  0.70637000  0.54715000  1.0
  O  O176  1  0.68013000  0.50020000  0.44768000  1.0
  O  O177  1  0.47609000  0.28413000  0.45906000  1.0
  O  O178  1  0.29170000  0.29475000  0.45531000  1.0
  O  O179  1  0.68924000  0.32488000  0.50731000  1.0
  O  O180  1  0.99488000  0.02555000  0.01844000  1.0
  F  F181  1  0.15809000  0.00263000  0.70900000  1.0
  F  F182  1  0.84485000  0.47507000  0.22790000  1.0
  F  F183  1  0.54566000  0.17935000  0.29506000  1.0
  F  F184  1  0.50798000  0.30984000  0.22005000  1.0
  F  F185  1  0.93599000  0.90558000  0.80007000  1.0
