# generated using pymatgen
data_AlH7C13NClO5
_symmetry_space_group_name_H-M   'P 1'
_cell_length_a   6.63726000
_cell_length_b   13.05340000
_cell_length_c   16.90990000
_cell_angle_alpha   84.13780000
_cell_angle_beta   82.90880000
_cell_angle_gamma   78.17070000
_symmetry_Int_Tables_number   1
_chemical_formula_structural   AlH7C13NClO5
_chemical_formula_sum   'Al2 H14 C26 N2 Cl2 O10'
_cell_volume   1418.51265474
_cell_formula_units_Z   2
loop_
 _symmetry_equiv_pos_site_id
 _symmetry_equiv_pos_as_xyz
  1  'x, y, z'
loop_
 _atom_site_type_symbol
 _atom_site_label
 _atom_site_symmetry_multiplicity
 _atom_site_fract_x
 _atom_site_fract_y
 _atom_site_fract_z
 _atom_site_occupancy
  Al  Al0  1  0.50000000  0.50001000  0.50000000  1.0
  Al  Al1  1  0.00000000  0.50001000  0.50000000  1.0
  H  H2  1  0.26187000  0.55563000  0.40150000  1.0
  H  H3  1  0.73810000  0.44437000  0.59850000  1.0
  H  H4  1  0.89284000  0.45572000  0.73790000  1.0
  H  H5  1  0.83270000  0.44673000  0.88724000  1.0
  H  H6  1  0.34963000  0.59820000  0.89096000  1.0
  H  H7  1  0.65040000  0.40180000  0.10903000  1.0
  H  H8  1  0.16734000  0.55327000  0.11276000  1.0
  H  H9  1  0.10718000  0.54428000  0.26210000  1.0
  H  H10  1  0.31468000  0.82421000  0.53254000  1.0
  H  H11  1  0.95649000  0.80699000  0.44597000  1.0
  H  H12  1  0.91059000  0.00205000  0.44105000  1.0
  H  H13  1  0.68525000  0.17580000  0.46745000  1.0
  H  H14  1  0.04347000  0.19302000  0.55404000  1.0
  H  H15  1  0.08936000  0.99796000  0.55894000  1.0
  C  C16  1  0.66925000  0.68893000  0.48960000  1.0
  C  C17  1  0.81111000  0.47771000  0.35859000  1.0
  C  C18  1  0.33072000  0.31108000  0.51040000  1.0
  C  C19  1  0.18893000  0.52228000  0.64141000  1.0
  C  C20  1  0.15820000  0.52781000  0.73006000  1.0
  C  C21  1  0.99348000  0.48554000  0.77238000  1.0
  C  C22  1  0.95892000  0.48068000  0.85494000  1.0
  C  C23  1  0.09021000  0.52087000  0.89776000  1.0
  C  C24  1  0.25190000  0.56577000  0.85688000  1.0
  C  C25  1  0.28653000  0.56903000  0.77369000  1.0
  C  C26  1  0.74814000  0.43422000  0.14312000  1.0
  C  C27  1  0.90983000  0.47912000  0.10224000  1.0
  C  C28  1  0.04113000  0.51932000  0.14507000  1.0
  C  C29  1  0.00655000  0.51445000  0.22762000  1.0
  C  C30  1  0.84183000  0.47217000  0.26994000  1.0
  C  C31  1  0.71351000  0.43096000  0.22631000  1.0
  C  C32  1  0.44398000  0.86396000  0.51321000  1.0
  C  C33  1  0.80686000  0.85569000  0.46378000  1.0
  C  C34  1  0.78095000  0.96313000  0.46173000  1.0
  C  C35  1  0.58583000  0.02551000  0.48669000  1.0
  C  C36  1  0.55596000  0.13605000  0.48679000  1.0
  C  C37  1  0.19310000  0.14432000  0.53622000  1.0
  C  C38  1  0.21899000  0.03688000  0.53827000  1.0
  C  C39  1  0.41410000  0.97451000  0.51330000  1.0
  C  C40  1  0.63668000  0.80538000  0.48915000  1.0
  C  C41  1  0.36330000  0.19463000  0.51084000  1.0
  N  N42  1  0.07263000  0.52098000  0.98191000  1.0
  N  N43  1  0.92741000  0.47902000  0.01809000  1.0
  Cl  Cl44  1  0.48404000  0.62914000  0.72750000  1.0
  Cl  Cl45  1  0.51601000  0.37084000  0.27249000  1.0
  O  O46  1  0.51096000  0.64614000  0.50264000  1.0
  O  O47  1  0.97390000  0.46502000  0.39399000  1.0
  O  O48  1  0.14367000  0.35953000  0.52429000  1.0
  O  O49  1  0.37363000  0.50070000  0.60855000  1.0
  O  O50  1  0.48902000  0.35386000  0.49735000  1.0
  O  O51  1  0.02611000  0.53499000  0.60601000  1.0
  O  O52  1  0.85632000  0.64048000  0.47571000  1.0
  O  O53  1  0.62639000  0.49930000  0.39146000  1.0
  O  O54  1  0.24604000  0.54195000  0.45913000  1.0
  O  O55  1  0.75396000  0.45806000  0.54088000  1.0
