# generated using pymatgen
data_AlH3C12(S2O5)3
_symmetry_space_group_name_H-M   'P 1'
_cell_length_a   4.39633000
_cell_length_b   19.90485000
_cell_length_c   19.90510000
_cell_angle_alpha   120.00124642
_cell_angle_beta   90.00110000
_cell_angle_gamma   89.99949998
_symmetry_Int_Tables_number   1
_chemical_formula_structural   AlH3C12(S2O5)3
_chemical_formula_sum   'Al2 H6 C24 S12 O30'
_cell_volume   1508.47714347
_cell_formula_units_Z   2
loop_
 _symmetry_equiv_pos_site_id
 _symmetry_equiv_pos_as_xyz
  1  'x, y, z'
loop_
 _atom_site_type_symbol
 _atom_site_label
 _atom_site_symmetry_multiplicity
 _atom_site_fract_x
 _atom_site_fract_y
 _atom_site_fract_z
 _atom_site_occupancy
  Al  Al0  1  0.97089000  0.50000000  0.00000000  1.0
  Al  Al1  1  0.97031000  0.83333000  0.66667000  1.0
  H  H2  1  0.02968000  0.80013000  0.26666000  1.0
  H  H3  1  0.02905000  0.53322000  0.40003000  1.0
  H  H4  1  0.02947000  0.46653000  0.69989000  1.0
  H  H5  1  0.02904000  0.86682000  0.96678000  1.0
  H  H6  1  0.02943000  0.23335000  0.03345000  1.0
  H  H7  1  0.02924000  0.09996000  0.63317000  1.0
  C  C8  1  0.47962000  0.38535000  0.93468000  1.0
  C  C9  1  0.47962000  0.54933000  0.11465000  1.0
  C  C10  1  0.47962000  0.56532000  0.95067000  1.0
  C  C11  1  0.47904000  0.78398000  0.55201000  1.0
  C  C12  1  0.47903000  0.76802000  0.71602000  1.0
  C  C13  1  0.47905000  0.94799000  0.73197000  1.0
  C  C14  1  0.51934000  0.67833000  0.24854000  1.0
  C  C15  1  0.51910000  0.65498000  0.41813000  1.0
  C  C16  1  0.51910000  0.59847000  0.20055000  1.0
  C  C17  1  0.51866000  0.73485000  0.46612000  1.0
  C  C18  1  0.54597000  0.63436000  0.33854000  1.0
  C  C19  1  0.54597000  0.69897000  0.32815000  1.0
  C  C20  1  0.51934000  0.57021000  0.82167000  1.0
  C  C21  1  0.51908000  0.76315000  0.84502000  1.0
  C  C22  1  0.51909000  0.60208000  0.90154000  1.0
  C  C23  1  0.51867000  0.73126000  0.76516000  1.0
  C  C24  1  0.54595000  0.70418000  0.86565000  1.0
  C  C25  1  0.54596000  0.62917000  0.80103000  1.0
  C  C26  1  0.51928000  0.25146000  0.92978000  1.0
  C  C27  1  0.51917000  0.08187000  0.73684000  1.0
  C  C28  1  0.51910000  0.29946000  0.89792000  1.0
  C  C29  1  0.51868000  0.03389000  0.76873000  1.0
  C  C30  1  0.54601000  0.16146000  0.79581000  1.0
  C  C31  1  0.54592000  0.17186000  0.87082000  1.0
  S  S32  1  0.54452000  0.54877000  0.25109000  1.0
  S  S33  1  0.54425000  0.78457000  0.41559000  1.0
  S  S34  1  0.54448000  0.70232000  0.95124000  1.0
  S  S35  1  0.54427000  0.63101000  0.71544000  1.0
  S  S36  1  0.54458000  0.24892000  0.79768000  1.0
  S  S37  1  0.54416000  0.08442000  0.86897000  1.0
  S  S38  1  0.46354000  0.74844000  0.21975000  1.0
  S  S39  1  0.46309000  0.58487000  0.44691000  1.0
  S  S40  1  0.46343000  0.47131000  0.75156000  1.0
  S  S41  1  0.46308000  0.86204000  0.91513000  1.0
  S  S42  1  0.46339000  0.28025000  0.02868000  1.0
  S  S43  1  0.46324000  0.05308000  0.63794000  1.0
  O  O44  1  0.69771000  0.57449000  0.99657000  1.0
  O  O45  1  0.69774000  0.42208000  0.92550000  1.0
  O  O46  1  0.69774000  0.50343000  0.07792000  1.0
  O  O47  1  0.22639000  0.53243000  0.94397000  1.0
  O  O48  1  0.22643000  0.55603000  0.08846000  1.0
  O  O49  1  0.22644000  0.41155000  0.96757000  1.0
  O  O50  1  0.69704000  0.91124000  0.74116000  1.0
  O  O51  1  0.69703000  0.82991000  0.58876000  1.0
  O  O52  1  0.69705000  0.75884000  0.67009000  1.0
  O  O53  1  0.22578000  0.92181000  0.69912000  1.0
  O  O54  1  0.22579000  0.80088000  0.72270000  1.0
  O  O55  1  0.22577000  0.77730000  0.57818000  1.0
  O  O56  1  0.74368000  0.79126000  0.23001000  1.0
  O  O57  1  0.32370000  0.71400000  0.14493000  1.0
  O  O58  1  0.25349000  0.80682000  0.28626000  1.0
  O  O59  1  0.74312000  0.54199000  0.43661000  1.0
  O  O60  1  0.32338000  0.61935000  0.52176000  1.0
  O  O61  1  0.25288000  0.52655000  0.38041000  1.0
  O  O62  1  0.74349000  0.43873000  0.70870000  1.0
  O  O63  1  0.32364000  0.43092000  0.78601000  1.0
  O  O64  1  0.25328000  0.47946000  0.69321000  1.0
  O  O65  1  0.74311000  0.89462000  0.95801000  1.0
  O  O66  1  0.32334000  0.90241000  0.88066000  1.0
  O  O67  1  0.25289000  0.85386000  0.97345000  1.0
  O  O68  1  0.74346000  0.26997000  0.06125000  1.0
  O  O69  1  0.32360000  0.35509000  0.06907000  1.0
  O  O70  1  0.25326000  0.21375000  0.02053000  1.0
  O  O71  1  0.74331000  0.06338000  0.60538000  1.0
  O  O72  1  0.32350000  0.97824000  0.59757000  1.0
  O  O73  1  0.25307000  0.11959000  0.64612000  1.0
