# generated using pymatgen
data_CuH32C42S2N12(OF)6
_symmetry_space_group_name_H-M   'P 1'
_cell_length_a   9.01016000
_cell_length_b   11.17420000
_cell_length_c   12.02590000
_cell_angle_alpha   114.89900000
_cell_angle_beta   104.33100000
_cell_angle_gamma   93.86700000
_symmetry_Int_Tables_number   1
_chemical_formula_structural   CuH32C42S2N12(OF)6
_chemical_formula_sum   'Cu1 H32 C42 S2 N12 O6 F6'
_cell_volume   1043.57317579
_cell_formula_units_Z   1
loop_
 _symmetry_equiv_pos_site_id
 _symmetry_equiv_pos_as_xyz
  1  'x, y, z'
loop_
 _atom_site_type_symbol
 _atom_site_label
 _atom_site_symmetry_multiplicity
 _atom_site_fract_x
 _atom_site_fract_y
 _atom_site_fract_z
 _atom_site_occupancy
  Cu  Cu0  1  0.50000000  0.50000000  0.50000000  1.0
  H  H1  1  0.25360000  0.06734000  0.78842000  1.0
  H  H2  1  0.74639000  0.93266000  0.21158000  1.0
  H  H3  1  0.22291000  0.47667000  0.70148000  1.0
  H  H4  1  0.77709000  0.52333000  0.29852000  1.0
  H  H5  1  0.70576000  0.62052000  0.81812000  1.0
  H  H6  1  0.29424000  0.37947000  0.18188000  1.0
  H  H7  1  0.48232000  0.22449000  0.86809000  1.0
  H  H8  1  0.51768000  0.77551000  0.13191000  1.0
  H  H9  1  0.78326000  0.25256000  0.68414000  1.0
  H  H10  1  0.21674000  0.74744000  0.31586000  1.0
  H  H11  1  0.05308000  0.24182000  0.49093000  1.0
  H  H12  1  0.94692000  0.75819000  0.50906000  1.0
  H  H13  1  0.85824000  0.15566000  0.44141000  1.0
  H  H14  1  0.14176000  0.84434000  0.55859000  1.0
  H  H15  1  0.82342000  0.77188000  0.69445000  1.0
  H  H16  1  0.17658000  0.22812000  0.30555000  1.0
  H  H17  1  0.31799000  0.05563000  0.61149000  1.0
  H  H18  1  0.68201000  0.94437000  0.38851000  1.0
  H  H19  1  0.19459000  0.08327000  0.48840000  1.0
  H  H20  1  0.80541000  0.91673000  0.51160000  1.0
  H  H21  1  0.10626000  0.87032000  0.81364000  1.0
  H  H22  1  0.89374000  0.12968000  0.18636000  1.0
  H  H23  1  0.07176000  0.10402000  0.91980000  1.0
  H  H24  1  0.92824000  0.89598000  0.08020000  1.0
  H  H25  1  0.81554000  0.59401000  0.01699000  1.0
  H  H26  1  0.18446000  0.40599000  0.98301000  1.0
  H  H27  1  0.30117000  0.72711000  0.81588000  1.0
  H  H28  1  0.69883000  0.27289000  0.18412000  1.0
  H  H29  1  0.70716000  0.39966000  0.03997000  1.0
  H  H30  1  0.29284000  0.60034000  0.96003000  1.0
  H  H31  1  0.83403000  0.19544000  0.86558000  1.0
  H  H32  1  0.16597000  0.80456000  0.13442000  1.0
  C  C33  1  0.12608000  0.14498000  0.66549000  1.0
  C  C34  1  0.87392000  0.85502000  0.33451000  1.0
  C  C35  1  0.99181000  0.19701000  0.63567000  1.0
  C  C36  1  0.00819000  0.80299000  0.36433000  1.0
  C  C37  1  0.53500000  0.43411000  0.73017000  1.0
  C  C38  1  0.46500000  0.56589000  0.26983000  1.0
  C  C39  1  0.47104000  0.32511000  0.74577000  1.0
  C  C40  1  0.52896000  0.67489000  0.25423000  1.0
  C  C41  1  0.86575000  0.56793000  0.63080000  1.0
  C  C42  1  0.13425000  0.43207000  0.36920000  1.0
  C  C43  1  0.15205000  0.11110000  0.76756000  1.0
  C  C44  1  0.84795000  0.88890000  0.23244000  1.0
  C  C45  1  0.97890000  0.48659000  0.63268000  1.0
  C  C46  1  0.02110000  0.51341000  0.36732000  1.0
  C  C47  1  0.13732000  0.54031000  0.70030000  1.0
  C  C48  1  0.86268000  0.45969000  0.29970000  1.0
  C  C49  1  0.65993000  0.53437000  0.82826000  1.0
  C  C50  1  0.34007000  0.46563000  0.17174000  1.0
  C  C51  1  0.53045000  0.30919000  0.85697000  1.0
  C  C52  1  0.46955000  0.69081000  0.14303000  1.0
  C  C53  1  0.88832000  0.21417000  0.70857000  1.0
  C  C54  1  0.11168000  0.78583000  0.29142000  1.0
  C  C55  1  0.95249000  0.23172000  0.52440000  1.0
  C  C56  1  0.04750000  0.76828000  0.47560000  1.0
  C  C57  1  0.90942000  0.70878000  0.69696000  1.0
  C  C58  1  0.09059000  0.29122000  0.30304000  1.0
  C  C59  1  0.24571000  0.12467000  0.59297000  1.0
  C  C60  1  0.75429000  0.87533000  0.40703000  1.0
  C  C61  1  0.06667000  0.76169000  0.76300000  1.0
  C  C62  1  0.93333000  0.23831000  0.23701000  1.0
  C  C63  1  0.66520000  0.96017000  0.89834000  1.0
  C  C64  1  0.33480000  0.03983000  0.10166000  1.0
  C  C65  1  0.04898000  0.12993000  0.84030000  1.0
  C  C66  1  0.95102000  0.87006000  0.15970000  1.0
  C  C67  1  0.71859000  0.51862000  0.93834000  1.0
  C  C68  1  0.28141000  0.48138000  0.06166000  1.0
  C  C69  1  0.17903000  0.67933000  0.76473000  1.0
  C  C70  1  0.82097000  0.32067000  0.23527000  1.0
  C  C71  1  0.65562000  0.40769000  0.95192000  1.0
  C  C72  1  0.34438000  0.59230000  0.04809000  1.0
  C  C73  1  0.91653000  0.18177000  0.81077000  1.0
  C  C74  1  0.08347000  0.81822000  0.18923000  1.0
  S  S75  1  0.53586000  0.87156000  0.72804000  1.0
  S  S76  1  0.46414000  0.12845000  0.27196000  1.0
  N  N77  1  0.35260000  0.25045000  0.63278000  1.0
  N  N78  1  0.64740000  0.74955000  0.36722000  1.0
  N  N79  1  0.89590000  0.35752000  0.55814000  1.0
  N  N80  1  0.10410000  0.64248000  0.44186000  1.0
  N  N81  1  0.72378000  0.48084000  0.55724000  1.0
  N  N82  1  0.27622000  0.51916000  0.44276000  1.0
  N  N83  1  0.74357000  0.35607000  0.51585000  1.0
  N  N84  1  0.25643000  0.64393000  0.48415000  1.0
  N  N85  1  0.45140000  0.41534000  0.60902000  1.0
  N  N86  1  0.54860000  0.58466000  0.39098000  1.0
  N  N87  1  0.34282000  0.30632000  0.55281000  1.0
  N  N88  1  0.65718000  0.69368000  0.44719000  1.0
  O  O89  1  0.55025000  0.73167000  0.69568000  1.0
  O  O90  1  0.44975000  0.26833000  0.30433000  1.0
  O  O91  1  0.38500000  0.90394000  0.74119000  1.0
  O  O92  1  0.61500000  0.09606000  0.25881000  1.0
  O  O93  1  0.60613000  0.93248000  0.66286000  1.0
  O  O94  1  0.39387000  0.06752000  0.33714000  1.0
  F  F95  1  0.66061000  0.09375000  0.95262000  1.0
  F  F96  1  0.33939000  0.90625000  0.04738000  1.0
  F  F97  1  0.81780000  0.95063000  0.90709000  1.0
  F  F98  1  0.18220000  0.04938000  0.09292000  1.0
  F  F99  1  0.62256000  0.90761000  0.97179000  1.0
  F  F100  1  0.37744000  0.09239000  0.02821000  1.0
