# generated using pymatgen
data_CdH18C26(NO3)2
_symmetry_space_group_name_H-M   'P 1'
_cell_length_a   7.15374000
_cell_length_b   11.50540000
_cell_length_c   14.16687856
_cell_angle_alpha   113.95352342
_cell_angle_beta   95.80096218
_cell_angle_gamma   90.00340000
_symmetry_Int_Tables_number   1
_chemical_formula_structural   CdH18C26(NO3)2
_chemical_formula_sum   'Cd2 H36 C52 N4 O12'
_cell_volume   1059.06370001
_cell_formula_units_Z   2
loop_
 _symmetry_equiv_pos_site_id
 _symmetry_equiv_pos_as_xyz
  1  'x, y, z'
loop_
 _atom_site_type_symbol
 _atom_site_label
 _atom_site_symmetry_multiplicity
 _atom_site_fract_x
 _atom_site_fract_y
 _atom_site_fract_z
 _atom_site_occupancy
  Cd  Cd0  1  0.75016000  0.39487000  0.99996000  1.0
  Cd  Cd1  1  0.24983000  0.60513000  0.00004000  1.0
  H  H2  1  0.85964000  0.19264000  0.76898000  1.0
  H  H3  1  0.64084000  0.42383000  0.23093000  1.0
  H  H4  1  0.14037000  0.80737000  0.23103000  1.0
  H  H5  1  0.35916000  0.57617000  0.76907000  1.0
  H  H6  1  0.88758000  0.95788000  0.66387000  1.0
  H  H7  1  0.61244000  0.29420000  0.33604000  1.0
  H  H8  1  0.11243000  0.04212000  0.33613000  1.0
  H  H9  1  0.38756000  0.70580000  0.66396000  1.0
  H  H10  1  0.84149000  0.80733000  0.74781000  1.0
  H  H11  1  0.65822000  0.05965000  0.25209000  1.0
  H  H12  1  0.15852000  0.19268000  0.25220000  1.0
  H  H13  1  0.34178000  0.94036000  0.74791000  1.0
  H  H14  1  0.78786000  0.77642000  0.91115000  1.0
  H  H15  1  0.71176000  0.86557000  0.08907000  1.0
  H  H16  1  0.21215000  0.22358000  0.08885000  1.0
  H  H17  1  0.28824000  0.13444000  0.91093000  1.0
  H  H18  1  0.51066000  0.24564000  0.72905000  1.0
  H  H19  1  0.98921000  0.51645000  0.27093000  1.0
  H  H20  1  0.48934000  0.75437000  0.27095000  1.0
  H  H21  1  0.01078000  0.48355000  0.72907000  1.0
  H  H22  1  0.39548000  0.14791000  0.77843000  1.0
  H  H23  1  0.10479000  0.36951000  0.22149000  1.0
  H  H24  1  0.60452000  0.85209000  0.22157000  1.0
  H  H25  1  0.89521000  0.63049000  0.77850000  1.0
  H  H26  1  0.47088000  0.01861000  0.62591000  1.0
  H  H27  1  0.02901000  0.39272000  0.37422000  1.0
  H  H28  1  0.52911000  0.98139000  0.37409000  1.0
  H  H29  1  0.97099000  0.60728000  0.62577000  1.0
  H  H30  1  0.90837000  0.24806000  0.62359000  1.0
  H  H31  1  0.59153000  0.62447000  0.37634000  1.0
  H  H32  1  0.09162000  0.75194000  0.37641000  1.0
  H  H33  1  0.40847000  0.37552000  0.62365000  1.0
  H  H34  1  0.39875000  0.80416000  0.48531000  1.0
  H  H35  1  0.10128000  0.31895000  0.51484000  1.0
  H  H36  1  0.60123000  0.19583000  0.51469000  1.0
  H  H37  1  0.89872000  0.68105000  0.48516000  1.0
  C  C38  1  0.83980000  0.12352000  0.80215000  1.0
  C  C39  1  0.66045000  0.32152000  0.19774000  1.0
  C  C40  1  0.16021000  0.87648000  0.19785000  1.0
  C  C41  1  0.33955000  0.67848000  0.80226000  1.0
  C  C42  1  0.85572000  0.99218000  0.74410000  1.0
  C  C43  1  0.64414000  0.24824000  0.25579000  1.0
  C  C44  1  0.14429000  0.00782000  0.25590000  1.0
  C  C45  1  0.35587000  0.75176000  0.74421000  1.0
  C  C46  1  0.83123000  0.90965000  0.79096000  1.0
  C  C47  1  0.66852000  0.11886000  0.20896000  1.0
  C  C48  1  0.16877000  0.09036000  0.20904000  1.0
  C  C49  1  0.33149000  0.88114000  0.79104000  1.0
  C  C50  1  0.79180000  0.95791000  0.89544000  1.0
  C  C51  1  0.70797000  0.06260000  0.10451000  1.0
  C  C52  1  0.20821000  0.04209000  0.10456000  1.0
  C  C53  1  0.29204000  0.93741000  0.89550000  1.0
  C  C54  1  0.77299000  0.09173000  0.94684000  1.0
  C  C55  1  0.72696000  0.14491000  0.05303000  1.0
  C  C56  1  0.22702000  0.90828000  0.05316000  1.0
  C  C57  1  0.27304000  0.85509000  0.94697000  1.0
  C  C58  1  0.77001000  0.87850000  0.94975000  1.0
  C  C59  1  0.72973000  0.92889000  0.05034000  1.0
  C  C60  1  0.23000000  0.12150000  0.05025000  1.0
  C  C61  1  0.27028000  0.07112000  0.94967000  1.0
  C  C62  1  0.35243000  0.34856000  0.85484000  1.0
  C  C63  1  0.14769000  0.49403000  0.14529000  1.0
  C  C64  1  0.64757000  0.65145000  0.14516000  1.0
  C  C65  1  0.85231000  0.50598000  0.85471000  1.0
  C  C66  1  0.37931000  0.22988000  0.75768000  1.0
  C  C67  1  0.12073000  0.47226000  0.24237000  1.0
  C  C68  1  0.62069000  0.77012000  0.24232000  1.0
  C  C69  1  0.87927000  0.52774000  0.75763000  1.0
  C  C70  1  0.19769000  0.08823000  0.60255000  1.0
  C  C71  1  0.30214000  0.48575000  0.39753000  1.0
  C  C72  1  0.80231000  0.91177000  0.39745000  1.0
  C  C73  1  0.69786000  0.51426000  0.60247000  1.0
  C  C74  1  0.33211000  0.99673000  0.58183000  1.0
  C  C75  1  0.16782000  0.41489000  0.41823000  1.0
  C  C76  1  0.66788000  0.00327000  0.41817000  1.0
  C  C77  1  0.83218000  0.58511000  0.58176000  1.0
  C  C78  1  0.01841000  0.06201000  0.54104000  1.0
  C  C79  1  0.48149000  0.52100000  0.45897000  1.0
  C  C80  1  0.98159000  0.93799000  0.45896000  1.0
  C  C81  1  0.51850000  0.47900000  0.54102000  1.0
  C  C82  1  0.87955000  0.15470000  0.56018000  1.0
  C  C83  1  0.62037000  0.59452000  0.43978000  1.0
  C  C84  1  0.12044000  0.84530000  0.43982000  1.0
  C  C85  1  0.37964000  0.40548000  0.56022000  1.0
  C  C86  1  0.29154000  0.87499000  0.50044000  1.0
  C  C87  1  0.20850000  0.37459000  0.49965000  1.0
  C  C88  1  0.70845000  0.12501000  0.49956000  1.0
  C  C89  1  0.79150000  0.62541000  0.50035000  1.0
  N  N90  1  0.79752000  0.17111000  0.89964000  1.0
  N  N91  1  0.70270000  0.27154000  0.10023000  1.0
  N  N92  1  0.20249000  0.82889000  0.10036000  1.0
  N  N93  1  0.29730000  0.72846000  0.89977000  1.0
  O  O94  1  0.42697000  0.35093000  0.94046000  1.0
  O  O95  1  0.07338000  0.41086000  0.05957000  1.0
  O  O96  1  0.57303000  0.64907000  0.05954000  1.0
  O  O97  1  0.92661000  0.58914000  0.94042000  1.0
  O  O98  1  0.26028000  0.43689000  0.84304000  1.0
  O  O99  1  0.23964000  0.59432000  0.15726000  1.0
  O  O100  1  0.73972000  0.56311000  0.15696000  1.0
  O  O101  1  0.76035000  0.40567000  0.84273000  1.0
  O  O102  1  0.22140000  0.20711000  0.68070000  1.0
  O  O103  1  0.27843000  0.52655000  0.31942000  1.0
  O  O104  1  0.77859000  0.79289000  0.31930000  1.0
  O  O105  1  0.72156000  0.47344000  0.68057000  1.0
