# generated using pymatgen
data_CdH18C18(IN3)2
_symmetry_space_group_name_H-M   'P 1'
_cell_length_a   8.17288000
_cell_length_b   8.88404000
_cell_length_c   16.44950000
_cell_angle_alpha   90.00000000
_cell_angle_beta   89.99990000
_cell_angle_gamma   115.57600000
_symmetry_Int_Tables_number   1
_chemical_formula_structural   CdH18C18(IN3)2
_chemical_formula_sum   'Cd2 H36 C36 I4 N12'
_cell_volume   1077.33640922
_cell_formula_units_Z   2
loop_
 _symmetry_equiv_pos_site_id
 _symmetry_equiv_pos_as_xyz
  1  'x, y, z'
loop_
 _atom_site_type_symbol
 _atom_site_label
 _atom_site_symmetry_multiplicity
 _atom_site_fract_x
 _atom_site_fract_y
 _atom_site_fract_z
 _atom_site_occupancy
  Cd  Cd0  1  0.50000000  0.50000000  0.00000000  1.0
  Cd  Cd1  1  0.50000000  0.00000000  0.50000000  1.0
  H  H2  1  0.96773000  0.17203000  0.55643000  1.0
  H  H3  1  0.03227000  0.32797000  0.05643000  1.0
  H  H4  1  0.03227000  0.82796000  0.44357000  1.0
  H  H5  1  0.96773000  0.67204000  0.94357000  1.0
  H  H6  1  0.60660000  0.39570000  0.57097000  1.0
  H  H7  1  0.39340000  0.10430000  0.07097000  1.0
  H  H8  1  0.39339000  0.60430000  0.42903000  1.0
  H  H9  1  0.60661000  0.89570000  0.92903000  1.0
  H  H10  1  0.99574000  0.43405000  0.76267000  1.0
  H  H11  1  0.00426000  0.06596000  0.26267000  1.0
  H  H12  1  0.00426000  0.56596000  0.23733000  1.0
  H  H13  1  0.99574000  0.93404000  0.73733000  1.0
  H  H14  1  0.94507000  0.62025000  0.62962000  1.0
  H  H15  1  0.05493000  0.87975000  0.12962000  1.0
  H  H16  1  0.05493000  0.37974000  0.37038000  1.0
  H  H17  1  0.94507000  0.12025000  0.87038000  1.0
  H  H18  1  0.26521000  0.61743000  0.60018000  1.0
  H  H19  1  0.73478000  0.88257000  0.10018000  1.0
  H  H20  1  0.73478000  0.38257000  0.39982000  1.0
  H  H21  1  0.26522000  0.11743000  0.89982000  1.0
  H  H22  1  0.26290000  0.42262000  0.57854000  1.0
  H  H23  1  0.73710000  0.07738000  0.07854000  1.0
  H  H24  1  0.73710000  0.57737000  0.42146000  1.0
  H  H25  1  0.26290000  0.92262000  0.92146000  1.0
  H  H26  1  0.11043000  0.43560000  0.90259000  1.0
  H  H27  1  0.88956000  0.06440000  0.40259000  1.0
  H  H28  1  0.88957000  0.56440000  0.09741000  1.0
  H  H29  1  0.11043000  0.93560000  0.59741000  1.0
  H  H30  1  0.38933000  0.50938000  0.18213000  1.0
  H  H31  1  0.61067000  0.99062000  0.68213000  1.0
  H  H32  1  0.61066000  0.49062000  0.81787000  1.0
  H  H33  1  0.38933000  0.00938000  0.31787000  1.0
  H  H34  1  0.52252000  0.50658000  0.67366000  1.0
  H  H35  1  0.47748000  0.99342000  0.17366000  1.0
  H  H36  1  0.47748000  0.49341000  0.32634000  1.0
  H  H37  1  0.52252000  0.00659000  0.82634000  1.0
  C  C38  1  0.91142000  0.26014000  0.56932000  1.0
  C  C39  1  0.08858000  0.23985000  0.06932000  1.0
  C  C40  1  0.08858000  0.73985000  0.43068000  1.0
  C  C41  1  0.91142000  0.76015000  0.93068000  1.0
  C  C42  1  0.73084000  0.38151000  0.57903000  1.0
  C  C43  1  0.26916000  0.11849000  0.07903000  1.0
  C  C44  1  0.26917000  0.61849000  0.42097000  1.0
  C  C45  1  0.73084000  0.88151000  0.92097000  1.0
  C  C46  1  0.13427000  0.44916000  0.77140000  1.0
  C  C47  1  0.86572000  0.05085000  0.27140000  1.0
  C  C48  1  0.86573000  0.55085000  0.22860000  1.0
  C  C49  1  0.13428000  0.94915000  0.72860000  1.0
  C  C50  1  0.25128000  0.47155000  0.70575000  1.0
  C  C51  1  0.74872000  0.02845000  0.20575000  1.0
  C  C52  1  0.74872000  0.52845000  0.29425000  1.0
  C  C53  1  0.25128000  0.97155000  0.79425000  1.0
  C  C54  1  0.89717000  0.49356000  0.60744000  1.0
  C  C55  1  0.10282000  0.00643000  0.10744000  1.0
  C  C56  1  0.10282000  0.50643000  0.39256000  1.0
  C  C57  1  0.89718000  0.99357000  0.89256000  1.0
  C  C58  1  0.20336000  0.48529000  0.61849000  1.0
  C  C59  1  0.79664000  0.01471000  0.11849000  1.0
  C  C60  1  0.79664000  0.51471000  0.38151000  1.0
  C  C61  1  0.20336000  0.98529000  0.88151000  1.0
  C  C62  1  0.19721000  0.44776000  0.85008000  1.0
  C  C63  1  0.80279000  0.05225000  0.35008000  1.0
  C  C64  1  0.80279000  0.55225000  0.14992000  1.0
  C  C65  1  0.19721000  0.94776000  0.64992000  1.0
  C  C66  1  0.47664000  0.48140000  0.80260000  1.0
  C  C67  1  0.52335000  0.01861000  0.30260000  1.0
  C  C68  1  0.52336000  0.51860000  0.19740000  1.0
  C  C69  1  0.47665000  0.98140000  0.69740000  1.0
  C  C70  1  0.42591000  0.48738000  0.72261000  1.0
  C  C71  1  0.57409000  0.01263000  0.22261000  1.0
  C  C72  1  0.57409000  0.51263000  0.27739000  1.0
  C  C73  1  0.42591000  0.98738000  0.77739000  1.0
  I  I74  1  0.70141000  0.29995000  0.95245000  1.0
  I  I75  1  0.29859000  0.20006000  0.45245000  1.0
  I  I76  1  0.29859000  0.70005000  0.04755000  1.0
  I  I77  1  0.70141000  0.79994000  0.54755000  1.0
  N  N78  1  0.74170000  0.23690000  0.55544000  1.0
  N  N79  1  0.25830000  0.26309000  0.05544000  1.0
  N  N80  1  0.25830000  0.76309000  0.44456000  1.0
  N  N81  1  0.74170000  0.73691000  0.94456000  1.0
  N  N82  1  0.01031000  0.41479000  0.60072000  1.0
  N  N83  1  0.98969000  0.08521000  0.10072000  1.0
  N  N84  1  0.98969000  0.58521000  0.39928000  1.0
  N  N85  1  0.01031000  0.91479000  0.89928000  1.0
  N  N86  1  0.36510000  0.46314000  0.86577000  1.0
  N  N87  1  0.63490000  0.03687000  0.36577000  1.0
  N  N88  1  0.63490000  0.53687000  0.13423000  1.0
  N  N89  1  0.36510000  0.96313000  0.63423000  1.0
