# generated using pymatgen
data_NdH14C22N5O6
_symmetry_space_group_name_H-M   'P 1'
_cell_length_a   13.08150000
_cell_length_b   14.32500000
_cell_length_c   15.73110000
_cell_angle_alpha   117.04500000
_cell_angle_beta   106.40900000
_cell_angle_gamma   90.03020000
_symmetry_Int_Tables_number   1
_chemical_formula_structural   NdH14C22N5O6
_chemical_formula_sum   'Nd4 H56 C88 N20 O24'
_cell_volume   2489.73587164
_cell_formula_units_Z   4
loop_
 _symmetry_equiv_pos_site_id
 _symmetry_equiv_pos_as_xyz
  1  'x, y, z'
loop_
 _atom_site_type_symbol
 _atom_site_label
 _atom_site_symmetry_multiplicity
 _atom_site_fract_x
 _atom_site_fract_y
 _atom_site_fract_z
 _atom_site_occupancy
  Nd  Nd0  1  0.57154000  0.60792000  0.64572000  1.0
  Nd  Nd1  1  0.92909000  0.96250000  0.35396000  1.0
  Nd  Nd2  1  0.42847000  0.39141000  0.35371000  1.0
  Nd  Nd3  1  0.07126000  0.03754000  0.64604000  1.0
  H  H4  1  0.50574000  0.84979000  0.96128000  1.0
  H  H5  1  0.99650000  0.88853000  0.03806000  1.0
  H  H6  1  0.49458000  0.14996000  0.03850000  1.0
  H  H7  1  0.00408000  0.11168000  0.96158000  1.0
  H  H8  1  0.43328000  0.89490000  0.10396000  1.0
  H  H9  1  0.06853000  0.79021000  0.89547000  1.0
  H  H10  1  0.56683000  0.10483000  0.89570000  1.0
  H  H11  1  0.93189000  0.20980000  0.10419000  1.0
  H  H12  1  0.38132000  0.56292000  0.02160000  1.0
  H  H13  1  0.11831000  0.54068000  0.97823000  1.0
  H  H14  1  0.61893000  0.43679000  0.97810000  1.0
  H  H15  1  0.88215000  0.45956000  0.02172000  1.0
  H  H16  1  0.45219000  0.51811000  0.87842000  1.0
  H  H17  1  0.04761000  0.63988000  0.12143000  1.0
  H  H18  1  0.54796000  0.48158000  0.12124000  1.0
  H  H19  1  0.95278000  0.36054000  0.87855000  1.0
  H  H20  1  0.21679000  0.83492000  0.26779000  1.0
  H  H21  1  0.28394000  0.56643000  0.73260000  1.0
  H  H22  1  0.78357000  0.16494000  0.73202000  1.0
  H  H23  1  0.71626000  0.43348000  0.26722000  1.0
  H  H24  1  0.42770000  0.61493000  0.30659000  1.0
  H  H25  1  0.07258000  0.30723000  0.69291000  1.0
  H  H26  1  0.57254000  0.38481000  0.69310000  1.0
  H  H27  1  0.92757000  0.69268000  0.30694000  1.0
  H  H28  1  0.30936000  0.82288000  0.54701000  1.0
  H  H29  1  0.19188000  0.27583000  0.45318000  1.0
  H  H30  1  0.69073000  0.17668000  0.45267000  1.0
  H  H31  1  0.80806000  0.72420000  0.54659000  1.0
  H  H32  1  0.73370000  0.53344000  0.84082000  1.0
  H  H33  1  0.76694000  0.69325000  0.15864000  1.0
  H  H34  1  0.26676000  0.46758000  0.15960000  1.0
  H  H35  1  0.23331000  0.30683000  0.84114000  1.0
  H  H36  1  0.81882000  0.50380000  0.59377000  1.0
  H  H37  1  0.68086000  0.91064000  0.40492000  1.0
  H  H38  1  0.18120000  0.49510000  0.40580000  1.0
  H  H39  1  0.31903000  0.08938000  0.59468000  1.0
  H  H40  1  0.94509000  0.39149000  0.67958000  1.0
  H  H41  1  0.55489000  0.71243000  0.31938000  1.0
  H  H42  1  0.05506000  0.60822000  0.32093000  1.0
  H  H43  1  0.44488000  0.28753000  0.67994000  1.0
  H  H44  1  0.86684000  0.72367000  0.77135000  1.0
  H  H45  1  0.63400000  0.95275000  0.22719000  1.0
  H  H46  1  0.13539000  0.27529000  0.21515000  1.0
  H  H47  1  0.36608000  0.04756000  0.77198000  1.0
  H  H48  1  0.81472000  0.03368000  0.83900000  1.0
  H  H49  1  0.68731000  0.19611000  0.16103000  1.0
  H  H50  1  0.17686000  0.97079000  0.17552000  1.0
  H  H51  1  0.31487000  0.80297000  0.83719000  1.0
  H  H52  1  0.61448000  0.89521000  0.73753000  1.0
  H  H53  1  0.88721000  0.15859000  0.26259000  1.0
  H  H54  1  0.37931000  0.10590000  0.27708000  1.0
  H  H55  1  0.11423000  0.84054000  0.73689000  1.0
  H  H56  1  0.37598000  0.84669000  0.21018000  1.0
  H  H57  1  0.12523000  0.63539000  0.78944000  1.0
  H  H58  1  0.62410000  0.15307000  0.78933000  1.0
  H  H59  1  0.87507000  0.36458000  0.21029000  1.0
  C  C60  1  0.53060000  0.65734000  0.82890000  1.0
  C  C61  1  0.97099000  0.82910000  0.17094000  1.0
  C  C62  1  0.46937000  0.34236000  0.17060000  1.0
  C  C63  1  0.02986000  0.17147000  0.82904000  1.0
  C  C64  1  0.48522000  0.68200000  0.91286000  1.0
  C  C65  1  0.01596000  0.76933000  0.08681000  1.0
  C  C66  1  0.51494000  0.31774000  0.08677000  1.0
  C  C67  1  0.98464000  0.23104000  0.91304000  1.0
  C  C68  1  0.47826000  0.78792000  0.97545000  1.0
  C  C69  1  0.02356000  0.81245000  0.02417000  1.0
  C  C70  1  0.52197000  0.21181000  0.02427000  1.0
  C  C71  1  0.97702000  0.18781000  0.97562000  1.0
  C  C72  1  0.43728000  0.81229000  0.05441000  1.0
  C  C73  1  0.06429000  0.75739000  0.94518000  1.0
  C  C74  1  0.56290000  0.18742000  0.94529000  1.0
  C  C75  1  0.93614000  0.24272000  0.05455000  1.0
  C  C76  1  0.40267000  0.73128000  0.07170000  1.0
  C  C77  1  0.09808000  0.65885000  0.92794000  1.0
  C  C78  1  0.59743000  0.26841000  0.92791000  1.0
  C  C79  1  0.90230000  0.34129000  0.07189000  1.0
  C  C80  1  0.40789000  0.62501000  0.00732000  1.0
  C  C81  1  0.09226000  0.61715000  0.99239000  1.0
  C  C82  1  0.59229000  0.37470000  0.99231000  1.0
  C  C83  1  0.90818000  0.38305000  0.00750000  1.0
  C  C84  1  0.44903000  0.60054000  0.92862000  1.0
  C  C85  1  0.05131000  0.67185000  0.07110000  1.0
  C  C86  1  0.55116000  0.39918000  0.07101000  1.0
  C  C87  1  0.94918000  0.32846000  0.92879000  1.0
  C  C88  1  0.37112000  0.76062000  0.16108000  1.0
  C  C89  1  0.12960000  0.59853000  0.83860000  1.0
  C  C90  1  0.62899000  0.23911000  0.83853000  1.0
  C  C91  1  0.87072000  0.40154000  0.16119000  1.0
  C  C92  1  0.18135000  0.91441000  0.44925000  1.0
  C  C93  1  0.31951000  0.46532000  0.55120000  1.0
  C  C94  1  0.81901000  0.08545000  0.55057000  1.0
  C  C95  1  0.68073000  0.53443000  0.44857000  1.0
  C  C96  1  0.25418000  0.83514000  0.41007000  1.0
  C  C97  1  0.24696000  0.42468000  0.59032000  1.0
  C  C98  1  0.74611000  0.16462000  0.58970000  1.0
  C  C99  1  0.75319000  0.57522000  0.40951000  1.0
  C  C100  1  0.26310000  0.80242000  0.31466000  1.0
  C  C101  1  0.23782000  0.48703000  0.68566000  1.0
  C  C102  1  0.73724000  0.19740000  0.68517000  1.0
  C  C103  1  0.76238000  0.51287000  0.31415000  1.0
  C  C104  1  0.32882000  0.72535000  0.27832000  1.0
  C  C105  1  0.17177000  0.44602000  0.72161000  1.0
  C  C106  1  0.67145000  0.27442000  0.72138000  1.0
  C  C107  1  0.82837000  0.55394000  0.27821000  1.0
  C  C108  1  0.38090000  0.67786000  0.33708000  1.0
  C  C109  1  0.11972000  0.33980000  0.66270000  1.0
  C  C110  1  0.61929000  0.32184000  0.66259000  1.0
  C  C111  1  0.88038000  0.66015000  0.33714000  1.0
  C  C112  1  0.37677000  0.71570000  0.43474000  1.0
  C  C113  1  0.12434000  0.28031000  0.56522000  1.0
  C  C114  1  0.62336000  0.28391000  0.56492000  1.0
  C  C115  1  0.87576000  0.71967000  0.43463000  1.0
  C  C116  1  0.31350000  0.79385000  0.47115000  1.0
  C  C117  1  0.18777000  0.32230000  0.52905000  1.0
  C  C118  1  0.68665000  0.20577000  0.52852000  1.0
  C  C119  1  0.81228000  0.67767000  0.47078000  1.0
  C  C120  1  0.44264000  0.67644000  0.50247000  1.0
  C  C121  1  0.05835000  0.17351000  0.49721000  1.0
  C  C122  1  0.55729000  0.32299000  0.49715000  1.0
  C  C123  1  0.94187000  0.82644000  0.50267000  1.0
  C  C124  1  0.77661000  0.51085000  0.78607000  1.0
  C  C125  1  0.72386000  0.72537000  0.21326000  1.0
  C  C126  1  0.22384000  0.48982000  0.21433000  1.0
  C  C127  1  0.27628000  0.27466000  0.78645000  1.0
  C  C128  1  0.81851000  0.49502000  0.65871000  1.0
  C  C129  1  0.68142000  0.83689000  0.34021000  1.0
  C  C130  1  0.18166000  0.50454000  0.34123000  1.0
  C  C131  1  0.31850000  0.16315000  0.65936000  1.0
  C  C132  1  0.88338000  0.43755000  0.70374000  1.0
  C  C133  1  0.61666000  0.73436000  0.29527000  1.0
  C  C134  1  0.11685000  0.56239000  0.29665000  1.0
  C  C135  1  0.38324000  0.26564000  0.70421000  1.0
  C  C136  1  0.82606000  0.79127000  0.77677000  1.0
  C  C137  1  0.67511000  0.01517000  0.22224000  1.0
  C  C138  1  0.17350000  0.20873000  0.21749000  1.0
  C  C139  1  0.32549000  0.98479000  0.77682000  1.0
  C  C140  1  0.79993000  0.94849000  0.81132000  1.0
  C  C141  1  0.70189000  0.13829000  0.18835000  1.0
  C  C142  1  0.19433000  0.05419000  0.19687000  1.0
  C  C143  1  0.29975000  0.86107000  0.81024000  1.0
  C  C144  1  0.69597000  0.87760000  0.75831000  1.0
  C  C145  1  0.80562000  0.12010000  0.24136000  1.0
  C  C146  1  0.29930000  0.12344000  0.25003000  1.0
  C  C147  1  0.19563000  0.87932000  0.75791000  1.0
  N  N148  1  0.34771000  0.69234000  0.18723000  1.0
  N  N149  1  0.15253000  0.50402000  0.81256000  1.0
  N  N150  1  0.65250000  0.30743000  0.81247000  1.0
  N  N151  1  0.84768000  0.49602000  0.18727000  1.0
  N  N152  1  0.75207000  0.54120000  0.71202000  1.0
  N  N153  1  0.74822000  0.82976000  0.28716000  1.0
  N  N154  1  0.24829000  0.45887000  0.28794000  1.0
  N  N155  1  0.25186000  0.17030000  0.71258000  1.0
  N  N156  1  0.85734000  0.44959000  0.78372000  1.0
  N  N157  1  0.64302000  0.66643000  0.21556000  1.0
  N  N158  1  0.14301000  0.55103000  0.21693000  1.0
  N  N159  1  0.35705000  0.33358000  0.78403000  1.0
  N  N160  1  0.71527000  0.77979000  0.73751000  1.0
  N  N161  1  0.78594000  0.04276000  0.26170000  1.0
  N  N162  1  0.28341000  0.21966000  0.26222000  1.0
  N  N163  1  0.21466000  0.95696000  0.73778000  1.0
  N  N164  1  0.87898000  0.89240000  0.82237000  1.0
  N  N165  1  0.62260000  0.07106000  0.17685000  1.0
  N  N166  1  0.11809000  0.10964000  0.17707000  1.0
  N  N167  1  0.37864000  0.92862000  0.82156000  1.0
  O  O168  1  0.54443000  0.73066000  0.80643000  1.0
  O  O169  1  0.95896000  0.92538000  0.19413000  1.0
  O  O170  1  0.45526000  0.26899000  0.19295000  1.0
  O  O171  1  0.04350000  0.07571000  0.80669000  1.0
  O  O172  1  0.55278000  0.56435000  0.78074000  1.0
  O  O173  1  0.94737000  0.78422000  0.21856000  1.0
  O  O174  1  0.44721000  0.43535000  0.21882000  1.0
  O  O175  1  0.05221000  0.21610000  0.78072000  1.0
  O  O176  1  0.12085000  0.94251000  0.38906000  1.0
  O  O177  1  0.37989000  0.55366000  0.61143000  1.0
  O  O178  1  0.87960000  0.05744000  0.61076000  1.0
  O  O179  1  0.62020000  0.44622000  0.38829000  1.0
  O  O180  1  0.18643000  0.94729000  0.54072000  1.0
  O  O181  1  0.31416000  0.40708000  0.45964000  1.0
  O  O182  1  0.81385000  0.05252000  0.45906000  1.0
  O  O183  1  0.68629000  0.59245000  0.54024000  1.0
  O  O184  1  0.46219000  0.58044000  0.46382000  1.0
  O  O185  1  0.03803000  0.11607000  0.53558000  1.0
  O  O186  1  0.53807000  0.41908000  0.53569000  1.0
  O  O187  1  0.96220000  0.88386000  0.46428000  1.0
  O  O188  1  0.47971000  0.73861000  0.59613000  1.0
  O  O189  1  0.02188000  0.14219000  0.40353000  1.0
  O  O190  1  0.51985000  0.26063000  0.40355000  1.0
  O  O191  1  0.97855000  0.85767000  0.59632000  1.0
