# generated using pymatgen
data_ZnH23C34SN3O10
_symmetry_space_group_name_H-M   'P 1'
_cell_length_a   8.12592000
_cell_length_b   10.09310000
_cell_length_c   19.06550000
_cell_angle_alpha   102.67700000
_cell_angle_beta   97.33930000
_cell_angle_gamma   93.12910000
_symmetry_Int_Tables_number   1
_chemical_formula_structural   ZnH23C34SN3O10
_chemical_formula_sum   'Zn2 H46 C68 S2 N6 O20'
_cell_volume   1507.52844787
_cell_formula_units_Z   2
loop_
 _symmetry_equiv_pos_site_id
 _symmetry_equiv_pos_as_xyz
  1  'x, y, z'
loop_
 _atom_site_type_symbol
 _atom_site_label
 _atom_site_symmetry_multiplicity
 _atom_site_fract_x
 _atom_site_fract_y
 _atom_site_fract_z
 _atom_site_occupancy
  Zn  Zn0  1  0.51900000  0.57607000  0.27554000  1.0
  Zn  Zn1  1  0.48100000  0.42393000  0.72446000  1.0
  H  H2  1  0.34548000  0.82953000  0.44302000  1.0
  H  H3  1  0.65452000  0.17047000  0.55698000  1.0
  H  H4  1  0.07875000  0.41356000  0.88497000  1.0
  H  H5  1  0.92125000  0.58644000  0.11503000  1.0
  H  H6  1  0.90359000  0.81047000  0.44877000  1.0
  H  H7  1  0.09641000  0.18953000  0.55124000  1.0
  H  H8  1  0.06321000  0.91979000  0.56970000  1.0
  H  H9  1  0.93680000  0.08021000  0.43030000  1.0
  H  H10  1  0.60093000  0.94877000  0.65930000  1.0
  H  H11  1  0.39908000  0.05123000  0.34070000  1.0
  H  H12  1  0.24007000  0.88618000  0.71738000  1.0
  H  H13  1  0.75993000  0.11382000  0.28262000  1.0
  H  H14  1  0.82739000  0.71048000  0.85425000  1.0
  H  H15  1  0.17260000  0.28951000  0.14575000  1.0
  H  H16  1  0.75601000  0.89131000  0.78934000  1.0
  H  H17  1  0.24398000  0.10869000  0.21066000  1.0
  H  H18  1  0.30522000  0.52715000  0.13549000  1.0
  H  H19  1  0.69478000  0.47285000  0.86451000  1.0
  H  H20  1  0.21951000  0.65714000  0.04171000  1.0
  H  H21  1  0.78048000  0.34286000  0.95829000  1.0
  H  H22  1  0.53584000  0.00290000  0.17584000  1.0
  H  H23  1  0.46416000  0.99709000  0.82416000  1.0
  H  H24  1  0.61549000  0.85724000  0.26163000  1.0
  H  H25  1  0.38451000  0.14275000  0.73837000  1.0
  H  H26  1  0.22835000  0.86001000  0.99967000  1.0
  H  H27  1  0.77166000  0.13998000  0.00033000  1.0
  H  H28  1  0.43308000  0.11101000  0.10306000  1.0
  H  H29  1  0.56692000  0.88898000  0.89694000  1.0
  H  H30  1  0.45784000  0.31037000  0.05933000  1.0
  H  H31  1  0.54217000  0.68963000  0.94067000  1.0
  H  H32  1  0.33344000  0.46025000  0.98004000  1.0
  H  H33  1  0.66656000  0.53975000  0.01996000  1.0
  H  H34  1  0.98302000  0.15147000  0.86573000  1.0
  H  H35  1  0.01698000  0.84853000  0.13427000  1.0
  H  H36  1  0.09022000  0.98759000  0.93703000  1.0
  H  H37  1  0.90978000  0.01241000  0.06297000  1.0
  H  H38  1  0.15574000  0.62944000  0.26594000  1.0
  H  H39  1  0.84426000  0.37057000  0.73405000  1.0
  H  H40  1  0.94119000  0.61485000  0.34666000  1.0
  H  H41  1  0.05881000  0.38515000  0.65334000  1.0
  H  H42  1  0.26764000  0.37770000  0.45755000  1.0
  H  H43  1  0.73235000  0.62230000  0.54245000  1.0
  H  H44  1  0.46031000  0.38822000  0.36738000  1.0
  H  H45  1  0.53969000  0.61178000  0.63262000  1.0
  H  H46  1  0.85379000  0.53762000  0.44956000  1.0
  H  H47  1  0.14621000  0.46238000  0.55044000  1.0
  C  C48  1  0.58275000  0.76327000  0.40803000  1.0
  C  C49  1  0.41725000  0.23673000  0.59197000  1.0
  C  C50  1  0.66337000  0.82284000  0.48482000  1.0
  C  C51  1  0.33663000  0.17716000  0.51518000  1.0
  C  C52  1  0.83820000  0.84256000  0.49522000  1.0
  C  C53  1  0.16181000  0.15744000  0.50478000  1.0
  C  C54  1  0.92791000  0.90438000  0.56258000  1.0
  C  C55  1  0.07210000  0.09562000  0.43742000  1.0
  C  C56  1  0.83958000  0.94516000  0.62075000  1.0
  C  C57  1  0.16042000  0.05485000  0.37925000  1.0
  C  C58  1  0.66772000  0.91985000  0.61311000  1.0
  C  C59  1  0.33228000  0.08016000  0.38689000  1.0
  C  C60  1  0.57586000  0.85970000  0.54512000  1.0
  C  C61  1  0.42414000  0.14031000  0.45488000  1.0
  C  C62  1  0.39036000  0.83807000  0.54735000  1.0
  C  C63  1  0.60965000  0.16193000  0.45266000  1.0
  C  C64  1  0.99761000  0.90336000  0.75274000  1.0
  C  C65  1  0.00238000  0.09664000  0.24726000  1.0
  C  C66  1  0.15333000  0.85192000  0.75015000  1.0
  C  C67  1  0.84666000  0.14808000  0.24985000  1.0
  C  C68  1  0.19284000  0.75042000  0.78701000  1.0
  C  C69  1  0.80715000  0.24957000  0.21299000  1.0
  C  C70  1  0.07623000  0.70084000  0.82578000  1.0
  C  C71  1  0.92377000  0.29915000  0.17421000  1.0
  C  C72  1  0.91940000  0.75121000  0.82595000  1.0
  C  C73  1  0.08060000  0.24879000  0.17404000  1.0
  C  C74  1  0.87884000  0.85332000  0.78952000  1.0
  C  C75  1  0.12115000  0.14667000  0.21048000  1.0
  C  C76  1  0.35205000  0.68321000  0.77772000  1.0
  C  C77  1  0.64795000  0.31679000  0.22228000  1.0
  C  C78  1  0.12689000  0.59875000  0.86920000  1.0
  C  C79  1  0.87311000  0.40126000  0.13080000  1.0
  C  C80  1  0.35503000  0.63213000  0.14161000  1.0
  C  C81  1  0.64496000  0.36787000  0.85839000  1.0
  C  C82  1  0.30624000  0.70522000  0.09016000  1.0
  C  C83  1  0.69376000  0.29478000  0.90984000  1.0
  C  C84  1  0.36925000  0.84181000  0.10052000  1.0
  C  C85  1  0.63074000  0.15819000  0.89948000  1.0
  C  C86  1  0.48351000  0.89719000  0.16360000  1.0
  C  C87  1  0.51649000  0.10281000  0.83640000  1.0
  C  C88  1  0.52700000  0.81749000  0.21250000  1.0
  C  C89  1  0.47300000  0.18250000  0.78750000  1.0
  C  C90  1  0.31005000  0.91901000  0.04761000  1.0
  C  C91  1  0.68995000  0.08099000  0.95239000  1.0
  C  C92  1  0.34862000  0.05387000  0.05535000  1.0
  C  C93  1  0.65139000  0.94613000  0.94465000  1.0
  C  C94  1  0.28228000  0.13635000  0.00635000  1.0
  C  C95  1  0.71772000  0.86365000  0.99365000  1.0
  C  C96  1  0.35111000  0.27176000  0.01747000  1.0
  C  C97  1  0.64890000  0.72825000  0.98253000  1.0
  C  C98  1  0.28421000  0.35491000  0.97398000  1.0
  C  C99  1  0.71579000  0.64509000  0.02602000  1.0
  C  C100  1  0.08803000  0.18180000  0.90925000  1.0
  C  C101  1  0.91197000  0.81820000  0.09075000  1.0
  C  C102  1  0.14899000  0.09131000  0.94945000  1.0
  C  C103  1  0.85101000  0.90869000  0.05055000  1.0
  C  C104  1  0.17424000  0.57240000  0.30817000  1.0
  C  C105  1  0.82576000  0.42760000  0.69183000  1.0
  C  C106  1  0.05642000  0.56608000  0.35421000  1.0
  C  C107  1  0.94358000  0.43392000  0.64579000  1.0
  C  C108  1  0.09096000  0.50204000  0.41223000  1.0
  C  C109  1  0.90904000  0.49796000  0.58777000  1.0
  C  C110  1  0.23813000  0.43490000  0.41611000  1.0
  C  C111  1  0.76187000  0.56510000  0.58389000  1.0
  C  C112  1  0.34616000  0.44043000  0.36627000  1.0
  C  C113  1  0.65384000  0.55958000  0.63373000  1.0
  C  C114  1  0.97848000  0.50984000  0.46622000  1.0
  C  C115  1  0.02152000  0.49016000  0.53378000  1.0
  S  S116  1  0.94901000  0.03434000  0.70645000  1.0
  S  S117  1  0.05099000  0.96565000  0.29355000  1.0
  N  N118  1  0.31792000  0.51226000  0.31443000  1.0
  N  N119  1  0.68208000  0.48774000  0.68557000  1.0
  N  N120  1  0.46355000  0.68689000  0.20203000  1.0
  N  N121  1  0.53644000  0.31311000  0.79797000  1.0
  N  N122  1  0.15300000  0.31191000  0.92166000  1.0
  N  N123  1  0.84700000  0.68809000  0.07834000  1.0
  O  O124  1  0.44532000  0.80188000  0.38413000  1.0
  O  O125  1  0.55469000  0.19812000  0.61587000  1.0
  O  O126  1  0.66171000  0.67559000  0.36899000  1.0
  O  O127  1  0.33830000  0.32442000  0.63101000  1.0
  O  O128  1  0.28334000  0.82902000  0.48750000  1.0
  O  O129  1  0.71666000  0.17098000  0.51250000  1.0
  O  O130  1  0.34102000  0.83240000  0.60521000  1.0
  O  O131  1  0.65898000  0.16760000  0.39479000  1.0
  O  O132  1  0.83434000  0.11686000  0.74572000  1.0
  O  O133  1  0.16567000  0.88314000  0.25428000  1.0
  O  O134  1  0.10320000  0.09803000  0.69337000  1.0
  O  O135  1  0.89681000  0.90197000  0.30663000  1.0
  O  O136  1  0.32306000  0.55209000  0.75645000  1.0
  O  O137  1  0.67694000  0.44791000  0.24355000  1.0
  O  O138  1  0.48928000  0.75091000  0.78795000  1.0
  O  O139  1  0.51072000  0.24909000  0.21205000  1.0
  O  O140  1  0.25636000  0.62287000  0.91370000  1.0
  O  O141  1  0.74364000  0.37714000  0.08630000  1.0
  O  O142  1  0.02332000  0.48858000  0.85740000  1.0
  O  O143  1  0.97668000  0.51142000  0.14260000  1.0
