# generated using pymatgen
data_SnH12C14Br2(NO2)2
_symmetry_space_group_name_H-M   'P 1'
_cell_length_a   7.51548000
_cell_length_b   8.17558000
_cell_length_c   14.94211615
_cell_angle_alpha   104.43367301
_cell_angle_beta   103.90150377
_cell_angle_gamma   93.32140000
_symmetry_Int_Tables_number   1
_chemical_formula_structural   SnH12C14Br2(NO2)2
_chemical_formula_sum   'Sn2 H24 C28 Br4 N4 O8'
_cell_volume   856.26889514
_cell_formula_units_Z   2
loop_
 _symmetry_equiv_pos_site_id
 _symmetry_equiv_pos_as_xyz
  1  'x, y, z'
loop_
 _atom_site_type_symbol
 _atom_site_label
 _atom_site_symmetry_multiplicity
 _atom_site_fract_x
 _atom_site_fract_y
 _atom_site_fract_z
 _atom_site_occupancy
  Sn  Sn0  1  0.31289000  0.23467000  0.59443000  1.0
  Sn  Sn1  1  0.68712000  0.76533000  0.40557000  1.0
  H  H2  1  0.29484000  0.65295000  0.59825000  1.0
  H  H3  1  0.70516000  0.34707000  0.40176000  1.0
  H  H4  1  0.48171000  0.44702000  0.82664000  1.0
  H  H5  1  0.51829000  0.55298000  0.17337000  1.0
  H  H6  1  0.51990000  0.99582000  0.88010000  1.0
  H  H7  1  0.48008000  0.00418000  0.11991000  1.0
  H  H8  1  0.12440000  0.93499000  0.25818000  1.0
  H  H9  1  0.87561000  0.06500000  0.74182000  1.0
  H  H10  1  0.94397000  0.14070000  0.02897000  1.0
  H  H11  1  0.05604000  0.85927000  0.97102000  1.0
  H  H12  1  0.11580000  0.47678000  0.31666000  1.0
  H  H13  1  0.88421000  0.52321000  0.68333000  1.0
  H  H14  1  0.62273000  0.38064000  0.57469000  1.0
  H  H15  1  0.37728000  0.61937000  0.42531000  1.0
  H  H16  1  0.63371000  0.15627000  0.55997000  1.0
  H  H17  1  0.36629000  0.84373000  0.44003000  1.0
  H  H18  1  0.67385000  0.29784000  0.67805000  1.0
  H  H19  1  0.32615000  0.70217000  0.32195000  1.0
  H  H20  1  0.05066000  0.29475000  0.68621000  1.0
  H  H21  1  0.94933000  0.70524000  0.31378000  1.0
  H  H22  1  0.95680000  0.13651000  0.57404000  1.0
  H  H23  1  0.04321000  0.86349000  0.42595000  1.0
  H  H24  1  0.98944000  0.35742000  0.57613000  1.0
  H  H25  1  0.01056000  0.64258000  0.42386000  1.0
  C  C26  1  0.36981000  0.99323000  0.69535000  1.0
  C  C27  1  0.63020000  0.00678000  0.30466000  1.0
  C  C28  1  0.40203000  0.84304000  0.73485000  1.0
  C  C29  1  0.59797000  0.15697000  0.26516000  1.0
  C  C30  1  0.35598000  0.67673000  0.67500000  1.0
  C  C31  1  0.64403000  0.32328000  0.32501000  1.0
  C  C32  1  0.46062000  0.56170000  0.80258000  1.0
  C  C33  1  0.53937000  0.43830000  0.19742000  1.0
  C  C34  1  0.50985000  0.72411000  0.86632000  1.0
  C  C35  1  0.49013000  0.27589000  0.13369000  1.0
  C  C36  1  0.48169000  0.86725000  0.83265000  1.0
  C  C37  1  0.51830000  0.13275000  0.16736000  1.0
  C  C38  1  0.19992000  0.23340000  0.40550000  1.0
  C  C39  1  0.80008000  0.76660000  0.59450000  1.0
  C  C40  1  0.12833000  0.20894000  0.30031000  1.0
  C  C41  1  0.87168000  0.79106000  0.69969000  1.0
  C  C42  1  0.09623000  0.04845000  0.23375000  1.0
  C  C43  1  0.90378000  0.95154000  0.76625000  1.0
  C  C44  1  0.99476000  0.16224000  0.10648000  1.0
  C  C45  1  0.00524000  0.83774000  0.89351000  1.0
  C  C46  1  0.02296000  0.32651000  0.16846000  1.0
  C  C47  1  0.97704000  0.67347000  0.83153000  1.0
  C  C48  1  0.09113000  0.35122000  0.26637000  1.0
  C  C49  1  0.90887000  0.64876000  0.73362000  1.0
  C  C50  1  0.59761000  0.27227000  0.60268000  1.0
  C  C51  1  0.40239000  0.72774000  0.39731000  1.0
  C  C52  1  0.04237000  0.25889000  0.60954000  1.0
  C  C53  1  0.95763000  0.74111000  0.39045000  1.0
  Br  Br54  1  0.61520000  0.74786000  0.99823000  1.0
  Br  Br55  1  0.38477000  0.25216000  0.00179000  1.0
  Br  Br56  1  0.97173000  0.51669000  0.11923000  1.0
  Br  Br57  1  0.02827000  0.48329000  0.88077000  1.0
  N  N58  1  0.38533000  0.54013000  0.70861000  1.0
  N  N59  1  0.61466000  0.45988000  0.29139000  1.0
  N  N60  1  0.03198000  0.02559000  0.13909000  1.0
  N  N61  1  0.96803000  0.97440000  0.86091000  1.0
  O  O62  1  0.30990000  0.96309000  0.60372000  1.0
  O  O63  1  0.69011000  0.03692000  0.39629000  1.0
  O  O64  1  0.40250000  0.14281000  0.75064000  1.0
  O  O65  1  0.59750000  0.85721000  0.24937000  1.0
  O  O66  1  0.23383000  0.38184000  0.46277000  1.0
  O  O67  1  0.76617000  0.61817000  0.53722000  1.0
  O  O68  1  0.22460000  0.10050000  0.43631000  1.0
  O  O69  1  0.77542000  0.89951000  0.56370000  1.0
