# generated using pymatgen
data_Zn2H13C20N5O7
_symmetry_space_group_name_H-M   'P 1'
_cell_length_a   11.56450000
_cell_length_b   13.12230000
_cell_length_c   14.57450000
_cell_angle_alpha   90.00000000
_cell_angle_beta   90.00010000
_cell_angle_gamma   95.77040000
_symmetry_Int_Tables_number   1
_chemical_formula_structural   Zn2H13C20N5O7
_chemical_formula_sum   'Zn8 H52 C80 N20 O28'
_cell_volume   2200.51446964
_cell_formula_units_Z   4
loop_
 _symmetry_equiv_pos_site_id
 _symmetry_equiv_pos_as_xyz
  1  'x, y, z'
loop_
 _atom_site_type_symbol
 _atom_site_label
 _atom_site_symmetry_multiplicity
 _atom_site_fract_x
 _atom_site_fract_y
 _atom_site_fract_z
 _atom_site_occupancy
  Zn  Zn0  1  0.60834000  0.50883000  0.94202000  1.0
  Zn  Zn1  1  0.39166000  0.99117000  0.44202000  1.0
  Zn  Zn2  1  0.39166000  0.49117000  0.05798000  1.0
  Zn  Zn3  1  0.60834000  0.00883000  0.55798000  1.0
  Zn  Zn4  1  0.82295000  0.62677000  0.78794000  1.0
  Zn  Zn5  1  0.17705000  0.87323000  0.28794000  1.0
  Zn  Zn6  1  0.17705000  0.37323000  0.21206000  1.0
  Zn  Zn7  1  0.82295000  0.12677000  0.71206000  1.0
  H  H8  1  0.50288000  0.76185000  0.75904000  1.0
  H  H9  1  0.49712000  0.73814000  0.25904000  1.0
  H  H10  1  0.49712000  0.23814000  0.24096000  1.0
  H  H11  1  0.50288000  0.26185000  0.74096000  1.0
  H  H12  1  0.18480000  0.78546000  0.61014000  1.0
  H  H13  1  0.81520000  0.71454000  0.11015000  1.0
  H  H14  1  0.81520000  0.21454000  0.38985000  1.0
  H  H15  1  0.18480000  0.28546000  0.88985000  1.0
  H  H16  1  0.18338000  0.59652000  0.85141000  1.0
  H  H17  1  0.81662000  0.90348000  0.35142000  1.0
  H  H18  1  0.81662000  0.40348000  0.14859000  1.0
  H  H19  1  0.18338000  0.09652000  0.64859000  1.0
  H  H20  1  0.77290000  0.75323000  0.60166000  1.0
  H  H21  1  0.22710000  0.74677000  0.10166000  1.0
  H  H22  1  0.22710000  0.24677000  0.39834000  1.0
  H  H23  1  0.77290000  0.25323000  0.89834000  1.0
  H  H24  1  0.55810000  0.71428000  0.51517000  1.0
  H  H25  1  0.44190000  0.78571000  0.01517000  1.0
  H  H26  1  0.44190000  0.28571000  0.48483000  1.0
  H  H27  1  0.55810000  0.21429000  0.98483000  1.0
  H  H28  1  0.58699000  0.49881000  0.72989000  1.0
  H  H29  1  0.41301000  0.00119000  0.22989000  1.0
  H  H30  1  0.41301000  0.50119000  0.27011000  1.0
  H  H31  1  0.58699000  0.99881000  0.77011000  1.0
  H  H32  1  0.41708000  0.43640000  0.70515000  1.0
  H  H33  1  0.58292000  0.06360000  0.20515000  1.0
  H  H34  1  0.58292000  0.56360000  0.29485000  1.0
  H  H35  1  0.41708000  0.93640000  0.79485000  1.0
  H  H36  1  0.21654000  0.36473000  0.66273000  1.0
  H  H37  1  0.78346000  0.13526000  0.16273000  1.0
  H  H38  1  0.78347000  0.63527000  0.33727000  1.0
  H  H39  1  0.21653000  0.86474000  0.83727000  1.0
  H  H40  1  0.11566000  0.44193000  0.53126000  1.0
  H  H41  1  0.88434000  0.05807000  0.03126000  1.0
  H  H42  1  0.88434000  0.55806000  0.46874000  1.0
  H  H43  1  0.11566000  0.94194000  0.96874000  1.0
  H  H44  1  0.08549000  0.48422000  0.37912000  1.0
  H  H45  1  0.91451000  0.01578000  0.87912000  1.0
  H  H46  1  0.91451000  0.51578000  0.62087000  1.0
  H  H47  1  0.08549000  0.98422000  0.12087000  1.0
  H  H48  1  0.03688000  0.64263000  0.26304000  1.0
  H  H49  1  0.96312000  0.85737000  0.76304000  1.0
  H  H50  1  0.96312000  0.35737000  0.73696000  1.0
  H  H51  1  0.03688000  0.14263000  0.23696000  1.0
  H  H52  1  0.30778000  0.75314000  0.44319000  1.0
  H  H53  1  0.69222000  0.74686000  0.94319000  1.0
  H  H54  1  0.69222000  0.24686000  0.55681000  1.0
  H  H55  1  0.30779000  0.25314000  0.05681000  1.0
  H  H56  1  0.81570000  0.49212000  0.90719000  1.0
  H  H57  1  0.18430000  0.00788000  0.40718000  1.0
  H  H58  1  0.18430000  0.50788000  0.09281000  1.0
  H  H59  1  0.81570000  0.99212000  0.59282000  1.0
  C  C60  1  0.34987000  0.67362000  0.81260000  1.0
  C  C61  1  0.65013000  0.82638000  0.31260000  1.0
  C  C62  1  0.65013000  0.32638000  0.18740000  1.0
  C  C63  1  0.34987000  0.17362000  0.68740000  1.0
  C  C64  1  0.40976000  0.74134000  0.75083000  1.0
  C  C65  1  0.59024000  0.75866000  0.25083000  1.0
  C  C66  1  0.59024000  0.25866000  0.24917000  1.0
  C  C67  1  0.40976000  0.24134000  0.74917000  1.0
  C  C68  1  0.35010000  0.78304000  0.67874000  1.0
  C  C69  1  0.64990000  0.71696000  0.17874000  1.0
  C  C70  1  0.64990000  0.21696000  0.32126000  1.0
  C  C71  1  0.35010000  0.28304000  0.82126000  1.0
  C  C72  1  0.23125000  0.75405000  0.66684000  1.0
  C  C73  1  0.76875000  0.74595000  0.16684000  1.0
  C  C74  1  0.76875000  0.24595000  0.33316000  1.0
  C  C75  1  0.23125000  0.25405000  0.83316000  1.0
  C  C76  1  0.17078000  0.68663000  0.72845000  1.0
  C  C77  1  0.82922000  0.81337000  0.22845000  1.0
  C  C78  1  0.82922000  0.31337000  0.27155000  1.0
  C  C79  1  0.17078000  0.18664000  0.77155000  1.0
  C  C80  1  0.23021000  0.64776000  0.80230000  1.0
  C  C81  1  0.76979000  0.85223000  0.30230000  1.0
  C  C82  1  0.76980000  0.35223000  0.19770000  1.0
  C  C83  1  0.23020000  0.14777000  0.69770000  1.0
  C  C84  1  0.41429000  0.62556000  0.88766000  1.0
  C  C85  1  0.58571000  0.87444000  0.38766000  1.0
  C  C86  1  0.58571000  0.37444000  0.11234000  1.0
  C  C87  1  0.41429000  0.12556000  0.61234000  1.0
  C  C88  1  0.41107000  0.86034000  0.61501000  1.0
  C  C89  1  0.58893000  0.63966000  0.11501000  1.0
  C  C90  1  0.58894000  0.13966000  0.38499000  1.0
  C  C91  1  0.41107000  0.36034000  0.88500000  1.0
  C  C92  1  0.04184000  0.66143000  0.71683000  1.0
  C  C93  1  0.95816000  0.83858000  0.21683000  1.0
  C  C94  1  0.95816000  0.33857000  0.28317000  1.0
  C  C95  1  0.04184000  0.16143000  0.78317000  1.0
  C  C96  1  0.70196000  0.69476000  0.61474000  1.0
  C  C97  1  0.29804000  0.80524000  0.11474000  1.0
  C  C98  1  0.29805000  0.30525000  0.38526000  1.0
  C  C99  1  0.70195000  0.19475000  0.88526000  1.0
  C  C100  1  0.59736000  0.67634000  0.57112000  1.0
  C  C101  1  0.40264000  0.82366000  0.07112000  1.0
  C  C102  1  0.40264000  0.32366000  0.42887000  1.0
  C  C103  1  0.59737000  0.17634000  0.92887000  1.0
  C  C104  1  0.60975000  0.56165000  0.68279000  1.0
  C  C105  1  0.39025000  0.93835000  0.18279000  1.0
  C  C106  1  0.39025000  0.43835000  0.31721000  1.0
  C  C107  1  0.60975000  0.06165000  0.81721000  1.0
  C  C108  1  0.42506000  0.54795000  0.59471000  1.0
  C  C109  1  0.57494000  0.95205000  0.09471000  1.0
  C  C110  1  0.57495000  0.45205000  0.40529000  1.0
  C  C111  1  0.42505000  0.04795000  0.90529000  1.0
  C  C112  1  0.37254000  0.46725000  0.64739000  1.0
  C  C113  1  0.62746000  0.03274000  0.14739000  1.0
  C  C114  1  0.62746000  0.53274000  0.35261000  1.0
  C  C115  1  0.37254000  0.96726000  0.85261000  1.0
  C  C116  1  0.26029000  0.42806000  0.62357000  1.0
  C  C117  1  0.73971000  0.07194000  0.12357000  1.0
  C  C118  1  0.73972000  0.57194000  0.37643000  1.0
  C  C119  1  0.26029000  0.92806000  0.87643000  1.0
  C  C120  1  0.20397000  0.47042000  0.55040000  1.0
  C  C121  1  0.79603000  0.02957000  0.05040000  1.0
  C  C122  1  0.79603000  0.52957000  0.44960000  1.0
  C  C123  1  0.20397000  0.97043000  0.94960000  1.0
  C  C124  1  0.26503000  0.55196000  0.50406000  1.0
  C  C125  1  0.73497000  0.94804000  0.00406000  1.0
  C  C126  1  0.73497000  0.44804000  0.49594000  1.0
  C  C127  1  0.26503000  0.05196000  0.99594000  1.0
  C  C128  1  0.12122000  0.56377000  0.37579000  1.0
  C  C129  1  0.87877000  0.93623000  0.87579000  1.0
  C  C130  1  0.87878000  0.43624000  0.62421000  1.0
  C  C131  1  0.12123000  0.06377000  0.12421000  1.0
  C  C132  1  0.09906000  0.64236000  0.31862000  1.0
  C  C133  1  0.90093000  0.85764000  0.81862000  1.0
  C  C134  1  0.90094000  0.35764000  0.68138000  1.0
  C  C135  1  0.09907000  0.14236000  0.18138000  1.0
  C  C136  1  0.24205000  0.70282000  0.40778000  1.0
  C  C137  1  0.75795000  0.79718000  0.90778000  1.0
  C  C138  1  0.75795000  0.29718000  0.59222000  1.0
  C  C139  1  0.24205000  0.20282000  0.09222000  1.0
  N  N140  1  0.70835000  0.62277000  0.68390000  1.0
  N  N141  1  0.29165000  0.87722000  0.18390000  1.0
  N  N142  1  0.29165000  0.37722000  0.31610000  1.0
  N  N143  1  0.70835000  0.12278000  0.81610000  1.0
  N  N144  1  0.53938000  0.59168000  0.61470000  1.0
  N  N145  1  0.46062000  0.90832000  0.11469000  1.0
  N  N146  1  0.46062000  0.40832000  0.38530000  1.0
  N  N147  1  0.53938000  0.09168000  0.88530000  1.0
  N  N148  1  0.37355000  0.58969000  0.52431000  1.0
  N  N149  1  0.62645000  0.91031000  0.02431000  1.0
  N  N150  1  0.62645000  0.41031000  0.47569000  1.0
  N  N151  1  0.37355000  0.08969000  0.97569000  1.0
  N  N152  1  0.21252000  0.60296000  0.43170000  1.0
  N  N153  1  0.78748000  0.89704000  0.93170000  1.0
  N  N154  1  0.78748000  0.39704000  0.56830000  1.0
  N  N155  1  0.21252000  0.10296000  0.06831000  1.0
  N  N156  1  0.17424000  0.72837000  0.33983000  1.0
  N  N157  1  0.82576000  0.77163000  0.83983000  1.0
  N  N158  1  0.82576000  0.27163000  0.66017000  1.0
  N  N159  1  0.17424000  0.22837000  0.16017000  1.0
  O  O160  1  0.52157000  0.61762000  0.87324000  1.0
  O  O161  1  0.47842000  0.88238000  0.37324000  1.0
  O  O162  1  0.47843000  0.38238000  0.12676000  1.0
  O  O163  1  0.52157000  0.11762000  0.62676000  1.0
  O  O164  1  0.35620000  0.59534000  0.95863000  1.0
  O  O165  1  0.64379000  0.90466000  0.45863000  1.0
  O  O166  1  0.64380000  0.40466000  0.04138000  1.0
  O  O167  1  0.35620000  0.09534000  0.54138000  1.0
  O  O168  1  0.51009000  0.90304000  0.64007000  1.0
  O  O169  1  0.48991000  0.59695000  0.14007000  1.0
  O  O170  1  0.48991000  0.09695000  0.35993000  1.0
  O  O171  1  0.51010000  0.40304000  0.85993000  1.0
  O  O172  1  0.35781000  0.87828000  0.54149000  1.0
  O  O173  1  0.64219000  0.62172000  0.04150000  1.0
  O  O174  1  0.64219000  0.12172000  0.45851000  1.0
  O  O175  1  0.35781000  0.37828000  0.95851000  1.0
  O  O176  1  0.99093000  0.69331000  0.64816000  1.0
  O  O177  1  0.00907000  0.80669000  0.14816000  1.0
  O  O178  1  0.00907000  0.30669000  0.35184000  1.0
  O  O179  1  0.99093000  0.19331000  0.85184000  1.0
  O  O180  1  0.99014000  0.60839000  0.78310000  1.0
  O  O181  1  0.00985000  0.89161000  0.28310000  1.0
  O  O182  1  0.00986000  0.39161000  0.21690000  1.0
  O  O183  1  0.99014000  0.10839000  0.71690000  1.0
  O  O184  1  0.75558000  0.52237000  0.87330000  1.0
  O  O185  1  0.24442000  0.97763000  0.37330000  1.0
  O  O186  1  0.24442000  0.47763000  0.12670000  1.0
  O  O187  1  0.75558000  0.02237000  0.62670000  1.0
