# generated using pymatgen
data_AgH2(CO)2
_symmetry_space_group_name_H-M   'P 1'
_cell_length_a   8.41113000
_cell_length_b   8.41116000
_cell_length_c   10.00350000
_cell_angle_alpha   114.30700000
_cell_angle_beta   114.30600000
_cell_angle_gamma   91.17960000
_symmetry_Int_Tables_number   1
_chemical_formula_structural   AgH2(CO)2
_chemical_formula_sum   'Ag8 H16 C16 O16'
_cell_volume   572.22311474
_cell_formula_units_Z   8
loop_
 _symmetry_equiv_pos_site_id
 _symmetry_equiv_pos_as_xyz
  1  'x, y, z'
loop_
 _atom_site_type_symbol
 _atom_site_label
 _atom_site_symmetry_multiplicity
 _atom_site_fract_x
 _atom_site_fract_y
 _atom_site_fract_z
 _atom_site_occupancy
  Ag  Ag0  1  0.97467000  0.22461000  0.94942000  1.0
  Ag  Ag1  1  0.02533000  0.77539000  0.05058000  1.0
  Ag  Ag2  1  0.72461000  0.47468000  0.44942000  1.0
  Ag  Ag3  1  0.27539000  0.52533000  0.55058000  1.0
  Ag  Ag4  1  0.25233000  0.50239000  0.24988000  1.0
  Ag  Ag5  1  0.00239000  0.75233000  0.74988000  1.0
  Ag  Ag6  1  0.74767000  0.49761000  0.75012000  1.0
  Ag  Ag7  1  0.99761000  0.24767000  0.25013000  1.0
  H  H8  1  0.57338000  0.59617000  0.18926000  1.0
  H  H9  1  0.38408000  0.90679000  0.81076000  1.0
  H  H10  1  0.09617000  0.07338000  0.68927000  1.0
  H  H11  1  0.40680000  0.88408000  0.31076000  1.0
  H  H12  1  0.42662000  0.40383000  0.81074000  1.0
  H  H13  1  0.61592000  0.09321000  0.18924000  1.0
  H  H14  1  0.90383000  0.92662000  0.31073000  1.0
  H  H15  1  0.59320000  0.11592000  0.68925000  1.0
  H  H16  1  0.64512000  0.66863000  0.07493000  1.0
  H  H17  1  0.57011000  0.09348000  0.92486000  1.0
  H  H18  1  0.16863000  0.14512000  0.57493000  1.0
  H  H19  1  0.59348000  0.07011000  0.42486000  1.0
  H  H20  1  0.35488000  0.33137000  0.92506000  1.0
  H  H21  1  0.42989000  0.90652000  0.07514000  1.0
  H  H22  1  0.83136000  0.85488000  0.42507000  1.0
  H  H23  1  0.40652000  0.92989000  0.57514000  1.0
  C  C24  1  0.72687000  0.43515000  0.08384000  1.0
  C  C25  1  0.64297000  0.85120000  0.91620000  1.0
  C  C26  1  0.93515000  0.22687000  0.58384000  1.0
  C  C27  1  0.35121000  0.14297000  0.41621000  1.0
  C  C28  1  0.27313000  0.56485000  0.91616000  1.0
  C  C29  1  0.35703000  0.14879000  0.08379000  1.0
  C  C30  1  0.06485000  0.77313000  0.41616000  1.0
  C  C31  1  0.64880000  0.85703000  0.58379000  1.0
  C  C32  1  0.59031000  0.55064000  0.07742000  1.0
  C  C33  1  0.51282000  0.97311000  0.92254000  1.0
  C  C34  1  0.05064000  0.09031000  0.57742000  1.0
  C  C35  1  0.47311000  0.01282000  0.42254000  1.0
  C  C36  1  0.40969000  0.44935000  0.92258000  1.0
  C  C37  1  0.48718000  0.02689000  0.07746000  1.0
  C  C38  1  0.94935000  0.90969000  0.42258000  1.0
  C  C39  1  0.52689000  0.98718000  0.57746000  1.0
  O  O40  1  0.76367000  0.37373000  0.96286000  1.0
  O  O41  1  0.80067000  0.91073000  0.03719000  1.0
  O  O42  1  0.87373000  0.26367000  0.46284000  1.0
  O  O43  1  0.41073000  0.30066000  0.53719000  1.0
  O  O44  1  0.23633000  0.62627000  0.03715000  1.0
  O  O45  1  0.19934000  0.08927000  0.96281000  1.0
  O  O46  1  0.12627000  0.73633000  0.53715000  1.0
  O  O47  1  0.58927000  0.69934000  0.46281000  1.0
  O  O48  1  0.09483000  0.70542000  0.29148000  1.0
  O  O49  1  0.80345000  0.91399000  0.70843000  1.0
  O  O50  1  0.20543000  0.59482000  0.79148000  1.0
  O  O51  1  0.41399000  0.30346000  0.20843000  1.0
  O  O52  1  0.90517000  0.29458000  0.70852000  1.0
  O  O53  1  0.19655000  0.08601000  0.29157000  1.0
  O  O54  1  0.79457000  0.40517000  0.20852000  1.0
  O  O55  1  0.58602000  0.69654000  0.79157000  1.0
