# generated using pymatgen
data_Zn4H32C58O13
_symmetry_space_group_name_H-M   'P 1'
_cell_length_a   21.65430000
_cell_length_b   21.65430000
_cell_length_c   34.51200000
_cell_angle_alpha   90.00000000
_cell_angle_beta   90.00010000
_cell_angle_gamma   89.99950000
_symmetry_Int_Tables_number   1
_chemical_formula_structural   Zn4H32C58O13
_chemical_formula_sum   'Zn8 H64 C116 O26'
_cell_volume   16182.97734677
_cell_formula_units_Z   2
loop_
 _symmetry_equiv_pos_site_id
 _symmetry_equiv_pos_as_xyz
  1  'x, y, z'
loop_
 _atom_site_type_symbol
 _atom_site_label
 _atom_site_symmetry_multiplicity
 _atom_site_fract_x
 _atom_site_fract_y
 _atom_site_fract_z
 _atom_site_occupancy
  Zn  Zn0  1  0.44748000  0.55252000  0.03257000  1.0
  Zn  Zn1  1  0.44748000  0.44748000  0.96743000  1.0
  Zn  Zn2  1  0.55252000  0.44748000  0.03257000  1.0
  Zn  Zn3  1  0.55252000  0.55252000  0.96743000  1.0
  Zn  Zn4  1  0.55252000  0.44748000  0.46743000  1.0
  Zn  Zn5  1  0.44748000  0.44748000  0.53257000  1.0
  Zn  Zn6  1  0.44748000  0.55252000  0.46743000  1.0
  Zn  Zn7  1  0.55252000  0.55252000  0.53257000  1.0
  H  H8  1  0.56965000  0.25672000  0.04424000  1.0
  H  H9  1  0.56994000  0.14154000  0.04438000  1.0
  H  H10  1  0.43035000  0.25672000  0.95576000  1.0
  H  H11  1  0.43006000  0.14154000  0.95562000  1.0
  H  H12  1  0.49990000  0.05716000  0.93761000  1.0
  H  H13  1  0.50010000  0.05716000  0.06239000  1.0
  H  H14  1  0.43035000  0.74328000  0.04424000  1.0
  H  H15  1  0.43006000  0.85846000  0.04438000  1.0
  H  H16  1  0.56965000  0.74328000  0.95576000  1.0
  H  H17  1  0.56994000  0.85846000  0.95562000  1.0
  H  H18  1  0.49990000  0.94283000  0.06239000  1.0
  H  H19  1  0.50010000  0.94284000  0.93761000  1.0
  H  H20  1  0.42991000  0.57008000  0.15163000  1.0
  H  H21  1  0.38878000  0.61121000  0.21418000  1.0
  H  H22  1  0.57010000  0.42991000  0.15163000  1.0
  H  H23  1  0.61122000  0.38879000  0.21418000  1.0
  H  H24  1  0.57009000  0.42990000  0.34837000  1.0
  H  H25  1  0.61121000  0.38878000  0.28582000  1.0
  H  H26  1  0.42991000  0.57009000  0.34837000  1.0
  H  H27  1  0.38879000  0.61122000  0.28582000  1.0
  H  H28  1  0.42990000  0.42991000  0.84837000  1.0
  H  H29  1  0.38878000  0.38879000  0.78582000  1.0
  H  H30  1  0.57010000  0.57009000  0.84837000  1.0
  H  H31  1  0.61122000  0.61121000  0.78582000  1.0
  H  H32  1  0.57009000  0.57010000  0.65163000  1.0
  H  H33  1  0.61121000  0.61122000  0.71418000  1.0
  H  H34  1  0.42992000  0.42990000  0.65163000  1.0
  H  H35  1  0.38879000  0.38878000  0.71418000  1.0
  H  H36  1  0.74327000  0.42946000  0.04370000  1.0
  H  H37  1  0.85846000  0.42926000  0.04388000  1.0
  H  H38  1  0.74327000  0.57053000  0.95630000  1.0
  H  H39  1  0.85846000  0.57074000  0.95612000  1.0
  H  H40  1  0.94283000  0.59944000  0.99994000  1.0
  H  H41  1  0.94283000  0.40056000  0.00006000  1.0
  H  H42  1  0.25673000  0.42946000  0.95630000  1.0
  H  H43  1  0.14154000  0.42926000  0.95612000  1.0
  H  H44  1  0.25673000  0.57054000  0.04370000  1.0
  H  H45  1  0.14154000  0.57074000  0.04388000  1.0
  H  H46  1  0.05717000  0.40056000  0.99994000  1.0
  H  H47  1  0.05717000  0.59944000  0.00006000  1.0
  H  H48  1  0.25672000  0.56965000  0.45576000  1.0
  H  H49  1  0.14154000  0.56994000  0.45562000  1.0
  H  H50  1  0.25672000  0.43035000  0.54424000  1.0
  H  H51  1  0.14154000  0.43006000  0.54438000  1.0
  H  H52  1  0.05717000  0.49990000  0.56239000  1.0
  H  H53  1  0.05717000  0.50010000  0.43761000  1.0
  H  H54  1  0.74328000  0.43035000  0.45576000  1.0
  H  H55  1  0.85846000  0.43006000  0.45562000  1.0
  H  H56  1  0.74328000  0.56965000  0.54424000  1.0
  H  H57  1  0.85846000  0.56994000  0.54438000  1.0
  H  H58  1  0.94284000  0.49990000  0.43761000  1.0
  H  H59  1  0.94284000  0.50010000  0.56239000  1.0
  H  H60  1  0.42946000  0.74327000  0.45630000  1.0
  H  H61  1  0.42926000  0.85846000  0.45612000  1.0
  H  H62  1  0.57054000  0.74327000  0.54370000  1.0
  H  H63  1  0.57074000  0.85846000  0.54388000  1.0
  H  H64  1  0.59944000  0.94283000  0.50006000  1.0
  H  H65  1  0.40056000  0.94283000  0.49994000  1.0
  H  H66  1  0.42947000  0.25673000  0.54370000  1.0
  H  H67  1  0.42926000  0.14154000  0.54388000  1.0
  H  H68  1  0.57054000  0.25673000  0.45630000  1.0
  H  H69  1  0.57074000  0.14154000  0.45612000  1.0
  H  H70  1  0.40056000  0.05717000  0.50006000  1.0
  H  H71  1  0.59944000  0.05717000  0.49994000  1.0
  C  C72  1  0.33250000  0.50000000  0.00000000  1.0
  C  C73  1  0.50000000  0.33249000  0.00000000  1.0
  C  C74  1  0.50000000  0.50000000  0.10460000  1.0
  C  C75  1  0.66750000  0.50000000  0.00000000  1.0
  C  C76  1  0.50001000  0.66751000  0.00000000  1.0
  C  C77  1  0.50001000  0.50000000  0.89540000  1.0
  C  C78  1  0.50000000  0.33250000  0.50000000  1.0
  C  C79  1  0.33249000  0.49999000  0.50000000  1.0
  C  C80  1  0.50000000  0.49999000  0.39540000  1.0
  C  C81  1  0.50000000  0.66750000  0.50000000  1.0
  C  C82  1  0.66751000  0.50000000  0.50000000  1.0
  C  C83  1  0.50000000  0.50000000  0.60460000  1.0
  C  C84  1  0.50000000  0.26363000  0.00000000  1.0
  C  C85  1  0.53904000  0.23093000  0.02512000  1.0
  C  C86  1  0.53876000  0.16672000  0.02522000  1.0
  C  C87  1  0.46096000  0.23093000  0.97488000  1.0
  C  C88  1  0.46124000  0.16672000  0.97478000  1.0
  C  C89  1  0.50000000  0.13354000  0.00000000  1.0
  C  C90  1  0.50000000  0.06540000  1.00000000  1.0
  C  C91  1  0.49964000  0.03212000  0.96504000  1.0
  C  C92  1  0.50036000  0.03212000  0.03496000  1.0
  C  C93  1  0.50000000  0.73637000  0.00000000  1.0
  C  C94  1  0.46096000  0.76906000  0.02512000  1.0
  C  C95  1  0.46124000  0.83327000  0.02522000  1.0
  C  C96  1  0.53904000  0.76906000  0.97487000  1.0
  C  C97  1  0.53876000  0.83328000  0.97478000  1.0
  C  C98  1  0.50000000  0.86646000  0.00000000  1.0
  C  C99  1  0.50000000  0.93460000  1.00000000  1.0
  C  C100  1  0.49964000  0.96788000  0.03496000  1.0
  C  C101  1  0.50036000  0.96788000  0.96504000  1.0
  C  C102  1  0.46032000  0.53968000  0.16805000  1.0
  C  C103  1  0.45955000  0.54045000  0.20866000  1.0
  C  C104  1  0.41949000  0.58051000  0.23023000  1.0
  C  C105  1  0.53968000  0.46032000  0.16805000  1.0
  C  C106  1  0.54045000  0.45955000  0.20866000  1.0
  C  C107  1  0.58051000  0.41949000  0.23023000  1.0
  C  C108  1  0.53968000  0.46032000  0.33195000  1.0
  C  C109  1  0.54045000  0.45955000  0.29133000  1.0
  C  C110  1  0.58051000  0.41949000  0.26977000  1.0
  C  C111  1  0.46032000  0.53968000  0.33195000  1.0
  C  C112  1  0.45955000  0.54045000  0.29134000  1.0
  C  C113  1  0.41949000  0.58051000  0.26977000  1.0
  C  C114  1  0.50000000  0.50000000  0.14791000  1.0
  C  C115  1  0.50000000  0.50000000  0.22941000  1.0
  C  C116  1  0.50000000  0.50000000  0.35209000  1.0
  C  C117  1  0.50000000  0.50000000  0.27059000  1.0
  C  C118  1  0.46032000  0.46032000  0.83195000  1.0
  C  C119  1  0.45955000  0.45955000  0.79134000  1.0
  C  C120  1  0.41949000  0.41949000  0.76977000  1.0
  C  C121  1  0.53968000  0.53968000  0.83195000  1.0
  C  C122  1  0.54045000  0.54045000  0.79134000  1.0
  C  C123  1  0.58051000  0.58051000  0.76977000  1.0
  C  C124  1  0.53968000  0.53968000  0.66805000  1.0
  C  C125  1  0.54045000  0.54045000  0.70866000  1.0
  C  C126  1  0.58051000  0.58051000  0.73023000  1.0
  C  C127  1  0.46032000  0.46032000  0.66805000  1.0
  C  C128  1  0.45955000  0.45955000  0.70867000  1.0
  C  C129  1  0.41949000  0.41949000  0.73023000  1.0
  C  C130  1  0.50000000  0.50000000  0.85209000  1.0
  C  C131  1  0.50000000  0.50000000  0.77059000  1.0
  C  C132  1  0.50000000  0.50000000  0.64791000  1.0
  C  C133  1  0.50000000  0.50000000  0.72941000  1.0
  C  C134  1  0.73635000  0.50000000  1.00000000  1.0
  C  C135  1  0.76905000  0.45994000  0.02448000  1.0
  C  C136  1  0.83326000  0.45980000  0.02432000  1.0
  C  C137  1  0.76905000  0.54006000  0.97551000  1.0
  C  C138  1  0.83326000  0.54020000  0.97568000  1.0
  C  C139  1  0.86645000  0.50000000  1.00000000  1.0
  C  C140  1  0.93460000  0.50000000  0.00000000  1.0
  C  C141  1  0.96788000  0.55572000  0.99978000  1.0
  C  C142  1  0.96788000  0.44428000  0.00022000  1.0
  C  C143  1  0.26365000  0.50000000  0.00000000  1.0
  C  C144  1  0.23095000  0.45994000  0.97551000  1.0
  C  C145  1  0.16674000  0.45980000  0.97568000  1.0
  C  C146  1  0.23095000  0.54006000  0.02449000  1.0
  C  C147  1  0.16674000  0.54020000  0.02432000  1.0
  C  C148  1  0.13355000  0.50000000  1.00000000  1.0
  C  C149  1  0.06540000  0.50000000  1.00000000  1.0
  C  C150  1  0.03212000  0.44428000  0.99978000  1.0
  C  C151  1  0.03212000  0.55572000  0.00022000  1.0
  C  C152  1  0.26363000  0.50000000  0.50000000  1.0
  C  C153  1  0.23093000  0.53904000  0.47488000  1.0
  C  C154  1  0.16673000  0.53877000  0.47478000  1.0
  C  C155  1  0.23093000  0.46096000  0.52513000  1.0
  C  C156  1  0.16672000  0.46124000  0.52522000  1.0
  C  C157  1  0.13354000  0.50000000  0.50000000  1.0
  C  C158  1  0.06540000  0.50000000  0.50000000  1.0
  C  C159  1  0.03212000  0.49964000  0.53496000  1.0
  C  C160  1  0.03212000  0.50036000  0.46504000  1.0
  C  C161  1  0.73637000  0.50000000  0.50000000  1.0
  C  C162  1  0.76907000  0.46096000  0.47488000  1.0
  C  C163  1  0.83328000  0.46124000  0.47478000  1.0
  C  C164  1  0.76907000  0.53904000  0.52512000  1.0
  C  C165  1  0.83328000  0.53876000  0.52522000  1.0
  C  C166  1  0.86647000  0.50000000  0.50000000  1.0
  C  C167  1  0.93460000  0.50000000  0.50000000  1.0
  C  C168  1  0.96788000  0.49964000  0.46504000  1.0
  C  C169  1  0.96788000  0.50036000  0.53496000  1.0
  C  C170  1  0.50000000  0.73635000  0.50000000  1.0
  C  C171  1  0.45994000  0.76905000  0.47551000  1.0
  C  C172  1  0.45980000  0.83326000  0.47568000  1.0
  C  C173  1  0.54006000  0.76905000  0.52449000  1.0
  C  C174  1  0.54020000  0.83326000  0.52432000  1.0
  C  C175  1  0.50000000  0.86645000  0.50000000  1.0
  C  C176  1  0.50000000  0.93460000  0.50000000  1.0
  C  C177  1  0.55572000  0.96788000  0.50022000  1.0
  C  C178  1  0.44428000  0.96788000  0.49978000  1.0
  C  C179  1  0.50000000  0.26365000  0.50000000  1.0
  C  C180  1  0.45994000  0.23095000  0.52449000  1.0
  C  C181  1  0.45980000  0.16674000  0.52432000  1.0
  C  C182  1  0.54006000  0.23095000  0.47551000  1.0
  C  C183  1  0.54020000  0.16674000  0.47568000  1.0
  C  C184  1  0.50000000  0.13355000  0.50000000  1.0
  C  C185  1  0.50000000  0.06540000  0.50000000  1.0
  C  C186  1  0.44428000  0.03212000  0.50022000  1.0
  C  C187  1  0.55572000  0.03212000  0.49978000  1.0
  O  O188  1  0.50000000  0.50000000  0.00000000  1.0
  O  O189  1  0.35928000  0.53731000  0.02328000  1.0
  O  O190  1  0.46280000  0.35927000  0.97665000  1.0
  O  O191  1  0.53720000  0.46279000  0.08786000  1.0
  O  O192  1  0.35928000  0.46269000  0.97672000  1.0
  O  O193  1  0.46280000  0.53720000  0.08786000  1.0
  O  O194  1  0.53720000  0.35927000  0.02335000  1.0
  O  O195  1  0.64072000  0.46269000  0.02328000  1.0
  O  O196  1  0.53719000  0.64073000  0.97665000  1.0
  O  O197  1  0.64073000  0.53731000  0.97672000  1.0
  O  O198  1  0.46280000  0.64073000  0.02335000  1.0
  O  O199  1  0.46280000  0.46279000  0.91214000  1.0
  O  O200  1  0.53720000  0.53720000  0.91213000  1.0
  O  O201  1  0.50000000  0.50000000  0.50000000  1.0
  O  O202  1  0.53731000  0.35928000  0.47672000  1.0
  O  O203  1  0.35927000  0.46281000  0.52335000  1.0
  O  O204  1  0.46279000  0.53720000  0.41214000  1.0
  O  O205  1  0.46269000  0.35927000  0.52328000  1.0
  O  O206  1  0.53720000  0.46280000  0.41214000  1.0
  O  O207  1  0.35927000  0.53720000  0.47665000  1.0
  O  O208  1  0.46269000  0.64072000  0.47672000  1.0
  O  O209  1  0.64073000  0.53720000  0.52335000  1.0
  O  O210  1  0.53731000  0.64072000  0.52328000  1.0
  O  O211  1  0.64073000  0.46281000  0.47665000  1.0
  O  O212  1  0.46280000  0.46280000  0.58786000  1.0
  O  O213  1  0.53721000  0.53720000  0.58786000  1.0
