# generated using pymatgen
data_KH10C14S2NO8
_symmetry_space_group_name_H-M   'P 1'
_cell_length_a   7.21674000
_cell_length_b   11.32340000
_cell_length_c   19.25800000
_cell_angle_alpha   90.00000000
_cell_angle_beta   95.48150000
_cell_angle_gamma   90.00000000
_symmetry_Int_Tables_number   1
_chemical_formula_structural   KH10C14S2NO8
_chemical_formula_sum   'K4 H40 C56 S8 N4 O32'
_cell_volume   1566.52939229
_cell_formula_units_Z   4
loop_
 _symmetry_equiv_pos_site_id
 _symmetry_equiv_pos_as_xyz
  1  'x, y, z'
loop_
 _atom_site_type_symbol
 _atom_site_label
 _atom_site_symmetry_multiplicity
 _atom_site_fract_x
 _atom_site_fract_y
 _atom_site_fract_z
 _atom_site_occupancy
  K  K0  1  0.32449000  0.64133000  0.48612000  1.0
  K  K1  1  0.82449000  0.85867000  0.48612000  1.0
  K  K2  1  0.67551000  0.35867000  0.51388000  1.0
  K  K3  1  0.17549000  0.14133000  0.51387000  1.0
  H  H4  1  0.15883000  0.23001000  0.69615000  1.0
  H  H5  1  0.65883000  0.26999000  0.69615000  1.0
  H  H6  1  0.84117000  0.76999000  0.30385000  1.0
  H  H7  1  0.34117000  0.73001000  0.30385000  1.0
  H  H8  1  0.31363000  0.21178000  0.81810000  1.0
  H  H9  1  0.81362000  0.28822000  0.81810000  1.0
  H  H10  1  0.68638000  0.78822000  0.18190000  1.0
  H  H11  1  0.18638000  0.71178000  0.18190000  1.0
  H  H12  1  0.58027000  0.54688000  0.79719000  1.0
  H  H13  1  0.08027000  0.95312000  0.79719000  1.0
  H  H14  1  0.41973000  0.45312000  0.20281000  1.0
  H  H15  1  0.91972000  0.04688000  0.20281000  1.0
  H  H16  1  0.43430000  0.56397000  0.67427000  1.0
  H  H17  1  0.93431000  0.93603000  0.67427000  1.0
  H  H18  1  0.56569000  0.43603000  0.32573000  1.0
  H  H19  1  0.06569000  0.06397000  0.32573000  1.0
  H  H20  1  0.88200000  0.44895000  0.74231000  1.0
  H  H21  1  0.38200000  0.05105000  0.74231000  1.0
  H  H22  1  0.11800000  0.55105000  0.25769000  1.0
  H  H23  1  0.61800000  0.94895000  0.25769000  1.0
  H  H24  1  0.01015000  0.45966000  0.86806000  1.0
  H  H25  1  0.51015000  0.04034000  0.86806000  1.0
  H  H26  1  0.98986000  0.54035000  0.13194000  1.0
  H  H27  1  0.48986000  0.95966000  0.13194000  1.0
  H  H28  1  0.27154000  0.79089000  0.82895000  1.0
  H  H29  1  0.77154000  0.70911000  0.82895000  1.0
  H  H30  1  0.72846000  0.20911000  0.17105000  1.0
  H  H31  1  0.22846000  0.29089000  0.17105000  1.0
  H  H32  1  0.14582000  0.77880000  0.70236000  1.0
  H  H33  1  0.64582000  0.72119000  0.70235000  1.0
  H  H34  1  0.85418000  0.22120000  0.29764000  1.0
  H  H35  1  0.35419000  0.27881000  0.29764000  1.0
  H  H36  1  0.57846000  0.28169000  0.97302000  1.0
  H  H37  1  0.07847000  0.21831000  0.97302000  1.0
  H  H38  1  0.42154000  0.71831000  0.02698000  1.0
  H  H39  1  0.92154000  0.78169000  0.02698000  1.0
  H  H40  1  0.26149000  0.54138000  0.01578000  1.0
  H  H41  1  0.76149000  0.95862000  0.01578000  1.0
  H  H42  1  0.73851000  0.45862000  0.98422000  1.0
  H  H43  1  0.23851000  0.04138000  0.98422000  1.0
  C  C44  1  0.28821000  0.39801000  0.67924000  1.0
  C  C45  1  0.78821000  0.10199000  0.67924000  1.0
  C  C46  1  0.71179000  0.60199000  0.32076000  1.0
  C  C47  1  0.21178000  0.89801000  0.32076000  1.0
  C  C48  1  0.25320000  0.29802000  0.71847000  1.0
  C  C49  1  0.75320000  0.20198000  0.71847000  1.0
  C  C50  1  0.74680000  0.70198000  0.28153000  1.0
  C  C51  1  0.24680000  0.79802000  0.28153000  1.0
  C  C52  1  0.33818000  0.28849000  0.78629000  1.0
  C  C53  1  0.83817000  0.21151000  0.78629000  1.0
  C  C54  1  0.66183000  0.71151000  0.21371000  1.0
  C  C55  1  0.16183000  0.78849000  0.21371000  1.0
  C  C56  1  0.45418000  0.37881000  0.81464000  1.0
  C  C57  1  0.95418000  0.12119000  0.81464000  1.0
  C  C58  1  0.54582000  0.62120000  0.18536000  1.0
  C  C59  1  0.04582000  0.87880000  0.18536000  1.0
  C  C60  1  0.48992000  0.47763000  0.77406000  1.0
  C  C61  1  0.98992000  0.02237000  0.77406000  1.0
  C  C62  1  0.51008000  0.52237000  0.22594000  1.0
  C  C63  1  0.01008000  0.97763000  0.22594000  1.0
  C  C64  1  0.40851000  0.48728000  0.70606000  1.0
  C  C65  1  0.90851000  0.01272000  0.70606000  1.0
  C  C66  1  0.59149000  0.51272000  0.29394000  1.0
  C  C67  1  0.09149000  0.98728000  0.29394000  1.0
  C  C68  1  0.54272000  0.37401000  0.88746000  1.0
  C  C69  1  0.04272000  0.12599000  0.88746000  1.0
  C  C70  1  0.45728000  0.62599000  0.11254000  1.0
  C  C71  1  0.95727000  0.87401000  0.11254000  1.0
  C  C72  1  0.00786000  0.61324000  0.71623000  1.0
  C  C73  1  0.50786000  0.88675000  0.71622000  1.0
  C  C74  1  0.99214000  0.38675000  0.28377000  1.0
  C  C75  1  0.49214000  0.11325000  0.28378000  1.0
  C  C76  1  0.96736000  0.52310000  0.76194000  1.0
  C  C77  1  0.46736000  0.97690000  0.76194000  1.0
  C  C78  1  0.03264000  0.47690000  0.23806000  1.0
  C  C79  1  0.53264000  0.02310000  0.23806000  1.0
  C  C80  1  0.03853000  0.52929000  0.83162000  1.0
  C  C81  1  0.53853000  0.97071000  0.83162000  1.0
  C  C82  1  0.96147000  0.47072000  0.16838000  1.0
  C  C83  1  0.46147000  0.02928000  0.16838000  1.0
  C  C84  1  0.14885000  0.62583000  0.85529000  1.0
  C  C85  1  0.64884000  0.87417000  0.85529000  1.0
  C  C86  1  0.85116000  0.37417000  0.14471000  1.0
  C  C87  1  0.35115000  0.12583000  0.14471000  1.0
  C  C88  1  0.18572000  0.71679000  0.80923000  1.0
  C  C89  1  0.68572000  0.78321000  0.80923000  1.0
  C  C90  1  0.81428000  0.28321000  0.19077000  1.0
  C  C91  1  0.31428000  0.21679000  0.19077000  1.0
  C  C92  1  0.11606000  0.71044000  0.73942000  1.0
  C  C93  1  0.61607000  0.78956000  0.73943000  1.0
  C  C94  1  0.88394000  0.28956000  0.26057000  1.0
  C  C95  1  0.38393000  0.21044000  0.26057000  1.0
  C  C96  1  0.23161000  0.63041000  0.92898000  1.0
  C  C97  1  0.73161000  0.86959000  0.92898000  1.0
  C  C98  1  0.76839000  0.36959000  0.07102000  1.0
  C  C99  1  0.26839000  0.13041000  0.07102000  1.0
  S  S100  1  0.17412000  0.41693000  0.59384000  1.0
  S  S101  1  0.67412000  0.08307000  0.59384000  1.0
  S  S102  1  0.82588000  0.58307000  0.40616000  1.0
  S  S103  1  0.32588000  0.91693000  0.40616000  1.0
  S  S104  1  0.92828000  0.60051000  0.62608000  1.0
  S  S105  1  0.42828000  0.89949000  0.62608000  1.0
  S  S106  1  0.07172000  0.39949000  0.37392000  1.0
  S  S107  1  0.57172000  0.10051000  0.37392000  1.0
  N  N108  1  0.10126000  0.54934000  0.58874000  1.0
  N  N109  1  0.60127000  0.95066000  0.58874000  1.0
  N  N110  1  0.89874000  0.45066000  0.41126000  1.0
  N  N111  1  0.39873000  0.04934000  0.41126000  1.0
  O  O112  1  0.31738000  0.41013000  0.54529000  1.0
  O  O113  1  0.81738000  0.08987000  0.54529000  1.0
  O  O114  1  0.68262000  0.58987000  0.45471000  1.0
  O  O115  1  0.18262000  0.91013000  0.45471000  1.0
  O  O116  1  0.02981000  0.32620000  0.58540000  1.0
  O  O117  1  0.52981000  0.17380000  0.58540000  1.0
  O  O118  1  0.97019000  0.67380000  0.41461000  1.0
  O  O119  1  0.47019000  0.82620000  0.41460000  1.0
  O  O120  1  0.89926000  0.71993000  0.60005000  1.0
  O  O121  1  0.39925000  0.78008000  0.60005000  1.0
  O  O122  1  0.10075000  0.28008000  0.39995000  1.0
  O  O123  1  0.60075000  0.21992000  0.39995000  1.0
  O  O124  1  0.76840000  0.52139000  0.62186000  1.0
  O  O125  1  0.26840000  0.97861000  0.62186000  1.0
  O  O126  1  0.23161000  0.47861000  0.37814000  1.0
  O  O127  1  0.73160000  0.02139000  0.37814000  1.0
  O  O128  1  0.64273000  0.45766000  0.91102000  1.0
  O  O129  1  0.14273000  0.04234000  0.91102000  1.0
  O  O130  1  0.35727000  0.54234000  0.08898000  1.0
  O  O131  1  0.85727000  0.95766000  0.08898000  1.0
  O  O132  1  0.50979000  0.27792000  0.92289000  1.0
  O  O133  1  0.00980000  0.22208000  0.92289000  1.0
  O  O134  1  0.49020000  0.72208000  0.07711000  1.0
  O  O135  1  0.99020000  0.77792000  0.07711000  1.0
  O  O136  1  0.32651000  0.71634000  0.95241000  1.0
  O  O137  1  0.82651000  0.78366000  0.95241000  1.0
  O  O138  1  0.67349000  0.28366000  0.04759000  1.0
  O  O139  1  0.17349000  0.21634000  0.04759000  1.0
  O  O140  1  0.19759000  0.53565000  0.96543000  1.0
  O  O141  1  0.69758000  0.96435000  0.96543000  1.0
  O  O142  1  0.80241000  0.46435000  0.03457000  1.0
  O  O143  1  0.30241000  0.03565000  0.03457000  1.0
