# generated using pymatgen
data_NdH10C9O11F12
_symmetry_space_group_name_H-M   'P 1'
_cell_length_a   9.65369000
_cell_length_b   10.33090000
_cell_length_c   10.88860000
_cell_angle_alpha   83.76190000
_cell_angle_beta   86.87240000
_cell_angle_gamma   69.56770000
_symmetry_Int_Tables_number   1
_chemical_formula_structural   NdH10C9O11F12
_chemical_formula_sum   'Nd2 H20 C18 O22 F24'
_cell_volume   1011.42660575
_cell_formula_units_Z   2
loop_
 _symmetry_equiv_pos_site_id
 _symmetry_equiv_pos_as_xyz
  1  'x, y, z'
loop_
 _atom_site_type_symbol
 _atom_site_label
 _atom_site_symmetry_multiplicity
 _atom_site_fract_x
 _atom_site_fract_y
 _atom_site_fract_z
 _atom_site_occupancy
  Nd  Nd0  1  0.38799000  0.28148000  0.46915000  1.0
  Nd  Nd1  1  0.61201000  0.71852000  0.53085000  1.0
  H  H2  1  0.42584000  0.19467000  0.73998000  1.0
  H  H3  1  0.57416000  0.80534000  0.26002000  1.0
  H  H4  1  0.26908000  0.17879000  0.73677000  1.0
  H  H5  1  0.73091000  0.82121000  0.26323000  1.0
  H  H6  1  0.60744000  0.16194000  0.26600000  1.0
  H  H7  1  0.39256000  0.83806000  0.73400000  1.0
  H  H8  1  0.56287000  0.02940000  0.30656000  1.0
  H  H9  1  0.43713000  0.97060000  0.69344000  1.0
  H  H10  1  0.06678000  0.36937000  0.60982000  1.0
  H  H11  1  0.93322000  0.63062000  0.39018000  1.0
  H  H12  1  0.05971000  0.34570000  0.46972000  1.0
  H  H13  1  0.94029000  0.65430000  0.53028000  1.0
  H  H14  1  0.35779000  0.58700000  0.40647000  1.0
  H  H15  1  0.64221000  0.41300000  0.59353000  1.0
  H  H16  1  0.20298000  0.58570000  0.36635000  1.0
  H  H17  1  0.79703000  0.41430000  0.63364000  1.0
  H  H18  1  0.16981000  0.44426000  0.25250000  1.0
  H  H19  1  0.83020000  0.55574000  0.74750000  1.0
  H  H20  1  0.25752000  0.29365000  0.20921000  1.0
  H  H21  1  0.74248000  0.70634000  0.79079000  1.0
  C  C22  1  0.39251000  0.52776000  0.67499000  1.0
  C  C23  1  0.60751000  0.47226000  0.32501000  1.0
  C  C24  1  0.25608000  0.54582000  0.76468000  1.0
  C  C25  1  0.74392000  0.45417000  0.23531000  1.0
  C  C26  1  0.25111000  0.63579000  0.87284000  1.0
  C  C27  1  0.74888000  0.36422000  0.12715000  1.0
  C  C28  1  0.13250000  0.63600000  0.97718000  1.0
  C  C29  1  0.86749000  0.36401000  0.02284000  1.0
  C  C30  1  0.12046000  0.72937000  0.08366000  1.0
  C  C31  1  0.87954000  0.27062000  0.91637000  1.0
  C  C32  1  0.00075000  0.71798000  0.18440000  1.0
  C  C33  1  0.99927000  0.28202000  0.81557000  1.0
  C  C34  1  0.29200000  0.97703000  0.42738000  1.0
  C  C35  1  0.70800000  0.02297000  0.57262000  1.0
  C  C36  1  0.14406000  0.00674000  0.35958000  1.0
  C  C37  1  0.85594000  0.99327000  0.64042000  1.0
  C  C38  1  0.02193000  0.96677000  0.43785000  1.0
  C  C39  1  0.97808000  0.03323000  0.56216000  1.0
  O  O40  1  0.45018000  0.41032000  0.63389000  1.0
  O  O41  1  0.54981000  0.58967000  0.36611000  1.0
  O  O42  1  0.42896000  0.63296000  0.65159000  1.0
  O  O43  1  0.57103000  0.36705000  0.34840000  1.0
  O  O44  1  0.87574000  0.80800000  0.17358000  1.0
  O  O45  1  0.12425000  0.19200000  0.82644000  1.0
  O  O46  1  0.04580000  0.61633000  0.26818000  1.0
  O  O47  1  0.95420000  0.38366000  0.73183000  1.0
  O  O48  1  0.31839000  0.07979000  0.45691000  1.0
  O  O49  1  0.68159000  0.92023000  0.54309000  1.0
  O  O50  1  0.36970000  0.85052000  0.44348000  1.0
  O  O51  1  0.63031000  0.14948000  0.55652000  1.0
  O  O52  1  0.36774000  0.15905000  0.69111000  1.0
  O  O53  1  0.63225000  0.84095000  0.30889000  1.0
  O  O54  1  0.52582000  0.13246000  0.29825000  1.0
  O  O55  1  0.47419000  0.86754000  0.70174000  1.0
  O  O56  1  0.12385000  0.35910000  0.52928000  1.0
  O  O57  1  0.87615000  0.64090000  0.47072000  1.0
  O  O58  1  0.28207000  0.54379000  0.42720000  1.0
  O  O59  1  0.71793000  0.45621000  0.57280000  1.0
  O  O60  1  0.24191000  0.35094000  0.27713000  1.0
  O  O61  1  0.75808000  0.64906000  0.72286000  1.0
  F  F62  1  0.25639000  0.41809000  0.81547000  1.0
  F  F63  1  0.74362000  0.58190000  0.18453000  1.0
  F  F64  1  0.13015000  0.60597000  0.69639000  1.0
  F  F65  1  0.86983000  0.39404000  0.30361000  1.0
  F  F66  1  0.38841000  0.58510000  0.92407000  1.0
  F  F67  1  0.61159000  0.41488000  0.07593000  1.0
  F  F68  1  0.22382000  0.77075000  0.82559000  1.0
  F  F69  1  0.77619000  0.22925000  0.17440000  1.0
  F  F70  1  0.16405000  0.50241000  0.03058000  1.0
  F  F71  1  0.83596000  0.49758000  0.96943000  1.0
  F  F72  1  0.99719000  0.67777000  0.92304000  1.0
  F  F73  1  0.00281000  0.32222000  0.07694000  1.0
  F  F74  1  0.25744000  0.68662000  0.13769000  1.0
  F  F75  1  0.74257000  0.31338000  0.86231000  1.0
  F  F76  1  0.08763000  0.86324000  0.03484000  1.0
  F  F77  1  0.91238000  0.13674000  0.96515000  1.0
  F  F78  1  0.08537000  0.14392000  0.31671000  1.0
  F  F79  1  0.91460000  0.85609000  0.68329000  1.0
  F  F80  1  0.17275000  0.93182000  0.25849000  1.0
  F  F81  1  0.82725000  0.06818000  0.74151000  1.0
  F  F82  1  0.89750000  0.00609000  0.36771000  1.0
  F  F83  1  0.10251000  0.99390000  0.63230000  1.0
  F  F84  1  0.07034000  0.82553000  0.46239000  1.0
  F  F85  1  0.92966000  0.17447000  0.53761000  1.0
