# generated using pymatgen
data_CuH10C5N5O
_symmetry_space_group_name_H-M   'P 1'
_cell_length_a   7.90017000
_cell_length_b   9.01706000
_cell_length_c   11.37960000
_cell_angle_alpha   90.00040000
_cell_angle_beta   90.00040000
_cell_angle_gamma   78.91800000
_symmetry_Int_Tables_number   1
_chemical_formula_structural   CuH10C5N5O
_chemical_formula_sum   'Cu4 H40 C20 N20 O4'
_cell_volume   795.52474079
_cell_formula_units_Z   4
loop_
 _symmetry_equiv_pos_site_id
 _symmetry_equiv_pos_as_xyz
  1  'x, y, z'
loop_
 _atom_site_type_symbol
 _atom_site_label
 _atom_site_symmetry_multiplicity
 _atom_site_fract_x
 _atom_site_fract_y
 _atom_site_fract_z
 _atom_site_occupancy
  Cu  Cu0  1  0.68006000  0.00733000  0.92234000  1.0
  Cu  Cu1  1  0.81993000  0.49267000  0.42234000  1.0
  Cu  Cu2  1  0.31994000  0.99266000  0.07766000  1.0
  Cu  Cu3  1  0.18006000  0.50734000  0.57766000  1.0
  H  H4  1  0.85321000  0.36264000  0.88998000  1.0
  H  H5  1  0.64680000  0.13735000  0.38998000  1.0
  H  H6  1  0.14681000  0.63733000  0.11003000  1.0
  H  H7  1  0.35319000  0.86266000  0.61002000  1.0
  H  H8  1  0.92011000  0.24509000  0.76741000  1.0
  H  H9  1  0.57989000  0.25490000  0.26742000  1.0
  H  H10  1  0.07991000  0.75489000  0.23259000  1.0
  H  H11  1  0.42010000  0.74512000  0.73259000  1.0
  H  H12  1  0.55971000  0.34889000  0.87160000  1.0
  H  H13  1  0.94030000  0.15111000  0.37159000  1.0
  H  H14  1  0.44031000  0.65110000  0.12841000  1.0
  H  H15  1  0.05969000  0.84889000  0.62840000  1.0
  H  H16  1  0.62374000  0.36254000  0.72288000  1.0
  H  H17  1  0.87626000  0.13746000  0.22288000  1.0
  H  H18  1  0.37629000  0.63746000  0.27712000  1.0
  H  H19  1  0.12372000  0.86255000  0.77712000  1.0
  H  H20  1  0.35527000  0.24332000  0.68980000  1.0
  H  H21  1  0.14472000  0.25670000  0.18979000  1.0
  H  H22  1  0.64474000  0.75670000  0.31021000  1.0
  H  H23  1  0.85526000  0.74331000  0.81021000  1.0
  H  H24  1  0.35570000  0.06304000  0.75575000  1.0
  H  H25  1  0.14429000  0.43697000  0.25575000  1.0
  H  H26  1  0.64430000  0.93698000  0.24424000  1.0
  H  H27  1  0.85570000  0.56303000  0.74425000  1.0
  H  H28  1  0.33594000  0.22549000  0.84633000  1.0
  H  H29  1  0.16406000  0.27452000  0.34632000  1.0
  H  H30  1  0.66407000  0.77451000  0.15368000  1.0
  H  H31  1  0.83593000  0.72549000  0.65368000  1.0
  H  H32  1  0.62599000  0.96278000  0.65889000  1.0
  H  H33  1  0.87399000  0.53723000  0.15889000  1.0
  H  H34  1  0.37400000  0.03724000  0.34110000  1.0
  H  H35  1  0.12600000  0.46278000  0.84111000  1.0
  H  H36  1  0.80807000  0.05002000  0.67943000  1.0
  H  H37  1  0.69191000  0.44998000  0.17943000  1.0
  H  H38  1  0.19193000  0.94998000  0.32056000  1.0
  H  H39  1  0.30807000  0.55003000  0.82057000  1.0
  H  H40  1  0.62912000  0.14266000  0.59397000  1.0
  H  H41  1  0.87086000  0.35735000  0.09397000  1.0
  H  H42  1  0.37088000  0.85735000  0.40603000  1.0
  H  H43  1  0.12912000  0.64266000  0.90604000  1.0
  C  C44  1  0.99860000  0.92566000  0.03021000  1.0
  C  C45  1  0.50140000  0.57433000  0.53021000  1.0
  C  C46  1  0.00141000  0.07431000  0.96979000  1.0
  C  C47  1  0.49859000  0.42568000  0.46979000  1.0
  C  C48  1  0.82995000  0.26240000  0.84205000  1.0
  C  C49  1  0.67006000  0.23759000  0.34205000  1.0
  C  C50  1  0.17007000  0.73758000  0.15795000  1.0
  C  C51  1  0.32993000  0.76242000  0.65795000  1.0
  C  C52  1  0.64234000  0.29023000  0.80192000  1.0
  C  C53  1  0.85766000  0.20977000  0.30191000  1.0
  C  C54  1  0.35768000  0.70977000  0.19809000  1.0
  C  C55  1  0.14233000  0.79023000  0.69808000  1.0
  C  C56  1  0.39666000  0.17134000  0.76695000  1.0
  C  C57  1  0.10332000  0.32867000  0.26695000  1.0
  C  C58  1  0.60334000  0.82867000  0.23305000  1.0
  C  C59  1  0.89666000  0.67133000  0.73305000  1.0
  C  C60  1  0.66735000  0.07088000  0.67158000  1.0
  C  C61  1  0.83263000  0.42912000  0.17158000  1.0
  C  C62  1  0.33265000  0.92912000  0.32842000  1.0
  C  C63  1  0.16736000  0.57089000  0.82842000  1.0
  N  N64  1  0.85655000  0.12894000  0.91606000  1.0
  N  N65  1  0.64346000  0.37105000  0.41606000  1.0
  N  N66  1  0.14348000  0.87104000  0.08395000  1.0
  N  N67  1  0.35653000  0.62895000  0.58395000  1.0
  N  N68  1  0.58524000  0.14536000  0.77835000  1.0
  N  N69  1  0.91475000  0.35465000  0.27835000  1.0
  N  N70  1  0.41476000  0.85464000  0.22165000  1.0
  N  N71  1  0.08524000  0.64536000  0.72165000  1.0
  N  N72  1  0.51521000  0.87008000  0.92102000  1.0
  N  N73  1  0.98479000  0.62992000  0.42102000  1.0
  N  N74  1  0.48479000  0.12992000  0.07898000  1.0
  N  N75  1  0.01521000  0.37008000  0.57898000  1.0
  N  N76  1  0.56927000  0.73532000  0.92917000  1.0
  N  N77  1  0.93074000  0.76468000  0.42916000  1.0
  N  N78  1  0.43074000  0.26468000  0.07083000  1.0
  N  N79  1  0.06926000  0.23532000  0.57083000  1.0
  N  N80  1  0.61486000  0.60468000  0.93651000  1.0
  N  N81  1  0.88515000  0.89531000  0.43649000  1.0
  N  N82  1  0.38514000  0.39531000  0.06350000  1.0
  N  N83  1  0.11486000  0.10468000  0.56349000  1.0
  O  O84  1  0.86292000  0.86770000  0.02373000  1.0
  O  O85  1  0.63708000  0.63229000  0.52373000  1.0
  O  O86  1  0.13710000  0.13228000  0.97627000  1.0
  O  O87  1  0.36291000  0.36771000  0.47627000  1.0
