# generated using pymatgen
data_KH11C13O3
_symmetry_space_group_name_H-M   'P 1'
_cell_length_a   6.69477000
_cell_length_b   7.27142000
_cell_length_c   23.31450000
_cell_angle_alpha   91.04570000
_cell_angle_beta   90.00000000
_cell_angle_gamma   89.99990000
_symmetry_Int_Tables_number   1
_chemical_formula_structural   KH11C13O3
_chemical_formula_sum   'K4 H44 C52 O12'
_cell_volume   1134.77213519
_cell_formula_units_Z   4
loop_
 _symmetry_equiv_pos_site_id
 _symmetry_equiv_pos_as_xyz
  1  'x, y, z'
loop_
 _atom_site_type_symbol
 _atom_site_label
 _atom_site_symmetry_multiplicity
 _atom_site_fract_x
 _atom_site_fract_y
 _atom_site_fract_z
 _atom_site_occupancy
  K  K0  1  0.30869000  0.08434000  0.45016000  1.0
  K  K1  1  0.80869000  0.41566000  0.54984000  1.0
  K  K2  1  0.69131000  0.91566000  0.54984000  1.0
  K  K3  1  0.19131000  0.58434000  0.45016000  1.0
  H  H4  1  0.58811000  0.06958000  0.24548000  1.0
  H  H5  1  0.08811000  0.43041000  0.75452000  1.0
  H  H6  1  0.41189000  0.93042000  0.75452000  1.0
  H  H7  1  0.91189000  0.56959000  0.24548000  1.0
  H  H8  1  0.42461000  0.63703000  0.22520000  1.0
  H  H9  1  0.92461000  0.86297000  0.77480000  1.0
  H  H10  1  0.57539000  0.36297000  0.77480000  1.0
  H  H11  1  0.07539000  0.13703000  0.22520000  1.0
  H  H12  1  0.73573000  0.11517000  0.16349000  1.0
  H  H13  1  0.23573000  0.38483000  0.83651000  1.0
  H  H14  1  0.26428000  0.88484000  0.83651000  1.0
  H  H15  1  0.76427000  0.61517000  0.16349000  1.0
  H  H16  1  0.26432000  0.51650000  0.14665000  1.0
  H  H17  1  0.76432000  0.98350000  0.85335000  1.0
  H  H18  1  0.73568000  0.48349000  0.85335000  1.0
  H  H19  1  0.23568000  0.01651000  0.14665000  1.0
  H  H20  1  0.73135000  0.05903000  0.05951000  1.0
  H  H21  1  0.23135000  0.44097000  0.94049000  1.0
  H  H22  1  0.26866000  0.94097000  0.94049000  1.0
  H  H23  1  0.76865000  0.55903000  0.05951000  1.0
  H  H24  1  0.49710000  0.23591000  0.99701000  1.0
  H  H25  1  0.99710000  0.26409000  0.00299000  1.0
  H  H26  1  0.50290000  0.76409000  0.00299000  1.0
  H  H27  1  0.00290000  0.73591000  0.99701000  1.0
  H  H28  1  0.26667000  0.46635000  0.04236000  1.0
  H  H29  1  0.76667000  0.03366000  0.95764000  1.0
  H  H30  1  0.73333000  0.53365000  0.95764000  1.0
  H  H31  1  0.23333000  0.96634000  0.04236000  1.0
  H  H32  1  0.60668000  0.11644000  0.34933000  1.0
  H  H33  1  0.10668000  0.38355000  0.65067000  1.0
  H  H34  1  0.39332000  0.88356000  0.65067000  1.0
  H  H35  1  0.89332000  0.61645000  0.34933000  1.0
  H  H36  1  0.40659000  0.83570000  0.29511000  1.0
  H  H37  1  0.90659000  0.66429000  0.70489000  1.0
  H  H38  1  0.59341000  0.16430000  0.70489000  1.0
  H  H39  1  0.09341000  0.33571000  0.29511000  1.0
  H  H40  1  0.82277000  0.09625000  0.43883000  1.0
  H  H41  1  0.32277000  0.40375000  0.56117000  1.0
  H  H42  1  0.17723000  0.90375000  0.56117000  1.0
  H  H43  1  0.67723000  0.59625000  0.43883000  1.0
  H  H44  1  0.66794000  0.26256000  0.43876000  1.0
  H  H45  1  0.16794000  0.23743000  0.56124000  1.0
  H  H46  1  0.33206000  0.73743000  0.56124000  1.0
  H  H47  1  0.83205000  0.76257000  0.43876000  1.0
  C  C48  1  0.52623000  0.40464000  0.34948000  1.0
  C  C49  1  0.02622000  0.09536000  0.65052000  1.0
  C  C50  1  0.47377000  0.59536000  0.65052000  1.0
  C  C51  1  0.97378000  0.90464000  0.34948000  1.0
  C  C52  1  0.55603000  0.20590000  0.26356000  1.0
  C  C53  1  0.05603000  0.29410000  0.73644000  1.0
  C  C54  1  0.44397000  0.79410000  0.73644000  1.0
  C  C55  1  0.94397000  0.70590000  0.26356000  1.0
  C  C56  1  0.56654000  0.23154000  0.32230000  1.0
  C  C57  1  0.06654000  0.26845000  0.67770000  1.0
  C  C58  1  0.43346000  0.76846000  0.67770000  1.0
  C  C59  1  0.93346000  0.73154000  0.32230000  1.0
  C  C60  1  0.47247000  0.55207000  0.31178000  1.0
  C  C61  1  0.97246000  0.94793000  0.68822000  1.0
  C  C62  1  0.52753000  0.44793000  0.68822000  1.0
  C  C63  1  0.02753000  0.05207000  0.31178000  1.0
  C  C64  1  0.46225000  0.51990000  0.25190000  1.0
  C  C65  1  0.96225000  0.98009000  0.74810000  1.0
  C  C66  1  0.53775000  0.48009000  0.74810000  1.0
  C  C67  1  0.03775000  0.01991000  0.25189000  1.0
  C  C68  1  0.50374000  0.34980000  0.22624000  1.0
  C  C69  1  0.00374000  0.15020000  0.77376000  1.0
  C  C70  1  0.49627000  0.65020000  0.77376000  1.0
  C  C71  1  0.99627000  0.84980000  0.22624000  1.0
  C  C72  1  0.43451000  0.73916000  0.33083000  1.0
  C  C73  1  0.93451000  0.76084000  0.66917000  1.0
  C  C74  1  0.56549000  0.26084000  0.66917000  1.0
  C  C75  1  0.06549000  0.23916000  0.33082000  1.0
  C  C76  1  0.49972000  0.31930000  0.16347000  1.0
  C  C77  1  0.99972000  0.18069000  0.83653000  1.0
  C  C78  1  0.50028000  0.68070000  0.83653000  1.0
  C  C79  1  0.00028000  0.81931000  0.16347000  1.0
  C  C80  1  0.62969000  0.19058000  0.13737000  1.0
  C  C81  1  0.12969000  0.30942000  0.86263000  1.0
  C  C82  1  0.37031000  0.80942000  0.86263000  1.0
  C  C83  1  0.87031000  0.69058000  0.13737000  1.0
  C  C84  1  0.36911000  0.41745000  0.12796000  1.0
  C  C85  1  0.86912000  0.08255000  0.87205000  1.0
  C  C86  1  0.63089000  0.58255000  0.87205000  1.0
  C  C87  1  0.13089000  0.91745000  0.12795000  1.0
  C  C88  1  0.62845000  0.15990000  0.07815000  1.0
  C  C89  1  0.12845000  0.34010000  0.92185000  1.0
  C  C90  1  0.37155000  0.84010000  0.92185000  1.0
  C  C91  1  0.87155000  0.65990000  0.07815000  1.0
  C  C92  1  0.49818000  0.25861000  0.04339000  1.0
  C  C93  1  0.99818000  0.24139000  0.95661000  1.0
  C  C94  1  0.50182000  0.74139000  0.95661000  1.0
  C  C95  1  0.00181000  0.75861000  0.04339000  1.0
  C  C96  1  0.36920000  0.38769000  0.06868000  1.0
  C  C97  1  0.86920000  0.11231000  0.93133000  1.0
  C  C98  1  0.63079000  0.61231000  0.93133000  1.0
  C  C99  1  0.13079000  0.88769000  0.06867000  1.0
  O  O100  1  0.53682000  0.42332000  0.40535000  1.0
  O  O101  1  0.03682000  0.07668000  0.59465000  1.0
  O  O102  1  0.46318000  0.57667000  0.59465000  1.0
  O  O103  1  0.96318000  0.92333000  0.40535000  1.0
  O  O104  1  0.72574000  0.16432000  0.46377000  1.0
  O  O105  1  0.22573000  0.33568000  0.53623000  1.0
  O  O106  1  0.27426000  0.83567000  0.53623000  1.0
  O  O107  1  0.77426000  0.66432000  0.46377000  1.0
  O  O108  1  0.43018000  0.80021000  0.38111000  1.0
  O  O109  1  0.93017000  0.69979000  0.61889000  1.0
  O  O110  1  0.56982000  0.19980000  0.61889000  1.0
  O  O111  1  0.06982000  0.30021000  0.38111000  1.0
