# generated using pymatgen
data_CuH3C4SBrN2
_symmetry_space_group_name_H-M   'P 1'
_cell_length_a   3.95393000
_cell_length_b   7.82417157
_cell_length_c   21.57540000
_cell_angle_alpha   94.65323193
_cell_angle_beta   90.05580000
_cell_angle_gamma   104.57022088
_symmetry_Int_Tables_number   1
_chemical_formula_structural   CuH3C4SBrN2
_chemical_formula_sum   'Cu4 H12 C16 S4 Br4 N8'
_cell_volume   643.70850391
_cell_formula_units_Z   4
loop_
 _symmetry_equiv_pos_site_id
 _symmetry_equiv_pos_as_xyz
  1  'x, y, z'
loop_
 _atom_site_type_symbol
 _atom_site_label
 _atom_site_symmetry_multiplicity
 _atom_site_fract_x
 _atom_site_fract_y
 _atom_site_fract_z
 _atom_site_occupancy
  Cu  Cu0  1  0.26989000  0.01510000  0.57065000  1.0
  Cu  Cu1  1  0.25514000  0.98625000  0.92991000  1.0
  Cu  Cu2  1  0.73010000  0.98490000  0.42935000  1.0
  Cu  Cu3  1  0.74488000  0.01375000  0.07009000  1.0
  H  H4  1  0.45074000  0.45806000  0.71469000  1.0
  H  H5  1  0.98979000  0.54449000  0.78642000  1.0
  H  H6  1  0.54924000  0.54194000  0.28531000  1.0
  H  H7  1  0.01020000  0.45552000  0.21358000  1.0
  H  H8  1  0.62282000  0.44595000  0.60215000  1.0
  H  H9  1  0.17530000  0.55550000  0.89894000  1.0
  H  H10  1  0.37718000  0.55405000  0.39785000  1.0
  H  H11  1  0.82471000  0.44450000  0.10106000  1.0
  H  H12  1  0.52240000  0.68889000  0.53831000  1.0
  H  H13  1  0.83320000  0.31200000  0.96254000  1.0
  H  H14  1  0.47760000  0.31112000  0.46169000  1.0
  H  H15  1  0.16682000  0.68799000  0.03745000  1.0
  C  C16  1  0.28543000  0.82284000  0.67571000  1.0
  C  C17  1  0.46168000  0.17911000  0.82505000  1.0
  C  C18  1  0.71456000  0.17716000  0.32429000  1.0
  C  C19  1  0.53833000  0.82089000  0.17495000  1.0
  C  C20  1  0.43159000  0.56276000  0.68520000  1.0
  C  C21  1  0.86684000  0.43934000  0.81579000  1.0
  C  C22  1  0.56841000  0.43723000  0.31480000  1.0
  C  C23  1  0.13316000  0.56066000  0.18421000  1.0
  C  C24  1  0.52088000  0.55382000  0.62282000  1.0
  C  C25  1  0.96572000  0.44779000  0.87815000  1.0
  C  C26  1  0.47911000  0.44618000  0.37717000  1.0
  C  C27  1  0.03429000  0.55220000  0.12185000  1.0
  C  C28  1  0.46906000  0.68663000  0.58781000  1.0
  C  C29  1  0.78163000  0.31472000  0.91305000  1.0
  C  C30  1  0.53094000  0.31337000  0.41219000  1.0
  C  C31  1  0.21840000  0.68528000  0.08695000  1.0
  S  S32  1  0.14447000  0.01259000  0.70181000  1.0
  S  S33  1  0.13204000  0.98944000  0.79875000  1.0
  S  S34  1  0.85554000  0.98742000  0.29819000  1.0
  S  S35  1  0.86797000  0.01056000  0.20125000  1.0
  Br  Br36  1  0.88759000  0.19013000  0.54837000  1.0
  Br  Br37  1  0.69750000  0.81106000  0.95149000  1.0
  Br  Br38  1  0.11239000  0.80988000  0.45164000  1.0
  Br  Br39  1  0.30253000  0.18895000  0.04851000  1.0
  N  N40  1  0.34553000  0.82074000  0.61379000  1.0
  N  N41  1  0.52413000  0.18086000  0.88695000  1.0
  N  N42  1  0.65446000  0.17925000  0.38621000  1.0
  N  N43  1  0.47589000  0.81914000  0.11304000  1.0
  N  N44  1  0.31526000  0.69804000  0.71201000  1.0
  N  N45  1  0.61559000  0.30420000  0.78890000  1.0
  N  N46  1  0.68473000  0.30196000  0.28799000  1.0
  N  N47  1  0.38440000  0.69579000  0.21110000  1.0
