# generated using pymatgen
data_Na2CuH10(C5O6)2
_symmetry_space_group_name_H-M   'P 1'
_cell_length_a   6.88509000
_cell_length_b   8.92472000
_cell_length_c   13.03940000
_cell_angle_alpha   86.49290000
_cell_angle_beta   80.85900000
_cell_angle_gamma   67.34580000
_symmetry_Int_Tables_number   1
_chemical_formula_structural   Na2CuH10(C5O6)2
_chemical_formula_sum   'Na4 Cu2 H20 C20 O24'
_cell_volume   730.02964327
_cell_formula_units_Z   2
loop_
 _symmetry_equiv_pos_site_id
 _symmetry_equiv_pos_as_xyz
  1  'x, y, z'
loop_
 _atom_site_type_symbol
 _atom_site_label
 _atom_site_symmetry_multiplicity
 _atom_site_fract_x
 _atom_site_fract_y
 _atom_site_fract_z
 _atom_site_occupancy
  Na  Na0  1  0.57384000  0.20632000  0.63054000  1.0
  Na  Na1  1  0.21999000  0.20621000  0.86948000  1.0
  Na  Na2  1  0.42616000  0.79368000  0.36946000  1.0
  Na  Na3  1  0.78001000  0.79379000  0.13052000  1.0
  Cu  Cu4  1  0.01132000  0.97717000  0.75001000  1.0
  Cu  Cu5  1  0.98867000  0.02284000  0.25000000  1.0
  H  H6  1  0.98006000  0.48829000  0.31223000  1.0
  H  H7  1  0.53147000  0.48863000  0.18774000  1.0
  H  H8  1  0.01993000  0.51171000  0.68777000  1.0
  H  H9  1  0.46853000  0.51137000  0.81226000  1.0
  H  H10  1  0.66459000  0.17101000  0.41388000  1.0
  H  H11  1  0.16437000  0.17105000  0.08616000  1.0
  H  H12  1  0.33541000  0.82899000  0.58612000  1.0
  H  H13  1  0.83563000  0.82896000  0.91384000  1.0
  H  H14  1  0.44019000  0.15403000  0.43421000  1.0
  H  H15  1  0.40565000  0.15420000  0.06585000  1.0
  H  H16  1  0.55982000  0.84597000  0.56579000  1.0
  H  H17  1  0.59435000  0.84580000  0.93415000  1.0
  H  H18  1  0.32164000  0.56357000  0.65278000  1.0
  H  H19  1  0.11457000  0.56365000  0.84725000  1.0
  H  H20  1  0.67836000  0.43643000  0.34723000  1.0
  H  H21  1  0.88542000  0.43635000  0.15275000  1.0
  H  H22  1  0.53252000  0.56952000  0.60356000  1.0
  H  H23  1  0.89794000  0.56932000  0.89653000  1.0
  H  H24  1  0.46748000  0.43047000  0.39644000  1.0
  H  H25  1  0.10205000  0.43068000  0.10347000  1.0
  C  C26  1  0.97177000  0.64748000  0.54438000  1.0
  C  C27  1  0.38062000  0.64733000  0.95556000  1.0
  C  C28  1  0.02823000  0.35252000  0.45562000  1.0
  C  C29  1  0.61937000  0.35267000  0.04444000  1.0
  C  C30  1  0.95621000  0.64093000  0.43881000  1.0
  C  C31  1  0.40256000  0.64103000  0.06114000  1.0
  C  C32  1  0.04380000  0.35907000  0.56119000  1.0
  C  C33  1  0.59745000  0.35897000  0.93887000  1.0
  C  C34  1  0.98473000  0.49345000  0.39537000  1.0
  C  C35  1  0.52161000  0.49367000  0.10462000  1.0
  C  C36  1  0.01527000  0.50655000  0.60464000  1.0
  C  C37  1  0.47839000  0.50632000  0.89539000  1.0
  C  C38  1  0.92428000  0.80419000  0.59827000  1.0
  C  C39  1  0.27152000  0.80393000  0.90156000  1.0
  C  C40  1  0.07573000  0.19581000  0.40172000  1.0
  C  C41  1  0.72847000  0.19607000  0.09844000  1.0
  C  C42  1  0.91383000  0.78520000  0.36804000  1.0
  C  C43  1  0.30081000  0.78538000  0.13188000  1.0
  C  C44  1  0.08618000  0.21479000  0.63195000  1.0
  C  C45  1  0.69919000  0.21463000  0.86812000  1.0
  O  O46  1  0.74945000  0.91923000  0.59447000  1.0
  O  O47  1  0.33142000  0.91901000  0.90537000  1.0
  O  O48  1  0.25056000  0.08077000  0.40552000  1.0
  O  O49  1  0.66858000  0.08098000  0.09464000  1.0
  O  O50  1  0.07118000  0.80209000  0.65035000  1.0
  O  O51  1  0.12672000  0.80179000  0.84950000  1.0
  O  O52  1  0.92881000  0.19791000  0.34965000  1.0
  O  O53  1  0.87328000  0.19820000  0.15050000  1.0
  O  O54  1  0.76027000  0.82670000  0.31759000  1.0
  O  O55  1  0.41284000  0.82679000  0.18243000  1.0
  O  O56  1  0.23974000  0.17329000  0.68241000  1.0
  O  O57  1  0.58717000  0.17321000  0.81756000  1.0
  O  O58  1  0.04839000  0.85527000  0.36053000  1.0
  O  O59  1  0.09629000  0.85553000  0.13933000  1.0
  O  O60  1  0.95162000  0.14474000  0.63947000  1.0
  O  O61  1  0.90371000  0.14448000  0.86067000  1.0
  O  O62  1  0.52097000  0.21742000  0.45267000  1.0
  O  O63  1  0.26160000  0.21744000  0.04731000  1.0
  O  O64  1  0.47904000  0.78258000  0.54733000  1.0
  O  O65  1  0.73839000  0.78256000  0.95270000  1.0
  O  O66  1  0.47335000  0.49474000  0.64289000  1.0
  O  O67  1  0.03176000  0.49469000  0.85710000  1.0
  O  O68  1  0.52665000  0.50525000  0.35710000  1.0
  O  O69  1  0.96824000  0.50531000  0.14291000  1.0
