# generated using pymatgen
data_Zr3H32(C21O8)2
_symmetry_space_group_name_H-M   'P 1'
_cell_length_a   18.16730000
_cell_length_b   20.44340000
_cell_length_c   20.44980000
_cell_angle_alpha   67.08720000
_cell_angle_beta   87.42320000
_cell_angle_gamma   87.42280000
_symmetry_Int_Tables_number   1
_chemical_formula_structural   Zr3H32(C21O8)2
_chemical_formula_sum   'Zr6 H64 C84 O32'
_cell_volume   6985.63321235
_cell_formula_units_Z   2
loop_
 _symmetry_equiv_pos_site_id
 _symmetry_equiv_pos_as_xyz
  1  'x, y, z'
loop_
 _atom_site_type_symbol
 _atom_site_label
 _atom_site_symmetry_multiplicity
 _atom_site_fract_x
 _atom_site_fract_y
 _atom_site_fract_z
 _atom_site_occupancy
  Zr  Zr0  1  0.09252000  0.90652000  0.09706000  1.0
  Zr  Zr1  1  0.89684000  0.91945000  0.09598000  1.0
  Zr  Zr2  1  0.10155000  0.06447000  0.94191000  1.0
  Zr  Zr3  1  0.90586000  0.07418000  0.93766000  1.0
  Zr  Zr4  1  0.00096000  0.91746000  0.94444000  1.0
  Zr  Zr5  1  0.99749000  0.06486000  0.09183000  1.0
  H  H6  1  0.99885000  0.91458000  0.20205000  1.0
  H  H7  1  0.83782000  0.94108000  0.96873000  1.0
  H  H8  1  0.99772000  0.17513000  0.94175000  1.0
  H  H9  1  0.16279000  0.93417000  0.96082000  1.0
  H  H10  1  0.75585000  0.93937000  0.11694000  1.0
  H  H11  1  0.77035000  0.11905000  0.95437000  1.0
  H  H12  1  0.90241000  0.16970000  0.80772000  1.0
  H  H13  1  0.14191000  0.19727000  0.84445000  1.0
  H  H14  1  0.24189000  0.07817000  0.95625000  1.0
  H  H15  1  0.23900000  0.85554000  0.10955000  1.0
  H  H16  1  0.09734000  0.77686000  0.19320000  1.0
  H  H17  1  0.85782000  0.82007000  0.23096000  1.0
  H  H18  1  0.12192000  0.14671000  0.80595000  1.0
  H  H19  1  0.22624000  0.91952000  0.13459000  1.0
  H  H20  1  0.87909000  0.78396000  0.17640000  1.0
  H  H21  1  0.76086000  0.09204000  0.89239000  1.0
  H  H22  1  0.17898000  0.99269000  0.51135000  1.0
  H  H23  1  0.38414000  0.99160000  0.60889000  1.0
  H  H24  1  0.38403000  0.99418000  0.39714000  1.0
  H  H25  1  0.81822000  0.99538000  0.52047000  1.0
  H  H26  1  0.61607000  0.99379000  0.63901000  1.0
  H  H27  1  0.61045000  0.99310000  0.42880000  1.0
  H  H28  1  0.18026000  0.48514000  0.01711000  1.0
  H  H29  1  0.38532000  0.58015000  0.02162000  1.0
  H  H30  1  0.38509000  0.36971000  0.02064000  1.0
  H  H31  1  0.81882000  0.49262000  0.02475000  1.0
  H  H32  1  0.61702000  0.61300000  0.01953000  1.0
  H  H33  1  0.61089000  0.40102000  0.02336000  1.0
  H  H34  1  0.50225000  0.56829000  0.01713000  1.0
  H  H35  1  0.49719000  0.41504000  0.02506000  1.0
  H  H36  1  0.49576000  0.99585000  0.44305000  1.0
  H  H37  1  0.50189000  0.99004000  0.59539000  1.0
  H  H38  1  0.76158000  0.07833000  0.76359000  1.0
  H  H39  1  0.91334000  0.91832000  0.74670000  1.0
  H  H40  1  0.84563000  0.91750000  0.64341000  1.0
  H  H41  1  0.69172000  0.07613000  0.66254000  1.0
  H  H42  1  0.75010000  0.92126000  0.27804000  1.0
  H  H43  1  0.90276000  0.07000000  0.29021000  1.0
  H  H44  1  0.83817000  0.06906000  0.40077000  1.0
  H  H45  1  0.68473000  0.91990000  0.38817000  1.0
  H  H46  1  0.08762000  0.91778000  0.73904000  1.0
  H  H47  1  0.23709000  0.06743000  0.75453000  1.0
  H  H48  1  0.30762000  0.06663000  0.64732000  1.0
  H  H49  1  0.15669000  0.91727000  0.63101000  1.0
  H  H50  1  0.09037000  0.07289000  0.28187000  1.0
  H  H51  1  0.24469000  0.91461000  0.26519000  1.0
  H  H52  1  0.31028000  0.91373000  0.36985000  1.0
  H  H53  1  0.15450000  0.07152000  0.38788000  1.0
  H  H54  1  0.75074000  0.25069000  0.95064000  1.0
  H  H55  1  0.90145000  0.26062000  0.10192000  1.0
  H  H56  1  0.83736000  0.37159000  0.10062000  1.0
  H  H57  1  0.68552000  0.36070000  0.94946000  1.0
  H  H58  1  0.91789000  0.71575000  0.94701000  1.0
  H  H59  1  0.76271000  0.74083000  0.10070000  1.0
  H  H60  1  0.69140000  0.63978000  0.09951000  1.0
  H  H61  1  0.84840000  0.61327000  0.94674000  1.0
  H  H62  1  0.08799000  0.25884000  0.09331000  1.0
  H  H63  1  0.24717000  0.23721000  0.94100000  1.0
  H  H64  1  0.31339000  0.34136000  0.94090000  1.0
  H  H65  1  0.15298000  0.36401000  0.09301000  1.0
  H  H66  1  0.09382000  0.71625000  0.94118000  1.0
  H  H67  1  0.23622000  0.72227000  0.10039000  1.0
  H  H68  1  0.30580000  0.61511000  0.09896000  1.0
  H  H69  1  0.16153000  0.60744000  0.94067000  1.0
  C  C70  1  0.12012000  0.79059000  0.02159000  1.0
  C  C71  1  0.87015000  0.99510000  0.21219000  1.0
  C  C72  1  0.88581000  0.79514000  0.02519000  1.0
  C  C73  1  0.12514000  0.99427000  0.20393000  1.0
  C  C74  1  0.12442000  0.17913000  0.01720000  1.0
  C  C75  1  0.88189000  0.99886000  0.82333000  1.0
  C  C76  1  0.86928000  0.18321000  0.02602000  1.0
  C  C77  1  0.11639000  0.99455000  0.81678000  1.0
  C  C78  1  0.27695000  0.99251000  0.44755000  1.0
  C  C79  1  0.23911000  0.99256000  0.50875000  1.0
  C  C80  1  0.27758000  0.99254000  0.56693000  1.0
  C  C81  1  0.35471000  0.99275000  0.56312000  1.0
  C  C82  1  0.39424000  0.99292000  0.50227000  1.0
  C  C83  1  0.35413000  0.99265000  0.44521000  1.0
  C  C84  1  0.71808000  0.99384000  0.46769000  1.0
  C  C85  1  0.75814000  0.99490000  0.52449000  1.0
  C  C86  1  0.72188000  0.99546000  0.58618000  1.0
  C  C87  1  0.64467000  0.99471000  0.59056000  1.0
  C  C88  1  0.60304000  0.99319000  0.53492000  1.0
  C  C89  1  0.64107000  0.99283000  0.47357000  1.0
  C  C90  1  0.27810000  0.42074000  0.01793000  1.0
  C  C91  1  0.24034000  0.48196000  0.01808000  1.0
  C  C92  1  0.27887000  0.53935000  0.01975000  1.0
  C  C93  1  0.35589000  0.53493000  0.02133000  1.0
  C  C94  1  0.39537000  0.47428000  0.02097000  1.0
  C  C95  1  0.35526000  0.41777000  0.01931000  1.0
  C  C96  1  0.71857000  0.43986000  0.02361000  1.0
  C  C97  1  0.75875000  0.49696000  0.02381000  1.0
  C  C98  1  0.72273000  0.55937000  0.02288000  1.0
  C  C99  1  0.64552000  0.56407000  0.02164000  1.0
  C  C100  1  0.60379000  0.50793000  0.02135000  1.0
  C  C101  1  0.64162000  0.44602000  0.02230000  1.0
  C  C102  1  0.52359000  0.51630000  0.02013000  1.0
  C  C103  1  0.47556000  0.46687000  0.02227000  1.0
  C  C104  1  0.47444000  0.99364000  0.49476000  1.0
  C  C105  1  0.52286000  0.99214000  0.54361000  1.0
  C  C106  1  0.77905000  0.04268000  0.73741000  1.0
  C  C107  1  0.84158000  0.99837000  0.76142000  1.0
  C  C108  1  0.86523000  0.95327000  0.72712000  1.0
  C  C109  1  0.82730000  0.95309000  0.66956000  1.0
  C  C110  1  0.76378000  0.99660000  0.64600000  1.0
  C  C111  1  0.74017000  0.04125000  0.68101000  1.0
  C  C112  1  0.76874000  0.95361000  0.30532000  1.0
  C  C113  1  0.83048000  0.99551000  0.27760000  1.0
  C  C114  1  0.85515000  0.03707000  0.31249000  1.0
  C  C115  1  0.81909000  0.03603000  0.37434000  1.0
  C  C116  1  0.75687000  0.99436000  0.40235000  1.0
  C  C117  1  0.73217000  0.95338000  0.36658000  1.0
  C  C118  1  0.13523000  0.95101000  0.71769000  1.0
  C  C119  1  0.15738000  0.99388000  0.75216000  1.0
  C  C120  1  0.21982000  0.03522000  0.72652000  1.0
  C  C121  1  0.25933000  0.03394000  0.66717000  1.0
  C  C122  1  0.23662000  0.99244000  0.63116000  1.0
  C  C123  1  0.17393000  0.95101000  0.65743000  1.0
  C  C124  1  0.13851000  0.03810000  0.30186000  1.0
  C  C125  1  0.16429000  0.99455000  0.26651000  1.0
  C  C126  1  0.22625000  0.94976000  0.29164000  1.0
  C  C127  1  0.26255000  0.94935000  0.35017000  1.0
  C  C128  1  0.23718000  0.99288000  0.38592000  1.0
  C  C129  1  0.17423000  0.03684000  0.36116000  1.0
  C  C130  1  0.76845000  0.27689000  0.98430000  1.0
  C  C131  1  0.82951000  0.24844000  0.02692000  1.0
  C  C132  1  0.85410000  0.28318000  0.06866000  1.0
  C  C133  1  0.81844000  0.34533000  0.06737000  1.0
  C  C134  1  0.75683000  0.37397000  0.02502000  1.0
  C  C135  1  0.73228000  0.33846000  0.98374000  1.0
  C  C136  1  0.86888000  0.69777000  0.98112000  1.0
  C  C137  1  0.84513000  0.73342000  0.02495000  1.0
  C  C138  1  0.78105000  0.71209000  0.06755000  1.0
  C  C139  1  0.74116000  0.65621000  0.06611000  1.0
  C  C140  1  0.76516000  0.61925000  0.02333000  1.0
  C  C141  1  0.82989000  0.64069000  0.98114000  1.0
  C  C142  1  0.13710000  0.27791000  0.05974000  1.0
  C  C143  1  0.16362000  0.24182000  0.01712000  1.0
  C  C144  1  0.22721000  0.26528000  0.97430000  1.0
  C  C145  1  0.26418000  0.32317000  0.97472000  1.0
  C  C146  1  0.23790000  0.35983000  0.01712000  1.0
  C  C147  1  0.17342000  0.33662000  0.05916000  1.0
  C  C148  1  0.13985000  0.69304000  0.97605000  1.0
  C  C149  1  0.16081000  0.72571000  0.02093000  1.0
  C  C150  1  0.22080000  0.69709000  0.06505000  1.0
  C  C151  1  0.25953000  0.63730000  0.06403000  1.0
  C  C152  1  0.23831000  0.60362000  0.01987000  1.0
  C  C153  1  0.17771000  0.63233000  0.97612000  1.0
  O  O154  1  0.13565000  0.81211000  0.07016000  1.0
  O  O155  1  0.07322000  0.81998000  0.97348000  1.0
  O  O156  1  0.85294000  0.94767000  0.18970000  1.0
  O  O157  1  0.91877000  0.04173000  0.18391000  1.0
  O  O158  1  0.87568000  0.81251000  0.07844000  1.0
  O  O159  1  0.92667000  0.82764000  0.97051000  1.0
  O  O160  1  0.14925000  0.95221000  0.17495000  1.0
  O  O161  1  0.06829000  0.03563000  0.18458000  1.0
  O  O162  1  0.09399000  0.82460000  0.19259000  1.0
  O  O163  1  0.22391000  0.90555000  0.09356000  1.0
  O  O164  1  0.89742000  0.81368000  0.20003000  1.0
  O  O165  1  0.78609000  0.91563000  0.09196000  1.0
  O  O166  1  0.99834000  0.89338000  0.05210000  1.0
  O  O167  1  0.99612000  0.93846000  0.15078000  1.0
  O  O168  1  0.14330000  0.15603000  0.96885000  1.0
  O  O169  1  0.07467000  0.15342000  0.06538000  1.0
  O  O170  1  0.86451000  0.04835000  0.84529000  1.0
  O  O171  1  0.93030000  0.94955000  0.85010000  1.0
  O  O172  1  0.84683000  0.15520000  0.98503000  1.0
  O  O173  1  0.92507000  0.16083000  0.06563000  1.0
  O  O174  1  0.12471000  0.04720000  0.83410000  1.0
  O  O175  1  0.07694000  0.94098000  0.85126000  1.0
  O  O176  1  0.10250000  0.17001000  0.83751000  1.0
  O  O177  1  0.21262000  0.05544000  0.93301000  1.0
  O  O178  1  0.90501000  0.16924000  0.85519000  1.0
  O  O179  1  0.77451000  0.07703000  0.94177000  1.0
  O  O180  1  0.00064000  0.12369000  0.96542000  1.0
  O  O181  1  0.00141000  0.02496000  0.92055000  1.0
  O  O182  1  0.08052000  0.02010000  0.04953000  1.0
  O  O183  1  0.88477000  0.95543000  0.97899000  1.0
  O  O184  1  0.11536000  0.94679000  0.97730000  1.0
  O  O185  1  0.91646000  0.02617000  0.05078000  1.0
