# generated using pymatgen
data_Cd5H40C26(N3O4)4
_symmetry_space_group_name_H-M   'P 1'
_cell_length_a   9.04869000
_cell_length_b   9.68481000
_cell_length_c   13.03670000
_cell_angle_alpha   94.21370000
_cell_angle_beta   109.25100000
_cell_angle_gamma   113.38100000
_symmetry_Int_Tables_number   1
_chemical_formula_structural   Cd5H40C26(N3O4)4
_chemical_formula_sum   'Cd5 H40 C26 N12 O16'
_cell_volume   962.10686549
_cell_formula_units_Z   1
loop_
 _symmetry_equiv_pos_site_id
 _symmetry_equiv_pos_as_xyz
  1  'x, y, z'
loop_
 _atom_site_type_symbol
 _atom_site_label
 _atom_site_symmetry_multiplicity
 _atom_site_fract_x
 _atom_site_fract_y
 _atom_site_fract_z
 _atom_site_occupancy
  Cd  Cd0  1  0.83787000  0.43895000  0.27968000  1.0
  Cd  Cd1  1  0.16213000  0.56105000  0.72031000  1.0
  Cd  Cd2  1  0.04549000  0.17798000  0.28799000  1.0
  Cd  Cd3  1  0.95451000  0.82202000  0.71201000  1.0
  Cd  Cd4  1  0.00000000  0.00000000  0.00000000  1.0
  H  H5  1  0.83799000  0.65048000  0.45634000  1.0
  H  H6  1  0.16201000  0.34952000  0.54366000  1.0
  H  H7  1  0.87264000  0.52978000  0.51653000  1.0
  H  H8  1  0.12736000  0.47022000  0.48347000  1.0
  H  H9  1  0.19704000  0.12813000  0.51469000  1.0
  H  H10  1  0.80296000  0.87187000  0.48531000  1.0
  H  H11  1  0.35793000  0.28281000  0.51920000  1.0
  H  H12  1  0.64207000  0.71719000  0.48080000  1.0
  H  H13  1  0.86356000  0.61600000  0.05331000  1.0
  H  H14  1  0.13644000  0.38401000  0.94669000  1.0
  H  H15  1  0.96220000  0.83190000  0.37643000  1.0
  H  H16  1  0.03780000  0.16810000  0.62357000  1.0
  H  H17  1  0.43958000  0.22390000  0.05718000  1.0
  H  H18  1  0.56042000  0.77610000  0.94282000  1.0
  H  H19  1  0.51271000  0.39948000  0.38393000  1.0
  H  H20  1  0.48729000  0.60052000  0.61607000  1.0
  H  H21  1  0.58563000  0.04000000  0.90110000  1.0
  H  H22  1  0.41438000  0.96001000  0.09890000  1.0
  H  H23  1  0.76033000  0.17231000  0.87630000  1.0
  H  H24  1  0.23967000  0.82769000  0.12370000  1.0
  H  H25  1  0.43743000  0.19491000  0.87965000  1.0
  H  H26  1  0.56257000  0.80509000  0.12035000  1.0
  H  H27  1  0.63312000  0.36755000  0.94185000  1.0
  H  H28  1  0.36688000  0.63245000  0.05815000  1.0
  H  H29  1  0.48676000  0.17862000  0.70148000  1.0
  H  H30  1  0.51324000  0.82138000  0.29852000  1.0
  H  H31  1  0.46602000  0.34477000  0.74134000  1.0
  H  H32  1  0.53399000  0.65523000  0.25866000  1.0
  H  H33  1  0.81559000  0.33414000  0.77876000  1.0
  H  H34  1  0.18441000  0.66586000  0.22124000  1.0
  H  H35  1  0.79849000  0.49913000  0.82410000  1.0
  H  H36  1  0.20151000  0.50087000  0.17590000  1.0
  H  H37  1  0.51824000  0.07695000  0.33747000  1.0
  H  H38  1  0.48176000  0.92305000  0.66253000  1.0
  H  H39  1  0.66730000  0.23273000  0.45182000  1.0
  H  H40  1  0.33270000  0.76727000  0.54818000  1.0
  H  H41  1  0.57118000  0.89466000  0.46544000  1.0
  H  H42  1  0.42882000  0.10534000  0.53455000  1.0
  H  H43  1  0.69230000  0.05729000  0.57867000  1.0
  H  H44  1  0.30770000  0.94271000  0.42133000  1.0
  C  C45  1  0.89730000  0.70208000  0.12602000  1.0
  C  C46  1  0.10271000  0.29792000  0.87398000  1.0
  C  C47  1  0.94577000  0.80975000  0.28974000  1.0
  C  C48  1  0.05423000  0.19025000  0.71026000  1.0
  C  C49  1  0.41538000  0.24937000  0.13078000  1.0
  C  C50  1  0.58462000  0.75063000  0.86922000  1.0
  C  C51  1  0.45298000  0.34014000  0.29616000  1.0
  C  C52  1  0.54702000  0.65986000  0.70384000  1.0
  C  C53  1  0.78901000  0.21499000  0.04554000  1.0
  C  C54  1  0.21098000  0.78501000  0.95446000  1.0
  C  C55  1  0.67336000  0.16450000  0.92041000  1.0
  C  C56  1  0.32664000  0.83550000  0.07959000  1.0
  C  C57  1  0.56953000  0.25659000  0.88020000  1.0
  C  C58  1  0.43047000  0.74341000  0.11980000  1.0
  C  C59  1  0.55228000  0.28813000  0.76450000  1.0
  C  C60  1  0.44772000  0.71187000  0.23550000  1.0
  C  C61  1  0.72759000  0.38955000  0.75970000  1.0
  C  C62  1  0.27241000  0.61045000  0.24030000  1.0
  C  C63  1  0.72022000  0.43212000  0.64903000  1.0
  C  C64  1  0.27978000  0.56789000  0.35097000  1.0
  C  C65  1  0.77978000  0.11000000  0.38722000  1.0
  C  C66  1  0.22022000  0.89000000  0.61278000  1.0
  C  C67  1  0.63229000  0.11193000  0.41675000  1.0
  C  C68  1  0.36771000  0.88807000  0.58325000  1.0
  C  C69  1  0.58485000  0.00941000  0.49524000  1.0
  C  C70  1  0.41515000  0.99059000  0.50476000  1.0
  N  N71  1  0.97504000  0.92075000  0.23389000  1.0
  N  N72  1  0.02496000  0.07925000  0.76611000  1.0
  N  N73  1  0.94463000  0.85188000  0.12846000  1.0
  N  N74  1  0.05537000  0.14812000  0.87154000  1.0
  N  N75  1  0.89691000  0.67044000  0.22550000  1.0
  N  N76  1  0.10310000  0.32956000  0.77450000  1.0
  N  N77  1  0.28131000  0.25200000  0.24053000  1.0
  N  N78  1  0.71869000  0.74800000  0.75947000  1.0
  N  N79  1  0.25710000  0.19310000  0.13393000  1.0
  N  N80  1  0.74290000  0.80690000  0.86607000  1.0
  N  N81  1  0.54171000  0.34166000  0.23020000  1.0
  N  N82  1  0.45829000  0.65834000  0.76980000  1.0
  O  O83  1  0.87654000  0.14037000  0.08450000  1.0
  O  O84  1  0.12345000  0.85963000  0.91550000  1.0
  O  O85  1  0.79270000  0.32807000  0.10298000  1.0
  O  O86  1  0.20730000  0.67194000  0.89702000  1.0
  O  O87  1  0.86928000  0.52361000  0.64606000  1.0
  O  O88  1  0.13072000  0.47639000  0.35394000  1.0
  O  O89  1  0.57904000  0.38362000  0.56529000  1.0
  O  O90  1  0.42096000  0.61638000  0.43471000  1.0
  O  O91  1  0.82507000  0.19639000  0.32060000  1.0
  O  O92  1  0.17493000  0.80361000  0.67940000  1.0
  O  O93  1  0.85292000  0.02708000  0.42342000  1.0
  O  O94  1  0.14708000  0.97292000  0.57658000  1.0
  O  O95  1  0.88224000  0.57227000  0.45020000  1.0
  O  O96  1  0.11777000  0.42773000  0.54980000  1.0
  O  O97  1  0.22721000  0.22661000  0.48863000  1.0
  O  O98  1  0.77279000  0.77339000  0.51137000  1.0
