# generated using pymatgen
data_ZnH16C33N5O6F7
_symmetry_space_group_name_H-M   'P 1'
_cell_length_a   14.08230000
_cell_length_b   15.24990000
_cell_length_c   23.71270000
_cell_angle_alpha   89.00870000
_cell_angle_beta   89.84510000
_cell_angle_gamma   89.55230000
_symmetry_Int_Tables_number   1
_chemical_formula_structural   ZnH16C33N5O6F7
_chemical_formula_sum   'Zn2 H32 C66 N10 O12 F14'
_cell_volume   5091.45487963
_cell_formula_units_Z   2
loop_
 _symmetry_equiv_pos_site_id
 _symmetry_equiv_pos_as_xyz
  1  'x, y, z'
loop_
 _atom_site_type_symbol
 _atom_site_label
 _atom_site_symmetry_multiplicity
 _atom_site_fract_x
 _atom_site_fract_y
 _atom_site_fract_z
 _atom_site_occupancy
  Zn  Zn0  1  0.40134000  0.50129000  0.50017000  1.0
  Zn  Zn1  1  0.59836000  0.49750000  0.49950000  1.0
  H  H2  1  0.50319000  0.28269000  0.05637000  1.0
  H  H3  1  0.50298000  0.72303000  0.94343000  1.0
  H  H4  1  0.64764000  0.52978000  0.32138000  1.0
  H  H5  1  0.64821000  0.47176000  0.67865000  1.0
  H  H6  1  0.35322000  0.45877000  0.32133000  1.0
  H  H7  1  0.35290000  0.54331000  0.67802000  1.0
  H  H8  1  0.38408000  0.91018000  0.62441000  1.0
  H  H9  1  0.60661000  0.08872000  0.37225000  1.0
  H  H10  1  0.70924000  0.58069000  0.23394000  1.0
  H  H11  1  0.78091000  0.50159000  0.15886000  1.0
  H  H12  1  0.67744000  0.43614000  0.15463000  1.0
  H  H13  1  0.75088000  0.42635000  0.21498000  1.0
  H  H14  1  0.71047000  0.42448000  0.76607000  1.0
  H  H15  1  0.77908000  0.50217000  0.84191000  1.0
  H  H16  1  0.67443000  0.56738000  0.84643000  1.0
  H  H17  1  0.74863000  0.57849000  0.78634000  1.0
  H  H18  1  0.28823000  0.42310000  0.23400000  1.0
  H  H19  1  0.25069000  0.57869000  0.21455000  1.0
  H  H20  1  0.22071000  0.50730000  0.15805000  1.0
  H  H21  1  0.32570000  0.57102000  0.15481000  1.0
  H  H22  1  0.28622000  0.58091000  0.76461000  1.0
  H  H23  1  0.21975000  0.49967000  0.84192000  1.0
  H  H24  1  0.32579000  0.43616000  0.84608000  1.0
  H  H25  1  0.25148000  0.42628000  0.78651000  1.0
  H  H26  1  0.41753000  0.69733000  0.57901000  1.0
  H  H27  1  0.55249000  0.72898000  0.64301000  1.0
  H  H28  1  0.43925000  0.72646000  0.67693000  1.0
  H  H29  1  0.49210000  0.82855000  0.65876000  1.0
  H  H30  1  0.57214000  0.30372000  0.41859000  1.0
  H  H31  1  0.73218000  0.26457000  0.44375000  1.0
  H  H32  1  0.71343000  0.26440000  0.36894000  1.0
  H  H33  1  0.71678000  0.16387000  0.40808000  1.0
  C  C34  1  0.49605000  0.32928000  0.50638000  1.0
  C  C35  1  0.50271000  0.66978000  0.49351000  1.0
  C  C36  1  0.58390000  0.52058000  0.23880000  1.0
  C  C37  1  0.58382000  0.48367000  0.76118000  1.0
  C  C38  1  0.58326000  0.51596000  0.29779000  1.0
  C  C39  1  0.58351000  0.48639000  0.70215000  1.0
  C  C40  1  0.50066000  0.49296000  0.32706000  1.0
  C  C41  1  0.50091000  0.50878000  0.67265000  1.0
  C  C42  1  0.41746000  0.47486000  0.29769000  1.0
  C  C43  1  0.41727000  0.52814000  0.70184000  1.0
  C  C44  1  0.41566000  0.47874000  0.23870000  1.0
  C  C45  1  0.41492000  0.52577000  0.76085000  1.0
  C  C46  1  0.49975000  0.50125000  0.20984000  1.0
  C  C47  1  0.49909000  0.50388000  0.78995000  1.0
  C  C48  1  0.54137000  0.81716000  0.45235000  1.0
  C  C49  1  0.45357000  0.18165000  0.54557000  1.0
  C  C50  1  0.50408000  0.76771000  0.49676000  1.0
  C  C51  1  0.49765000  0.23116000  0.50345000  1.0
  C  C52  1  0.46826000  0.80923000  0.54524000  1.0
  C  C53  1  0.54691000  0.18950000  0.45938000  1.0
  C  C54  1  0.46692000  0.90238000  0.54647000  1.0
  C  C55  1  0.54605000  0.09640000  0.45716000  1.0
  C  C56  1  0.50092000  0.48929000  0.39008000  1.0
  C  C57  1  0.50146000  0.51054000  0.60960000  1.0
  C  C58  1  0.50687000  0.95246000  0.50087000  1.0
  C  C59  1  0.50468000  0.04628000  0.50229000  1.0
  C  C60  1  0.54566000  0.90899000  0.45255000  1.0
  C  C61  1  0.45775000  0.08977000  0.54803000  1.0
  C  C62  1  0.42043000  0.94708000  0.59130000  1.0
  C  C63  1  0.58217000  0.05181000  0.40909000  1.0
  C  C64  1  0.41616000  0.03617000  0.59127000  1.0
  C  C65  1  0.58128000  0.96272000  0.40749000  1.0
  C  C66  1  0.19998000  0.55347000  0.46446000  1.0
  C  C67  1  0.79982000  0.44596000  0.53489000  1.0
  C  C68  1  0.20113000  0.45106000  0.53667000  1.0
  C  C69  1  0.79862000  0.54739000  0.46219000  1.0
  C  C70  1  0.10170000  0.44518000  0.53856000  1.0
  C  C71  1  0.89802000  0.55348000  0.46037000  1.0
  C  C72  1  0.10043000  0.55655000  0.46148000  1.0
  C  C73  1  0.89933000  0.44255000  0.53770000  1.0
  C  C74  1  0.05026000  0.50013000  0.49975000  1.0
  C  C75  1  0.94950000  0.49875000  0.49929000  1.0
  C  C76  1  0.04987000  0.38892000  0.57615000  1.0
  C  C77  1  0.94986000  0.60976000  0.42280000  1.0
  C  C78  1  0.04718000  0.61134000  0.42340000  1.0
  C  C79  1  0.95254000  0.38772000  0.57573000  1.0
  C  C80  1  0.50240000  0.58508000  0.87673000  1.0
  C  C81  1  0.50426000  0.42061000  0.12295000  1.0
  C  C82  1  0.49587000  0.42020000  0.87827000  1.0
  C  C83  1  0.49638000  0.58545000  0.12156000  1.0
  C  C84  1  0.49983000  0.42104000  0.94073000  1.0
  C  C85  1  0.50054000  0.58464000  0.05902000  1.0
  C  C86  1  0.50028000  0.50195000  0.96977000  1.0
  C  C87  1  0.50062000  0.50377000  0.02993000  1.0
  C  C88  1  0.50066000  0.58272000  0.93927000  1.0
  C  C89  1  0.50136000  0.42301000  0.06043000  1.0
  C  C90  1  0.50079000  0.34389000  0.97327000  1.0
  C  C91  1  0.50151000  0.66179000  0.02649000  1.0
  C  C92  1  0.50185000  0.34424000  0.03232000  1.0
  C  C93  1  0.50180000  0.66143000  0.96742000  1.0
  C  C94  1  0.72189000  0.47345000  0.18332000  1.0
  C  C95  1  0.71998000  0.53076000  0.81752000  1.0
  C  C96  1  0.27956000  0.53292000  0.18303000  1.0
  C  C97  1  0.27923000  0.47319000  0.81733000  1.0
  C  C98  1  0.48198000  0.76108000  0.64496000  1.0
  C  C99  1  0.69378000  0.23258000  0.40916000  1.0
  N  N100  1  0.49904000  0.50331000  0.85062000  1.0
  N  N101  1  0.50029000  0.50234000  0.14916000  1.0
  N  N102  1  0.24826000  0.50283000  0.50073000  1.0
  N  N103  1  0.75148000  0.49618000  0.49843000  1.0
  N  N104  1  0.66666667  0.54487000  0.20854000  1.0
  N  N105  1  0.66666667  0.45975000  0.79152000  1.0
  N  N106  1  0.33225000  0.45893000  0.20862000  1.0
  N  N107  1  0.33078000  0.54634000  0.79060000  1.0
  N  N108  1  0.43209000  0.75984000  0.59064000  1.0
  N  N109  1  0.59054000  0.23913000  0.41649000  1.0
  O  O110  1  0.41581000  0.36755000  0.50429000  1.0
  O  O111  1  0.58175000  0.62998000  0.48969000  1.0
  O  O112  1  0.42090000  0.63483000  0.49665000  1.0
  O  O113  1  0.57691000  0.36576000  0.50934000  1.0
  O  O114  1  0.42086000  0.49536000  0.41492000  1.0
  O  O115  1  0.58196000  0.51024000  0.58493000  1.0
  O  O116  1  0.42075000  0.51234000  0.58518000  1.0
  O  O117  1  0.58138000  0.48026000  0.41441000  1.0
  O  O118  1  0.50847000  0.65376000  0.84912000  1.0
  O  O119  1  0.51155000  0.35182000  0.15038000  1.0
  O  O120  1  0.48772000  0.35343000  0.85075000  1.0
  O  O121  1  0.48733000  0.65229000  0.14905000  1.0
  F  F122  1  0.50121000  0.26475000  0.94903000  1.0
  F  F123  1  0.50256000  0.74091000  0.05072000  1.0
  F  F124  1  0.36807000  0.07570000  0.63397000  1.0
  F  F125  1  0.61435000  0.92331000  0.36008000  1.0
  F  F126  1  0.25184000  0.60297000  0.42968000  1.0
  F  F127  1  0.74801000  0.39705000  0.57014000  1.0
  F  F128  1  0.25382000  0.40357000  0.57230000  1.0
  F  F129  1  0.74594000  0.59430000  0.42615000  1.0
  F  F130  1  0.09634000  0.33591000  0.61266000  1.0
  F  F131  1  0.90330000  0.66261000  0.38615000  1.0
  F  F132  1  0.09234000  0.66571000  0.38733000  1.0
  F  F133  1  0.90727000  0.33353000  0.61192000  1.0
  F  F134  1  0.57435000  0.77296000  0.40686000  1.0
  F  F135  1  0.40901000  0.22590000  0.58747000  1.0
