# generated using pymatgen
data_K2H3C6N7O4
_symmetry_space_group_name_H-M   'P 1'
_cell_length_a   7.44244000
_cell_length_b   9.57861000
_cell_length_c   15.48260000
_cell_angle_alpha   90.00000000
_cell_angle_beta   90.00000000
_cell_angle_gamma   109.17100000
_symmetry_Int_Tables_number   1
_chemical_formula_structural   K2H3C6N7O4
_chemical_formula_sum   'K8 H12 C24 N28 O16'
_cell_volume   1042.51742919
_cell_formula_units_Z   4
loop_
 _symmetry_equiv_pos_site_id
 _symmetry_equiv_pos_as_xyz
  1  'x, y, z'
loop_
 _atom_site_type_symbol
 _atom_site_label
 _atom_site_symmetry_multiplicity
 _atom_site_fract_x
 _atom_site_fract_y
 _atom_site_fract_z
 _atom_site_occupancy
  K  K0  1  0.95030000  0.89436000  0.66043000  1.0
  K  K1  1  0.54969000  0.60564000  0.16043000  1.0
  K  K2  1  0.04969000  0.10564000  0.33957000  1.0
  K  K3  1  0.45031000  0.39436000  0.83957000  1.0
  K  K4  1  0.53091000  0.06422000  0.69404000  1.0
  K  K5  1  0.96909000  0.43579000  0.19404000  1.0
  K  K6  1  0.46910000  0.93579000  0.30596000  1.0
  K  K7  1  0.03091000  0.56421000  0.80596000  1.0
  H  H8  1  0.92849000  0.70912000  0.30531000  1.0
  H  H9  1  0.57151000  0.79088000  0.80531000  1.0
  H  H10  1  0.07151000  0.29088000  0.69469000  1.0
  H  H11  1  0.42849000  0.20912000  0.19469000  1.0
  H  H12  1  0.35218000  0.13571000  0.53999000  1.0
  H  H13  1  0.14782000  0.36429000  0.03999000  1.0
  H  H14  1  0.64782000  0.86429000  0.46001000  1.0
  H  H15  1  0.85218000  0.63571000  0.96001000  1.0
  H  H16  1  0.23873000  0.97568000  0.51210000  1.0
  H  H17  1  0.26127000  0.52432000  0.01210000  1.0
  H  H18  1  0.76127000  0.02433000  0.48790000  1.0
  H  H19  1  0.73873000  0.47568000  0.98791000  1.0
  C  C20  1  0.60863000  0.37528000  0.50034000  1.0
  C  C21  1  0.89137000  0.12472000  0.00034000  1.0
  C  C22  1  0.39137000  0.62472000  0.49966000  1.0
  C  C23  1  0.10863000  0.87528000  0.99966000  1.0
  C  C24  1  0.70872000  0.42484000  0.64284000  1.0
  C  C25  1  0.79128000  0.07516000  0.14284000  1.0
  C  C26  1  0.29129000  0.57516000  0.35716000  1.0
  C  C27  1  0.20871000  0.92484000  0.85716000  1.0
  C  C28  1  0.86955000  0.59697000  0.53948000  1.0
  C  C29  1  0.63045000  0.90303000  0.03948000  1.0
  C  C30  1  0.13045000  0.40303000  0.46052000  1.0
  C  C31  1  0.36955000  0.09697000  0.96052000  1.0
  C  C32  1  0.02365000  0.76390000  0.43289000  1.0
  C  C33  1  0.47635000  0.73610000  0.93289000  1.0
  C  C34  1  0.97635000  0.23610000  0.56711000  1.0
  C  C35  1  0.52365000  0.26390000  0.06711000  1.0
  C  C36  1  0.77282000  0.54280000  0.38892000  1.0
  C  C37  1  0.72718000  0.95719000  0.88892000  1.0
  C  C38  1  0.22718000  0.45720000  0.61108000  1.0
  C  C39  1  0.27282000  0.04280000  0.11108000  1.0
  C  C40  1  0.53307000  0.32676000  0.35524000  1.0
  C  C41  1  0.96693000  0.17324000  0.85524000  1.0
  C  C42  1  0.46693000  0.67324000  0.64476000  1.0
  C  C43  1  0.03307000  0.82676000  0.14476000  1.0
  N  N44  1  0.75331000  0.50575000  0.47563000  1.0
  N  N45  1  0.74669000  0.99425000  0.97563000  1.0
  N  N46  1  0.24669000  0.49425000  0.52437000  1.0
  N  N47  1  0.25331000  0.00575000  0.02437000  1.0
  N  N48  1  0.58470000  0.33872000  0.58309000  1.0
  N  N49  1  0.91530000  0.16128000  0.08309000  1.0
  N  N50  1  0.41530000  0.66128000  0.41691000  1.0
  N  N51  1  0.08470000  0.83872000  0.91691000  1.0
  N  N52  1  0.84793000  0.55634000  0.62145000  1.0
  N  N53  1  0.65207000  0.94366000  0.12145000  1.0
  N  N54  1  0.15207000  0.44366000  0.37855000  1.0
  N  N55  1  0.34793000  0.05634000  0.87855000  1.0
  N  N56  1  0.00303000  0.72289000  0.51657000  1.0
  N  N57  1  0.49697000  0.77711000  0.01657000  1.0
  N  N58  1  0.99697000  0.27711000  0.48343000  1.0
  N  N59  1  0.50303000  0.22289000  0.98343000  1.0
  N  N60  1  0.90688000  0.67398000  0.37019000  1.0
  N  N61  1  0.59312000  0.82602000  0.87019000  1.0
  N  N62  1  0.09312000  0.32602000  0.62981000  1.0
  N  N63  1  0.40688000  0.17398000  0.12981000  1.0
  N  N64  1  0.67076000  0.45700000  0.32832000  1.0
  N  N65  1  0.82924000  0.04300000  0.82831000  1.0
  N  N66  1  0.32924000  0.54300000  0.67168000  1.0
  N  N67  1  0.17076000  0.95700000  0.17168000  1.0
  N  N68  1  0.49702000  0.29089000  0.44026000  1.0
  N  N69  1  0.00298000  0.20911000  0.94026000  1.0
  N  N70  1  0.50298000  0.70911000  0.55974000  1.0
  N  N71  1  0.99702000  0.79089000  0.05974000  1.0
  O  O72  1  0.69703000  0.38174000  0.72035000  1.0
  O  O73  1  0.80297000  0.11826000  0.22035000  1.0
  O  O74  1  0.30297000  0.61826000  0.27965000  1.0
  O  O75  1  0.19703000  0.88174000  0.77965000  1.0
  O  O76  1  0.14729000  0.88140000  0.40850000  1.0
  O  O77  1  0.35271000  0.61860000  0.90850000  1.0
  O  O78  1  0.85271000  0.11860000  0.59150000  1.0
  O  O79  1  0.64729000  0.38140000  0.09150000  1.0
  O  O80  1  0.43514000  0.23845000  0.29889000  1.0
  O  O81  1  0.06485000  0.26155000  0.79889000  1.0
  O  O82  1  0.56486000  0.76155000  0.70111000  1.0
  O  O83  1  0.93515000  0.73845000  0.20111000  1.0
  O  O84  1  0.27271000  0.04017000  0.56352000  1.0
  O  O85  1  0.22729000  0.45983000  0.06352000  1.0
  O  O86  1  0.72729000  0.95983000  0.43648000  1.0
  O  O87  1  0.77271000  0.54017000  0.93648000  1.0
