# generated using pymatgen
data_ZnH28C20(N2O3)2
_symmetry_space_group_name_H-M   'P 1'
_cell_length_a   8.96894000
_cell_length_b   9.75873000
_cell_length_c   12.31070000
_cell_angle_alpha   90.00000000
_cell_angle_beta   90.00000000
_cell_angle_gamma   96.29080000
_symmetry_Int_Tables_number   1
_chemical_formula_structural   ZnH28C20(N2O3)2
_chemical_formula_sum   'Zn2 H56 C40 N8 O12'
_cell_volume   1071.01163073
_cell_formula_units_Z   2
loop_
 _symmetry_equiv_pos_site_id
 _symmetry_equiv_pos_as_xyz
  1  'x, y, z'
loop_
 _atom_site_type_symbol
 _atom_site_label
 _atom_site_symmetry_multiplicity
 _atom_site_fract_x
 _atom_site_fract_y
 _atom_site_fract_z
 _atom_site_occupancy
  Zn  Zn0  1  0.00000000  0.00000000  0.00000000  1.0
  Zn  Zn1  1  0.50000000  0.00000000  0.50000000  1.0
  H  H2  1  0.91494000  0.09896000  0.81927000  1.0
  H  H3  1  0.58506000  0.90104000  0.31927000  1.0
  H  H4  1  0.08506000  0.90104000  0.18073000  1.0
  H  H5  1  0.41494000  0.09896000  0.68073000  1.0
  H  H6  1  0.08856000  0.09489000  0.78149000  1.0
  H  H7  1  0.41144000  0.90511000  0.28149000  1.0
  H  H8  1  0.91144000  0.90511000  0.21851000  1.0
  H  H9  1  0.58856000  0.09489000  0.71851000  1.0
  H  H10  1  0.19718000  0.68902000  0.70687000  1.0
  H  H11  1  0.30282000  0.31098000  0.20686000  1.0
  H  H12  1  0.80282000  0.31098000  0.29313000  1.0
  H  H13  1  0.69718000  0.68902000  0.79313000  1.0
  H  H14  1  0.19663000  0.89828000  0.82482000  1.0
  H  H15  1  0.30337000  0.10172000  0.32481000  1.0
  H  H16  1  0.80337000  0.10172000  0.17519000  1.0
  H  H17  1  0.69663000  0.89828000  0.67518000  1.0
  H  H18  1  0.85995000  0.70778000  0.01928000  1.0
  H  H19  1  0.64005000  0.29221000  0.51928000  1.0
  H  H20  1  0.14005000  0.29221000  0.98071000  1.0
  H  H21  1  0.35995000  0.70778000  0.48072000  1.0
  H  H22  1  0.94708000  0.30181000  0.53809000  1.0
  H  H23  1  0.55292000  0.69819000  0.03809000  1.0
  H  H24  1  0.05292000  0.69819000  0.46191000  1.0
  H  H25  1  0.44708000  0.30181000  0.96191000  1.0
  H  H26  1  0.14222000  0.31979000  0.56963000  1.0
  H  H27  1  0.35778000  0.68022000  0.06963000  1.0
  H  H28  1  0.85778000  0.68022000  0.43037000  1.0
  H  H29  1  0.64222000  0.31979000  0.93037000  1.0
  H  H30  1  0.84639000  0.48994000  0.90985000  1.0
  H  H31  1  0.65361000  0.51006000  0.40985000  1.0
  H  H32  1  0.15361000  0.51005000  0.09015000  1.0
  H  H33  1  0.34639000  0.48994000  0.59016000  1.0
  H  H34  1  0.09977000  0.38157000  0.74670000  1.0
  H  H35  1  0.40023000  0.61843000  0.24670000  1.0
  H  H36  1  0.90023000  0.61843000  0.25330000  1.0
  H  H37  1  0.59978000  0.38157000  0.75330000  1.0
  H  H38  1  0.90366000  0.38393000  0.73883000  1.0
  H  H39  1  0.59634000  0.61607000  0.23883000  1.0
  H  H40  1  0.09634000  0.61607000  0.26117000  1.0
  H  H41  1  0.40366000  0.38393000  0.76117000  1.0
  H  H42  1  0.54301000  0.92685000  0.10467000  1.0
  H  H43  1  0.95700000  0.07316000  0.60468000  1.0
  H  H44  1  0.45700000  0.07316000  0.89533000  1.0
  H  H45  1  0.04300000  0.92685000  0.39533000  1.0
  H  H46  1  0.53418000  0.10520000  0.09229000  1.0
  H  H47  1  0.96582000  0.89481000  0.59229000  1.0
  H  H48  1  0.46582000  0.89481000  0.90771000  1.0
  H  H49  1  0.03418000  0.10520000  0.40771000  1.0
  H  H50  1  0.90694000  0.65791000  0.62904000  1.0
  H  H51  1  0.59306000  0.34210000  0.12903000  1.0
  H  H52  1  0.09307000  0.34210000  0.37097000  1.0
  H  H53  1  0.40694000  0.65791000  0.87096000  1.0
  H  H54  1  0.80464000  0.50685000  0.57536000  1.0
  H  H55  1  0.69536000  0.49315000  0.07536000  1.0
  H  H56  1  0.19536000  0.49315000  0.42464000  1.0
  H  H57  1  0.30464000  0.50685000  0.92464000  1.0
  C  C58  1  0.31981000  0.98877000  0.08970000  1.0
  C  C59  1  0.18020000  0.01123000  0.58970000  1.0
  C  C60  1  0.68019000  0.01123000  0.91030000  1.0
  C  C61  1  0.81981000  0.98877000  0.41030000  1.0
  C  C62  1  0.12320000  0.68822000  0.77707000  1.0
  C  C63  1  0.37680000  0.31177000  0.27707000  1.0
  C  C64  1  0.87680000  0.31178000  0.22293000  1.0
  C  C65  1  0.62320000  0.68822000  0.72293000  1.0
  C  C66  1  0.12271000  0.80452000  0.84180000  1.0
  C  C67  1  0.37729000  0.19548000  0.34180000  1.0
  C  C68  1  0.87729000  0.19548000  0.15820000  1.0
  C  C69  1  0.62271000  0.80452000  0.65820000  1.0
  C  C70  1  0.93409000  0.69736000  0.95033000  1.0
  C  C71  1  0.56591000  0.30264000  0.45033000  1.0
  C  C72  1  0.06591000  0.30264000  0.04967000  1.0
  C  C73  1  0.43409000  0.69736000  0.54967000  1.0
  C  C74  1  0.05038000  0.37611000  0.54002000  1.0
  C  C75  1  0.44962000  0.62389000  0.04002000  1.0
  C  C76  1  0.94962000  0.62389000  0.45998000  1.0
  C  C77  1  0.55038000  0.37611000  0.95998000  1.0
  C  C78  1  0.92840000  0.57676000  0.88949000  1.0
  C  C79  1  0.57159000  0.42324000  0.38949000  1.0
  C  C80  1  0.07160000  0.42324000  0.11051000  1.0
  C  C81  1  0.42840000  0.57676000  0.61051000  1.0
  C  C82  1  0.02248000  0.57163000  0.79952000  1.0
  C  C83  1  0.47752000  0.42837000  0.29952000  1.0
  C  C84  1  0.97752000  0.42837000  0.20048000  1.0
  C  C85  1  0.52248000  0.57163000  0.70048000  1.0
  C  C86  1  0.01233000  0.44826000  0.72531000  1.0
  C  C87  1  0.48767000  0.55174000  0.22531000  1.0
  C  C88  1  0.98767000  0.55174000  0.27469000  1.0
  C  C89  1  0.51233000  0.44826000  0.77469000  1.0
  C  C90  1  0.48583000  0.00394000  0.06113000  1.0
  C  C91  1  0.01417000  0.99606000  0.56114000  1.0
  C  C92  1  0.51417000  0.99606000  0.93886000  1.0
  C  C93  1  0.98583000  0.00395000  0.43886000  1.0
  C  C94  1  0.91544000  0.57046000  0.57418000  1.0
  C  C95  1  0.58456000  0.42955000  0.07418000  1.0
  C  C96  1  0.08456000  0.42955000  0.42582000  1.0
  C  C97  1  0.41544000  0.57046000  0.92582000  1.0
  N  N98  1  0.02806000  0.80990000  0.92614000  1.0
  N  N99  1  0.47193000  0.19009000  0.42613000  1.0
  N  N100  1  0.97193000  0.19009000  0.07386000  1.0
  N  N101  1  0.52806000  0.80990000  0.57386000  1.0
  N  N102  1  0.03417000  0.49137000  0.61275000  1.0
  N  N103  1  0.46583000  0.50863000  0.11275000  1.0
  N  N104  1  0.96583000  0.50863000  0.38725000  1.0
  N  N105  1  0.53417000  0.49137000  0.88725000  1.0
  O  O106  1  0.23342000  0.03777000  0.02137000  1.0
  O  O107  1  0.26658000  0.96223000  0.52137000  1.0
  O  O108  1  0.76658000  0.96223000  0.97863000  1.0
  O  O109  1  0.73342000  0.03777000  0.47863000  1.0
  O  O110  1  0.27798000  0.93013000  0.17921000  1.0
  O  O111  1  0.22202000  0.06987000  0.67921000  1.0
  O  O112  1  0.72202000  0.06987000  0.82079000  1.0
  O  O113  1  0.77798000  0.93013000  0.32079000  1.0
  O  O114  1  0.02213000  0.11441000  0.84318000  1.0
  O  O115  1  0.47787000  0.88559000  0.34318000  1.0
  O  O116  1  0.97787000  0.88559000  0.15682000  1.0
  O  O117  1  0.52213000  0.11441000  0.65682000  1.0
