# generated using pymatgen
data_CuH3C6(N2O)2
_symmetry_space_group_name_H-M   'P 1'
_cell_length_a   7.51303000
_cell_length_b   10.53180000
_cell_length_c   10.96820926
_cell_angle_alpha   90.38501043
_cell_angle_beta   110.01986960
_cell_angle_gamma   110.88580000
_symmetry_Int_Tables_number   1
_chemical_formula_structural   CuH3C6(N2O)2
_chemical_formula_sum   'Cu4 H12 C24 N16 O8'
_cell_volume   753.60541684
_cell_formula_units_Z   4
loop_
 _symmetry_equiv_pos_site_id
 _symmetry_equiv_pos_as_xyz
  1  'x, y, z'
loop_
 _atom_site_type_symbol
 _atom_site_label
 _atom_site_symmetry_multiplicity
 _atom_site_fract_x
 _atom_site_fract_y
 _atom_site_fract_z
 _atom_site_occupancy
  Cu  Cu0  1  0.24034000  0.58590000  0.57350000  1.0
  Cu  Cu1  1  0.08098000  0.91402000  0.92650000  1.0
  Cu  Cu2  1  0.75966000  0.41410000  0.42651000  1.0
  Cu  Cu3  1  0.91903000  0.08599000  0.07350000  1.0
  H  H4  1  0.49780000  0.51797000  0.84878000  1.0
  H  H5  1  0.13114000  0.98174000  0.65118000  1.0
  H  H6  1  0.50221000  0.48204000  0.15122000  1.0
  H  H7  1  0.86887000  0.01827000  0.34883000  1.0
  H  H8  1  0.07153000  0.59570000  0.26355000  1.0
  H  H9  1  0.21221000  0.90428000  0.23644000  1.0
  H  H10  1  0.92847000  0.40429000  0.73646000  1.0
  H  H11  1  0.78779000  0.09571000  0.76357000  1.0
  H  H12  1  0.79603000  0.43973000  0.91419000  1.0
  H  H13  1  0.44217000  0.05995000  0.58576000  1.0
  H  H14  1  0.20396000  0.56028000  0.08581000  1.0
  H  H15  1  0.55784000  0.94004000  0.41424000  1.0
  C  C16  1  0.56187000  0.49826000  0.77897000  1.0
  C  C17  1  0.28467000  0.00150000  0.72099000  1.0
  C  C18  1  0.43814000  0.50174000  0.22104000  1.0
  C  C19  1  0.71534000  0.99850000  0.27901000  1.0
  C  C20  1  0.54947000  0.49097000  0.56738000  1.0
  C  C21  1  0.49114000  0.00902000  0.93263000  1.0
  C  C22  1  0.45052000  0.50902000  0.43262000  1.0
  C  C23  1  0.50887000  0.99099000  0.06737000  1.0
  C  C24  1  0.20199000  0.56540000  0.28313000  1.0
  C  C25  1  0.35340000  0.93463000  0.21686000  1.0
  C  C26  1  0.79800000  0.43459000  0.71687000  1.0
  C  C27  1  0.64660000  0.06537000  0.78314000  1.0
  C  C28  1  0.72684000  0.45627000  0.81391000  1.0
  C  C29  1  0.45677000  0.04350000  0.68608000  1.0
  C  C30  1  0.27316000  0.54374000  0.18610000  1.0
  C  C31  1  0.54324000  0.95650000  0.31392000  1.0
  C  C32  1  0.23179000  0.67054000  0.83416000  1.0
  C  C33  1  0.72721000  0.82931000  0.66573000  1.0
  C  C34  1  0.76819000  0.32947000  0.16583000  1.0
  C  C35  1  0.27279000  0.17069000  0.33426000  1.0
  C  C36  1  0.02805000  0.75500000  0.44263000  1.0
  C  C37  1  0.83075000  0.74498000  0.05749000  1.0
  C  C38  1  0.97194000  0.24499000  0.55737000  1.0
  C  C39  1  0.16926000  0.25503000  0.94251000  1.0
  N  N40  1  0.47365000  0.51522000  0.65459000  1.0
  N  N41  1  0.30387000  0.98466000  0.84540000  1.0
  N  N42  1  0.52635000  0.48477000  0.34542000  1.0
  N  N43  1  0.69613000  0.01534000  0.15460000  1.0
  N  N44  1  0.29255000  0.54835000  0.40720000  1.0
  N  N45  1  0.33698000  0.95161000  0.09277000  1.0
  N  N46  1  0.70743000  0.45164000  0.59279000  1.0
  N  N47  1  0.66303000  0.04839000  0.90723000  1.0
  N  N48  1  0.01627000  0.64237000  0.47081000  1.0
  N  N49  1  0.90320000  0.85760000  0.02924000  1.0
  N  N50  1  0.98371000  0.35762000  0.52919000  1.0
  N  N51  1  0.09681000  0.14242000  0.97077000  1.0
  N  N52  1  0.28268000  0.66597000  0.74275000  1.0
  N  N53  1  0.87396000  0.83401000  0.75725000  1.0
  N  N54  1  0.71732000  0.33404000  0.25724000  1.0
  N  N55  1  0.12604000  0.16601000  0.24275000  1.0
  O  O56  1  0.19060000  0.68229000  0.93040000  1.0
  O  O57  1  0.57821000  0.81750000  0.56938000  1.0
  O  O58  1  0.80937000  0.31771000  0.06958000  1.0
  O  O59  1  0.42179000  0.18249000  0.43061000  1.0
  O  O60  1  0.03378000  0.86519000  0.41074000  1.0
  O  O61  1  0.75839000  0.63482000  0.08951000  1.0
  O  O62  1  0.96620000  0.13479000  0.58925000  1.0
  O  O63  1  0.24162000  0.36518000  0.91048000  1.0
