# generated using pymatgen
data_AlH12C24(O2F)3
_symmetry_space_group_name_H-M   'P 1'
_cell_length_a   3.98742000
_cell_length_b   28.64230000
_cell_length_c   28.64278293
_cell_angle_alpha   59.99967324
_cell_angle_beta   89.99970001
_cell_angle_gamma   89.99960000
_symmetry_Int_Tables_number   1
_chemical_formula_structural   AlH12C24(O2F)3
_chemical_formula_sum   'Al2 H24 C48 O12 F6'
_cell_volume   2832.98506782
_cell_formula_units_Z   2
loop_
 _symmetry_equiv_pos_site_id
 _symmetry_equiv_pos_as_xyz
  1  'x, y, z'
loop_
 _atom_site_type_symbol
 _atom_site_label
 _atom_site_symmetry_multiplicity
 _atom_site_fract_x
 _atom_site_fract_y
 _atom_site_fract_z
 _atom_site_occupancy
  Al  Al0  1  0.00374000  0.00000000  0.50000000  1.0
  Al  Al1  1  0.00377000  0.66666000  0.16667000  1.0
  H  H2  1  0.21603000  0.51367000  0.30062000  1.0
  H  H3  1  0.21998000  0.41371000  0.34638000  1.0
  H  H4  1  0.76536000  0.42245000  0.21192000  1.0
  H  H5  1  0.78537000  0.52247000  0.16915000  1.0
  H  H6  1  0.76536000  0.24421000  0.45475000  1.0
  H  H7  1  0.22002000  0.25296000  0.32028000  1.0
  H  H8  1  0.21605000  0.15301000  0.36603000  1.0
  H  H9  1  0.78535000  0.14420000  0.49750000  1.0
  H  H10  1  0.21609000  0.80061000  0.18571000  1.0
  H  H11  1  0.22004000  0.84638000  0.23990000  1.0
  H  H12  1  0.76541000  0.71191000  0.36563000  1.0
  H  H13  1  0.78542000  0.66915000  0.30837000  1.0
  H  H14  1  0.76541000  0.95474000  0.30104000  1.0
  H  H15  1  0.22000000  0.82027000  0.42676000  1.0
  H  H16  1  0.21604000  0.86603000  0.48096000  1.0
  H  H17  1  0.78538000  0.99750000  0.35829000  1.0
  H  H18  1  0.21608000  0.68571000  0.01367000  1.0
  H  H19  1  0.22001000  0.73992000  0.91371000  1.0
  H  H20  1  0.76539000  0.86563000  0.92246000  1.0
  H  H21  1  0.78543000  0.80837000  0.02247000  1.0
  H  H22  1  0.76540000  0.80104000  0.74423000  1.0
  H  H23  1  0.22002000  0.92677000  0.75296000  1.0
  H  H24  1  0.21604000  0.98097000  0.65300000  1.0
  H  H25  1  0.78538000  0.85830000  0.64421000  1.0
  C  C26  1  0.50338000  0.95571000  0.58285000  1.0
  C  C27  1  0.50336000  0.08284000  0.46144000  1.0
  C  C28  1  0.50338000  0.96143000  0.45572000  1.0
  C  C29  1  0.50340000  0.58382000  0.20522000  1.0
  C  C30  1  0.50340000  0.70522000  0.21095000  1.0
  C  C31  1  0.50341000  0.71095000  0.08383000  1.0
  C  C32  1  0.50186000  0.52403000  0.23228000  1.0
  C  C33  1  0.34248000  0.49316000  0.28221000  1.0
  C  C34  1  0.34457000  0.43726000  0.30768000  1.0
  C  C35  1  0.49570000  0.41106000  0.28247000  1.0
  C  C36  1  0.64823000  0.44241000  0.23162000  1.0
  C  C37  1  0.65784000  0.49816000  0.20751000  1.0
  C  C38  1  0.49490000  0.35269000  0.30691000  1.0
  C  C39  1  0.49488000  0.31398000  0.35976000  1.0
  C  C40  1  0.64826000  0.22426000  0.43504000  1.0
  C  C41  1  0.49572000  0.25561000  0.38419000  1.0
  C  C42  1  0.34461000  0.22942000  0.35898000  1.0
  C  C43  1  0.34247000  0.17352000  0.38444000  1.0
  C  C44  1  0.50186000  0.14264000  0.43438000  1.0
  C  C45  1  0.65782000  0.16851000  0.45914000  1.0
  C  C46  1  0.50188000  0.73227000  0.24369000  1.0
  C  C47  1  0.34249000  0.78221000  0.22463000  1.0
  C  C48  1  0.34461000  0.80767000  0.25506000  1.0
  C  C49  1  0.49572000  0.78245000  0.30647000  1.0
  C  C50  1  0.64828000  0.73161000  0.32597000  1.0
  C  C51  1  0.65788000  0.70751000  0.29432000  1.0
  C  C52  1  0.49490000  0.80690000  0.34040000  1.0
  C  C53  1  0.49488000  0.85975000  0.32626000  1.0
  C  C54  1  0.64827000  0.93503000  0.34070000  1.0
  C  C55  1  0.49572000  0.88419000  0.36020000  1.0
  C  C56  1  0.34460000  0.85898000  0.41160000  1.0
  C  C57  1  0.34246000  0.88444000  0.44204000  1.0
  C  C58  1  0.50187000  0.93438000  0.42298000  1.0
  C  C59  1  0.65784000  0.95913000  0.37235000  1.0
  C  C60  1  0.50189000  0.74369000  0.02403000  1.0
  C  C61  1  0.34247000  0.72462000  0.99316000  1.0
  C  C62  1  0.34460000  0.75506000  0.93726000  1.0
  C  C63  1  0.49569000  0.80647000  0.91107000  1.0
  C  C64  1  0.64827000  0.82597000  0.94241000  1.0
  C  C65  1  0.65787000  0.79432000  0.99817000  1.0
  C  C66  1  0.49486000  0.84042000  0.85270000  1.0
  C  C67  1  0.49490000  0.82628000  0.81398000  1.0
  C  C68  1  0.64828000  0.84071000  0.72427000  1.0
  C  C69  1  0.49572000  0.86021000  0.75561000  1.0
  C  C70  1  0.34461000  0.91161000  0.72942000  1.0
  C  C71  1  0.34247000  0.94204000  0.67352000  1.0
  C  C72  1  0.50187000  0.92298000  0.64264000  1.0
  C  C73  1  0.65785000  0.87236000  0.66851000  1.0
  O  O74  1  0.73869000  0.99511000  0.44692000  1.0
  O  O75  1  0.73870000  0.94691000  0.55797000  1.0
  O  O76  1  0.73869000  0.05796000  0.49512000  1.0
  O  O77  1  0.26886000  0.94961000  0.49025000  1.0
  O  O78  1  0.26884000  0.06014000  0.44961000  1.0
  O  O79  1  0.26886000  0.99025000  0.56014000  1.0
  O  O80  1  0.73873000  0.71975000  0.10871000  1.0
  O  O81  1  0.73872000  0.60870000  0.17154000  1.0
  O  O82  1  0.73872000  0.67154000  0.21975000  1.0
  O  O83  1  0.26890000  0.67642000  0.10653000  1.0
  O  O84  1  0.26889000  0.71705000  0.17642000  1.0
  O  O85  1  0.26890000  0.60653000  0.21705000  1.0
  F  F86  1  0.51540000  0.33493000  0.27042000  1.0
  F  F87  1  0.51531000  0.33174000  0.39625000  1.0
  F  F88  1  0.51536000  0.77041000  0.39465000  1.0
  F  F89  1  0.51535000  0.89624000  0.27201000  1.0
  F  F90  1  0.51526000  0.89467000  0.83494000  1.0
  F  F91  1  0.51540000  0.77202000  0.83175000  1.0
