# generated using pymatgen
data_MnH12C16(N5O3)2
_symmetry_space_group_name_H-M   'P 1'
_cell_length_a   7.43805000
_cell_length_b   7.50761000
_cell_length_c   9.60065000
_cell_angle_alpha   67.91010000
_cell_angle_beta   82.71940000
_cell_angle_gamma   79.35020000
_symmetry_Int_Tables_number   1
_chemical_formula_structural   MnH12C16(N5O3)2
_chemical_formula_sum   'Mn1 H12 C16 N10 O6'
_cell_volume   487.24358056
_cell_formula_units_Z   1
loop_
 _symmetry_equiv_pos_site_id
 _symmetry_equiv_pos_as_xyz
  1  'x, y, z'
loop_
 _atom_site_type_symbol
 _atom_site_label
 _atom_site_symmetry_multiplicity
 _atom_site_fract_x
 _atom_site_fract_y
 _atom_site_fract_z
 _atom_site_occupancy
  Mn  Mn0  1  0.00000000  0.00001000  0.00001000  1.0
  H  H1  1  0.85692000  0.13086000  0.32939000  1.0
  H  H2  1  0.14308000  0.86913000  0.67061000  1.0
  H  H3  1  0.76613000  0.11283000  0.51147000  1.0
  H  H4  1  0.23386000  0.88717000  0.48853000  1.0
  H  H5  1  0.98115000  0.19903000  0.44429000  1.0
  H  H6  1  0.01885000  0.80096000  0.55572000  1.0
  H  H7  1  0.33950000  0.70917000  0.26420000  1.0
  H  H8  1  0.66050000  0.29083000  0.73579000  1.0
  H  H9  1  0.55225000  0.95822000  0.20125000  1.0
  H  H10  1  0.44775000  0.04178000  0.79875000  1.0
  H  H11  1  0.00174000  0.52777000  0.32683000  1.0
  H  H12  1  0.99826000  0.47222000  0.67317000  1.0
  C  C13  1  0.84411000  0.20119000  0.41277000  1.0
  C  C14  1  0.15589000  0.79880000  0.58723000  1.0
  C  C15  1  0.74997000  0.40669000  0.35058000  1.0
  C  C16  1  0.25004000  0.59329000  0.64942000  1.0
  C  C17  1  0.56062000  0.46620000  0.33008000  1.0
  C  C18  1  0.43939000  0.53380000  0.66992000  1.0
  C  C19  1  0.48544000  0.66344000  0.27954000  1.0
  C  C20  1  0.51457000  0.33656000  0.72046000  1.0
  C  C21  1  0.59800000  0.80262000  0.24329000  1.0
  C  C22  1  0.40200000  0.19737000  0.75671000  1.0
  C  C23  1  0.85512000  0.55493000  0.31387000  1.0
  C  C24  1  0.14488000  0.44507000  0.68614000  1.0
  C  C25  1  0.76604000  0.42610000  0.96691000  1.0
  C  C26  1  0.23396000  0.57393000  0.03309000  1.0
  C  C27  1  0.75199000  0.75048000  0.93104000  1.0
  C  C28  1  0.24800000  0.24953000  0.06896000  1.0
  N  N29  1  0.82695000  0.26612000  0.97519000  1.0
  N  N30  1  0.17306000  0.73390000  0.02481000  1.0
  N  N31  1  0.68221000  0.59486000  0.96031000  1.0
  N  N32  1  0.31779000  0.40515000  0.03969000  1.0
  N  N33  1  0.79968000  0.90152000  0.90833000  1.0
  N  N34  1  0.20031000  0.09849000  0.09167000  1.0
  N  N35  1  0.43674000  0.32606000  0.36051000  1.0
  N  N36  1  0.56326000  0.67394000  0.63949000  1.0
  N  N37  1  0.78189000  0.74656000  0.25978000  1.0
  N  N38  1  0.21812000  0.25344000  0.74022000  1.0
  O  O39  1  0.89062000  0.87882000  0.22297000  1.0
  O  O40  1  0.10939000  0.12118000  0.77703000  1.0
  O  O41  1  0.27100000  0.37736000  0.39054000  1.0
  O  O42  1  0.72900000  0.62264000  0.60946000  1.0
  O  O43  1  0.49946000  0.16415000  0.35373000  1.0
  O  O44  1  0.50054000  0.83585000  0.64626000  1.0
