# generated using pymatgen
data_Cd3H30C18(Br3N7)2
_symmetry_space_group_name_H-M   'P 1'
_cell_length_a   8.04620000
_cell_length_b   9.74213000
_cell_length_c   10.22780000
_cell_angle_alpha   92.52270000
_cell_angle_beta   97.59890000
_cell_angle_gamma   100.79400000
_symmetry_Int_Tables_number   1
_chemical_formula_structural   Cd3H30C18(Br3N7)2
_chemical_formula_sum   'Cd3 H30 C18 Br6 N14'
_cell_volume   778.67655461
_cell_formula_units_Z   1
loop_
 _symmetry_equiv_pos_site_id
 _symmetry_equiv_pos_as_xyz
  1  'x, y, z'
loop_
 _atom_site_type_symbol
 _atom_site_label
 _atom_site_symmetry_multiplicity
 _atom_site_fract_x
 _atom_site_fract_y
 _atom_site_fract_z
 _atom_site_occupancy
  Cd  Cd0  1  0.50000000  0.50000000  0.50000000  1.0
  Cd  Cd1  1  0.47790000  0.72369000  0.16458000  1.0
  Cd  Cd2  1  0.52210000  0.27631000  0.83542000  1.0
  H  H3  1  0.83931000  0.89320000  0.29812000  1.0
  H  H4  1  0.16070000  0.10680000  0.70188000  1.0
  H  H5  1  0.01471000  0.35571000  0.39575000  1.0
  H  H6  1  0.98529000  0.64429000  0.60425000  1.0
  H  H7  1  0.83530000  0.42703000  0.40970000  1.0
  H  H8  1  0.16470000  0.57297000  0.59030000  1.0
  H  H9  1  0.21681000  0.20144000  0.39047000  1.0
  H  H10  1  0.78319000  0.79856000  0.60953000  1.0
  H  H11  1  0.11828000  0.93773000  0.37631000  1.0
  H  H12  1  0.88172000  0.06226000  0.62369000  1.0
  H  H13  1  0.26955000  0.83025000  0.35572000  1.0
  H  H14  1  0.73045000  0.16975000  0.64428000  1.0
  H  H15  1  0.04305000  0.78821000  0.16869000  1.0
  H  H16  1  0.95695000  0.21179000  0.83131000  1.0
  H  H17  1  0.07344000  0.96779000  0.13606000  1.0
  H  H18  1  0.92656000  0.03221000  0.86393000  1.0
  H  H19  1  0.33514000  0.96105000  0.07436000  1.0
  H  H20  1  0.66486000  0.03895000  0.92564000  1.0
  H  H21  1  0.28549000  0.82444000  0.88942000  1.0
  H  H22  1  0.71451000  0.17556000  0.11058000  1.0
  H  H23  1  0.07562000  0.83682000  0.91950000  1.0
  H  H24  1  0.92438000  0.16318000  0.08049000  1.0
  H  H25  1  0.06483000  0.61128000  0.03710000  1.0
  H  H26  1  0.93516000  0.38872000  0.96290000  1.0
  H  H27  1  0.06878000  0.59316000  0.86438000  1.0
  H  H28  1  0.93122000  0.40684000  0.13562000  1.0
  H  H29  1  0.36179000  0.57781000  0.90874000  1.0
  H  H30  1  0.63821000  0.42219000  0.09126000  1.0
  H  H31  1  0.27044000  0.47580000  0.01360000  1.0
  H  H32  1  0.72956000  0.52419000  0.98640000  1.0
  C  C33  1  0.77261000  0.97728000  0.31988000  1.0
  C  C34  1  0.22739000  0.02272000  0.68012000  1.0
  C  C35  1  0.52576000  0.04614000  0.33752000  1.0
  C  C36  1  0.47424000  0.95387000  0.66248000  1.0
  C  C37  1  0.60977000  0.18481000  0.37542000  1.0
  C  C38  1  0.39023000  0.81519000  0.62458000  1.0
  C  C39  1  0.79043000  0.21330000  0.37948000  1.0
  C  C40  1  0.20957000  0.78670000  0.62052000  1.0
  C  C41  1  0.34022000  0.17660000  0.37873000  1.0
  C  C42  1  0.65978000  0.82339000  0.62127000  1.0
  C  C43  1  0.21726000  0.91931000  0.31736000  1.0
  C  C44  1  0.78274000  0.08068000  0.68264000  1.0
  C  C45  1  0.13986000  0.88490000  0.17319000  1.0
  C  C46  1  0.86014000  0.11509000  0.82681000  1.0
  C  C47  1  0.19081000  0.79654000  0.95681000  1.0
  C  C48  1  0.80919000  0.20346000  0.04319000  1.0
  C  C49  1  0.14486000  0.63783000  0.95932000  1.0
  C  C50  1  0.85514000  0.36217000  0.04068000  1.0
  Br  Br51  1  0.72461000  0.61542000  0.32500000  1.0
  Br  Br52  1  0.27538000  0.38458000  0.67500000  1.0
  Br  Br53  1  0.24359000  0.53990000  0.31017000  1.0
  Br  Br54  1  0.75641000  0.46010000  0.68983000  1.0
  Br  Br55  1  0.69272000  0.79397000  0.98166000  1.0
  Br  Br56  1  0.30728000  0.20603000  0.01834000  1.0
  N  N57  1  0.86807000  0.10387000  0.35484000  1.0
  N  N58  1  0.13193000  0.89613000  0.64516000  1.0
  N  N59  1  0.60126000  0.93908000  0.30678000  1.0
  N  N60  1  0.39874000  0.06092000  0.69322000  1.0
  N  N61  1  0.88869000  0.34020000  0.40618000  1.0
  N  N62  1  0.11131000  0.65980000  0.59382000  1.0
  N  N63  1  0.48964000  0.26461000  0.40086000  1.0
  N  N64  1  0.51036000  0.73539000  0.59914000  1.0
  N  N65  1  0.35453000  0.04312000  0.34064000  1.0
  N  N66  1  0.64547000  0.95688000  0.65936000  1.0
  N  N67  1  0.26872000  0.86307000  0.08885000  1.0
  N  N68  1  0.73128000  0.13693000  0.91114000  1.0
  N  N69  1  0.29952000  0.57801000  0.98984000  1.0
  N  N70  1  0.70048000  0.42198000  0.01016000  1.0
