# generated using pymatgen
data_AlH16(C7O2)3
_symmetry_space_group_name_H-M   'P 1'
_cell_length_a   6.65903000
_cell_length_b   21.59520000
_cell_length_c   25.29460000
_cell_angle_alpha   96.27630000
_cell_angle_beta   89.99700000
_cell_angle_gamma   89.99800000
_symmetry_Int_Tables_number   1
_chemical_formula_structural   AlH16(C7O2)3
_chemical_formula_sum   'Al4 H64 C84 O24'
_cell_volume   3615.63962308
_cell_formula_units_Z   4
loop_
 _symmetry_equiv_pos_site_id
 _symmetry_equiv_pos_as_xyz
  1  'x, y, z'
loop_
 _atom_site_type_symbol
 _atom_site_label
 _atom_site_symmetry_multiplicity
 _atom_site_fract_x
 _atom_site_fract_y
 _atom_site_fract_z
 _atom_site_occupancy
  Al  Al0  1  0.23496000  0.74934000  0.74931000  1.0
  Al  Al1  1  0.77853000  0.25058000  0.25090000  1.0
  Al  Al2  1  0.73497000  0.75063000  0.75069000  1.0
  Al  Al3  1  0.27854000  0.24939000  0.24908000  1.0
  H  H4  1  0.99011000  0.62442000  0.41671000  1.0
  H  H5  1  0.82831000  0.37843000  0.58358000  1.0
  H  H6  1  0.48983000  0.87557000  0.08327000  1.0
  H  H7  1  0.32846000  0.12158000  0.91641000  1.0
  H  H8  1  0.02782000  0.62949000  0.59152000  1.0
  H  H9  1  0.95970000  0.36659000  0.41008000  1.0
  H  H10  1  0.52765000  0.87049000  0.90847000  1.0
  H  H11  1  0.46014000  0.13341000  0.08988000  1.0
  H  H12  1  0.89749000  0.53692000  0.72969000  1.0
  H  H13  1  0.11294000  0.46329000  0.27587000  1.0
  H  H14  1  0.39783000  0.96309000  0.77029000  1.0
  H  H15  1  0.61241000  0.03667000  0.22414000  1.0
  H  H16  1  0.08686000  0.56470000  0.33294000  1.0
  H  H17  1  0.85396000  0.43659000  0.67200000  1.0
  H  H18  1  0.58642000  0.93528000  0.16705000  1.0
  H  H19  1  0.35417000  0.06341000  0.82798000  1.0
  H  H20  1  0.68390000  0.91583000  0.54379000  1.0
  H  H21  1  0.33037000  0.03896000  0.42159000  1.0
  H  H22  1  0.18384000  0.58413000  0.95622000  1.0
  H  H23  1  0.83031000  0.46109000  0.07844000  1.0
  H  H24  1  0.67529000  0.84456000  0.61550000  1.0
  H  H25  1  0.33731000  0.11223000  0.35148000  1.0
  H  H26  1  0.17513000  0.65538000  0.88449000  1.0
  H  H27  1  0.83733000  0.38784000  0.14855000  1.0
  H  H28  1  0.29817000  0.88194000  0.64911000  1.0
  H  H29  1  0.71341000  0.15384000  0.37910000  1.0
  H  H30  1  0.79815000  0.61811000  0.85092000  1.0
  H  H31  1  0.21354000  0.34611000  0.12090000  1.0
  H  H32  1  0.30758000  0.95580000  0.57943000  1.0
  H  H33  1  0.70471000  0.08255000  0.45067000  1.0
  H  H34  1  0.80761000  0.54424000  0.92059000  1.0
  H  H35  1  0.20475000  0.41741000  0.04935000  1.0
  H  H36  1  0.74005000  0.70160000  0.56240000  1.0
  H  H37  1  0.67400000  0.62168000  0.56168000  1.0
  H  H38  1  0.61326000  0.69971000  0.46847000  1.0
  H  H39  1  0.54512000  0.62043000  0.46881000  1.0
  H  H40  1  0.31183000  0.64861000  0.54588000  1.0
  H  H41  1  0.24436000  0.68939000  0.49178000  1.0
  H  H42  1  0.37641000  0.72833000  0.54659000  1.0
  H  H43  1  0.61468000  0.38792000  0.43639000  1.0
  H  H44  1  0.53814000  0.36124000  0.49772000  1.0
  H  H45  1  0.72232000  0.28055000  0.40206000  1.0
  H  H46  1  0.65860000  0.25333000  0.46319000  1.0
  H  H47  1  0.29432000  0.27951000  0.44964000  1.0
  H  H48  1  0.38399000  0.23100000  0.39330000  1.0
  H  H49  1  0.35499000  0.31206000  0.39046000  1.0
  H  H50  1  0.23990000  0.79840000  0.93760000  1.0
  H  H51  1  0.17387000  0.87833000  0.93831000  1.0
  H  H52  1  0.11317000  0.80030000  0.03153000  1.0
  H  H53  1  0.04506000  0.87958000  0.03119000  1.0
  H  H54  1  0.81169000  0.85144000  0.95416000  1.0
  H  H55  1  0.74428000  0.81065000  0.00826000  1.0
  H  H56  1  0.87623000  0.77170000  0.95343000  1.0
  H  H57  1  0.11490000  0.11212000  0.06365000  1.0
  H  H58  1  0.03827000  0.13877000  0.00232000  1.0
  H  H59  1  0.22257000  0.21950000  0.09793000  1.0
  H  H60  1  0.15891000  0.24668000  0.03679000  1.0
  H  H61  1  0.79459000  0.22061000  0.05035000  1.0
  H  H62  1  0.88431000  0.26910000  0.10668000  1.0
  H  H63  1  0.85513000  0.18807000  0.10955000  1.0
  H  H64  1  0.48847000  0.70674000  0.68817000  1.0
  H  H65  1  0.52391000  0.28721000  0.31444000  1.0
  H  H66  1  0.98849000  0.79328000  0.81180000  1.0
  H  H67  1  0.02392000  0.21278000  0.18555000  1.0
  C  C68  1  0.48389000  0.68502000  0.82243000  1.0
  C  C69  1  0.52881000  0.31850000  0.17995000  1.0
  C  C70  1  0.98411000  0.81496000  0.67757000  1.0
  C  C71  1  0.02861000  0.18148000  0.32005000  1.0
  C  C72  1  0.48374000  0.85018000  0.80347000  1.0
  C  C73  1  0.53138000  0.15170000  0.19357000  1.0
  C  C74  1  0.98357000  0.64979000  0.69653000  1.0
  C  C75  1  0.03149000  0.34827000  0.30642000  1.0
  C  C76  1  0.03119000  0.40944000  0.34034000  1.0
  C  C77  1  0.96807000  0.58854000  0.66300000  1.0
  C  C78  1  0.53119000  0.09053000  0.15964000  1.0
  C  C79  1  0.46818000  0.91145000  0.83699000  1.0
  C  C80  1  0.05909000  0.52092000  0.34956000  1.0
  C  C81  1  0.88834000  0.47943000  0.65459000  1.0
  C  C82  1  0.55880000  0.97906000  0.15042000  1.0
  C  C83  1  0.38856000  0.02057000  0.84539000  1.0
  C  C84  1  0.07299000  0.46495000  0.31783000  1.0
  C  C85  1  0.91499000  0.53461000  0.68665000  1.0
  C  C86  1  0.57268000  0.03502000  0.18217000  1.0
  C  C87  1  0.41526000  0.96538000  0.81333000  1.0
  C  C88  1  0.98397000  0.41037000  0.39375000  1.0
  C  C89  1  0.98548000  0.58720000  0.60835000  1.0
  C  C90  1  0.48422000  0.08962000  0.10621000  1.0
  C  C91  1  0.48544000  0.91279000  0.89164000  1.0
  C  C92  1  0.97250000  0.46693000  0.42777000  1.0
  C  C93  1  0.94196000  0.53244000  0.57405000  1.0
  C  C94  1  0.47258000  0.03306000  0.07220000  1.0
  C  C95  1  0.44197000  0.96756000  0.92593000  1.0
  C  C96  1  0.00838000  0.52326000  0.40415000  1.0
  C  C97  1  0.90086000  0.47710000  0.59848000  1.0
  C  C98  1  0.50825000  0.97673000  0.09583000  1.0
  C  C99  1  0.40096000  0.02290000  0.90149000  1.0
  C  C100  1  0.93225000  0.47063000  0.48453000  1.0
  C  C101  1  0.94115000  0.52961000  0.51646000  1.0
  C  C102  1  0.43233000  0.02937000  0.01545000  1.0
  C  C103  1  0.44116000  0.97038000  0.98352000  1.0
  C  C104  1  0.94627000  0.58483000  0.48889000  1.0
  C  C105  1  0.88368000  0.41692000  0.51153000  1.0
  C  C106  1  0.44619000  0.91516000  0.01110000  1.0
  C  C107  1  0.38381000  0.08308000  0.98845000  1.0
  C  C108  1  0.98414000  0.58129000  0.43543000  1.0
  C  C109  1  0.86782000  0.42057000  0.56574000  1.0
  C  C110  1  0.48394000  0.91869000  0.06456000  1.0
  C  C111  1  0.36795000  0.07944000  0.93424000  1.0
  C  C112  1  0.81755000  0.90885000  0.56733000  1.0
  C  C113  1  0.19602000  0.06469000  0.41258000  1.0
  C  C114  1  0.31747000  0.59112000  0.93268000  1.0
  C  C115  1  0.69600000  0.43534000  0.08745000  1.0
  C  C116  1  0.81272000  0.86902000  0.60689000  1.0
  C  C117  1  0.20001000  0.10520000  0.37353000  1.0
  C  C118  1  0.31261000  0.63094000  0.89311000  1.0
  C  C119  1  0.70004000  0.39484000  0.12649000  1.0
  C  C120  1  0.98655000  0.85898000  0.63610000  1.0
  C  C121  1  0.02589000  0.13738000  0.36145000  1.0
  C  C122  1  0.48644000  0.64100000  0.86391000  1.0
  C  C123  1  0.52598000  0.36262000  0.13857000  1.0
  C  C124  1  0.16489000  0.89016000  0.62583000  1.0
  C  C125  1  0.84716000  0.12844000  0.38902000  1.0
  C  C126  1  0.66485000  0.60986000  0.87418000  1.0
  C  C127  1  0.34726000  0.37154000  0.11099000  1.0
  C  C128  1  0.17016000  0.93075000  0.58694000  1.0
  C  C129  1  0.84247000  0.08868000  0.42853000  1.0
  C  C130  1  0.67015000  0.56927000  0.91308000  1.0
  C  C131  1  0.34250000  0.41131000  0.07149000  1.0
  C  C132  1  0.99669000  0.94037000  0.55668000  1.0
  C  C133  1  0.01716000  0.05603000  0.44097000  1.0
  C  C134  1  0.49667000  0.55963000  0.94333000  1.0
  C  C135  1  0.51714000  0.44398000  0.05905000  1.0
  C  C136  1  0.00349000  0.98076000  0.51625000  1.0
  C  C137  1  0.01162000  0.01544000  0.48126000  1.0
  C  C138  1  0.50348000  0.51924000  0.98375000  1.0
  C  C139  1  0.51160000  0.48456000  0.01875000  1.0
  C  C140  1  0.72024000  0.65768000  0.53649000  1.0
  C  C141  1  0.56267000  0.66487000  0.49427000  1.0
  C  C142  1  0.36315000  0.68401000  0.52086000  1.0
  C  C143  1  0.64311000  0.35252000  0.46392000  1.0
  C  C144  1  0.61690000  0.28742000  0.43576000  1.0
  C  C145  1  0.40114000  0.27676000  0.41631000  1.0
  C  C146  1  0.22012000  0.84232000  0.96351000  1.0
  C  C147  1  0.06256000  0.83514000  0.00574000  1.0
  C  C148  1  0.86303000  0.81602000  0.97917000  1.0
  C  C149  1  0.14330000  0.14751000  0.03610000  1.0
  C  C150  1  0.11717000  0.21262000  0.06424000  1.0
  C  C151  1  0.90140000  0.22334000  0.08368000  1.0
  O  O152  1  0.65574000  0.82671000  0.79251000  1.0
  O  O153  1  0.36049000  0.17603000  0.20477000  1.0
  O  O154  1  0.15551000  0.67341000  0.70729000  1.0
  O  O155  1  0.86071000  0.32380000  0.29536000  1.0
  O  O156  1  0.31278000  0.70188000  0.80647000  1.0
  O  O157  1  0.69958000  0.30307000  0.19716000  1.0
  O  O158  1  0.81308000  0.79783000  0.69337000  1.0
  O  O159  1  0.19936000  0.19706000  0.30293000  1.0
  O  O160  1  0.31607000  0.82574000  0.78898000  1.0
  O  O161  1  0.70021000  0.17508000  0.20833000  1.0
  O  O162  1  0.81590000  0.67407000  0.71125000  1.0
  O  O163  1  0.20035000  0.32502000  0.29153000  1.0
  O  O164  1  0.15445000  0.79741000  0.69331000  1.0
  O  O165  1  0.85847000  0.20094000  0.30580000  1.0
  O  O166  1  0.65414000  0.70281000  0.80684000  1.0
  O  O167  1  0.35878000  0.29887000  0.19410000  1.0
  O  O168  1  0.48586000  0.73935000  0.71776000  1.0
  O  O169  1  0.52702000  0.25838000  0.28225000  1.0
  O  O170  1  0.98585000  0.76063000  0.78224000  1.0
  O  O171  1  0.02704000  0.24160000  0.21774000  1.0
  O  O172  1  0.91847000  0.64390000  0.51473000  1.0
  O  O173  1  0.84669000  0.35893000  0.48409000  1.0
  O  O174  1  0.41835000  0.85610000  0.98525000  1.0
  O  O175  1  0.34684000  0.14107000  0.01589000  1.0
