# generated using pymatgen
data_FeAg3H27C51(NO)6
_symmetry_space_group_name_H-M   'P 1'
_cell_length_a   15.20050000
_cell_length_b   15.20050000
_cell_length_c   16.79200000
_cell_angle_alpha   89.99990000
_cell_angle_beta   89.99990000
_cell_angle_gamma   60.00000000
_symmetry_Int_Tables_number   1
_chemical_formula_structural   FeAg3H27C51(NO)6
_chemical_formula_sum   'Fe2 Ag6 H54 C102 N12 O12'
_cell_volume   3360.07371057
_cell_formula_units_Z   2
loop_
 _symmetry_equiv_pos_site_id
 _symmetry_equiv_pos_as_xyz
  1  'x, y, z'
loop_
 _atom_site_type_symbol
 _atom_site_label
 _atom_site_symmetry_multiplicity
 _atom_site_fract_x
 _atom_site_fract_y
 _atom_site_fract_z
 _atom_site_occupancy
  Fe  Fe0  1  0.33333333  0.33333333  0.67936000  1.0
  Fe  Fe1  1  0.66666667  0.66666667  0.32064000  1.0
  Ag  Ag2  1  0.40198000  0.84556000  0.22241000  1.0
  Ag  Ag3  1  0.75245000  0.40199000  0.22241000  1.0
  Ag  Ag4  1  0.84556000  0.75246000  0.22241000  1.0
  Ag  Ag5  1  0.59802000  0.15444000  0.77758000  1.0
  Ag  Ag6  1  0.24754000  0.59803000  0.77758000  1.0
  Ag  Ag7  1  0.15444000  0.24754000  0.77759000  1.0
  H  H8  1  0.45040000  0.54577000  0.71383000  1.0
  H  H9  1  0.47197000  0.30960000  0.89289000  1.0
  H  H10  1  0.56286000  0.51367000  0.79333000  1.0
  H  H11  1  0.56752000  0.29608000  0.01702000  1.0
  H  H12  1  0.65594000  0.50249000  0.91630000  1.0
  H  H13  1  0.35255000  0.47208000  0.47780000  1.0
  H  H14  1  0.39453000  0.66942000  0.63793000  1.0
  H  H15  1  0.33842000  0.58388000  0.36303000  1.0
  H  H16  1  0.37996000  0.78058000  0.52552000  1.0
  H  H17  1  0.00383000  0.45040000  0.71383000  1.0
  H  H18  1  0.21843000  0.47197000  0.89289000  1.0
  H  H19  1  0.92348000  0.56286000  0.79333000  1.0
  H  H20  1  0.13640000  0.56752000  0.01703000  1.0
  H  H21  1  0.84158000  0.65593000  0.91630000  1.0
  H  H22  1  0.17537000  0.35255000  0.47780000  1.0
  H  H23  1  0.93605000  0.39453000  0.63793000  1.0
  H  H24  1  0.07770000  0.33842000  0.36302000  1.0
  H  H25  1  0.83946000  0.37996000  0.52552000  1.0
  H  H26  1  0.54577000  0.00383000  0.71383000  1.0
  H  H27  1  0.30960000  0.21843000  0.89289000  1.0
  H  H28  1  0.51367000  0.92347000  0.79333000  1.0
  H  H29  1  0.29608000  0.13640000  0.01702000  1.0
  H  H30  1  0.50249000  0.84157000  0.91631000  1.0
  H  H31  1  0.47208000  0.17537000  0.47780000  1.0
  H  H32  1  0.66942000  0.93605000  0.63793000  1.0
  H  H33  1  0.58388000  0.07770000  0.36302000  1.0
  H  H34  1  0.78058000  0.83946000  0.52552000  1.0
  H  H35  1  0.54960000  0.45424000  0.28617000  1.0
  H  H36  1  0.52804000  0.69040000  0.10711000  1.0
  H  H37  1  0.43714000  0.48634000  0.20667000  1.0
  H  H38  1  0.43249000  0.70392000  0.98297000  1.0
  H  H39  1  0.34406000  0.49752000  0.08369000  1.0
  H  H40  1  0.64747000  0.52791000  0.52220000  1.0
  H  H41  1  0.60548000  0.33058000  0.36207000  1.0
  H  H42  1  0.66160000  0.41612000  0.63698000  1.0
  H  H43  1  0.62005000  0.21942000  0.47448000  1.0
  H  H44  1  0.99616000  0.54960000  0.28617000  1.0
  H  H45  1  0.78156000  0.52804000  0.10711000  1.0
  H  H46  1  0.07652000  0.43714000  0.20667000  1.0
  H  H47  1  0.86359000  0.43249000  0.98297000  1.0
  H  H48  1  0.15842000  0.34406000  0.08369000  1.0
  H  H49  1  0.82462000  0.64747000  0.52220000  1.0
  H  H50  1  0.06394000  0.60548000  0.36207000  1.0
  H  H51  1  0.92229000  0.66160000  0.63698000  1.0
  H  H52  1  0.16053000  0.62006000  0.47448000  1.0
  H  H53  1  0.45424000  0.99616000  0.28617000  1.0
  H  H54  1  0.69040000  0.78157000  0.10711000  1.0
  H  H55  1  0.48634000  0.07652000  0.20667000  1.0
  H  H56  1  0.70392000  0.86359000  0.98297000  1.0
  H  H57  1  0.49752000  0.15841000  0.08369000  1.0
  H  H58  1  0.52792000  0.82461000  0.52220000  1.0
  H  H59  1  0.33058000  0.06394000  0.36207000  1.0
  H  H60  1  0.41611000  0.92229000  0.63698000  1.0
  H  H61  1  0.21942000  0.16053000  0.47448000  1.0
  C  C62  1  0.38412000  0.49049000  0.62827000  1.0
  C  C63  1  0.42693000  0.48982000  0.70371000  1.0
  C  C64  1  0.45692000  0.41135000  0.76122000  1.0
  C  C65  1  0.51052000  0.41164000  0.83381000  1.0
  C  C66  1  0.51350000  0.35049000  0.89865000  1.0
  C  C67  1  0.56265000  0.46656000  0.84220000  1.0
  C  C68  1  0.56609000  0.34328000  0.96760000  1.0
  C  C69  1  0.61583000  0.46006000  0.91089000  1.0
  C  C70  1  0.61877000  0.39782000  0.97488000  1.0
  C  C71  1  0.67027000  0.39153000  0.04597000  1.0
  C  C72  1  0.37532000  0.56191000  0.56521000  1.0
  C  C73  1  0.35826000  0.54003000  0.48670000  1.0
  C  C74  1  0.38324000  0.64944000  0.57795000  1.0
  C  C75  1  0.35012000  0.60193000  0.42355000  1.0
  C  C76  1  0.37440000  0.71276000  0.51545000  1.0
  C  C77  1  0.35778000  0.68963000  0.43730000  1.0
  C  C78  1  0.34898000  0.75319000  0.37318000  1.0
  C  C79  1  0.12539000  0.38413000  0.62827000  1.0
  C  C80  1  0.08325000  0.42693000  0.70371000  1.0
  C  C81  1  0.13173000  0.45692000  0.76122000  1.0
  C  C82  1  0.07784000  0.51052000  0.83381000  1.0
  C  C83  1  0.13601000  0.51350000  0.89865000  1.0
  C  C84  1  0.97079000  0.56265000  0.84220000  1.0
  C  C85  1  0.09063000  0.56609000  0.96760000  1.0
  C  C86  1  0.92411000  0.61583000  0.91089000  1.0
  C  C87  1  0.98341000  0.61877000  0.97488000  1.0
  C  C88  1  0.93821000  0.67026000  0.04597000  1.0
  C  C89  1  0.06277000  0.37532000  0.56521000  1.0
  C  C90  1  0.10171000  0.35826000  0.48670000  1.0
  C  C91  1  0.96732000  0.38324000  0.57795000  1.0
  C  C92  1  0.04795000  0.35012000  0.42355000  1.0
  C  C93  1  0.91284000  0.37439000  0.51545000  1.0
  C  C94  1  0.95259000  0.35778000  0.43730000  1.0
  C  C95  1  0.89783000  0.34898000  0.37318000  1.0
  C  C96  1  0.49048000  0.12540000  0.62827000  1.0
  C  C97  1  0.48982000  0.08325000  0.70371000  1.0
  C  C98  1  0.41136000  0.13172000  0.76122000  1.0
  C  C99  1  0.41164000  0.07784000  0.83381000  1.0
  C  C100  1  0.35049000  0.13602000  0.89865000  1.0
  C  C101  1  0.46656000  0.97079000  0.84221000  1.0
  C  C102  1  0.34328000  0.09063000  0.96760000  1.0
  C  C103  1  0.46006000  0.92411000  0.91089000  1.0
  C  C104  1  0.39781000  0.98341000  0.97488000  1.0
  C  C105  1  0.39153000  0.93820000  0.04597000  1.0
  C  C106  1  0.56191000  0.06277000  0.56521000  1.0
  C  C107  1  0.54003000  0.10171000  0.48670000  1.0
  C  C108  1  0.64944000  0.96732000  0.57795000  1.0
  C  C109  1  0.60193000  0.04795000  0.42355000  1.0
  C  C110  1  0.71277000  0.91283000  0.51545000  1.0
  C  C111  1  0.68963000  0.95259000  0.43730000  1.0
  C  C112  1  0.75319000  0.89783000  0.37318000  1.0
  C  C113  1  0.61587000  0.50952000  0.37173000  1.0
  C  C114  1  0.57306000  0.51019000  0.29630000  1.0
  C  C115  1  0.54308000  0.58865000  0.23879000  1.0
  C  C116  1  0.48949000  0.58835000  0.16619000  1.0
  C  C117  1  0.48651000  0.64951000  0.10135000  1.0
  C  C118  1  0.43735000  0.53345000  0.15779000  1.0
  C  C119  1  0.43392000  0.65672000  0.03240000  1.0
  C  C120  1  0.38417000  0.53994000  0.08911000  1.0
  C  C121  1  0.38123000  0.60218000  0.02512000  1.0
  C  C122  1  0.32974000  0.60848000  0.95403000  1.0
  C  C123  1  0.62469000  0.43809000  0.43479000  1.0
  C  C124  1  0.64175000  0.45997000  0.51330000  1.0
  C  C125  1  0.61677000  0.35056000  0.42205000  1.0
  C  C126  1  0.64989000  0.39807000  0.57645000  1.0
  C  C127  1  0.62561000  0.28723000  0.48455000  1.0
  C  C128  1  0.64223000  0.31037000  0.56270000  1.0
  C  C129  1  0.65104000  0.24681000  0.62682000  1.0
  C  C130  1  0.87461000  0.61587000  0.37173000  1.0
  C  C131  1  0.91675000  0.57307000  0.29630000  1.0
  C  C132  1  0.86827000  0.54308000  0.23879000  1.0
  C  C133  1  0.92215000  0.48949000  0.16619000  1.0
  C  C134  1  0.86398000  0.48651000  0.10135000  1.0
  C  C135  1  0.02919000  0.43736000  0.15779000  1.0
  C  C136  1  0.90936000  0.43392000  0.03240000  1.0
  C  C137  1  0.07588000  0.38418000  0.08911000  1.0
  C  C138  1  0.01658000  0.38124000  0.02512000  1.0
  C  C139  1  0.06178000  0.32974000  0.95403000  1.0
  C  C140  1  0.93722000  0.62469000  0.43479000  1.0
  C  C141  1  0.89828000  0.64175000  0.51330000  1.0
  C  C142  1  0.03267000  0.61677000  0.42205000  1.0
  C  C143  1  0.95204000  0.64989000  0.57645000  1.0
  C  C144  1  0.08716000  0.62561000  0.48455000  1.0
  C  C145  1  0.04740000  0.64224000  0.56270000  1.0
  C  C146  1  0.10215000  0.65104000  0.62682000  1.0
  C  C147  1  0.50952000  0.87460000  0.37173000  1.0
  C  C148  1  0.51018000  0.91676000  0.29630000  1.0
  C  C149  1  0.58865000  0.86827000  0.23879000  1.0
  C  C150  1  0.58836000  0.92215000  0.16619000  1.0
  C  C151  1  0.64951000  0.86398000  0.10135000  1.0
  C  C152  1  0.53345000  0.02920000  0.15779000  1.0
  C  C153  1  0.65672000  0.90936000  0.03240000  1.0
  C  C154  1  0.53994000  0.07588000  0.08911000  1.0
  C  C155  1  0.60218000  0.01658000  0.02511000  1.0
  C  C156  1  0.60847000  0.06179000  0.95402000  1.0
  C  C157  1  0.43809000  0.93722000  0.43479000  1.0
  C  C158  1  0.45997000  0.89828000  0.51330000  1.0
  C  C159  1  0.35056000  0.03266000  0.42205000  1.0
  C  C160  1  0.39807000  0.95204000  0.57645000  1.0
  C  C161  1  0.28723000  0.08715000  0.48455000  1.0
  C  C162  1  0.31036000  0.04741000  0.56270000  1.0
  C  C163  1  0.24681000  0.10215000  0.62682000  1.0
  N  N164  1  0.33991000  0.80592000  0.31932000  1.0
  N  N165  1  0.71229000  0.38490000  0.10605000  1.0
  N  N166  1  0.85417000  0.33991000  0.31932000  1.0
  N  N167  1  0.90281000  0.71229000  0.10605000  1.0
  N  N168  1  0.80592000  0.85417000  0.31932000  1.0
  N  N169  1  0.38490000  0.90281000  0.10605000  1.0
  N  N170  1  0.66010000  0.19408000  0.68068000  1.0
  N  N171  1  0.28771000  0.61510000  0.89395000  1.0
  N  N172  1  0.14583000  0.66010000  0.68068000  1.0
  N  N173  1  0.09719000  0.28770000  0.89395000  1.0
  N  N174  1  0.19408000  0.14582000  0.68068000  1.0
  N  N175  1  0.61510000  0.09719000  0.89395000  1.0
  O  O176  1  0.35325000  0.42830000  0.60908000  1.0
  O  O177  1  0.43985000  0.33575000  0.75375000  1.0
  O  O178  1  0.21845000  0.35325000  0.60908000  1.0
  O  O179  1  0.22440000  0.43984000  0.75375000  1.0
  O  O180  1  0.42830000  0.21845000  0.60908000  1.0
  O  O181  1  0.33576000  0.22440000  0.75375000  1.0
  O  O182  1  0.64674000  0.57170000  0.39092000  1.0
  O  O183  1  0.56015000  0.66424000  0.24625000  1.0
  O  O184  1  0.78155000  0.64675000  0.39092000  1.0
  O  O185  1  0.77561000  0.56015000  0.24625000  1.0
  O  O186  1  0.57170000  0.78155000  0.39092000  1.0
  O  O187  1  0.66424000  0.77561000  0.24625000  1.0
