# generated using pymatgen
data_Ni2H32C52N10O9
_symmetry_space_group_name_H-M   'P 1'
_cell_length_a   11.60050000
_cell_length_b   15.31360000
_cell_length_c   16.91124005
_cell_angle_alpha   97.20660546
_cell_angle_beta   110.05728792
_cell_angle_gamma   112.22300000
_symmetry_Int_Tables_number   1
_chemical_formula_structural   Ni2H32C52N10O9
_chemical_formula_sum   'Ni4 H64 C104 N20 O18'
_cell_volume   2497.38294547
_cell_formula_units_Z   2
loop_
 _symmetry_equiv_pos_site_id
 _symmetry_equiv_pos_as_xyz
  1  'x, y, z'
loop_
 _atom_site_type_symbol
 _atom_site_label
 _atom_site_symmetry_multiplicity
 _atom_site_fract_x
 _atom_site_fract_y
 _atom_site_fract_z
 _atom_site_occupancy
  Ni  Ni0  1  0.50000000  0.50000000  0.00000000  1.0
  Ni  Ni1  1  0.50000000  0.00000000  0.50000000  1.0
  Ni  Ni2  1  1.00000000  0.50000000  0.00000000  1.0
  Ni  Ni3  1  0.00000000  0.00000000  0.50000000  1.0
  H  H4  1  0.81037000  0.62083000  0.06520000  1.0
  H  H5  1  0.62480000  0.87912000  0.43491000  1.0
  H  H6  1  0.18964000  0.37917000  0.93481000  1.0
  H  H7  1  0.37520000  0.12088000  0.56509000  1.0
  H  H8  1  0.98165000  0.79178000  0.10139000  1.0
  H  H9  1  0.58850000  0.70802000  0.39851000  1.0
  H  H10  1  0.01836000  0.20822000  0.89862000  1.0
  H  H11  1  0.41150000  0.29198000  0.60150000  1.0
  H  H12  1  0.65051000  0.87429000  0.04820000  1.0
  H  H13  1  0.22846000  0.62615000  0.45194000  1.0
  H  H14  1  0.34949000  0.12571000  0.95180000  1.0
  H  H15  1  0.77153000  0.37384000  0.54805000  1.0
  H  H16  1  0.49366000  0.69882000  0.01686000  1.0
  H  H17  1  0.27897000  0.80180000  0.48358000  1.0
  H  H18  1  0.50634000  0.30118000  0.98314000  1.0
  H  H19  1  0.72102000  0.19820000  0.51641000  1.0
  H  H20  1  0.01116000  0.87436000  0.25044000  1.0
  H  H21  1  0.38596000  0.62541000  0.24948000  1.0
  H  H22  1  0.98884000  0.12565000  0.74956000  1.0
  H  H23  1  0.61405000  0.37459000  0.75052000  1.0
  H  H24  1  0.18722000  0.86917000  0.37871000  1.0
  H  H25  1  0.43935000  0.63080000  0.12139000  1.0
  H  H26  1  0.81277000  0.13083000  0.62129000  1.0
  H  H27  1  0.56065000  0.36920000  0.87861000  1.0
  H  H28  1  0.50217000  0.09835000  0.36081000  1.0
  H  H29  1  0.54297000  0.40147000  0.13914000  1.0
  H  H30  1  0.49784000  0.90165000  0.63919000  1.0
  H  H31  1  0.45703000  0.59853000  0.86086000  1.0
  H  H32  1  0.33780000  0.11550000  0.22997000  1.0
  H  H33  1  0.49244000  0.38434000  0.27002000  1.0
  H  H34  1  0.66221000  0.88450000  0.77003000  1.0
  H  H35  1  0.50754000  0.61566000  0.72997000  1.0
  H  H36  1  0.19035000  0.29360000  0.16803000  1.0
  H  H37  1  0.22869000  0.20654000  0.33206000  1.0
  H  H38  1  0.80964000  0.70640000  0.83196000  1.0
  H  H39  1  0.77130000  0.79346000  0.66793000  1.0
  H  H40  1  0.18063000  0.44434000  0.12866000  1.0
  H  H41  1  0.10762000  0.05579000  0.37135000  1.0
  H  H42  1  0.81937000  0.55567000  0.87134000  1.0
  H  H43  1  0.89238000  0.94420000  0.62865000  1.0
  H  H44  1  0.79227000  0.28085000  0.92694000  1.0
  H  H45  1  0.08495000  0.21939000  0.57335000  1.0
  H  H46  1  0.20773000  0.71915000  0.07306000  1.0
  H  H47  1  0.91506000  0.78061000  0.42665000  1.0
  H  H48  1  0.78131000  0.12306000  0.95608000  1.0
  H  H49  1  0.20264000  0.37720000  0.54433000  1.0
  H  H50  1  0.21870000  0.87694000  0.04392000  1.0
  H  H51  1  0.79737000  0.62280000  0.45567000  1.0
  H  H52  1  0.35272000  0.68558000  0.88193000  1.0
  H  H53  1  0.28459667  0.81410000  0.61793000  1.0
  H  H54  1  0.64729000  0.31442000  0.11807000  1.0
  H  H55  1  0.71540333  0.18591000  0.38207000  1.0
  H  H56  1  0.00115000  0.65026000  0.65935000  1.0
  H  H57  1  0.19186000  0.84968000  0.84087000  1.0
  H  H58  1  0.99885000  0.34974000  0.34065000  1.0
  H  H59  1  0.80816000  0.15032000  0.15914000  1.0
  H  H60  1  0.85562000  0.50125000  0.68855000  1.0
  H  H61  1  0.16622000  0.99885000  0.81186000  1.0
  H  H62  1  0.14439000  0.49875000  0.31146000  1.0
  H  H63  1  0.83379000  0.00115000  0.18814000  1.0
  H  H64  1  0.79448000  0.99135000  0.00041000  1.0
  H  H65  1  0.30300000  0.50897000  0.49969000  1.0
  H  H66  1  0.20552000  0.00865000  0.99960000  1.0
  H  H67  1  0.69699000  0.49102000  0.50030000  1.0
  C  C68  1  0.77847000  0.67881000  0.06350000  1.0
  C  C69  1  0.53659000  0.82126000  0.43662000  1.0
  C  C70  1  0.22154000  0.32119000  0.93650000  1.0
  C  C71  1  0.46341000  0.17874000  0.56338000  1.0
  C  C72  1  0.87447000  0.77540000  0.08249000  1.0
  C  C73  1  0.51678000  0.72458000  0.41749000  1.0
  C  C74  1  0.12553000  0.22461000  0.91751000  1.0
  C  C75  1  0.48322000  0.27541000  0.58251000  1.0
  C  C76  1  0.83154000  0.84932000  0.07514000  1.0
  C  C77  1  0.40734000  0.65079000  0.42492000  1.0
  C  C78  1  0.16845000  0.15068000  0.92486000  1.0
  C  C79  1  0.59265000  0.34920000  0.57508000  1.0
  C  C80  1  0.69094000  0.82050000  0.05057000  1.0
  C  C81  1  0.32034000  0.67981000  0.44960000  1.0
  C  C82  1  0.30906000  0.17950000  0.94943000  1.0
  C  C83  1  0.67965000  0.32019000  0.55039000  1.0
  C  C84  1  0.60242000  0.72248000  0.03447000  1.0
  C  C85  1  0.34614000  0.77788000  0.46581000  1.0
  C  C86  1  0.39758000  0.27752000  0.96553000  1.0
  C  C87  1  0.65386000  0.22211000  0.53419000  1.0
  C  C88  1  0.92719000  0.95192000  0.09412000  1.0
  C  C89  1  0.38113000  0.54810000  0.40584000  1.0
  C  C90  1  0.07281000  0.04809000  0.90588000  1.0
  C  C91  1  0.61887000  0.45190000  0.59416000  1.0
  C  C92  1  0.06340000  0.01328000  0.15622000  1.0
  C  C93  1  0.39377000  0.48659000  0.34374000  1.0
  C  C94  1  0.93660000  0.98672000  0.84378000  1.0
  C  C95  1  0.60623000  0.51340000  0.65626000  1.0
  C  C96  1  0.99354000  0.10770000  0.08785000  1.0
  C  C97  1  0.29820000  0.39240000  0.41234000  1.0
  C  C98  1  0.00646000  0.89230000  0.91215000  1.0
  C  C99  1  0.70180000  0.60760000  0.58766000  1.0
  C  C100  1  0.15922000  0.99521000  0.22698000  1.0
  C  C101  1  0.43677000  0.50455000  0.27294000  1.0
  C  C102  1  0.84078000  0.00479000  0.77302000  1.0
  C  C103  1  0.56323000  0.49545000  0.72706000  1.0
  C  C104  1  0.11873000  0.92432000  0.26984000  1.0
  C  C105  1  0.42421000  0.57543000  0.23006000  1.0
  C  C106  1  0.88126000  0.07569000  0.73015000  1.0
  C  C107  1  0.57579000  0.42457000  0.76994000  1.0
  C  C108  1  0.21785000  0.92202000  0.34366000  1.0
  C  C109  1  0.45208000  0.57784000  0.15633000  1.0
  C  C110  1  0.78214000  0.07798000  0.65634000  1.0
  C  C111  1  0.54792000  0.42216000  0.84367000  1.0
  C  C112  1  0.39226000  0.05074000  0.33384000  1.0
  C  C113  1  0.50753000  0.44903000  0.16612000  1.0
  C  C114  1  0.60774000  0.94926000  0.66616000  1.0
  C  C115  1  0.49246000  0.55096000  0.83387000  1.0
  C  C116  1  0.30072000  0.05849000  0.26019000  1.0
  C  C117  1  0.48196000  0.44131000  0.23979000  1.0
  C  C118  1  0.69929000  0.94151000  0.73981000  1.0
  C  C119  1  0.51803000  0.55868000  0.76020000  1.0
  C  C120  1  0.98720000  0.19488000  0.06519000  1.0
  C  C121  1  0.22735000  0.30527000  0.43505000  1.0
  C  C122  1  0.01279000  0.80512000  0.93480000  1.0
  C  C123  1  0.77265000  0.69472000  0.56494000  1.0
  C  C124  1  0.10036000  0.28761000  0.11397000  1.0
  C  C125  1  0.19883000  0.21250000  0.38616000  1.0
  C  C126  1  0.89964000  0.71239000  0.88603000  1.0
  C  C127  1  0.80117000  0.78749000  0.61384000  1.0
  C  C128  1  0.09518000  0.37113000  0.09300000  1.0
  C  C129  1  0.13110000  0.12901000  0.40709000  1.0
  C  C130  1  0.90482000  0.62887000  0.90700000  1.0
  C  C131  1  0.86890000  0.87099000  0.59291000  1.0
  C  C132  1  0.87657000  0.27980000  0.98073000  1.0
  C  C133  1  0.11647000  0.22043000  0.51956000  1.0
  C  C134  1  0.12343000  0.72021000  0.01927000  1.0
  C  C135  1  0.88354000  0.77956000  0.48044000  1.0
  C  C136  1  0.87285000  0.19215000  0.99742000  1.0
  C  C137  1  0.18367000  0.30808000  0.50291000  1.0
  C  C138  1  0.12715000  0.80785000  0.00258000  1.0
  C  C139  1  0.81632000  0.69191000  0.49708000  1.0
  C  C140  1  0.23148000  0.53730000  0.93749000  1.0
  C  C141  1  0.25654000  0.96262000  0.56265000  1.0
  C  C142  1  0.76853000  0.46271000  0.06251000  1.0
  C  C143  1  0.74346000  0.03738000  0.43735000  1.0
  C  C144  1  0.15963000  0.56445000  0.85946000  1.0
  C  C145  1  0.23554000  0.93544000  0.64069000  1.0
  C  C146  1  0.84038000  0.43555000  0.14054000  1.0
  C  C147  1  0.76446000  0.06456000  0.35931000  1.0
  C  C148  1  0.24249000  0.64535000  0.84067000  1.0
  C  C149  1  0.25619000  0.85443000  0.65937000  1.0
  C  C150  1  0.75751000  0.35465000  0.15933000  1.0
  C  C151  1  0.74383000  0.14557000  0.34064000  1.0
  C  C152  1  0.18625000  0.67503000  0.76905000  1.0
  C  C153  1  0.24203000  0.82475000  0.73098000  1.0
  C  C154  1  0.81375000  0.32497000  0.23095000  1.0
  C  C155  1  0.75797000  0.17525000  0.26902000  1.0
  C  C156  1  0.04514000  0.62536000  0.71465000  1.0
  C  C157  1  0.20523000  0.87455000  0.78552000  1.0
  C  C158  1  0.95487000  0.37464000  0.28535000  1.0
  C  C159  1  0.79479000  0.12546000  0.21449000  1.0
  C  C160  1  0.96462000  0.54321000  0.73192000  1.0
  C  C161  1  0.18974000  0.95683000  0.76839000  1.0
  C  C162  1  0.03538000  0.45680000  0.26808000  1.0
  C  C163  1  0.81026000  0.04317000  0.23161000  1.0
  C  C164  1  0.01862000  0.51054000  0.80333000  1.0
  C  C165  1  0.20491000  0.98951000  0.69696000  1.0
  C  C166  1  0.98138000  0.48947000  0.19667000  1.0
  C  C167  1  0.79510000  0.01049000  0.30305000  1.0
  C  C168  1  0.91895000  0.41439000  0.80813000  1.0
  C  C169  1  0.19695000  0.08577000  0.69198000  1.0
  C  C170  1  0.08106000  0.58561000  0.19188000  1.0
  C  C171  1  0.80305000  0.91423000  0.30802000  1.0
  N  N172  1  0.64339000  0.65123000  0.03913000  1.0
  N  N173  1  0.45367000  0.84903000  0.46112000  1.0
  N  N174  1  0.35662000  0.34877000  0.96088000  1.0
  N  N175  1  0.54632000  0.15096000  0.53887000  1.0
  N  N176  1  0.88667000  0.01394000  0.05198000  1.0
  N  N177  1  0.32099000  0.48622000  0.44814000  1.0
  N  N178  1  0.11333000  0.98606000  0.94802000  1.0
  N  N179  1  0.67901000  0.51377000  0.55186000  1.0
  N  N180  1  0.10160000  0.10814000  0.15041000  1.0
  N  N181  1  0.34309000  0.39179000  0.34970000  1.0
  N  N182  1  0.89840000  0.89186000  0.84959000  1.0
  N  N183  1  0.65691000  0.60821000  0.65030000  1.0
  N  N184  1  0.35253000  0.98495000  0.37674000  1.0
  N  N185  1  0.49070000  0.51486000  0.12320000  1.0
  N  N186  1  0.64746000  0.01505000  0.62326000  1.0
  N  N187  1  0.50930000  0.48514000  0.87680000  1.0
  N  N188  1  0.98574000  0.36818000  0.02771000  1.0
  N  N189  1  0.09013000  0.13202000  0.47249000  1.0
  N  N190  1  0.01426000  0.63183000  0.97229000  1.0
  N  N191  1  0.90987000  0.86798000  0.52751000  1.0
  O  O192  1  0.17963000  0.51225000  0.99080000  1.0
  O  O193  1  0.17628000  0.98745000  0.50918000  1.0
  O  O194  1  0.82038000  0.48776000  0.00920000  1.0
  O  O195  1  0.82371000  0.01253000  0.49081000  1.0
  O  O196  1  0.34742000  0.54247000  0.94474000  1.0
  O  O197  1  0.36037000  0.95775000  0.55561000  1.0
  O  O198  1  0.65257000  0.45753000  0.05525000  1.0
  O  O199  1  0.63963000  0.04225000  0.44439000  1.0
  O  O200  1  0.88265000  0.41656000  0.87209000  1.0
  O  O201  1  0.09434000  0.08360000  0.62815000  1.0
  O  O202  1  0.11734000  0.58345000  0.12791000  1.0
  O  O203  1  0.90566000  0.91640000  0.37184000  1.0
  O  O204  1  0.87094000  0.33962000  0.74507000  1.0
  O  O205  1  0.28727000  0.16067000  0.75471000  1.0
  O  O206  1  0.12904000  0.66038000  0.25493000  1.0
  O  O207  1  0.71271000  0.83933000  0.24529000  1.0
  O  O208  1  0.27622000  0.74984000  0.74998000  1.0
  O  O209  1  0.72379000  0.25015000  0.25003000  1.0
