# generated using pymatgen
data_NaH7C4(N2O)4
_symmetry_space_group_name_H-M   'P 1'
_cell_length_a   6.56799000
_cell_length_b   10.35170000
_cell_length_c   15.14030000
_cell_angle_alpha   92.07870000
_cell_angle_beta   90.01710000
_cell_angle_gamma   108.49600000
_symmetry_Int_Tables_number   1
_chemical_formula_structural   NaH7C4(N2O)4
_chemical_formula_sum   'Na4 H28 C16 N32 O16'
_cell_volume   975.49666470
_cell_formula_units_Z   4
loop_
 _symmetry_equiv_pos_site_id
 _symmetry_equiv_pos_as_xyz
  1  'x, y, z'
loop_
 _atom_site_type_symbol
 _atom_site_label
 _atom_site_symmetry_multiplicity
 _atom_site_fract_x
 _atom_site_fract_y
 _atom_site_fract_z
 _atom_site_occupancy
  Na  Na0  1  0.57843000  0.80496000  0.73772000  1.0
  Na  Na1  1  0.77355000  0.19510000  0.76215000  1.0
  Na  Na2  1  0.42157000  0.19504000  0.26228000  1.0
  Na  Na3  1  0.22645000  0.80490000  0.23785000  1.0
  H  H4  1  0.74887000  0.18915000  0.98193000  1.0
  H  H5  1  0.55973000  0.81091000  0.51794000  1.0
  H  H6  1  0.25114000  0.81085000  0.01807000  1.0
  H  H7  1  0.44027000  0.18909000  0.48206000  1.0
  H  H8  1  0.78021000  0.84683000  0.11658000  1.0
  H  H9  1  0.93403000  0.15304000  0.38330000  1.0
  H  H10  1  0.21979000  0.15317000  0.88342000  1.0
  H  H11  1  0.06598000  0.84696000  0.61670000  1.0
  H  H12  1  0.21937000  0.67422000  0.84035000  1.0
  H  H13  1  0.54507000  0.32577000  0.65965000  1.0
  H  H14  1  0.78063000  0.32577000  0.15965000  1.0
  H  H15  1  0.45493000  0.67424000  0.34035000  1.0
  H  H16  1  0.21908000  0.82813000  0.84238000  1.0
  H  H17  1  0.39069000  0.17187000  0.65770000  1.0
  H  H18  1  0.78092000  0.17187000  0.15762000  1.0
  H  H19  1  0.60931000  0.82814000  0.34230000  1.0
  H  H20  1  0.81518000  0.62608000  0.66451000  1.0
  H  H21  1  0.18906000  0.37391000  0.83542000  1.0
  H  H22  1  0.18482000  0.37392000  0.33549000  1.0
  H  H23  1  0.81093000  0.62608000  0.16458000  1.0
  H  H24  1  0.98256000  0.71244000  0.73878000  1.0
  H  H25  1  0.27008000  0.28757000  0.76116000  1.0
  H  H26  1  0.01744000  0.28756000  0.26122000  1.0
  H  H27  1  0.72992000  0.71242000  0.23884000  1.0
  H  H28  1  0.71459000  0.54429000  0.81435000  1.0
  H  H29  1  0.17035000  0.45569000  0.68557000  1.0
  H  H30  1  0.28542000  0.45571000  0.18564000  1.0
  H  H31  1  0.82965000  0.54431000  0.31443000  1.0
  C  C32  1  0.72677000  0.98457000  0.92692000  1.0
  C  C33  1  0.74227000  0.01552000  0.57292000  1.0
  C  C34  1  0.27322000  0.01543000  0.07308000  1.0
  C  C35  1  0.25773000  0.98448000  0.42709000  1.0
  C  C36  1  0.76191000  0.91227000  0.06441000  1.0
  C  C37  1  0.85009000  0.08768000  0.43546000  1.0
  C  C38  1  0.23809000  0.08773000  0.93559000  1.0
  C  C39  1  0.14992000  0.91232000  0.56454000  1.0
  C  C40  1  0.75090000  0.44390000  0.01747000  1.0
  C  C41  1  0.30698000  0.55621000  0.48250000  1.0
  C  C42  1  0.24910000  0.55610000  0.98253000  1.0
  C  C43  1  0.69301000  0.44379000  0.51750000  1.0
  C  C44  1  0.72258000  0.48945000  0.87344000  1.0
  C  C45  1  0.23311000  0.51059000  0.62651000  1.0
  C  C46  1  0.27742000  0.51055000  0.12656000  1.0
  C  C47  1  0.76689000  0.48942000  0.37349000  1.0
  N  N48  1  0.74866000  0.08380000  0.99070000  1.0
  N  N49  1  0.66488000  0.91625000  0.50915000  1.0
  N  N50  1  0.25134000  0.91619000  0.00930000  1.0
  N  N51  1  0.33512000  0.08375000  0.49085000  1.0
  N  N52  1  0.77010000  0.03976000  0.07380000  1.0
  N  N53  1  0.73064000  0.96021000  0.42607000  1.0
  N  N54  1  0.22990000  0.96023000  0.92620000  1.0
  N  N55  1  0.26937000  0.03979000  0.57393000  1.0
  N  N56  1  0.73543000  0.87248000  0.97566000  1.0
  N  N57  1  0.86325000  0.12753000  0.52419000  1.0
  N  N58  1  0.26456000  0.12752000  0.02434000  1.0
  N  N59  1  0.13675000  0.87247000  0.47581000  1.0
  N  N60  1  0.72782000  0.75096000  0.93443000  1.0
  N  N61  1  0.97706000  0.24906000  0.56543000  1.0
  N  N62  1  0.27218000  0.24904000  0.06557000  1.0
  N  N63  1  0.02294000  0.75094000  0.43457000  1.0
  N  N64  1  0.74349000  0.66893000  0.99180000  1.0
  N  N65  1  0.07472000  0.33114000  0.50808000  1.0
  N  N66  1  0.25651000  0.33107000  0.00819000  1.0
  N  N67  1  0.92528000  0.66887000  0.49192000  1.0
  N  N68  1  0.73779000  0.54597000  0.95864000  1.0
  N  N69  1  0.19190000  0.45409000  0.54130000  1.0
  N  N70  1  0.26221000  0.45403000  0.04135000  1.0
  N  N71  1  0.80809000  0.54592000  0.45870000  1.0
  N  N72  1  0.74435000  0.33492000  0.96541000  1.0
  N  N73  1  0.40939000  0.66519000  0.53458000  1.0
  N  N74  1  0.25566000  0.66508000  0.03459000  1.0
  N  N75  1  0.59061000  0.33481000  0.46542000  1.0
  N  N76  1  0.72732000  0.36461000  0.87737000  1.0
  N  N77  1  0.36265000  0.63548000  0.62261000  1.0
  N  N78  1  0.27268000  0.63539000  0.12263000  1.0
  N  N79  1  0.63735000  0.36452000  0.37739000  1.0
  O  O80  1  0.70556000  0.98853000  0.84561000  1.0
  O  O81  1  0.71695000  0.01159000  0.65421000  1.0
  O  O82  1  0.29444000  0.01146000  0.15440000  1.0
  O  O83  1  0.28305000  0.98842000  0.34579000  1.0
  O  O84  1  0.76240000  0.45997000  0.10039000  1.0
  O  O85  1  0.30234000  0.54013000  0.39959000  1.0
  O  O86  1  0.23759000  0.54003000  0.89960000  1.0
  O  O87  1  0.69765000  0.45988000  0.60041000  1.0
  O  O88  1  0.22238000  0.75114000  0.80174000  1.0
  O  O89  1  0.47111000  0.24891000  0.69829000  1.0
  O  O90  1  0.77762000  0.24886000  0.19826000  1.0
  O  O91  1  0.52890000  0.75109000  0.30171000  1.0
  O  O92  1  0.84559000  0.70432000  0.70731000  1.0
  O  O93  1  0.14125000  0.29571000  0.79261000  1.0
  O  O94  1  0.15440000  0.29568000  0.29269000  1.0
  O  O95  1  0.85875000  0.70429000  0.20739000  1.0
