# generated using pymatgen
data_Zn4H39C51S3N3O16
_symmetry_space_group_name_H-M   'P 1'
_cell_length_a   17.28230000
_cell_length_b   17.28230000
_cell_length_c   17.27940000
_cell_angle_alpha   89.12820000
_cell_angle_beta   89.12830000
_cell_angle_gamma   88.76910000
_symmetry_Int_Tables_number   1
_chemical_formula_structural   Zn4H39C51S3N3O16
_chemical_formula_sum   'Zn8 H78 C102 S6 N6 O32'
_cell_volume   5158.61448278
_cell_formula_units_Z   2
loop_
 _symmetry_equiv_pos_site_id
 _symmetry_equiv_pos_as_xyz
  1  'x, y, z'
loop_
 _atom_site_type_symbol
 _atom_site_label
 _atom_site_symmetry_multiplicity
 _atom_site_fract_x
 _atom_site_fract_y
 _atom_site_fract_z
 _atom_site_occupancy
  Zn  Zn0  1  0.57677000  0.57677000  0.30917000  1.0
  Zn  Zn1  1  0.42323000  0.42323000  0.69083000  1.0
  Zn  Zn2  1  0.70862000  0.57690000  0.17603000  1.0
  Zn  Zn3  1  0.42310000  0.29138000  0.82397000  1.0
  Zn  Zn4  1  0.29138000  0.42310000  0.82397000  1.0
  Zn  Zn5  1  0.57690000  0.70862000  0.17603000  1.0
  Zn  Zn6  1  0.70664000  0.70664000  0.30557000  1.0
  Zn  Zn7  1  0.29336000  0.29336000  0.69443000  1.0
  H  H8  1  0.56171000  0.56171000  0.70118000  1.0
  H  H9  1  0.43829000  0.43829000  0.29882000  1.0
  H  H10  1  0.55353000  0.55353000  0.55727000  1.0
  H  H11  1  0.44647000  0.44647000  0.44273000  1.0
  H  H12  1  0.94644000  0.73619000  0.31392000  1.0
  H  H13  1  0.26381000  0.05356000  0.68608000  1.0
  H  H14  1  0.05356000  0.26381000  0.68608000  1.0
  H  H15  1  0.73619000  0.94644000  0.31392000  1.0
  H  H16  1  0.09020000  0.53908000  0.15743000  1.0
  H  H17  1  0.46092000  0.90980000  0.84257000  1.0
  H  H18  1  0.90980000  0.46092000  0.84257000  1.0
  H  H19  1  0.53908000  0.09020000  0.15743000  1.0
  H  H20  1  0.94531000  0.53953000  0.16366000  1.0
  H  H21  1  0.46047000  0.05469000  0.83634000  1.0
  H  H22  1  0.05469000  0.46047000  0.83634000  1.0
  H  H23  1  0.53953000  0.94531000  0.16366000  1.0
  H  H24  1  0.72766000  0.72766000  0.53353000  1.0
  H  H25  1  0.27234000  0.27234000  0.46648000  1.0
  H  H26  1  0.56497000  0.74260000  0.93792000  1.0
  H  H27  1  0.25740000  0.43503000  0.06208000  1.0
  H  H28  1  0.43503000  0.25740000  0.06208000  1.0
  H  H29  1  0.74260000  0.56496000  0.93792000  1.0
  H  H30  1  0.56303000  0.74119000  0.79331000  1.0
  H  H31  1  0.25881000  0.43697000  0.20669000  1.0
  H  H32  1  0.43697000  0.25881000  0.20669000  1.0
  H  H33  1  0.74119000  0.56303000  0.79331000  1.0
  H  H34  1  0.19504000  0.72010000  0.13731000  1.0
  H  H35  1  0.27989000  0.80496000  0.86269000  1.0
  H  H36  1  0.80496000  0.27990000  0.86269000  1.0
  H  H37  1  0.72010000  0.19504000  0.13731000  1.0
  H  H38  1  0.33992000  0.71974000  0.13938000  1.0
  H  H39  1  0.28026000  0.66008000  0.86062000  1.0
  H  H40  1  0.66008000  0.28026000  0.86062000  1.0
  H  H41  1  0.71973000  0.33992000  0.13938000  1.0
  H  H42  1  0.33810000  0.55440000  0.32763000  1.0
  H  H43  1  0.44560000  0.66190000  0.67237000  1.0
  H  H44  1  0.66190000  0.44560000  0.67237000  1.0
  H  H45  1  0.55440000  0.33810000  0.32763000  1.0
  H  H46  1  0.19363000  0.55361000  0.32519000  1.0
  H  H47  1  0.44639000  0.80637000  0.67481000  1.0
  H  H48  1  0.80637000  0.44639000  0.67481000  1.0
  H  H49  1  0.55361000  0.19363000  0.32519000  1.0
  H  H50  1  0.18848000  0.93936000  0.25970000  1.0
  H  H51  1  0.06064000  0.81152000  0.74030000  1.0
  H  H52  1  0.81152000  0.06064000  0.74030000  1.0
  H  H53  1  0.93936000  0.18848000  0.25970000  1.0
  H  H54  1  0.23802000  0.94140000  0.35070000  1.0
  H  H55  1  0.05860000  0.76198000  0.64930000  1.0
  H  H56  1  0.76198000  0.05860000  0.64930000  1.0
  H  H57  1  0.94140000  0.23802000  0.35070000  1.0
  H  H58  1  0.28121000  0.89272000  0.26964000  1.0
  H  H59  1  0.10728000  0.71878000  0.73036000  1.0
  H  H60  1  0.71879000  0.10729000  0.73036000  1.0
  H  H61  1  0.89272000  0.28122000  0.26964000  1.0
  H  H62  1  0.23112000  0.83000000  0.43662000  1.0
  H  H63  1  0.17001000  0.76888000  0.56338000  1.0
  H  H64  1  0.76889000  0.17001000  0.56337000  1.0
  H  H65  1  0.83000000  0.23112000  0.43662000  1.0
  H  H66  1  0.19375000  0.74144000  0.40167000  1.0
  H  H67  1  0.25856000  0.80625000  0.59833000  1.0
  H  H68  1  0.80625000  0.25856000  0.59833000  1.0
  H  H69  1  0.74144000  0.19375000  0.40167000  1.0
  H  H70  1  0.28488000  0.77509000  0.36655000  1.0
  H  H71  1  0.22491000  0.71512000  0.63345000  1.0
  H  H72  1  0.71512000  0.22491000  0.63345000  1.0
  H  H73  1  0.77509000  0.28489000  0.36655000  1.0
  H  H74  1  0.93637000  0.86331000  0.68165000  1.0
  H  H75  1  0.13669000  0.06363000  0.31835000  1.0
  H  H76  1  0.06363000  0.13669000  0.31835000  1.0
  H  H77  1  0.86331000  0.93637000  0.68165000  1.0
  H  H78  1  0.90686000  0.90686000  0.77124000  1.0
  H  H79  1  0.09314000  0.09314000  0.22876000  1.0
  H  H80  1  0.74420000  0.81756000  0.81815000  1.0
  H  H81  1  0.18244000  0.25580000  0.18185000  1.0
  H  H82  1  0.25580000  0.18244000  0.18185000  1.0
  H  H83  1  0.81756000  0.74420000  0.81815000  1.0
  H  H84  1  0.83987000  0.83987000  0.84715000  1.0
  H  H85  1  0.16013000  0.16013000  0.15285000  1.0
  C  C86  1  0.65238000  0.65238000  0.03256000  1.0
  C  C87  1  0.34762000  0.34762000  0.96744000  1.0
  C  C88  1  0.65412000  0.65412000  0.94628000  1.0
  C  C89  1  0.34589000  0.34588000  0.05372000  1.0
  C  C90  1  0.64871000  0.64871000  0.69841000  1.0
  C  C91  1  0.35129000  0.35129000  0.30159000  1.0
  C  C92  1  0.65232000  0.65232000  0.78411000  1.0
  C  C93  1  0.34768000  0.34768000  0.21589000  1.0
  C  C94  1  0.43347000  0.63911000  0.23653000  1.0
  C  C95  1  0.36089000  0.56653000  0.76347000  1.0
  C  C96  1  0.56654000  0.36090000  0.76347000  1.0
  C  C97  1  0.63911000  0.43346000  0.23653000  1.0
  C  C98  1  0.59791000  0.59791000  0.66394000  1.0
  C  C99  1  0.40209000  0.40209000  0.33606000  1.0
  C  C100  1  0.59318000  0.59318000  0.58370000  1.0
  C  C101  1  0.40683000  0.40682000  0.41630000  1.0
  C  C102  1  0.63782000  0.63782000  0.45092000  1.0
  C  C103  1  0.36219000  0.36218000  0.54908000  1.0
  C  C104  1  0.93720000  0.63724000  0.23923000  1.0
  C  C105  1  0.36276000  0.06280000  0.76077000  1.0
  C  C106  1  0.06280000  0.36276000  0.76076000  1.0
  C  C107  1  0.63724000  0.93720000  0.23924000  1.0
  C  C108  1  0.97750000  0.69290000  0.27966000  1.0
  C  C109  1  0.30710000  0.02250000  0.72034000  1.0
  C  C110  1  0.02250000  0.30711000  0.72034000  1.0
  C  C111  1  0.69289000  0.97750000  0.27966000  1.0
  C  C112  1  0.05766000  0.69238000  0.27494000  1.0
  C  C113  1  0.30763000  0.94234000  0.72507000  1.0
  C  C114  1  0.94234000  0.30763000  0.72506000  1.0
  C  C115  1  0.69237000  0.05766000  0.27494000  1.0
  C  C116  1  0.09953000  0.63719000  0.23165000  1.0
  C  C117  1  0.36281000  0.90047000  0.76836000  1.0
  C  C118  1  0.90047000  0.36281000  0.76835000  1.0
  C  C119  1  0.63719000  0.09953000  0.23164000  1.0
  C  C120  1  0.05822000  0.58215000  0.19142000  1.0
  C  C121  1  0.41785000  0.94178000  0.80858000  1.0
  C  C122  1  0.94178000  0.41785000  0.80858000  1.0
  C  C123  1  0.58215000  0.05822000  0.19142000  1.0
  C  C124  1  0.97775000  0.58213000  0.19482000  1.0
  C  C125  1  0.41787000  0.02225000  0.80518000  1.0
  C  C126  1  0.02225000  0.41787000  0.80518000  1.0
  C  C127  1  0.58213000  0.97775000  0.19482000  1.0
  C  C128  1  0.85097000  0.63712000  0.24265000  1.0
  C  C129  1  0.36288000  0.14903000  0.75735000  1.0
  C  C130  1  0.14903000  0.36288000  0.75735000  1.0
  C  C131  1  0.63712000  0.85097000  0.24265000  1.0
  C  C132  1  0.64023000  0.64023000  0.53721000  1.0
  C  C133  1  0.35977000  0.35976000  0.46279000  1.0
  C  C134  1  0.69569000  0.69569000  0.65051000  1.0
  C  C135  1  0.30431000  0.30431000  0.34949000  1.0
  C  C136  1  0.69157000  0.69157000  0.57036000  1.0
  C  C137  1  0.30843000  0.30843000  0.42964000  1.0
  C  C138  1  0.60383000  0.70412000  0.90554000  1.0
  C  C139  1  0.29588000  0.39617000  0.09446000  1.0
  C  C140  1  0.39617000  0.29588000  0.09446000  1.0
  C  C141  1  0.70412000  0.60383000  0.90554000  1.0
  C  C142  1  0.60303000  0.70323000  0.82503000  1.0
  C  C143  1  0.29677000  0.39697000  0.17497000  1.0
  C  C144  1  0.39697000  0.29677000  0.17497000  1.0
  C  C145  1  0.70323000  0.60303000  0.82503000  1.0
  C  C146  1  0.22670000  0.68321000  0.17821000  1.0
  C  C147  1  0.31679000  0.77330000  0.82179000  1.0
  C  C148  1  0.77330000  0.31679000  0.82179000  1.0
  C  C149  1  0.68321000  0.22670000  0.17821000  1.0
  C  C150  1  0.30719000  0.68358000  0.17975000  1.0
  C  C151  1  0.31642000  0.69281000  0.82025000  1.0
  C  C152  1  0.69281000  0.31643000  0.82025000  1.0
  C  C153  1  0.68357000  0.30719000  0.17975000  1.0
  C  C154  1  0.34737000  0.63748000  0.23391000  1.0
  C  C155  1  0.36252000  0.65263000  0.76609000  1.0
  C  C156  1  0.65263000  0.36252000  0.76609000  1.0
  C  C157  1  0.63748000  0.34737000  0.23391000  1.0
  C  C158  1  0.30632000  0.59029000  0.28608000  1.0
  C  C159  1  0.40971000  0.69368000  0.71392000  1.0
  C  C160  1  0.69368000  0.40971000  0.71392000  1.0
  C  C161  1  0.59029000  0.30632000  0.28608000  1.0
  C  C162  1  0.22588000  0.58984000  0.28437000  1.0
  C  C163  1  0.41016000  0.77412000  0.71563000  1.0
  C  C164  1  0.77413000  0.41016000  0.71563000  1.0
  C  C165  1  0.58984000  0.22588000  0.28437000  1.0
  C  C166  1  0.18543000  0.63657000  0.23084000  1.0
  C  C167  1  0.36344000  0.81457000  0.76916000  1.0
  C  C168  1  0.81457000  0.36343000  0.76916000  1.0
  C  C169  1  0.63657000  0.18543000  0.23084000  1.0
  C  C170  1  0.12755000  0.80944000  0.28372000  1.0
  C  C171  1  0.19056000  0.87245000  0.71628000  1.0
  C  C172  1  0.87245000  0.19056000  0.71628000  1.0
  C  C173  1  0.80944000  0.12755000  0.28372000  1.0
  C  C174  1  0.22599000  0.90680000  0.29954000  1.0
  C  C175  1  0.09320000  0.77401000  0.70046000  1.0
  C  C176  1  0.77401000  0.09320000  0.70046000  1.0
  C  C177  1  0.90680000  0.22599000  0.29954000  1.0
  C  C178  1  0.22616000  0.79290000  0.38583000  1.0
  C  C179  1  0.20710000  0.77384000  0.61416000  1.0
  C  C180  1  0.77384000  0.20710000  0.61416000  1.0
  C  C181  1  0.79290000  0.22616000  0.38584000  1.0
  C  C182  1  0.79624000  0.79624000  0.66547000  1.0
  C  C183  1  0.20376000  0.20376000  0.33453000  1.0
  C  C184  1  0.88705000  0.88705000  0.71515000  1.0
  C  C185  1  0.11295000  0.11295000  0.28485000  1.0
  C  C186  1  0.80615000  0.80615000  0.80715000  1.0
  C  C187  1  0.19385000  0.19385000  0.19285000  1.0
  S  S188  1  0.08957000  0.84798000  0.20437000  1.0
  S  S189  1  0.15202000  0.91043000  0.79563000  1.0
  S  S190  1  0.91043000  0.15202000  0.79563000  1.0
  S  S191  1  0.84798000  0.08957000  0.20437000  1.0
  S  S192  1  0.81985000  0.81985000  0.57493000  1.0
  S  S193  1  0.18015000  0.18015000  0.42507000  1.0
  N  N194  1  0.18763000  0.83634000  0.32393000  1.0
  N  N195  1  0.16366000  0.81236000  0.67607000  1.0
  N  N196  1  0.81237000  0.16366000  0.67607000  1.0
  N  N197  1  0.83634000  0.18764000  0.32393000  1.0
  N  N198  1  0.82850000  0.82850000  0.72796000  1.0
  N  N199  1  0.17150000  0.17150000  0.27204000  1.0
  O  O200  1  0.64160000  0.64161000  0.24200000  1.0
  O  O201  1  0.35840000  0.35839000  0.75800000  1.0
  O  O202  1  0.46643000  0.59579000  0.28738000  1.0
  O  O203  1  0.40421000  0.53357000  0.71262000  1.0
  O  O204  1  0.53357000  0.40421000  0.71262000  1.0
  O  O205  1  0.59579000  0.46643000  0.28739000  1.0
  O  O206  1  0.60435000  0.69858000  0.06605000  1.0
  O  O207  1  0.30142000  0.39564000  0.93394000  1.0
  O  O208  1  0.39565000  0.30142000  0.93395000  1.0
  O  O209  1  0.69858000  0.60435000  0.06606000  1.0
  O  O210  1  0.59098000  0.59098000  0.42053000  1.0
  O  O211  1  0.40902000  0.40902000  0.57947000  1.0
  O  O212  1  0.46717000  0.68401000  0.18800000  1.0
  O  O213  1  0.31599000  0.53282000  0.81200000  1.0
  O  O214  1  0.53282000  0.31599000  0.81200000  1.0
  O  O215  1  0.68401000  0.46718000  0.18800000  1.0
  O  O216  1  0.81789000  0.58664000  0.20202000  1.0
  O  O217  1  0.41337000  0.18210000  0.79798000  1.0
  O  O218  1  0.18211000  0.41336000  0.79798000  1.0
  O  O219  1  0.58664000  0.81790000  0.20202000  1.0
  O  O220  1  0.81723000  0.68728000  0.28569000  1.0
  O  O221  1  0.31272000  0.18277000  0.71431000  1.0
  O  O222  1  0.18277000  0.31271000  0.71431000  1.0
  O  O223  1  0.68728000  0.81723000  0.28569000  1.0
  O  O224  1  0.68317000  0.68317000  0.41431000  1.0
  O  O225  1  0.31684000  0.31683000  0.58569000  1.0
  O  O226  1  0.09892000  0.74362000  0.31961000  1.0
  O  O227  1  0.25639000  0.90108000  0.68039000  1.0
  O  O228  1  0.90108000  0.25638000  0.68039000  1.0
  O  O229  1  0.74361000  0.09892000  0.31961000  1.0
  O  O230  1  0.74321000  0.74321000  0.69190000  1.0
  O  O231  1  0.25679000  0.25679000  0.30810000  1.0
