# generated using pymatgen
data_Na2CuH20C12(N2O3)6
_symmetry_space_group_name_H-M   'P 1'
_cell_length_a   6.83263000
_cell_length_b   10.33350000
_cell_length_c   10.35230000
_cell_angle_alpha   61.49170000
_cell_angle_beta   72.15990000
_cell_angle_gamma   82.81640000
_symmetry_Int_Tables_number   1
_chemical_formula_structural   Na2CuH20C12(N2O3)6
_chemical_formula_sum   'Na2 Cu1 H20 C12 N12 O18'
_cell_volume   611.21730070
_cell_formula_units_Z   1
loop_
 _symmetry_equiv_pos_site_id
 _symmetry_equiv_pos_as_xyz
  1  'x, y, z'
loop_
 _atom_site_type_symbol
 _atom_site_label
 _atom_site_symmetry_multiplicity
 _atom_site_fract_x
 _atom_site_fract_y
 _atom_site_fract_z
 _atom_site_occupancy
  Na  Na0  1  0.23934000  0.59545000  0.46892000  1.0
  Na  Na1  1  0.76066000  0.40455000  0.53107000  1.0
  Cu  Cu2  1  0.00000000  0.00000000  0.00000000  1.0
  H  H3  1  0.87819000  0.62760000  0.86106000  1.0
  H  H4  1  0.12181000  0.37240000  0.13894000  1.0
  H  H5  1  0.23357000  0.98781000  0.50388000  1.0
  H  H6  1  0.76643000  0.01219000  0.49612000  1.0
  H  H7  1  0.30128000  0.43672000  0.88718000  1.0
  H  H8  1  0.69873000  0.56328000  0.11282000  1.0
  H  H9  1  0.66319000  0.79082000  0.53109000  1.0
  H  H10  1  0.33680000  0.20918000  0.46891000  1.0
  H  H11  1  0.31664000  0.88535000  0.10249000  1.0
  H  H12  1  0.68336000  0.11466000  0.89751000  1.0
  H  H13  1  0.32514000  0.84328000  0.96465000  1.0
  H  H14  1  0.67486000  0.15672000  0.03535000  1.0
  H  H15  1  0.93913000  0.70436000  0.30339000  1.0
  H  H16  1  0.06087000  0.29564000  0.69661000  1.0
  H  H17  1  0.06536000  0.60536000  0.22964000  1.0
  H  H18  1  0.93464000  0.39464000  0.77036000  1.0
  H  H19  1  0.56489000  0.81307000  0.19149000  1.0
  H  H20  1  0.43512000  0.18693000  0.80850000  1.0
  H  H21  1  0.43478000  0.91070000  0.26354000  1.0
  H  H22  1  0.56522000  0.08930000  0.73646000  1.0
  C  C23  1  0.89830000  0.79916000  0.91252000  1.0
  C  C24  1  0.10170000  0.20084000  0.08748000  1.0
  C  C25  1  0.05658000  0.79987000  0.66759000  1.0
  C  C26  1  0.94343000  0.20013000  0.33241000  1.0
  C  C27  1  0.10463000  0.00604000  0.70714000  1.0
  C  C28  1  0.89537000  0.99396000  0.29286000  1.0
  C  C29  1  0.32322000  0.61004000  0.93669000  1.0
  C  C30  1  0.67678000  0.38996000  0.06331000  1.0
  C  C31  1  0.48525000  0.60466000  0.69556000  1.0
  C  C32  1  0.51475000  0.39534000  0.30444000  1.0
  C  C33  1  0.52911000  0.81261000  0.73287000  1.0
  C  C34  1  0.47089000  0.18739000  0.26713000  1.0
  N  N35  1  0.98819000  0.93307000  0.85476000  1.0
  N  N36  1  0.01181000  0.06693000  0.14524000  1.0
  N  N37  1  0.93773000  0.73422000  0.81761000  1.0
  N  N38  1  0.06227000  0.26578000  0.18239000  1.0
  N  N39  1  0.13582000  0.93742000  0.61648000  1.0
  N  N40  1  0.86418000  0.06258000  0.38352000  1.0
  N  N41  1  0.40739000  0.74522000  0.87869000  1.0
  N  N42  1  0.59261000  0.25478000  0.12131000  1.0
  N  N43  1  0.36337000  0.54220000  0.84405000  1.0
  N  N44  1  0.63663000  0.45780000  0.15595000  1.0
  N  N45  1  0.56964000  0.74015000  0.64456000  1.0
  N  N46  1  0.43035000  0.25985000  0.35544000  1.0
  O  O47  1  0.78656000  0.73481000  0.04790000  1.0
  O  O48  1  0.21345000  0.26518000  0.95210000  1.0
  O  O49  1  0.09011000  0.73992000  0.58460000  1.0
  O  O50  1  0.90990000  0.26008000  0.41540000  1.0
  O  O51  1  0.18453000  0.13048000  0.65464000  1.0
  O  O52  1  0.81546000  0.86952000  0.34536000  1.0
  O  O53  1  0.20763000  0.54463000  0.07182000  1.0
  O  O54  1  0.79237000  0.45537000  0.92818000  1.0
  O  O55  1  0.51430000  0.54428000  0.61280000  1.0
  O  O56  1  0.48570000  0.45571000  0.38720000  1.0
  O  O57  1  0.60644000  0.94003000  0.67410000  1.0
  O  O58  1  0.39356000  0.05997000  0.32589000  1.0
  O  O59  1  0.27190000  0.91640000  0.00802000  1.0
  O  O60  1  0.72811000  0.08360000  0.99198000  1.0
  O  O61  1  0.00484000  0.60868000  0.32729000  1.0
  O  O62  1  0.99516000  0.39132000  0.67271000  1.0
  O  O63  1  0.42471000  0.82601000  0.24606000  1.0
  O  O64  1  0.57529000  0.17400000  0.75394000  1.0
