# generated using pymatgen
data_CuH4C5NCl
_symmetry_space_group_name_H-M   'P 1'
_cell_length_a   3.68663000
_cell_length_b   11.22390000
_cell_length_c   12.66500000
_cell_angle_alpha   89.99820000
_cell_angle_beta   89.99870000
_cell_angle_gamma   92.22360000
_symmetry_Int_Tables_number   1
_chemical_formula_structural   CuH4C5NCl
_chemical_formula_sum   'Cu4 H16 C20 N4 Cl4'
_cell_volume   523.66240621
_cell_formula_units_Z   4
loop_
 _symmetry_equiv_pos_site_id
 _symmetry_equiv_pos_as_xyz
  1  'x, y, z'
loop_
 _atom_site_type_symbol
 _atom_site_label
 _atom_site_symmetry_multiplicity
 _atom_site_fract_x
 _atom_site_fract_y
 _atom_site_fract_z
 _atom_site_occupancy
  Cu  Cu0  1  0.71175000  0.94888000  0.57126000  1.0
  Cu  Cu1  1  0.28831000  0.55116000  0.07128000  1.0
  Cu  Cu2  1  0.28825000  0.05113000  0.42872000  1.0
  Cu  Cu3  1  0.71168000  0.44884000  0.92873000  1.0
  H  H4  1  0.87937000  0.13914000  0.72607000  1.0
  H  H5  1  0.12067000  0.36089000  0.22608000  1.0
  H  H6  1  0.12063000  0.86086000  0.27392000  1.0
  H  H7  1  0.87934000  0.63911000  0.77393000  1.0
  H  H8  1  0.80062000  0.16802000  0.91781000  1.0
  H  H9  1  0.19939000  0.33198000  0.41782000  1.0
  H  H10  1  0.19937000  0.83197000  0.08219000  1.0
  H  H11  1  0.80066000  0.66802000  0.58219000  1.0
  H  H12  1  0.26376000  0.81678000  0.92652000  1.0
  H  H13  1  0.73620000  0.68323000  0.42654000  1.0
  H  H14  1  0.73620000  0.18321000  0.07346000  1.0
  H  H15  1  0.26380000  0.31678000  0.57347000  1.0
  H  H16  1  0.36518000  0.80484000  0.73520000  1.0
  H  H17  1  0.63483000  0.69519000  0.23522000  1.0
  H  H18  1  0.63482000  0.19516000  0.26478000  1.0
  H  H19  1  0.36514000  0.30481000  0.76479000  1.0
  C  C20  1  0.74480000  0.07012000  0.77435000  1.0
  C  C21  1  0.25523000  0.42989000  0.27436000  1.0
  C  C22  1  0.25519000  0.92987000  0.22565000  1.0
  C  C23  1  0.74478000  0.57011000  0.72566000  1.0
  C  C24  1  0.69782000  0.08518000  0.88206000  1.0
  C  C25  1  0.30221000  0.41484000  0.38207000  1.0
  C  C26  1  0.30219000  0.91482000  0.11793000  1.0
  C  C27  1  0.69782000  0.58517000  0.61795000  1.0
  C  C28  1  0.52557000  0.99413000  0.94255000  1.0
  C  C29  1  0.47443000  0.50587000  0.44257000  1.0
  C  C30  1  0.47439000  0.00585000  0.05744000  1.0
  C  C31  1  0.52559000  0.49414000  0.55745000  1.0
  C  C32  1  0.40419000  0.89146000  0.88722000  1.0
  C  C33  1  0.59582000  0.60856000  0.38724000  1.0
  C  C34  1  0.59581000  0.10854000  0.11276000  1.0
  C  C35  1  0.40419000  0.39145000  0.61277000  1.0
  C  C36  1  0.45995000  0.88346000  0.77936000  1.0
  C  C37  1  0.54006000  0.61656000  0.27939000  1.0
  C  C38  1  0.54005000  0.11653000  0.22062000  1.0
  C  C39  1  0.45992000  0.38344000  0.72063000  1.0
  N  N40  1  0.63054000  0.97053000  0.72202000  1.0
  N  N41  1  0.36950000  0.52951000  0.22203000  1.0
  N  N42  1  0.36948000  0.02949000  0.27797000  1.0
  N  N43  1  0.63050000  0.47049000  0.77798000  1.0
  Cl  Cl44  1  0.81599000  0.15261000  0.50091000  1.0
  Cl  Cl45  1  0.18394000  0.34740000  0.00096000  1.0
  Cl  Cl46  1  0.18401000  0.84740000  0.49907000  1.0
  Cl  Cl47  1  0.81605000  0.65260000  0.99905000  1.0
