# generated using pymatgen
data_CuH8C12(NO3)2
_symmetry_space_group_name_H-M   'P 1'
_cell_length_a   3.74037000
_cell_length_b   12.07940000
_cell_length_c   12.49280000
_cell_angle_alpha   89.99990000
_cell_angle_beta   89.99920000
_cell_angle_gamma   87.22890000
_symmetry_Int_Tables_number   1
_chemical_formula_structural   CuH8C12(NO3)2
_chemical_formula_sum   'Cu2 H16 C24 N4 O12'
_cell_volume   563.78248012
_cell_formula_units_Z   2
loop_
 _symmetry_equiv_pos_site_id
 _symmetry_equiv_pos_as_xyz
  1  'x, y, z'
loop_
 _atom_site_type_symbol
 _atom_site_label
 _atom_site_symmetry_multiplicity
 _atom_site_fract_x
 _atom_site_fract_y
 _atom_site_fract_z
 _atom_site_occupancy
  Cu  Cu0  1  0.00000000  0.00000000  0.50000000  1.0
  Cu  Cu1  1  0.00000000  0.50000000  0.00000000  1.0
  H  H2  1  0.21219000  0.29054000  0.19515000  1.0
  H  H3  1  0.78779000  0.20947000  0.69516000  1.0
  H  H4  1  0.78783000  0.70945000  0.80484000  1.0
  H  H5  1  0.21221000  0.79054000  0.30485000  1.0
  H  H6  1  0.77374000  0.00215000  0.06098000  1.0
  H  H7  1  0.22626000  0.49785000  0.56097000  1.0
  H  H8  1  0.22629000  0.99784000  0.93903000  1.0
  H  H9  1  0.77373000  0.50215000  0.43903000  1.0
  H  H10  1  0.65719000  0.90412000  0.23011000  1.0
  H  H11  1  0.34280000  0.59590000  0.73010000  1.0
  H  H12  1  0.34281000  0.09588000  0.76990000  1.0
  H  H13  1  0.65717000  0.40411000  0.26990000  1.0
  H  H14  1  0.53027000  0.20207000  0.03954000  1.0
  H  H15  1  0.46974000  0.29793000  0.53954000  1.0
  H  H16  1  0.46978000  0.79793000  0.96046000  1.0
  H  H17  1  0.53025000  0.70207000  0.46046000  1.0
  C  C18  1  0.26127000  0.14761000  0.29483000  1.0
  C  C19  1  0.73871000  0.35240000  0.79483000  1.0
  C  C20  1  0.73873000  0.85239000  0.70517000  1.0
  C  C21  1  0.26129000  0.64760000  0.20517000  1.0
  C  C22  1  0.07048000  0.20769000  0.38639000  1.0
  C  C23  1  0.92950000  0.29232000  0.88638000  1.0
  C  C24  1  0.92952000  0.79232000  0.61361000  1.0
  C  C25  1  0.07050000  0.70770000  0.11362000  1.0
  C  C26  1  0.31519000  0.20494000  0.19953000  1.0
  C  C27  1  0.68478000  0.29507000  0.69953000  1.0
  C  C28  1  0.68482000  0.79506000  0.80047000  1.0
  C  C29  1  0.31521000  0.70493000  0.30048000  1.0
  C  C30  1  0.62485000  0.04641000  0.12368000  1.0
  C  C31  1  0.37513000  0.45360000  0.62368000  1.0
  C  C32  1  0.37517000  0.95359000  0.87632000  1.0
  C  C33  1  0.62486000  0.54640000  0.37632000  1.0
  C  C34  1  0.56521000  0.98959000  0.21716000  1.0
  C  C35  1  0.43477000  0.51042000  0.71716000  1.0
  C  C36  1  0.43479000  0.01040000  0.78284000  1.0
  C  C37  1  0.56522000  0.48958000  0.28284000  1.0
  C  C38  1  0.49459000  0.15593000  0.11310000  1.0
  C  C39  1  0.50541000  0.34407000  0.61310000  1.0
  C  C40  1  0.50544000  0.84407000  0.88691000  1.0
  C  C41  1  0.49458000  0.65593000  0.38690000  1.0
  N  N42  1  0.38475000  0.03894000  0.30042000  1.0
  N  N43  1  0.61522000  0.46108000  0.80041000  1.0
  N  N44  1  0.61525000  0.96105000  0.69958000  1.0
  N  N45  1  0.38477000  0.53893000  0.19959000  1.0
  O  O46  1  0.92837000  0.15306000  0.46309000  1.0
  O  O47  1  0.07162000  0.34694000  0.96308000  1.0
  O  O48  1  0.07163000  0.84693000  0.53691000  1.0
  O  O49  1  0.92838000  0.65306000  0.03692000  1.0
  O  O50  1  0.35388000  0.97436000  0.38652000  1.0
  O  O51  1  0.64610000  0.52566000  0.88653000  1.0
  O  O52  1  0.64611000  0.02564000  0.61348000  1.0
  O  O53  1  0.35389000  0.47435000  0.11348000  1.0
  O  O54  1  0.05045000  0.31074000  0.38078000  1.0
  O  O55  1  0.94954000  0.18926000  0.88077000  1.0
  O  O56  1  0.94953000  0.68924000  0.61922000  1.0
  O  O57  1  0.05046000  0.81074000  0.11923000  1.0
