# generated using pymatgen
data_Zn4H2C26I4O13
_symmetry_space_group_name_H-M   'P 1'
_cell_length_a   20.77670000
_cell_length_b   20.92730000
_cell_length_c   20.92690000
_cell_angle_alpha   103.82000000
_cell_angle_beta   112.10300000
_cell_angle_gamma   112.07100000
_symmetry_Int_Tables_number   1
_chemical_formula_structural   Zn4H2C26I4O13
_chemical_formula_sum   'Zn8 H4 C52 I8 O26'
_cell_volume   7004.59211840
_cell_formula_units_Z   2
loop_
 _symmetry_equiv_pos_site_id
 _symmetry_equiv_pos_as_xyz
  1  'x, y, z'
loop_
 _atom_site_type_symbol
 _atom_site_label
 _atom_site_symmetry_multiplicity
 _atom_site_fract_x
 _atom_site_fract_y
 _atom_site_fract_z
 _atom_site_occupancy
  Zn  Zn0  1  0.42814000  0.72233000  0.79114000  1.0
  Zn  Zn1  1  0.42921000  0.29212000  0.22260000  1.0
  Zn  Zn2  1  0.56763000  0.86341000  0.79473000  1.0
  Zn  Zn3  1  0.43237000  0.13659000  0.20527000  1.0
  Zn  Zn4  1  0.57079000  0.70787000  0.77740000  1.0
  Zn  Zn5  1  0.57187000  0.27768000  0.20887000  1.0
  Zn  Zn6  1  0.43321000  0.70642000  0.63645000  1.0
  Zn  Zn7  1  0.56679000  0.29358000  0.36355000  1.0
  H  H8  1  0.36644000  0.98720000  0.95085000  1.0
  H  H9  1  0.63356000  0.01280000  0.04915000  1.0
  H  H10  1  0.46333000  0.38097000  0.51458000  1.0
  H  H11  1  0.53667000  0.61903000  0.48541000  1.0
  C  C12  1  0.50535000  0.61266000  0.61394000  1.0
  C  C13  1  0.49656000  0.94253000  0.94809000  1.0
  C  C14  1  0.52041000  0.56577000  0.49160000  1.0
  C  C15  1  0.42588000  0.99264000  0.97241000  1.0
  C  C16  1  0.57413000  0.00736000  0.02759000  1.0
  C  C17  1  0.47959000  0.43424000  0.50840000  1.0
  C  C18  1  0.49450000  0.44583000  0.44276000  1.0
  C  C19  1  0.50549000  0.55417000  0.55724000  1.0
  C  C20  1  0.50345000  0.05747000  0.05191000  1.0
  C  C21  1  0.52285000  0.99432000  0.06686000  1.0
  C  C22  1  0.47715000  0.00568000  0.93315000  1.0
  C  C23  1  0.44313000  0.48569000  0.42982000  1.0
  C  C24  1  0.49464000  0.38734000  0.38605000  1.0
  C  C25  1  0.55687000  0.51430000  0.57017000  1.0
  C  C26  1  0.50010000  0.90503000  0.59834000  1.0
  C  C27  1  0.49991000  0.09496000  0.40166000  1.0
  C  C28  1  0.49968000  0.59694000  0.90366000  1.0
  C  C29  1  0.50033000  0.40306000  0.09635000  1.0
  C  C30  1  0.49751000  0.88561000  0.89057000  1.0
  C  C31  1  0.49997000  0.94141000  0.56026000  1.0
  C  C32  1  0.50003000  0.05857000  0.43973000  1.0
  C  C33  1  0.49978000  0.55963000  0.94081000  1.0
  C  C34  1  0.50023000  0.44038000  0.05921000  1.0
  C  C35  1  0.50249000  0.11439000  0.10943000  1.0
  C  C36  1  0.49997000  0.98147000  0.51893000  1.0
  C  C37  1  0.50003000  0.01852000  0.48106000  1.0
  C  C38  1  0.49990000  0.51881000  0.98136000  1.0
  C  C39  1  0.50010000  0.48120000  0.01865000  1.0
  C  C40  1  0.80676000  0.90416000  0.90288000  1.0
  C  C41  1  0.19324000  0.09585000  0.09711000  1.0
  C  C42  1  0.88121000  0.94106000  0.94026000  1.0
  C  C43  1  0.11879000  0.05894000  0.05973000  1.0
  C  C44  1  0.96256000  0.98141000  0.98117000  1.0
  C  C45  1  0.03744000  0.01860000  0.01884000  1.0
  C  C46  1  0.50000000  0.64089000  0.86032000  1.0
  C  C47  1  0.50001000  0.35911000  0.13968000  1.0
  C  C48  1  0.49986000  0.86115000  0.64183000  1.0
  C  C49  1  0.50013000  0.13884000  0.35818000  1.0
  C  C50  1  0.71947000  0.86034000  0.85912000  1.0
  C  C51  1  0.28053000  0.13966000  0.14087000  1.0
  C  C52  1  0.28065000  0.63811000  0.63723000  1.0
  C  C53  1  0.71935000  0.36190000  0.36277000  1.0
  C  C54  1  0.19332000  0.59455000  0.59308000  1.0
  C  C55  1  0.80668000  0.40546000  0.40693000  1.0
  C  C56  1  0.11884000  0.55809000  0.55727000  1.0
  C  C57  1  0.88115000  0.44191000  0.44273000  1.0
  C  C58  1  0.03745000  0.51828000  0.51803000  1.0
  C  C59  1  0.96255000  0.48172000  0.48197000  1.0
  C  C60  1  0.44424000  0.92995000  0.98699000  1.0
  C  C61  1  0.55576000  0.07005000  0.01301000  1.0
  C  C62  1  0.42739000  0.47258000  0.49505000  1.0
  C  C63  1  0.57260000  0.52742000  0.50495000  1.0
  I  I64  1  0.35640000  0.82468000  0.96997000  1.0
  I  I65  1  0.44012000  0.01341000  0.82817000  1.0
  I  I66  1  0.35531000  0.46859000  0.32442000  1.0
  I  I67  1  0.64469000  0.53141000  0.67558000  1.0
  I  I68  1  0.55988000  0.98659000  0.17183000  1.0
  I  I69  1  0.64360000  0.17532000  0.03003000  1.0
  I  I70  1  0.31462000  0.42937000  0.48854000  1.0
  I  I71  1  0.68537000  0.57063000  0.51147000  1.0
  O  O72  1  0.49989000  0.75037000  0.74953000  1.0
  O  O73  1  0.54029000  0.36262000  0.41540000  1.0
  O  O74  1  0.44494000  0.81504000  0.86298000  1.0
  O  O75  1  0.55506000  0.18496000  0.13703000  1.0
  O  O76  1  0.55285000  0.65482000  0.84038000  1.0
  O  O77  1  0.44716000  0.34517000  0.15962000  1.0
  O  O78  1  0.54670000  0.89957000  0.71469000  1.0
  O  O79  1  0.45329000  0.10043000  0.28531000  1.0
  O  O80  1  0.50012000  0.24963000  0.25047000  1.0
  O  O81  1  0.68656000  0.78784000  0.83695000  1.0
  O  O82  1  0.31344000  0.21216000  0.16305000  1.0
  O  O83  1  0.68431000  0.89840000  0.84719000  1.0
  O  O84  1  0.31569000  0.10160000  0.15281000  1.0
  O  O85  1  0.31641000  0.64987000  0.59961000  1.0
  O  O86  1  0.68359000  0.35013000  0.40039000  1.0
  O  O87  1  0.31291000  0.66038000  0.70968000  1.0
  O  O88  1  0.68709000  0.33963000  0.29033000  1.0
  O  O89  1  0.44755000  0.66138000  0.84652000  1.0
  O  O90  1  0.55246000  0.33863000  0.15348000  1.0
  O  O91  1  0.45279000  0.78842000  0.60259000  1.0
  O  O92  1  0.54720000  0.21158000  0.39741000  1.0
  O  O93  1  0.54899000  0.63141000  0.68469000  1.0
  O  O94  1  0.45100000  0.36859000  0.31531000  1.0
  O  O95  1  0.55146000  0.91475000  0.87405000  1.0
  O  O96  1  0.44854000  0.08525000  0.12595000  1.0
  O  O97  1  0.45971000  0.63738000  0.58460000  1.0
