# generated using pymatgen
data_Zn2H6C19(O4F3)2
_symmetry_space_group_name_H-M   'P 1'
_cell_length_a   7.70003000
_cell_length_b   10.62040000
_cell_length_c   12.55270000
_cell_angle_alpha   84.89540000
_cell_angle_beta   72.15300000
_cell_angle_gamma   89.99520000
_symmetry_Int_Tables_number   1
_chemical_formula_structural   Zn2H6C19(O4F3)2
_chemical_formula_sum   'Zn4 H12 C38 O16 F12'
_cell_volume   972.85341192
_cell_formula_units_Z   2
loop_
 _symmetry_equiv_pos_site_id
 _symmetry_equiv_pos_as_xyz
  1  'x, y, z'
loop_
 _atom_site_type_symbol
 _atom_site_label
 _atom_site_symmetry_multiplicity
 _atom_site_fract_x
 _atom_site_fract_y
 _atom_site_fract_z
 _atom_site_occupancy
  Zn  Zn0  1  0.70072000  0.38949000  0.46963000  1.0
  Zn  Zn1  1  0.17032000  0.11040000  0.53038000  1.0
  Zn  Zn2  1  0.29928000  0.61051000  0.53037000  1.0
  Zn  Zn3  1  0.82968000  0.88960000  0.46962000  1.0
  H  H4  1  0.10068000  0.16518000  0.21717000  1.0
  H  H5  1  0.31797000  0.33504000  0.78285000  1.0
  H  H6  1  0.89932000  0.83482000  0.78283000  1.0
  H  H7  1  0.68203000  0.66496000  0.21715000  1.0
  H  H8  1  0.37152000  0.13710000  0.05682000  1.0
  H  H9  1  0.42843000  0.36287000  0.94330000  1.0
  H  H10  1  0.62848000  0.86290000  0.94318000  1.0
  H  H11  1  0.57157000  0.63713000  0.05670000  1.0
  H  H12  1  0.67758000  0.39539000  0.18344000  1.0
  H  H13  1  0.86089000  0.10446000  0.81668000  1.0
  H  H14  1  0.32242000  0.60461000  0.81657000  1.0
  H  H15  1  0.13910000  0.89553000  0.18332000  1.0
  C  C16  1  0.39930000  0.36024000  0.27961000  1.0
  C  C17  1  0.67876000  0.13972000  0.72048000  1.0
  C  C18  1  0.60070000  0.63976000  0.72039000  1.0
  C  C19  1  0.32123000  0.86028000  0.27953000  1.0
  C  C20  1  0.23424000  0.29664000  0.28975000  1.0
  C  C21  1  0.52392000  0.20343000  0.71029000  1.0
  C  C22  1  0.76576000  0.70336000  0.71025000  1.0
  C  C23  1  0.47608000  0.79657000  0.28971000  1.0
  C  C24  1  0.22742000  0.21617000  0.20882000  1.0
  C  C25  1  0.43627000  0.28391000  0.79124000  1.0
  C  C26  1  0.77258000  0.78383000  0.79118000  1.0
  C  C27  1  0.56373000  0.71609000  0.20876000  1.0
  C  C28  1  0.38117000  0.20048000  0.11830000  1.0
  C  C29  1  0.49949000  0.29948000  0.88182000  1.0
  C  C30  1  0.61884000  0.79952000  0.88170000  1.0
  C  C31  1  0.50051000  0.70052000  0.11818000  1.0
  C  C32  1  0.54467000  0.26753000  0.10436000  1.0
  C  C33  1  0.64895000  0.23230000  0.89581000  1.0
  C  C34  1  0.45533000  0.73247000  0.89564000  1.0
  C  C35  1  0.35105000  0.76770000  0.10419000  1.0
  C  C36  1  0.55297000  0.34443000  0.18739000  1.0
  C  C37  1  0.74022000  0.15542000  0.81274000  1.0
  C  C38  1  0.44703000  0.65557000  0.81261000  1.0
  C  C39  1  0.25978000  0.84458000  0.18726000  1.0
  C  C40  1  0.41602000  0.44927000  0.36184000  1.0
  C  C41  1  0.77773000  0.05080000  0.63815000  1.0
  C  C42  1  0.58398000  0.55073000  0.63816000  1.0
  C  C43  1  0.22227000  0.94920000  0.36185000  1.0
  C  C44  1  0.06165000  0.30838000  0.38403000  1.0
  C  C45  1  0.44555000  0.19173000  0.61600000  1.0
  C  C46  1  0.93835000  0.69162000  0.61597000  1.0
  C  C47  1  0.55445000  0.80827000  0.38400000  1.0
  C  C48  1  0.70885000  0.24990000  0.00010000  1.0
  C  C49  1  0.29115000  0.75010000  0.99990000  1.0
  C  C50  1  0.81071000  0.13308000  0.03227000  1.0
  C  C51  1  0.84280000  0.36674000  0.96792000  1.0
  C  C52  1  0.18929000  0.86692000  0.96773000  1.0
  C  C53  1  0.15720000  0.63326000  0.03208000  1.0
  O  O54  1  0.57386000  0.47756000  0.36720000  1.0
  O  O55  1  0.94093000  0.02249000  0.63279000  1.0
  O  O56  1  0.42614000  0.52244000  0.63280000  1.0
  O  O57  1  0.05907000  0.97751000  0.36721000  1.0
  O  O58  1  0.26917000  0.49694000  0.42083000  1.0
  O  O59  1  0.68993000  0.00328000  0.57902000  1.0
  O  O60  1  0.73083000  0.50306000  0.57917000  1.0
  O  O61  1  0.31007000  0.99672000  0.42098000  1.0
  O  O62  1  0.93558000  0.36752000  0.35709000  1.0
  O  O63  1  0.29262000  0.13253000  0.64297000  1.0
  O  O64  1  0.06442000  0.63248000  0.64291000  1.0
  O  O65  1  0.70738000  0.86746000  0.35703000  1.0
  O  O66  1  0.04104000  0.25465000  0.48219000  1.0
  O  O67  1  0.52299000  0.24541000  0.51782000  1.0
  O  O68  1  0.95896000  0.74535000  0.51781000  1.0
  O  O69  1  0.47701000  0.75459000  0.48218000  1.0
  F  F70  1  0.71210000  0.02478000  0.03742000  1.0
  F  F71  1  0.74919000  0.47501000  0.96276000  1.0
  F  F72  1  0.28790000  0.97522000  0.96258000  1.0
  F  F73  1  0.25081000  0.52500000  0.03724000  1.0
  F  F74  1  0.97931000  0.12222000  0.95695000  1.0
  F  F75  1  0.93616000  0.37772000  0.04321000  1.0
  F  F76  1  0.02069000  0.87778000  0.04305000  1.0
  F  F77  1  0.06384000  0.62228000  0.95679000  1.0
  F  F78  1  0.83517000  0.13713000  0.13454000  1.0
  F  F79  1  0.96939000  0.36269000  0.86565000  1.0
  F  F80  1  0.16483000  0.86287000  0.86546000  1.0
  F  F81  1  0.03061000  0.63731000  0.13435000  1.0
