# generated using pymatgen
data_FeCu2H20(C6N5)2
_symmetry_space_group_name_H-M   'P 1'
_cell_length_a   7.44932000
_cell_length_b   10.50100000
_cell_length_c   12.37130000
_cell_angle_alpha   89.99990000
_cell_angle_beta   92.27810000
_cell_angle_gamma   89.99970000
_symmetry_Int_Tables_number   1
_chemical_formula_structural   FeCu2H20(C6N5)2
_chemical_formula_sum   'Fe2 Cu4 H40 C24 N20'
_cell_volume   966.98392015
_cell_formula_units_Z   2
loop_
 _symmetry_equiv_pos_site_id
 _symmetry_equiv_pos_as_xyz
  1  'x, y, z'
loop_
 _atom_site_type_symbol
 _atom_site_label
 _atom_site_symmetry_multiplicity
 _atom_site_fract_x
 _atom_site_fract_y
 _atom_site_fract_z
 _atom_site_occupancy
  Fe  Fe0  1  0.00000000  0.00000000  0.99999000  1.0
  Fe  Fe1  1  0.50001000  0.49999000  0.50000000  1.0
  Cu  Cu2  1  0.49798000  0.76884000  0.82934000  1.0
  Cu  Cu3  1  0.00202000  0.26884000  0.67065000  1.0
  Cu  Cu4  1  0.50201000  0.23115000  0.17065000  1.0
  Cu  Cu5  1  0.99798000  0.73116000  0.32935000  1.0
  H  H6  1  0.46055000  0.53716000  0.87560000  1.0
  H  H7  1  0.03945000  0.03717000  0.62440000  1.0
  H  H8  1  0.53945000  0.46283000  0.12440000  1.0
  H  H9  1  0.96056000  0.96284000  0.37560000  1.0
  H  H10  1  0.53589000  0.62418000  0.97987000  1.0
  H  H11  1  0.96411000  0.12418000  0.52013000  1.0
  H  H12  1  0.46411000  0.37582000  0.02013000  1.0
  H  H13  1  0.03589000  0.87582000  0.47987000  1.0
  H  H14  1  0.94295000  0.49975000  0.70269000  1.0
  H  H15  1  0.55705000  0.99975000  0.79731000  1.0
  H  H16  1  0.05706000  0.50026000  0.29731000  1.0
  H  H17  1  0.44294000  0.00025000  0.20269000  1.0
  H  H18  1  0.83413000  0.42297000  0.79619000  1.0
  H  H19  1  0.66587000  0.92297000  0.70381000  1.0
  H  H20  1  0.16587000  0.57703000  0.20381000  1.0
  H  H21  1  0.33412000  0.07703000  0.29618000  1.0
  H  H22  1  0.23499000  0.69108000  0.01784000  1.0
  H  H23  1  0.26501000  0.19109000  0.48216000  1.0
  H  H24  1  0.76500000  0.30892000  0.98216000  1.0
  H  H25  1  0.73500000  0.80892000  0.51784000  1.0
  H  H26  1  0.25423000  0.52219000  0.02923000  1.0
  H  H27  1  0.24578000  0.02220000  0.47077000  1.0
  H  H28  1  0.74577000  0.47780000  0.97077000  1.0
  H  H29  1  0.75423000  0.97781000  0.52923000  1.0
  H  H30  1  0.97663000  0.60736000  0.92206000  1.0
  H  H31  1  0.52337000  0.10736000  0.57794000  1.0
  H  H32  1  0.02337000  0.39264000  0.07794000  1.0
  H  H33  1  0.47664000  0.89264000  0.42207000  1.0
  H  H34  1  0.12152000  0.65815000  0.82270000  1.0
  H  H35  1  0.37848000  0.15816000  0.67731000  1.0
  H  H36  1  0.87848000  0.34185000  0.17731000  1.0
  H  H37  1  0.62152000  0.84185000  0.32270000  1.0
  H  H38  1  0.09915000  0.37909000  0.90078000  1.0
  H  H39  1  0.40085000  0.87909000  0.59922000  1.0
  H  H40  1  0.90085000  0.62091000  0.09922000  1.0
  H  H41  1  0.59914000  0.12091000  0.40078000  1.0
  H  H42  1  0.22833000  0.43562000  0.79366000  1.0
  H  H43  1  0.27166000  0.93563000  0.70634000  1.0
  H  H44  1  0.77166000  0.56438000  0.20634000  1.0
  H  H45  1  0.72833000  0.06438000  0.29366000  1.0
  C  C46  1  0.25590000  0.60325000  0.97217000  1.0
  C  C47  1  0.24409000  0.10325000  0.52783000  1.0
  C  C48  1  0.74410000  0.39675000  0.02784000  1.0
  C  C49  1  0.75591000  0.89675000  0.47217000  1.0
  C  C50  1  0.10584000  0.58611000  0.88624000  1.0
  C  C51  1  0.39416000  0.08612000  0.61376000  1.0
  C  C52  1  0.89416000  0.41389000  0.11376000  1.0
  C  C53  1  0.60584000  0.91389000  0.38624000  1.0
  C  C54  1  0.10501000  0.45260000  0.83763000  1.0
  C  C55  1  0.39498000  0.95260000  0.66238000  1.0
  C  C56  1  0.89498000  0.54740000  0.16237000  1.0
  C  C57  1  0.60501000  0.04740000  0.33763000  1.0
  C  C58  1  0.84617000  0.86770000  0.95154000  1.0
  C  C59  1  0.65384000  0.36771000  0.54846000  1.0
  C  C60  1  0.15384000  0.13230000  0.04846000  1.0
  C  C61  1  0.34616000  0.63230000  0.45153000  1.0
  C  C62  1  0.19697000  0.92102000  0.93959000  1.0
  C  C63  1  0.30303000  0.42102000  0.56040000  1.0
  C  C64  1  0.80303000  0.07898000  0.06040000  1.0
  C  C65  1  0.69696000  0.57898000  0.43959000  1.0
  C  C66  1  0.03624000  0.90752000  0.12910000  1.0
  C  C67  1  0.46376000  0.40752000  0.37089000  1.0
  C  C68  1  0.96376000  0.09247000  0.87089000  1.0
  C  C69  1  0.53625000  0.59248000  0.62910000  1.0
  N  N70  1  0.43298000  0.61332000  0.92356000  1.0
  N  N71  1  0.06702000  0.11332000  0.57644000  1.0
  N  N72  1  0.56703000  0.38668000  0.07643000  1.0
  N  N73  1  0.93297000  0.88668000  0.42356000  1.0
  N  N74  1  0.95423000  0.42902000  0.75948000  1.0
  N  N75  1  0.54577000  0.92903000  0.74053000  1.0
  N  N76  1  0.04576000  0.57097000  0.24053000  1.0
  N  N77  1  0.45423000  0.07097000  0.25948000  1.0
  N  N78  1  0.74671000  0.78488000  0.92432000  1.0
  N  N79  1  0.75329000  0.28489000  0.57567000  1.0
  N  N80  1  0.25327000  0.21510000  0.07567000  1.0
  N  N81  1  0.24672000  0.71511000  0.42433000  1.0
  N  N82  1  0.32086000  0.87134000  0.90092000  1.0
  N  N83  1  0.17914000  0.37134000  0.59909000  1.0
  N  N84  1  0.67914000  0.12866000  0.09908000  1.0
  N  N85  1  0.82086000  0.62867000  0.40091000  1.0
  N  N86  1  0.05168000  0.84683000  0.20944000  1.0
  N  N87  1  0.44832000  0.34682000  0.29056000  1.0
  N  N88  1  0.94832000  0.15317000  0.79056000  1.0
  N  N89  1  0.55168000  0.65318000  0.70943000  1.0
