# generated using pymatgen
data_Zn4H32(C12O5)3
_symmetry_space_group_name_H-M   'P 1'
_cell_length_a   17.80350000
_cell_length_b   18.65610000
_cell_length_c   23.31860000
_cell_angle_alpha   66.62190000
_cell_angle_beta   69.76610000
_cell_angle_gamma   89.94140000
_symmetry_Int_Tables_number   1
_chemical_formula_structural   Zn4H32(C12O5)3
_chemical_formula_sum   'Zn8 H64 C72 O30'
_cell_volume   6586.62725101
_cell_formula_units_Z   2
loop_
 _symmetry_equiv_pos_site_id
 _symmetry_equiv_pos_as_xyz
  1  'x, y, z'
loop_
 _atom_site_type_symbol
 _atom_site_label
 _atom_site_symmetry_multiplicity
 _atom_site_fract_x
 _atom_site_fract_y
 _atom_site_fract_z
 _atom_site_occupancy
  Zn  Zn0  1  0.11862000  0.53114000  0.94085000  1.0
  Zn  Zn1  1  0.97269000  0.56003000  0.05060000  1.0
  Zn  Zn2  1  0.97593000  0.38917000  0.05153000  1.0
  Zn  Zn3  1  0.93837000  0.53012000  0.93508000  1.0
  Zn  Zn4  1  0.38525000  0.97666000  0.05075000  1.0
  Zn  Zn5  1  0.52930000  0.11606000  0.93616000  1.0
  Zn  Zn6  1  0.52332000  0.94576000  0.93756000  1.0
  Zn  Zn7  1  0.56812000  0.97318000  0.05052000  1.0
  H  H8  1  0.50126000  0.86860000  0.26213000  1.0
  H  H9  1  0.44000000  0.80573000  0.38816000  1.0
  H  H10  1  0.26245000  0.87295000  0.25548000  1.0
  H  H11  1  0.24989000  0.63304000  0.73441000  1.0
  H  H12  1  0.01209000  0.63721000  0.72571000  1.0
  H  H13  1  0.07453000  0.70001000  0.59976000  1.0
  H  H14  1  0.63019000  0.01546000  0.73138000  1.0
  H  H15  1  0.69918000  0.07549000  0.60565000  1.0
  H  H16  1  0.62843000  0.24805000  0.72783000  1.0
  H  H17  1  0.86803000  0.25710000  0.26052000  1.0
  H  H18  1  0.86952000  0.48992000  0.25649000  1.0
  H  H19  1  0.81001000  0.43016000  0.38265000  1.0
  H  H20  1  0.19771000  0.30147000  0.91071000  1.0
  H  H21  1  0.12582000  0.22986000  0.98710000  1.0
  H  H22  1  0.21478000  0.13795000  0.98470000  1.0
  H  H23  1  0.28638000  0.21018000  0.90847000  1.0
  H  H24  1  0.21468000  0.12370000  0.09598000  1.0
  H  H25  1  0.28650000  0.18435000  0.10038000  1.0
  H  H26  1  0.12648000  0.21660000  0.09876000  1.0
  H  H27  1  0.19956000  0.27745000  0.10167000  1.0
  H  H28  1  0.30205000  0.39078000  0.91424000  1.0
  H  H29  1  0.30278000  0.38170000  0.99198000  1.0
  H  H30  1  0.39126000  0.28929000  0.99058000  1.0
  H  H31  1  0.39091000  0.29895000  0.91266000  1.0
  H  H32  1  0.89063000  0.80026000  0.90465000  1.0
  H  H33  1  0.88794000  0.78753000  0.98471000  1.0
  H  H34  1  0.79904000  0.87988000  0.98605000  1.0
  H  H35  1  0.80198000  0.89163000  0.90611000  1.0
  H  H36  1  0.69602000  0.77681000  0.09175000  1.0
  H  H37  1  0.62377000  0.71541000  0.08838000  1.0
  H  H38  1  0.78345000  0.68304000  0.09074000  1.0
  H  H39  1  0.71142000  0.62323000  0.08563000  1.0
  H  H40  1  0.78897000  0.71264000  0.89689000  1.0
  H  H41  1  0.71615000  0.63995000  0.97059000  1.0
  H  H42  1  0.62687000  0.73159000  0.97288000  1.0
  H  H43  1  0.69944000  0.80397000  0.89902000  1.0
  H  H44  1  0.16232000  0.79345000  0.93667000  1.0
  H  H45  1  0.24664000  0.75757000  0.89557000  1.0
  H  H46  1  0.33364000  0.85285000  0.89378000  1.0
  H  H47  1  0.24882000  0.88761000  0.93563000  1.0
  H  H48  1  0.39392000  0.74396000  0.96075000  1.0
  H  H49  1  0.35293000  0.70245000  0.04971000  1.0
  H  H50  1  0.30587000  0.64838000  0.96341000  1.0
  H  H51  1  0.26475000  0.60823000  0.05239000  1.0
  H  H52  1  0.10198000  0.73505000  0.06479000  1.0
  H  H53  1  0.14326000  0.65914000  0.11215000  1.0
  H  H54  1  0.23161000  0.75322000  0.11040000  1.0
  H  H55  1  0.18971000  0.82909000  0.06360000  1.0
  H  H56  1  0.89921000  0.26721000  0.92947000  1.0
  H  H57  1  0.85493000  0.34332000  0.88421000  1.0
  H  H58  1  0.76883000  0.24786000  0.88528000  1.0
  H  H59  1  0.81211000  0.17221000  0.93213000  1.0
  H  H60  1  0.64939000  0.29843000  0.94525000  1.0
  H  H61  1  0.60653000  0.25744000  0.03412000  1.0
  H  H62  1  0.73643000  0.39244000  0.94539000  1.0
  H  H63  1  0.69379000  0.35003000  0.03431000  1.0
  H  H64  1  0.83935000  0.20511000  0.05766000  1.0
  H  H65  1  0.75646000  0.23917000  0.10108000  1.0
  H  H66  1  0.66716000  0.14683000  0.10193000  1.0
  H  H67  1  0.75018000  0.11137000  0.06010000  1.0
  H  H68  1  0.17000000  0.78277000  0.43419000  1.0
  H  H69  1  0.34394000  0.72214000  0.55573000  1.0
  H  H70  1  0.72699000  0.33838000  0.54927000  1.0
  H  H71  1  0.78261000  0.16717000  0.43979000  1.0
  C  C72  1  0.14208000  0.63525000  0.00268000  1.0
  C  C73  1  0.90816000  0.41305000  0.17630000  1.0
  C  C74  1  0.14439000  0.36397000  0.00097000  1.0
  C  C75  1  0.86088000  0.36564000  0.99069000  1.0
  C  C76  1  0.09001000  0.59382000  0.81272000  1.0
  C  C77  1  0.86112000  0.64344000  0.98890000  1.0
  C  C78  1  0.36016000  0.14162000  0.99671000  1.0
  C  C79  1  0.58450000  0.09215000  0.81147000  1.0
  C  C80  1  0.35569000  0.86290000  0.99854000  1.0
  C  C81  1  0.64434000  0.86525000  0.99221000  1.0
  C  C82  1  0.42117000  0.91253000  0.17606000  1.0
  C  C83  1  0.64694000  0.14017000  0.99195000  1.0
  C  C84  1  0.38547000  0.87443000  0.25158000  1.0
  C  C85  1  0.43578000  0.85542000  0.28885000  1.0
  C  C86  1  0.40155000  0.82048000  0.35877000  1.0
  C  C87  1  0.31650000  0.80339000  0.39316000  1.0
  C  C88  1  0.26638000  0.82272000  0.35478000  1.0
  C  C89  1  0.30111000  0.85808000  0.28460000  1.0
  C  C90  1  0.27807000  0.76786000  0.46415000  1.0
  C  C91  1  0.23661000  0.73751000  0.52481000  1.0
  C  C92  1  0.19766000  0.70209000  0.59577000  1.0
  C  C93  1  0.24710000  0.68269000  0.63472000  1.0
  C  C94  1  0.21170000  0.64773000  0.70490000  1.0
  C  C95  1  0.12727000  0.63157000  0.73728000  1.0
  C  C96  1  0.07763000  0.65041000  0.69940000  1.0
  C  C97  1  0.11252000  0.68523000  0.62954000  1.0
  C  C98  1  0.62531000  0.12830000  0.73646000  1.0
  C  C99  1  0.64528000  0.07929000  0.70235000  1.0
  C  C100  1  0.68351000  0.11275000  0.63279000  1.0
  C  C101  1  0.70261000  0.19568000  0.59585000  1.0
  C  C102  1  0.68261000  0.24454000  0.63103000  1.0
  C  C103  1  0.64399000  0.21058000  0.70096000  1.0
  C  C104  1  0.74003000  0.23297000  0.52495000  1.0
  C  C105  1  0.77072000  0.27269000  0.46377000  1.0
  C  C106  1  0.80509000  0.30985000  0.39273000  1.0
  C  C107  1  0.82180000  0.26085000  0.35757000  1.0
  C  C108  1  0.85513000  0.29469000  0.28738000  1.0
  C  C109  1  0.87192000  0.37697000  0.25158000  1.0
  C  C110  1  0.85566000  0.42610000  0.28572000  1.0
  C  C111  1  0.82274000  0.39278000  0.35553000  1.0
  C  C112  1  0.18922000  0.25931000  0.96225000  1.0
  C  C113  1  0.24827000  0.19831000  0.96076000  1.0
  C  C114  1  0.30331000  0.20247000  0.99862000  1.0
  C  C115  1  0.24836000  0.18390000  0.07209000  1.0
  C  C116  1  0.19000000  0.24543000  0.07341000  1.0
  C  C117  1  0.20416000  0.30546000  0.00086000  1.0
  C  C118  1  0.29242000  0.34759000  0.96556000  1.0
  C  C119  1  0.35108000  0.28660000  0.96451000  1.0
  C  C120  1  0.84975000  0.78649000  0.95670000  1.0
  C  C121  1  0.79068000  0.84759000  0.95768000  1.0
  C  C122  1  0.70199000  0.80492000  0.99072000  1.0
  C  C123  1  0.68730000  0.74472000  0.06339000  1.0
  C  C124  1  0.74566000  0.68330000  0.06217000  1.0
  C  C125  1  0.80152000  0.70213000  0.98873000  1.0
  C  C126  1  0.74931000  0.70010000  0.94887000  1.0
  C  C127  1  0.69020000  0.76075000  0.95027000  1.0
  C  C128  1  0.21904000  0.77153000  0.93915000  1.0
  C  C129  1  0.27683000  0.83439000  0.93815000  1.0
  C  C130  1  0.29682000  0.80030000  0.00257000  1.0
  C  C131  1  0.33695000  0.72626000  0.00482000  1.0
  C  C132  1  0.27857000  0.66335000  0.00641000  1.0
  C  C133  1  0.19878000  0.69460000  0.00458000  1.0
  C  C134  1  0.15930000  0.71387000  0.06563000  1.0
  C  C135  1  0.21757000  0.77629000  0.06460000  1.0
  C  C136  1  0.84122000  0.28785000  0.92979000  1.0
  C  C137  1  0.78336000  0.22478000  0.93083000  1.0
  C  C138  1  0.70360000  0.19989000  0.99359000  1.0
  C  C139  1  0.66424000  0.27452000  0.99056000  1.0
  C  C140  1  0.72218000  0.33650000  0.99050000  1.0
  C  C141  1  0.80168000  0.30486000  0.99265000  1.0
  C  C142  1  0.78250000  0.22704000  0.05631000  1.0
  C  C143  1  0.72372000  0.16527000  0.05726000  1.0
  O  O144  1  0.00134000  0.50293000  0.99336000  1.0
  O  O145  1  0.17206000  0.60742000  0.95903000  1.0
  O  O146  1  0.91900000  0.48843000  0.14658000  1.0
  O  O147  1  0.07071000  0.33519000  0.04043000  1.0
  O  O148  1  0.06863000  0.61909000  0.04369000  1.0
  O  O149  1  0.17165000  0.43656000  0.96092000  1.0
  O  O150  1  0.92545000  0.36584000  0.14791000  1.0
  O  O151  1  0.89925000  0.33941000  0.02997000  1.0
  O  O152  1  0.01264000  0.58021000  0.83959000  1.0
  O  O153  1  0.86871000  0.43769000  0.94935000  1.0
  O  O154  1  0.13873000  0.57840000  0.84383000  1.0
  O  O155  1  0.90141000  0.63643000  0.02624000  1.0
  O  O156  1  0.86689000  0.60637000  0.95229000  1.0
  O  O157  1  0.50156000  0.00248000  0.99507000  1.0
  O  O158  1  0.32892000  0.06886000  0.03308000  1.0
  O  O159  1  0.56672000  0.13933000  0.83987000  1.0
  O  O160  1  0.42700000  0.87894000  0.95355000  1.0
  O  O161  1  0.43447000  0.16780000  0.95843000  1.0
  O  O162  1  0.32987000  0.89515000  0.03922000  1.0
  O  O163  1  0.57089000  0.01673000  0.84109000  1.0
  O  O164  1  0.60332000  0.87674000  0.95504000  1.0
  O  O165  1  0.49834000  0.92309000  0.14757000  1.0
  O  O166  1  0.64150000  0.89971000  0.03045000  1.0
  O  O167  1  0.37102000  0.93130000  0.14650000  1.0
  O  O168  1  0.61705000  0.16689000  0.94637000  1.0
  O  O169  1  0.63393000  0.06861000  0.03532000  1.0
  O  O170  1  0.18413000  0.80738000  0.38528000  1.0
  O  O171  1  0.32940000  0.69766000  0.60470000  1.0
  O  O172  1  0.70029000  0.32473000  0.59756000  1.0
  O  O173  1  0.80571000  0.18065000  0.39135000  1.0
