# generated using pymatgen
data_Cu2H32C23(N4Cl)2
_symmetry_space_group_name_H-M   'P 1'
_cell_length_a   10.26460000
_cell_length_b   10.28730000
_cell_length_c   15.03700000
_cell_angle_alpha   102.00100000
_cell_angle_beta   102.02800000
_cell_angle_gamma   99.06400000
_symmetry_Int_Tables_number   1
_chemical_formula_structural   Cu2H32C23(N4Cl)2
_chemical_formula_sum   'Cu4 H64 C46 N16 Cl4'
_cell_volume   1485.16992717
_cell_formula_units_Z   2
loop_
 _symmetry_equiv_pos_site_id
 _symmetry_equiv_pos_as_xyz
  1  'x, y, z'
loop_
 _atom_site_type_symbol
 _atom_site_label
 _atom_site_symmetry_multiplicity
 _atom_site_fract_x
 _atom_site_fract_y
 _atom_site_fract_z
 _atom_site_occupancy
  Cu  Cu0  1  0.04068000  0.63808000  0.53110000  1.0
  Cu  Cu1  1  0.36212000  0.95940000  0.96919000  1.0
  Cu  Cu2  1  0.95932000  0.36191000  0.46890000  1.0
  Cu  Cu3  1  0.63787000  0.04060000  0.03081000  1.0
  H  H4  1  0.97354000  0.22536000  0.63944000  1.0
  H  H5  1  0.77365000  0.02591000  0.86013000  1.0
  H  H6  1  0.02645000  0.77464000  0.36056000  1.0
  H  H7  1  0.22635000  0.97409000  0.13987000  1.0
  H  H8  1  0.13273000  0.18332000  0.64015000  1.0
  H  H9  1  0.81589000  0.86718000  0.85965000  1.0
  H  H10  1  0.86726000  0.81668000  0.35986000  1.0
  H  H11  1  0.18411000  0.13282000  0.14036000  1.0
  H  H12  1  0.06584000  0.18545000  0.74057000  1.0
  H  H13  1  0.81363000  0.93369000  0.75909000  1.0
  H  H14  1  0.93415000  0.81455000  0.25943000  1.0
  H  H15  1  0.18636000  0.06630000  0.24091000  1.0
  H  H16  1  0.76017000  0.00994000  0.54545000  1.0
  H  H17  1  0.98931000  0.23901000  0.95393000  1.0
  H  H18  1  0.23982000  0.99005000  0.45454000  1.0
  H  H19  1  0.01068000  0.76100000  0.04606000  1.0
  H  H20  1  0.74013000  0.61197000  0.46463000  1.0
  H  H21  1  0.38821000  0.25918000  0.03508000  1.0
  H  H22  1  0.25988000  0.38802000  0.53537000  1.0
  H  H23  1  0.61179000  0.74082000  0.96492000  1.0
  H  H24  1  0.64091000  0.73506000  0.44352000  1.0
  H  H25  1  0.26480000  0.35814000  0.05611000  1.0
  H  H26  1  0.35908000  0.26492000  0.55648000  1.0
  H  H27  1  0.73520000  0.64187000  0.94389000  1.0
  H  H28  1  0.64483000  0.67334000  0.54531000  1.0
  H  H29  1  0.32670000  0.35423000  0.95434000  1.0
  H  H30  1  0.35518000  0.32665000  0.45469000  1.0
  H  H31  1  0.67330000  0.64578000  0.04566000  1.0
  H  H32  1  0.46365000  0.08248000  0.76501000  1.0
  H  H33  1  0.91765000  0.53736000  0.73488000  1.0
  H  H34  1  0.53635000  0.91751000  0.23499000  1.0
  H  H35  1  0.08234000  0.46263000  0.26513000  1.0
  H  H36  1  0.37946000  0.16929000  0.68647000  1.0
  H  H37  1  0.83032000  0.62121000  0.81320000  1.0
  H  H38  1  0.62055000  0.83071000  0.31354000  1.0
  H  H39  1  0.16968000  0.37880000  0.18680000  1.0
  H  H40  1  0.54169000  0.13404000  0.67960000  1.0
  H  H41  1  0.86546000  0.45924000  0.82005000  1.0
  H  H42  1  0.45832000  0.86595000  0.32041000  1.0
  H  H43  1  0.13454000  0.54076000  0.17996000  1.0
  H  H44  1  0.52504000  0.90966000  0.53932000  1.0
  H  H45  1  0.09041000  0.47575000  0.96071000  1.0
  H  H46  1  0.47496000  0.09034000  0.46068000  1.0
  H  H47  1  0.90959000  0.52425000  0.03929000  1.0
  H  H48  1  0.40231000  0.59403000  0.45133000  1.0
  H  H49  1  0.40633000  0.59809000  0.04886000  1.0
  H  H50  1  0.59769000  0.40597000  0.54867000  1.0
  H  H51  1  0.59368000  0.40191000  0.95113000  1.0
  H  H52  1  0.33085000  0.68194000  0.37031000  1.0
  H  H53  1  0.31843000  0.66964000  0.12991000  1.0
  H  H54  1  0.66916000  0.31806000  0.62969000  1.0
  H  H55  1  0.68157000  0.33036000  0.87009000  1.0
  H  H56  1  0.22173000  0.57588000  0.41660000  1.0
  H  H57  1  0.42489000  0.77830000  0.08356000  1.0
  H  H58  1  0.77826000  0.42412000  0.58339000  1.0
  H  H59  1  0.57511000  0.22170000  0.91644000  1.0
  H  H60  1  0.20885000  0.02062000  0.72619000  1.0
  H  H61  1  0.97892000  0.79122000  0.77388000  1.0
  H  H62  1  0.79115000  0.97938000  0.27381000  1.0
  H  H63  1  0.02108000  0.20879000  0.22613000  1.0
  H  H64  1  0.15661000  0.71368000  0.70839000  1.0
  H  H65  1  0.28651000  0.84312000  0.79161000  1.0
  H  H66  1  0.84339000  0.28632000  0.29161000  1.0
  H  H67  1  0.71349000  0.15688000  0.20839000  1.0
  C  C68  1  0.03902000  0.15870000  0.66326000  1.0
  C  C69  1  0.84050000  0.96059000  0.83640000  1.0
  C  C70  1  0.96097000  0.84130000  0.33674000  1.0
  C  C71  1  0.15950000  0.03941000  0.16360000  1.0
  C  C72  1  0.96910000  0.01406000  0.62292000  1.0
  C  C73  1  0.98539000  0.03049000  0.87674000  1.0
  C  C74  1  0.03090000  0.98593000  0.37708000  1.0
  C  C75  1  0.01461000  0.96952000  0.12326000  1.0
  C  C76  1  0.83760000  0.95538000  0.56896000  1.0
  C  C77  1  0.04406000  0.16176000  0.93057000  1.0
  C  C78  1  0.16240000  0.04461000  0.43104000  1.0
  C  C79  1  0.95594000  0.83824000  0.06942000  1.0
  C  C80  1  0.82654000  0.81312000  0.55083000  1.0
  C  C81  1  0.18666000  0.17289000  0.94883000  1.0
  C  C82  1  0.17346000  0.18687000  0.44918000  1.0
  C  C83  1  0.81333000  0.82711000  0.05116000  1.0
  C  C84  1  0.70680000  0.70203000  0.49807000  1.0
  C  C85  1  0.29793000  0.29243000  0.00159000  1.0
  C  C86  1  0.29321000  0.29796000  0.50193000  1.0
  C  C87  1  0.70207000  0.70758000  0.99841000  1.0
  C  C88  1  0.44382000  0.09390000  0.69253000  1.0
  C  C89  1  0.90586000  0.55696000  0.80728000  1.0
  C  C90  1  0.55618000  0.90610000  0.30748000  1.0
  C  C91  1  0.09414000  0.44304000  0.19272000  1.0
  C  C92  1  0.38036000  0.96060000  0.62421000  1.0
  C  C93  1  0.03930000  0.62021000  0.87584000  1.0
  C  C94  1  0.61964000  0.03939000  0.37579000  1.0
  C  C95  1  0.96070000  0.37980000  0.12417000  1.0
  C  C96  1  0.42790000  0.88296000  0.55560000  1.0
  C  C97  1  0.11708000  0.57276000  0.94448000  1.0
  C  C98  1  0.57209000  0.11704000  0.44440000  1.0
  C  C99  1  0.88293000  0.42724000  0.05552000  1.0
  C  C100  1  0.32519000  0.76448000  0.51255000  1.0
  C  C101  1  0.23574000  0.67531000  0.98763000  1.0
  C  C102  1  0.67480000  0.23552000  0.48745000  1.0
  C  C103  1  0.76426000  0.32469000  0.01236000  1.0
  C  C104  1  0.31986000  0.64766000  0.43346000  1.0
  C  C105  1  0.35279000  0.68051000  0.06674000  1.0
  C  C106  1  0.68014000  0.35234000  0.56654000  1.0
  C  C107  1  0.64721000  0.31949000  0.93325000  1.0
  C  C108  1  0.16910000  0.91524000  0.68498000  1.0
  C  C109  1  0.08456000  0.83095000  0.81506000  1.0
  C  C110  1  0.83090000  0.08476000  0.31502000  1.0
  C  C111  1  0.91544000  0.16906000  0.18494000  1.0
  C  C112  1  0.18032000  0.81961000  0.75001000  1.0
  C  C113  1  0.81968000  0.18039000  0.24999000  1.0
  N  N114  1  0.22019000  0.76799000  0.55302000  1.0
  N  N115  1  0.23217000  0.78017000  0.94722000  1.0
  N  N116  1  0.77981000  0.23201000  0.44698000  1.0
  N  N117  1  0.76783000  0.21983000  0.05278000  1.0
  N  N118  1  0.25465000  0.88814000  0.61983000  1.0
  N  N119  1  0.11179000  0.74575000  0.88033000  1.0
  N  N120  1  0.74535000  0.11186000  0.38017000  1.0
  N  N121  1  0.88822000  0.25426000  0.11967000  1.0
  N  N122  1  0.94535000  0.78414000  0.59065000  1.0
  N  N123  1  0.21584000  0.05434000  0.90922000  1.0
  N  N124  1  0.05465000  0.21585000  0.40935000  1.0
  N  N125  1  0.78416000  0.94567000  0.09078000  1.0
  N  N126  1  0.03010000  0.90795000  0.63537000  1.0
  N  N127  1  0.09181000  0.96967000  0.86450000  1.0
  N  N128  1  0.96990000  0.09204000  0.36463000  1.0
  N  N129  1  0.90819000  0.03034000  0.13550000  1.0
  Cl  Cl130  1  0.07194000  0.47464000  0.62106000  1.0
  Cl  Cl131  1  0.52527000  0.92802000  0.87873000  1.0
  Cl  Cl132  1  0.92806000  0.52536000  0.37894000  1.0
  Cl  Cl133  1  0.47473000  0.07198000  0.12127000  1.0
