# generated using pymatgen
data_CdH14C19(N4O3)2
_symmetry_space_group_name_H-M   'P 1'
_cell_length_a   9.68390000
_cell_length_b   9.75558000
_cell_length_c   11.16790000
_cell_angle_alpha   80.40410000
_cell_angle_beta   88.59020000
_cell_angle_gamma   89.27480000
_symmetry_Int_Tables_number   1
_chemical_formula_structural   CdH14C19(N4O3)2
_chemical_formula_sum   'Cd2 H28 C38 N16 O12'
_cell_volume   1039.93810139
_cell_formula_units_Z   2
loop_
 _symmetry_equiv_pos_site_id
 _symmetry_equiv_pos_as_xyz
  1  'x, y, z'
loop_
 _atom_site_type_symbol
 _atom_site_label
 _atom_site_symmetry_multiplicity
 _atom_site_fract_x
 _atom_site_fract_y
 _atom_site_fract_z
 _atom_site_occupancy
  Cd  Cd0  1  0.70312000  0.86979000  0.25788000  1.0
  Cd  Cd1  1  0.29688000  0.13021000  0.74212000  1.0
  H  H2  1  0.37322000  0.86769000  0.26635000  1.0
  H  H3  1  0.62678000  0.13231000  0.73365000  1.0
  H  H4  1  0.05576000  0.42586000  0.24309000  1.0
  H  H5  1  0.94424000  0.57414000  0.75691000  1.0
  H  H6  1  0.16625000  0.28006000  0.22809000  1.0
  H  H7  1  0.83375000  0.71994000  0.77191000  1.0
  H  H8  1  0.80924000  0.42373000  0.37142000  1.0
  H  H9  1  0.19076000  0.57627000  0.62858000  1.0
  H  H10  1  0.44999000  0.27667000  0.46038000  1.0
  H  H11  1  0.55001000  0.72333000  0.53962000  1.0
  H  H12  1  0.16804000  0.98469000  0.34620000  1.0
  H  H13  1  0.83196000  0.01531000  0.65380000  1.0
  H  H14  1  0.64153000  0.15201000  0.37094000  1.0
  H  H15  1  0.35846000  0.84799000  0.62906000  1.0
  H  H16  1  0.67200000  0.45517000  0.55815000  1.0
  H  H17  1  0.32800000  0.54484000  0.44185000  1.0
  H  H18  1  0.75884000  0.37049000  0.76181000  1.0
  H  H19  1  0.24116000  0.62952000  0.23818000  1.0
  H  H20  1  0.98809000  0.24897000  0.79175000  1.0
  H  H21  1  0.01191000  0.75103000  0.20825000  1.0
  H  H22  1  0.59083000  0.12913000  0.03560000  1.0
  H  H23  1  0.40917000  0.87087000  0.96440000  1.0
  H  H24  1  0.90482000  0.52843000  0.07988000  1.0
  H  H25  1  0.09517000  0.47157000  0.92012000  1.0
  H  H26  1  0.70423000  0.56163000  0.94405000  1.0
  H  H27  1  0.29577000  0.43838000  0.05595000  1.0
  H  H28  1  0.55015000  0.36754000  0.92349000  1.0
  H  H29  1  0.44985000  0.63246000  0.07651000  1.0
  C  C30  1  0.86124000  0.30650000  0.13340000  1.0
  C  C31  1  0.13875000  0.69350000  0.86661000  1.0
  C  C32  1  0.84030000  0.44098000  0.06932000  1.0
  C  C33  1  0.15969000  0.55902000  0.93068000  1.0
  C  C34  1  0.72729000  0.45834000  0.99395000  1.0
  C  C35  1  0.27271000  0.54167000  0.00605000  1.0
  C  C36  1  0.63878000  0.34712000  0.98218000  1.0
  C  C37  1  0.36122000  0.65288000  0.01783000  1.0
  C  C38  1  0.66020000  0.21364000  0.04439000  1.0
  C  C39  1  0.33980000  0.78636000  0.95561000  1.0
  C  C40  1  0.77399000  0.19486000  0.12097000  1.0
  C  C41  1  0.22601000  0.80514000  0.87904000  1.0
  C  C42  1  0.06920000  0.31285000  0.26826000  1.0
  C  C43  1  0.93080000  0.68715000  0.73174000  1.0
  C  C44  1  0.97362000  0.31514000  0.48025000  1.0
  C  C45  1  0.02638000  0.68486000  0.51975000  1.0
  C  C46  1  0.84776000  0.38549000  0.46181000  1.0
  C  C47  1  0.15224000  0.61451000  0.53819000  1.0
  C  C48  1  0.77301000  0.40453000  0.56611000  1.0
  C  C49  1  0.22699000  0.59547000  0.43389000  1.0
  C  C50  1  0.82289000  0.35561000  0.68327000  1.0
  C  C51  1  0.17711000  0.64439000  0.31673000  1.0
  C  C52  1  0.94968000  0.28673000  0.70112000  1.0
  C  C53  1  0.05032000  0.71327000  0.29888000  1.0
  C  C54  1  0.02549000  0.26684000  0.59695000  1.0
  C  C55  1  0.97451000  0.73316000  0.40305000  1.0
  C  C56  1  0.17580000  0.20607000  0.46572000  1.0
  C  C57  1  0.82420000  0.79393000  0.53428000  1.0
  C  C58  1  0.29344000  0.13922000  0.41142000  1.0
  C  C59  1  0.70656000  0.86078000  0.58858000  1.0
  C  C60  1  0.42820000  0.18691000  0.41795000  1.0
  C  C61  1  0.57179000  0.81309000  0.58205000  1.0
  C  C62  1  0.53540000  0.11694000  0.36820000  1.0
  C  C63  1  0.46459000  0.88306000  0.63180000  1.0
  C  C64  1  0.38528000  0.95950000  0.30868000  1.0
  C  C65  1  0.61472000  0.04050000  0.69132000  1.0
  C  C66  1  0.27158000  0.02403000  0.35452000  1.0
  C  C67  1  0.72842000  0.97596000  0.64548000  1.0
  N  N68  1  0.73045000  0.82924000  0.00186000  1.0
  N  N69  1  0.26955000  0.17076000  0.99814000  1.0
  N  N70  1  0.60045000  0.58556000  0.29433000  1.0
  N  N71  1  0.39955000  0.41444000  0.70567000  1.0
  N  N72  1  0.82061000  0.07958000  0.19841000  1.0
  N  N73  1  0.17939000  0.92042000  0.80159000  1.0
  N  N74  1  0.92846000  0.11190000  0.25602000  1.0
  N  N75  1  0.07154000  0.88810000  0.74398000  1.0
  N  N76  1  0.95400000  0.24794000  0.21854000  1.0
  N  N77  1  0.04600000  0.75206000  0.78146000  1.0
  N  N78  1  0.07148000  0.27565000  0.39890000  1.0
  N  N79  1  0.92852000  0.72435000  0.60110000  1.0
  N  N80  1  0.15224000  0.20091000  0.58418000  1.0
  N  N81  1  0.84776000  0.79909000  0.41582000  1.0
  N  N82  1  0.51515000  0.00425000  0.31617000  1.0
  N  N83  1  0.48486000  0.99575000  0.68383000  1.0
  O  O84  1  0.55095000  0.46645000  0.30744000  1.0
  O  O85  1  0.44905000  0.53355000  0.69256000  1.0
  O  O86  1  0.72142000  0.61152000  0.24889000  1.0
  O  O87  1  0.27858000  0.38847000  0.75111000  1.0
  O  O88  1  0.53059000  0.68694000  0.32688000  1.0
  O  O89  1  0.46941000  0.31307000  0.67312000  1.0
  O  O90  1  0.84860000  0.81637000  0.04741000  1.0
  O  O91  1  0.15140000  0.18363000  0.95259000  1.0
  O  O92  1  0.62748000  0.86867000  0.06514000  1.0
  O  O93  1  0.37252000  0.13133000  0.93486000  1.0
  O  O94  1  0.70731000  0.80526000  0.89752000  1.0
  O  O95  1  0.29269000  0.19474000  0.10248000  1.0
