# generated using pymatgen
data_ZnPH8C7SNO3
_symmetry_space_group_name_H-M   'P 1'
_cell_length_a   5.11115000
_cell_length_b   9.35111000
_cell_length_c   11.68340000
_cell_angle_alpha   113.00920000
_cell_angle_beta   95.97850000
_cell_angle_gamma   90.27500000
_symmetry_Int_Tables_number   1
_chemical_formula_structural   ZnPH8C7SNO3
_chemical_formula_sum   'Zn2 P2 H16 C14 S2 N2 O6'
_cell_volume   510.55387751
_cell_formula_units_Z   2
loop_
 _symmetry_equiv_pos_site_id
 _symmetry_equiv_pos_as_xyz
  1  'x, y, z'
loop_
 _atom_site_type_symbol
 _atom_site_label
 _atom_site_symmetry_multiplicity
 _atom_site_fract_x
 _atom_site_fract_y
 _atom_site_fract_z
 _atom_site_occupancy
  Zn  Zn0  1  0.26738000  0.17388000  0.98967000  1.0
  Zn  Zn1  1  0.73262000  0.82613000  0.01034000  1.0
  P  P2  1  0.79402000  0.20712000  0.14517000  1.0
  P  P3  1  0.20598000  0.79289000  0.85483000  1.0
  H  H4  1  0.76920000  0.44666000  0.32369000  1.0
  H  H5  1  0.23079000  0.55334000  0.67631000  1.0
  H  H6  1  0.50821000  0.30819000  0.29906000  1.0
  H  H7  1  0.49179000  0.69183000  0.70094000  1.0
  H  H8  1  0.07664000  0.31243000  0.41988000  1.0
  H  H9  1  0.92339000  0.68759000  0.58012000  1.0
  H  H10  1  0.84566000  0.14912000  0.37509000  1.0
  H  H11  1  0.15433000  0.85088000  0.62490000  1.0
  H  H12  1  0.62661000  0.46338000  0.79724000  1.0
  H  H13  1  0.37338000  0.53661000  0.20276000  1.0
  H  H14  1  0.83321000  0.38161000  0.96249000  1.0
  H  H15  1  0.16677000  0.61837000  0.03750000  1.0
  H  H16  1  0.37542000  0.12404000  0.73484000  1.0
  H  H17  1  0.62457000  0.87595000  0.26516000  1.0
  H  H18  1  0.18041000  0.18248000  0.55480000  1.0
  H  H19  1  0.81958000  0.81751000  0.44520000  1.0
  C  C20  1  0.72322000  0.32363000  0.30316000  1.0
  C  C21  1  0.27679000  0.67637000  0.69685000  1.0
  C  C22  1  0.86671000  0.27560000  0.40264000  1.0
  C  C23  1  0.13330000  0.72442000  0.59737000  1.0
  C  C24  1  0.87981000  0.32527000  0.65918000  1.0
  C  C25  1  0.12015000  0.67472000  0.34083000  1.0
  C  C26  1  0.78963000  0.38592000  0.77811000  1.0
  C  C27  1  0.21036000  0.61406000  0.22189000  1.0
  C  C28  1  0.90931000  0.34547000  0.87219000  1.0
  C  C29  1  0.09070000  0.65452000  0.12781000  1.0
  C  C30  1  0.20780000  0.19784000  0.74380000  1.0
  C  C31  1  0.79221000  0.80216000  0.25619000  1.0
  C  C32  1  0.09685000  0.22999000  0.64335000  1.0
  C  C33  1  0.90315000  0.77001000  0.35665000  1.0
  S  S34  1  0.71107000  0.37408000  0.54385000  1.0
  S  S35  1  0.28893000  0.62593000  0.45616000  1.0
  N  N36  1  0.11610000  0.25271000  0.85650000  1.0
  N  N37  1  0.88391000  0.74727000  0.14350000  1.0
  O  O38  1  0.08941000  0.23355000  0.13978000  1.0
  O  O39  1  0.91058000  0.76647000  0.86022000  1.0
  O  O40  1  0.71295000  0.04062000  0.12638000  1.0
  O  O41  1  0.28706000  0.95939000  0.87361000  1.0
  O  O42  1  0.62330000  0.26785000  0.05806000  1.0
  O  O43  1  0.37670000  0.73216000  0.94194000  1.0
