# generated using pymatgen
data_CdH12C10(IN2)2
_symmetry_space_group_name_H-M   'P 1'
_cell_length_a   4.15388000
_cell_length_b   8.33610000
_cell_length_c   22.02390000
_cell_angle_alpha   89.99950000
_cell_angle_beta   89.99970000
_cell_angle_gamma   82.87690000
_symmetry_Int_Tables_number   1
_chemical_formula_structural   CdH12C10(IN2)2
_chemical_formula_sum   'Cd2 H24 C20 I4 N8'
_cell_volume   756.73916696
_cell_formula_units_Z   2
loop_
 _symmetry_equiv_pos_site_id
 _symmetry_equiv_pos_as_xyz
  1  'x, y, z'
loop_
 _atom_site_type_symbol
 _atom_site_label
 _atom_site_symmetry_multiplicity
 _atom_site_fract_x
 _atom_site_fract_y
 _atom_site_fract_z
 _atom_site_occupancy
  Cd  Cd0  1  0.50000000  0.00001000  0.50000000  1.0
  Cd  Cd1  1  1.00000000  0.50002000  0.00000000  1.0
  H  H2  1  0.65357000  0.98090000  0.64649000  1.0
  H  H3  1  0.84648000  0.51910000  0.14648000  1.0
  H  H4  1  0.34641000  0.01910000  0.35352000  1.0
  H  H5  1  0.15365000  0.48089000  0.85351000  1.0
  H  H6  1  0.40264000  0.62076000  0.53216000  1.0
  H  H7  1  0.09732000  0.87929000  0.03215000  1.0
  H  H8  1  0.59729000  0.37927000  0.46784000  1.0
  H  H9  1  0.90267000  0.12076000  0.96785000  1.0
  H  H10  1  0.39935000  0.43137000  0.62164000  1.0
  H  H11  1  0.10060000  0.06864000  0.12164000  1.0
  H  H12  1  0.60058000  0.56864000  0.37836000  1.0
  H  H13  1  0.89935000  0.93137000  0.87838000  1.0
  H  H14  1  0.77074000  0.70280000  0.78177000  1.0
  H  H15  1  0.72927000  0.79717000  0.28177000  1.0
  H  H16  1  0.22923000  0.29719000  0.21823000  1.0
  H  H17  1  0.27079000  0.20277000  0.71823000  1.0
  H  H18  1  0.44032000  0.85847000  0.77619000  1.0
  H  H19  1  0.05968000  0.64151000  0.27618000  1.0
  H  H20  1  0.55964000  0.14153000  0.22382000  1.0
  H  H21  1  0.94037000  0.35844000  0.72382000  1.0
  H  H22  1  0.83006000  0.90039000  0.75469000  1.0
  H  H23  1  0.66996000  0.59958000  0.25468000  1.0
  H  H24  1  0.16991000  0.09960000  0.24532000  1.0
  H  H25  1  0.33010000  0.40037000  0.74531000  1.0
  C  C26  1  0.59906000  0.75220000  0.69151000  1.0
  C  C27  1  0.90094000  0.74780000  0.19151000  1.0
  C  C28  1  0.40089000  0.24780000  0.30849000  1.0
  C  C29  1  0.09912000  0.25218000  0.80849000  1.0
  C  C30  1  0.59750000  0.85692000  0.64148000  1.0
  C  C31  1  0.90253000  0.64308000  0.14148000  1.0
  C  C32  1  0.40248000  0.14308000  0.35852000  1.0
  C  C33  1  0.09755000  0.35691000  0.85852000  1.0
  C  C34  1  0.46096000  0.65774000  0.57795000  1.0
  C  C35  1  0.03902000  0.84229000  0.07795000  1.0
  C  C36  1  0.53900000  0.34228000  0.42205000  1.0
  C  C37  1  0.96099000  0.15774000  0.92206000  1.0
  C  C38  1  0.45915000  0.55434000  0.62764000  1.0
  C  C39  1  0.04083000  0.94568000  0.12764000  1.0
  C  C40  1  0.54078000  0.44567000  0.37235000  1.0
  C  C41  1  0.95917000  0.05434000  0.87236000  1.0
  C  C42  1  0.66772000  0.80613000  0.75424000  1.0
  C  C43  1  0.83230000  0.69384000  0.25424000  1.0
  C  C44  1  0.33225000  0.19386000  0.24576000  1.0
  C  C45  1  0.16777000  0.30611000  0.74576000  1.0
  I  I46  1  0.02825000  0.80438000  0.43623000  1.0
  I  I47  1  0.47174000  0.69564000  0.93624000  1.0
  I  I48  1  0.97172000  0.19562000  0.56376000  1.0
  I  I49  1  0.52825000  0.30440000  0.06377000  1.0
  N  N50  1  0.52929000  0.60004000  0.68384000  1.0
  N  N51  1  0.97070000  0.89996000  0.18384000  1.0
  N  N52  1  0.47067000  0.39996000  0.31616000  1.0
  N  N53  1  0.02932000  0.10002000  0.81616000  1.0
  N  N54  1  0.52966000  0.80953000  0.58532000  1.0
  N  N55  1  0.97035000  0.69050000  0.08531000  1.0
  N  N56  1  0.47030000  0.19049000  0.41469000  1.0
  N  N57  1  0.02970000  0.30953000  0.91469000  1.0
