# generated using pymatgen
data_ZnH11C14S(NO2)2
_symmetry_space_group_name_H-M   'P 1'
_cell_length_a   10.92380000
_cell_length_b   10.94930000
_cell_length_c   14.71100000
_cell_angle_alpha   90.53420000
_cell_angle_beta   90.53550000
_cell_angle_gamma   98.75920000
_symmetry_Int_Tables_number   1
_chemical_formula_structural   ZnH11C14S(NO2)2
_chemical_formula_sum   'Zn4 H44 C56 S4 N8 O16'
_cell_volume   1738.85244432
_cell_formula_units_Z   4
loop_
 _symmetry_equiv_pos_site_id
 _symmetry_equiv_pos_as_xyz
  1  'x, y, z'
loop_
 _atom_site_type_symbol
 _atom_site_label
 _atom_site_symmetry_multiplicity
 _atom_site_fract_x
 _atom_site_fract_y
 _atom_site_fract_z
 _atom_site_occupancy
  Zn  Zn0  1  0.54533000  0.87398000  0.49628000  1.0
  Zn  Zn1  1  0.12596000  0.45507000  0.00364000  1.0
  Zn  Zn2  1  0.45467000  0.12602000  0.50372000  1.0
  Zn  Zn3  1  0.87404000  0.54493000  0.99636000  1.0
  H  H4  1  0.70057000  0.34863000  0.46060000  1.0
  H  H5  1  0.65168000  0.29889000  0.03936000  1.0
  H  H6  1  0.29943000  0.65137000  0.53940000  1.0
  H  H7  1  0.34832000  0.70111000  0.96064000  1.0
  H  H8  1  0.70082000  0.40199000  0.57342000  1.0
  H  H9  1  0.59810000  0.29871000  0.92659000  1.0
  H  H10  1  0.29918000  0.59801000  0.42658000  1.0
  H  H11  1  0.40190000  0.70129000  0.07341000  1.0
  H  H12  1  0.86885000  0.99436000  0.31222000  1.0
  H  H13  1  0.00600000  0.13134000  0.18752000  1.0
  H  H14  1  0.13115000  0.00564000  0.68778000  1.0
  H  H15  1  0.99400000  0.86866000  0.81248000  1.0
  H  H16  1  0.88943000  0.97453000  0.68576000  1.0
  H  H17  1  0.02583000  0.11077000  0.81451000  1.0
  H  H18  1  0.11057000  0.02547000  0.31424000  1.0
  H  H19  1  0.97417000  0.88923000  0.18549000  1.0
  H  H20  1  0.09505000  0.66666667  0.39800000  1.0
  H  H21  1  0.33314000  0.90513000  0.10214000  1.0
  H  H22  1  0.90495000  0.33333333  0.60200000  1.0
  H  H23  1  0.66686000  0.09487000  0.89786000  1.0
  H  H24  1  0.52999000  0.69229000  0.33026000  1.0
  H  H25  1  0.30775000  0.47010000  0.16961000  1.0
  H  H26  1  0.47001000  0.30771000  0.66974000  1.0
  H  H27  1  0.69224000  0.52990000  0.83039000  1.0
  H  H28  1  0.62145000  0.46605000  0.33679000  1.0
  H  H29  1  0.53422000  0.37831000  0.16324000  1.0
  H  H30  1  0.37855000  0.53395000  0.66321000  1.0
  H  H31  1  0.46578000  0.62169000  0.83676000  1.0
  H  H32  1  0.67195000  0.57159000  0.65887000  1.0
  H  H33  1  0.42859000  0.32807000  0.84117000  1.0
  H  H34  1  0.32804000  0.42841000  0.34113000  1.0
  H  H35  1  0.57140000  0.67193000  0.15883000  1.0
  H  H36  1  0.63831000  0.72580000  0.64828000  1.0
  H  H37  1  0.27398000  0.36153000  0.85169000  1.0
  H  H38  1  0.36169000  0.27420000  0.35172000  1.0
  H  H39  1  0.72602000  0.63847000  0.14831000  1.0
  H  H40  1  0.78826000  0.69204000  0.62277000  1.0
  H  H41  1  0.30788000  0.21196000  0.87720000  1.0
  H  H42  1  0.21174000  0.30796000  0.37723000  1.0
  H  H43  1  0.69212000  0.78804000  0.12280000  1.0
  H  H44  1  0.86819000  0.61112000  0.40192000  1.0
  H  H45  1  0.38869000  0.13145000  0.09818000  1.0
  H  H46  1  0.13181000  0.38888000  0.59808000  1.0
  H  H47  1  0.61131000  0.86856000  0.90182000  1.0
  C  C48  1  0.76539000  0.11068000  0.69087000  1.0
  C  C49  1  0.88934000  0.23458000  0.80920000  1.0
  C  C50  1  0.23461000  0.88932000  0.30913000  1.0
  C  C51  1  0.11066000  0.76542000  0.19080000  1.0
  C  C52  1  0.86995000  0.46780000  0.50220000  1.0
  C  C53  1  0.53220000  0.12985000  0.99779000  1.0
  C  C54  1  0.13005000  0.53220000  0.49781000  1.0
  C  C55  1  0.46780000  0.87015000  0.00221000  1.0
  C  C56  1  0.74529000  0.13090000  0.30723000  1.0
  C  C57  1  0.86916000  0.25468000  0.19271000  1.0
  C  C58  1  0.25471000  0.86910000  0.69277000  1.0
  C  C59  1  0.13084000  0.74532000  0.80729000  1.0
  C  C60  1  0.67109000  0.06525000  0.62115000  1.0
  C  C61  1  0.93482000  0.32888000  0.87881000  1.0
  C  C62  1  0.32891000  0.93476000  0.37885000  1.0
  C  C63  1  0.06518000  0.67112000  0.12119000  1.0
  C  C64  1  0.73077000  0.42975000  0.50456000  1.0
  C  C65  1  0.57033000  0.26876000  0.99546000  1.0
  C  C66  1  0.26923000  0.57026000  0.49544000  1.0
  C  C67  1  0.42967000  0.73124000  0.00454000  1.0
  C  C68  1  0.64787000  0.63105000  0.52274000  1.0
  C  C69  1  0.36890000  0.35201000  0.97725000  1.0
  C  C70  1  0.35213000  0.36895000  0.47726000  1.0
  C  C71  1  0.63110000  0.64799000  0.02275000  1.0
  C  C72  1  0.65205000  0.08537000  0.37538000  1.0
  C  C73  1  0.91472000  0.34791000  0.12467000  1.0
  C  C74  1  0.34795000  0.91463000  0.62462000  1.0
  C  C75  1  0.08527000  0.65209000  0.87533000  1.0
  C  C76  1  0.84856000  0.07975000  0.28241000  1.0
  C  C77  1  0.92046000  0.15160000  0.21738000  1.0
  C  C78  1  0.15144000  0.92025000  0.71759000  1.0
  C  C79  1  0.07954000  0.84840000  0.78262000  1.0
  C  C80  1  0.86868000  0.05975000  0.71646000  1.0
  C  C81  1  0.94046000  0.13148000  0.78376000  1.0
  C  C82  1  0.13132000  0.94026000  0.28354000  1.0
  C  C83  1  0.05954000  0.86852000  0.21624000  1.0
  C  C84  1  0.05380000  0.59357000  0.44319000  1.0
  C  C85  1  0.40634000  0.94627000  0.05688000  1.0
  C  C86  1  0.94620000  0.40643000  0.55681000  1.0
  C  C87  1  0.59366000  0.05373000  0.94312000  1.0
  C  C88  1  0.57369000  0.64872000  0.38502000  1.0
  C  C89  1  0.35137000  0.42632000  0.11491000  1.0
  C  C90  1  0.42631000  0.35128000  0.61498000  1.0
  C  C91  1  0.64863000  0.57368000  0.88509000  1.0
  C  C92  1  0.61765000  0.53805000  0.38724000  1.0
  C  C93  1  0.46206000  0.38203000  0.11278000  1.0
  C  C94  1  0.38235000  0.46195000  0.61276000  1.0
  C  C95  1  0.53794000  0.61797000  0.88722000  1.0
  C  C96  1  0.68860000  0.65621000  0.61850000  1.0
  C  C97  1  0.34373000  0.31140000  0.88149000  1.0
  C  C98  1  0.31140000  0.34379000  0.38150000  1.0
  C  C99  1  0.65627000  0.68860000  0.11851000  1.0
  C  C100  1  0.92531000  0.56186000  0.44537000  1.0
  C  C101  1  0.43805000  0.07450000  0.05467000  1.0
  C  C102  1  0.07469000  0.43814000  0.55463000  1.0
  C  C103  1  0.56195000  0.92550000  0.94533000  1.0
  S  S104  1  0.73501000  0.26484000  0.25005000  1.0
  S  S105  1  0.26499000  0.73516000  0.74995000  1.0
  S  S106  1  0.75492000  0.24489000  0.74995000  1.0
  S  S107  1  0.24508000  0.75511000  0.25004000  1.0
  N  N108  1  0.66349000  0.52767000  0.47438000  1.0
  N  N109  1  0.47233000  0.33604000  0.02570000  1.0
  N  N110  1  0.33651000  0.47233000  0.52562000  1.0
  N  N111  1  0.52767000  0.66396000  0.97430000  1.0
  N  N112  1  0.59246000  0.70529000  0.46952000  1.0
  N  N113  1  0.29473000  0.40769000  0.03039000  1.0
  N  N114  1  0.40754000  0.29471000  0.53047000  1.0
  N  N115  1  0.70527000  0.59231000  0.96961000  1.0
  O  O116  1  0.60031000  0.14184000  0.59681000  1.0
  O  O117  1  0.85806000  0.39957000  0.90307000  1.0
  O  O118  1  0.39969000  0.85816000  0.40319000  1.0
  O  O119  1  0.14195000  0.60043000  0.09693000  1.0
  O  O120  1  0.67013000  0.95530000  0.59247000  1.0
  O  O121  1  0.04500000  0.33002000  0.90753000  1.0
  O  O122  1  0.32987000  0.04470000  0.40753000  1.0
  O  O123  1  0.95500000  0.66997000  0.09247000  1.0
  O  O124  1  0.58135000  0.16180000  0.40139000  1.0
  O  O125  1  0.83813000  0.41853000  0.09874000  1.0
  O  O126  1  0.41865000  0.83820000  0.59861000  1.0
  O  O127  1  0.16187000  0.58147000  0.90126000  1.0
  O  O128  1  0.65188000  0.97550000  0.40164000  1.0
  O  O129  1  0.02483000  0.34825000  0.09835000  1.0
  O  O130  1  0.34812000  0.02450000  0.59836000  1.0
  O  O131  1  0.97517000  0.65175000  0.90165000  1.0
