# generated using pymatgen
data_UH10(C4O3)2
_symmetry_space_group_name_H-M   'P 1'
_cell_length_a   5.31800000
_cell_length_b   6.77675000
_cell_length_c   7.38495000
_cell_angle_alpha   89.37680000
_cell_angle_beta   89.69770000
_cell_angle_gamma   74.93200000
_symmetry_Int_Tables_number   1
_chemical_formula_structural   UH10(C4O3)2
_chemical_formula_sum   'U1 H10 C8 O6'
_cell_volume   256.97780230
_cell_formula_units_Z   1
loop_
 _symmetry_equiv_pos_site_id
 _symmetry_equiv_pos_as_xyz
  1  'x, y, z'
loop_
 _atom_site_type_symbol
 _atom_site_label
 _atom_site_symmetry_multiplicity
 _atom_site_fract_x
 _atom_site_fract_y
 _atom_site_fract_z
 _atom_site_occupancy
  U  U0  1  0.99999000  0.00000000  0.00001000  1.0
  H  H1  1  0.19553000  0.50353000  0.34447000  1.0
  H  H2  1  0.80448000  0.49647000  0.65553000  1.0
  H  H3  1  0.78718000  0.43739000  0.31463000  1.0
  H  H4  1  0.21282000  0.56260000  0.68537000  1.0
  H  H5  1  0.55280000  0.61050000  0.18196000  1.0
  H  H6  1  0.44721000  0.38949000  0.81804000  1.0
  H  H7  1  0.36354000  0.80340000  0.45611000  1.0
  H  H8  1  0.63645000  0.19659000  0.54389000  1.0
  H  H9  1  0.70140000  0.78799000  0.43704000  1.0
  H  H10  1  0.29861000  0.21201000  0.56296000  1.0
  C  C11  1  0.40982000  0.24528000  0.20651000  1.0
  C  C12  1  0.59016000  0.75472000  0.79350000  1.0
  C  C13  1  0.39627000  0.40500000  0.34914000  1.0
  C  C14  1  0.60374000  0.59499000  0.65087000  1.0
  C  C15  1  0.58694000  0.53612000  0.31554000  1.0
  C  C16  1  0.41306000  0.46388000  0.68446000  1.0
  C  C17  1  0.56002000  0.69801000  0.46180000  1.0
  C  C18  1  0.43999000  0.30199000  0.53819000  1.0
  O  O19  1  0.99831000  0.81342000  0.17670000  1.0
  O  O20  1  0.00169000  0.18659000  0.82332000  1.0
  O  O21  1  0.21926000  0.16467000  0.19273000  1.0
  O  O22  1  0.78076000  0.83530000  0.80729000  1.0
  O  O23  1  0.61016000  0.19250000  0.10425000  1.0
  O  O24  1  0.38983000  0.80753000  0.89571000  1.0
