# generated using pymatgen
data_ZnH15C16N3O2
_symmetry_space_group_name_H-M   'P 1'
_cell_length_a   8.85722000
_cell_length_b   13.34860000
_cell_length_c   16.38640000
_cell_angle_alpha   79.89030000
_cell_angle_beta   76.23930000
_cell_angle_gamma   71.30370000
_symmetry_Int_Tables_number   1
_chemical_formula_structural   ZnH15C16N3O2
_chemical_formula_sum   'Zn4 H60 C64 N12 O8'
_cell_volume   1772.07205603
_cell_formula_units_Z   4
loop_
 _symmetry_equiv_pos_site_id
 _symmetry_equiv_pos_as_xyz
  1  'x, y, z'
loop_
 _atom_site_type_symbol
 _atom_site_label
 _atom_site_symmetry_multiplicity
 _atom_site_fract_x
 _atom_site_fract_y
 _atom_site_fract_z
 _atom_site_occupancy
  Zn  Zn0  1  0.68092000  0.48471000  0.00741000  1.0
  Zn  Zn1  1  0.31909000  0.51529000  0.99259000  1.0
  Zn  Zn2  1  0.18437000  0.99818000  0.48686000  1.0
  Zn  Zn3  1  0.81562000  0.00182000  0.51314000  1.0
  H  H4  1  0.80206000  0.65355000  0.19380000  1.0
  H  H5  1  0.19794000  0.34645000  0.80620000  1.0
  H  H6  1  0.66006000  0.78018000  0.18137000  1.0
  H  H7  1  0.33994000  0.21982000  0.81863000  1.0
  H  H8  1  0.07272000  0.53226000  0.12154000  1.0
  H  H9  1  0.92729000  0.46774000  0.87846000  1.0
  H  H10  1  0.24811000  0.51238000  0.15772000  1.0
  H  H11  1  0.75190000  0.48762000  0.84228000  1.0
  H  H12  1  0.44029000  0.33370000  0.16948000  1.0
  H  H13  1  0.55972000  0.66630000  0.83051000  1.0
  H  H14  1  0.21086000  0.74478000  0.97841000  1.0
  H  H15  1  0.78914000  0.25522000  0.02160000  1.0
  H  H16  1  0.00021000  0.20524000  0.12707000  1.0
  H  H17  1  0.99980000  0.79476000  0.87292000  1.0
  H  H18  1  0.33098000  0.00648000  0.04180000  1.0
  H  H19  1  0.66902000  0.99352000  0.95820000  1.0
  H  H20  1  0.14159000  0.93687000  0.98967000  1.0
  H  H21  1  0.85841000  0.06312000  0.01034000  1.0
  H  H22  1  0.24811000  0.07454000  0.17237000  1.0
  H  H23  1  0.75189000  0.92547000  0.82763000  1.0
  H  H24  1  0.46893000  0.14136000  0.19200000  1.0
  H  H25  1  0.53107000  0.85864000  0.80800000  1.0
  H  H26  1  0.98068000  0.70108000  0.05428000  1.0
  H  H27  1  0.01932000  0.29892000  0.94572000  1.0
  H  H28  1  0.95522000  0.78399000  0.13354000  1.0
  H  H29  1  0.04479000  0.21601000  0.86646000  1.0
  H  H30  1  0.84600000  0.83030000  0.04942000  1.0
  H  H31  1  0.15400000  0.16969000  0.95058000  1.0
  H  H32  1  0.57315000  0.88185000  0.08635000  1.0
  H  H33  1  0.42685000  0.11815000  0.91366000  1.0
  H  H34  1  0.77173000  0.18744000  0.41923000  1.0
  H  H35  1  0.22826000  0.81257000  0.58076000  1.0
  H  H36  1  0.58976000  0.15769000  0.45154000  1.0
  H  H37  1  0.41023000  0.84232000  0.54845000  1.0
  H  H38  1  0.54938000  0.96334000  0.25592000  1.0
  H  H39  1  0.45061000  0.03666000  0.74409000  1.0
  H  H40  1  0.31507000  0.30595000  0.48269000  1.0
  H  H41  1  0.68492000  0.69405000  0.51731000  1.0
  H  H42  1  0.16119000  0.36203000  0.56672000  1.0
  H  H43  1  0.83881000  0.63798000  0.43328000  1.0
  H  H44  1  0.80514000  0.94793000  0.14824000  1.0
  H  H45  1  0.19485000  0.05205000  0.85177000  1.0
  H  H46  1  0.96917000  0.11061000  0.29889000  1.0
  H  H47  1  0.03082000  0.88940000  0.70111000  1.0
  H  H48  1  0.06949000  0.30659000  0.68684000  1.0
  H  H49  1  0.93051000  0.69341000  0.31315000  1.0
  H  H50  1  0.63555000  0.21359000  0.78503000  1.0
  H  H51  1  0.36445000  0.78641000  0.21498000  1.0
  H  H52  1  0.70535000  0.10152000  0.66816000  1.0
  H  H53  1  0.29464000  0.89848000  0.33184000  1.0
  H  H54  1  0.01565000  0.02176000  0.17033000  1.0
  H  H55  1  0.98434000  0.97824000  0.82967000  1.0
  H  H56  1  0.33303000  0.25055000  0.67169000  1.0
  H  H57  1  0.66697000  0.74946000  0.32831000  1.0
  H  H58  1  0.44358000  0.32663000  0.59594000  1.0
  H  H59  1  0.55642000  0.67337000  0.40406000  1.0
  H  H60  1  0.48212000  0.18841000  0.58961000  1.0
  H  H61  1  0.51787000  0.81159000  0.41039000  1.0
  H  H62  1  0.82192000  0.31494000  0.79541000  1.0
  H  H63  1  0.17808000  0.68506000  0.20459000  1.0
  C  C64  1  0.92660000  0.41278000  0.09846000  1.0
  C  C65  1  0.07341000  0.58722000  0.90154000  1.0
  C  C66  1  0.07724000  0.34189000  0.12578000  1.0
  C  C67  1  0.92277000  0.65811000  0.87422000  1.0
  C  C68  1  0.75398000  0.71793000  0.14665000  1.0
  C  C69  1  0.24603000  0.28207000  0.85335000  1.0
  C  C70  1  0.34174000  0.30529000  0.16263000  1.0
  C  C71  1  0.65827000  0.69471000  0.83737000  1.0
  C  C72  1  0.28889000  0.77484000  0.00372000  1.0
  C  C73  1  0.71112000  0.22516000  0.99628000  1.0
  C  C74  1  0.20248000  0.37829000  0.13841000  1.0
  C  C75  1  0.79753000  0.62171000  0.86159000  1.0
  C  C76  1  0.53536000  0.73908000  0.06058000  1.0
  C  C77  1  0.46464000  0.26092000  0.93943000  1.0
  C  C78  1  0.09744000  0.23180000  0.13772000  1.0
  C  C79  1  0.90257000  0.76820000  0.86228000  1.0
  C  C80  1  0.35571000  0.92181000  0.03857000  1.0
  C  C81  1  0.64429000  0.07819000  0.96143000  1.0
  C  C82  1  0.25169000  0.88284000  0.00928000  1.0
  C  C83  1  0.74832000  0.11715000  0.99072000  1.0
  C  C84  1  0.67974000  0.67234000  0.09337000  1.0
  C  C85  1  0.32027000  0.32766000  0.90663000  1.0
  C  C86  1  0.23542000  0.15959000  0.16258000  1.0
  C  C87  1  0.76459000  0.84041000  0.83742000  1.0
  C  C88  1  0.35826000  0.19681000  0.17466000  1.0
  C  C89  1  0.64175000  0.80320000  0.82534000  1.0
  C  C90  1  0.43011000  0.70094000  0.02735000  1.0
  C  C91  1  0.56990000  0.29906000  0.97264000  1.0
  C  C92  1  0.89207000  0.76075000  0.09333000  1.0
  C  C93  1  0.10794000  0.23924000  0.90667000  1.0
  C  C94  1  0.49344000  0.85032000  0.06363000  1.0
  C  C95  1  0.50656000  0.14968000  0.93637000  1.0
  C  C96  1  0.61037000  0.04906000  0.33582000  1.0
  C  C97  1  0.38962000  0.95094000  0.66418000  1.0
  C  C98  1  0.45174000  0.05776000  0.39439000  1.0
  C  C99  1  0.54825000  0.94225000  0.60561000  1.0
  C  C100  1  0.64206000  0.99643000  0.26376000  1.0
  C  C101  1  0.35793000  0.00357000  0.73624000  1.0
  C  C102  1  0.03401000  0.19896000  0.61373000  1.0
  C  C103  1  0.96599000  0.80104000  0.38628000  1.0
  C  C104  1  0.92785000  0.13860000  0.61007000  1.0
  C  C105  1  0.07215000  0.86140000  0.38993000  1.0
  C  C106  1  0.73147000  0.08974000  0.34817000  1.0
  C  C107  1  0.26852000  0.91026000  0.65183000  1.0
  C  C108  1  0.25846000  0.28969000  0.54897000  1.0
  C  C109  1  0.74153000  0.71031000  0.45103000  1.0
  C  C110  1  0.78492000  0.98762000  0.20406000  1.0
  C  C111  1  0.21507000  0.01237000  0.79595000  1.0
  C  C112  1  0.18491000  0.20057000  0.55331000  1.0
  C  C113  1  0.81509000  0.79943000  0.44669000  1.0
  C  C114  1  0.87555000  0.08041000  0.28801000  1.0
  C  C115  1  0.12444000  0.91959000  0.71199000  1.0
  C  C116  1  0.98891000  0.26231000  0.68150000  1.0
  C  C117  1  0.01109000  0.73769000  0.31850000  1.0
  C  C118  1  0.74543000  0.21064000  0.73725000  1.0
  C  C119  1  0.25457000  0.78935000  0.26276000  1.0
  C  C120  1  0.78417000  0.14789000  0.67193000  1.0
  C  C121  1  0.21583000  0.85211000  0.32807000  1.0
  C  C122  1  0.90184000  0.03022000  0.21611000  1.0
  C  C123  1  0.09815000  0.96978000  0.78390000  1.0
  C  C124  1  0.38677000  0.26249000  0.60442000  1.0
  C  C125  1  0.61323000  0.73752000  0.39558000  1.0
  C  C126  1  0.84920000  0.26806000  0.74279000  1.0
  C  C127  1  0.15080000  0.73193000  0.25721000  1.0
  N  N128  1  0.74764000  0.57338000  0.07638000  1.0
  N  N129  1  0.25237000  0.42662000  0.92362000  1.0
  N  N130  1  0.88617000  0.51661000  0.10692000  1.0
  N  N131  1  0.11384000  0.48339000  0.89308000  1.0
  N  N132  1  0.19447000  0.48823000  0.11916000  1.0
  N  N133  1  0.80554000  0.51177000  0.88084000  1.0
  N  N134  1  0.71355000  0.13097000  0.42563000  1.0
  N  N135  1  0.28644000  0.86904000  0.57437000  1.0
  N  N136  1  0.25770000  0.12504000  0.50330000  1.0
  N  N137  1  0.74230000  0.87497000  0.49670000  1.0
  N  N138  1  0.40368000  0.12780000  0.45142000  1.0
  N  N139  1  0.59631000  0.87220000  0.54858000  1.0
  O  O140  1  0.45944000  0.59797000  0.01865000  1.0
  O  O141  1  0.54057000  0.40203000  0.98135000  1.0
  O  O142  1  0.84275000  0.36986000  0.06833000  1.0
  O  O143  1  0.15726000  0.63014000  0.93167000  1.0
  O  O144  1  0.36859000  0.99773000  0.38584000  1.0
  O  O145  1  0.63141000  0.00228000  0.61416000  1.0
  O  O146  1  0.95872000  0.07421000  0.54999000  1.0
  O  O147  1  0.04127000  0.92580000  0.45001000  1.0
