# generated using pymatgen
data_CoH10C14(NO3)2
_symmetry_space_group_name_H-M   'P 1'
_cell_length_a   7.31718000
_cell_length_b   9.46901000
_cell_length_c   10.95490000
_cell_angle_alpha   67.82100000
_cell_angle_beta   86.65320000
_cell_angle_gamma   83.59500000
_symmetry_Int_Tables_number   1
_chemical_formula_structural   CoH10C14(NO3)2
_chemical_formula_sum   'Co2 H20 C28 N4 O12'
_cell_volume   698.36874996
_cell_formula_units_Z   2
loop_
 _symmetry_equiv_pos_site_id
 _symmetry_equiv_pos_as_xyz
  1  'x, y, z'
loop_
 _atom_site_type_symbol
 _atom_site_label
 _atom_site_symmetry_multiplicity
 _atom_site_fract_x
 _atom_site_fract_y
 _atom_site_fract_z
 _atom_site_occupancy
  Co  Co0  1  0.61484000  0.78980000  0.60115000  1.0
  Co  Co1  1  0.38492000  0.21027000  0.39872000  1.0
  H  H2  1  0.24905000  0.36284000  0.95658000  1.0
  H  H3  1  0.75112000  0.63712000  0.04346000  1.0
  H  H4  1  0.35614000  0.93442000  0.89890000  1.0
  H  H5  1  0.64382000  0.06557000  0.10105000  1.0
  H  H6  1  0.55822000  0.34499000  0.61466000  1.0
  H  H7  1  0.44180000  0.65498000  0.38531000  1.0
  H  H8  1  0.98960000  0.13077000  0.24174000  1.0
  H  H9  1  0.01021000  0.86925000  0.75812000  1.0
  H  H10  1  0.79806000  0.05749000  0.44195000  1.0
  H  H11  1  0.20179000  0.94257000  0.55794000  1.0
  H  H12  1  0.88575000  0.59594000  0.50357000  1.0
  H  H13  1  0.11418000  0.40409000  0.49641000  1.0
  H  H14  1  0.08666000  0.65114000  0.29789000  1.0
  H  H15  1  0.91336000  0.34882000  0.70216000  1.0
  H  H16  1  0.15952000  0.14912000  0.10720000  1.0
  H  H17  1  0.84065000  0.85081000  0.89285000  1.0
  H  H18  1  0.88784000  0.54412000  0.84254000  1.0
  H  H19  1  0.11194000  0.45643000  0.15693000  1.0
  H  H20  1  0.07663000  0.61691000  0.80629000  1.0
  H  H21  1  0.92367000  0.38300000  0.19417000  1.0
  C  C22  1  0.43460000  0.53718000  0.73796000  1.0
  C  C23  1  0.56553000  0.46277000  0.26206000  1.0
  C  C24  1  0.40781000  0.37095000  0.78184000  1.0
  C  C25  1  0.59232000  0.62901000  0.21818000  1.0
  C  C26  1  0.30965000  0.29820000  0.89762000  1.0
  C  C27  1  0.69046000  0.70175000  0.10240000  1.0
  C  C28  1  0.29163000  0.14031000  0.94116000  1.0
  C  C29  1  0.70841000  0.85965000  0.05883000  1.0
  C  C30  1  0.36933000  0.05627000  0.86622000  1.0
  C  C31  1  0.63066000  0.94371000  0.13375000  1.0
  C  C32  1  0.46146000  0.13229000  0.74759000  1.0
  C  C33  1  0.53852000  0.86768000  0.25237000  1.0
  C  C34  1  0.48231000  0.28855000  0.70543000  1.0
  C  C35  1  0.51774000  0.71142000  0.29456000  1.0
  C  C36  1  0.15447000  0.92715000  0.12155000  1.0
  C  C37  1  0.84552000  0.07282000  0.87843000  1.0
  C  C38  1  0.05250000  0.89512000  0.25081000  1.0
  C  C39  1  0.94746000  0.10488000  0.74916000  1.0
  C  C40  1  0.97453000  0.00961000  0.29461000  1.0
  C  C41  1  0.02536000  0.99040000  0.70532000  1.0
  C  C42  1  0.86726000  0.97016000  0.40871000  1.0
  C  C43  1  0.13262000  0.02988000  0.59121000  1.0
  C  C44  1  0.91612000  0.71192000  0.44219000  1.0
  C  C45  1  0.08383000  0.28810000  0.55779000  1.0
  C  C46  1  0.02528000  0.74280000  0.32887000  1.0
  C  C47  1  0.97470000  0.25721000  0.67114000  1.0
  C  C48  1  0.53868000  0.04678000  0.66461000  1.0
  C  C49  1  0.46120000  0.95321000  0.33531000  1.0
  N  N50  1  0.19708000  0.07514000  0.06041000  1.0
  N  N51  1  0.80296000  0.92482000  0.93959000  1.0
  N  N52  1  0.83409000  0.82396000  0.48075000  1.0
  N  N53  1  0.16581000  0.17609000  0.51920000  1.0
  O  O54  1  0.31226000  0.63241000  0.75408000  1.0
  O  O55  1  0.68784000  0.36755000  0.24587000  1.0
  O  O56  1  0.59404000  0.57321000  0.68119000  1.0
  O  O57  1  0.40612000  0.42679000  0.31884000  1.0
  O  O58  1  0.56736000  0.11987000  0.54086000  1.0
  O  O59  1  0.43242000  0.88009000  0.45906000  1.0
  O  O60  1  0.57658000  0.90167000  0.71874000  1.0
  O  O61  1  0.42330000  0.09830000  0.28120000  1.0
  O  O62  1  0.19120000  0.82516000  0.07656000  1.0
  O  O63  1  0.80876000  0.17482000  0.92342000  1.0
  O  O64  1  0.94439000  0.63794000  0.82628000  1.0
  O  O65  1  0.05609000  0.36196000  0.17466000  1.0
