# generated using pymatgen
data_ZnH18C14N2O5
_symmetry_space_group_name_H-M   'P 1'
_cell_length_a   7.13262000
_cell_length_b   10.04220000
_cell_length_c   10.84555689
_cell_angle_alpha   112.77469870
_cell_angle_beta   102.74085723
_cell_angle_gamma   103.40300000
_symmetry_Int_Tables_number   1
_chemical_formula_structural   ZnH18C14N2O5
_chemical_formula_sum   'Zn2 H36 C28 N4 O10'
_cell_volume   653.74346232
_cell_formula_units_Z   2
loop_
 _symmetry_equiv_pos_site_id
 _symmetry_equiv_pos_as_xyz
  1  'x, y, z'
loop_
 _atom_site_type_symbol
 _atom_site_label
 _atom_site_symmetry_multiplicity
 _atom_site_fract_x
 _atom_site_fract_y
 _atom_site_fract_z
 _atom_site_occupancy
  Zn  Zn0  1  0.89644000  0.64614000  0.29233000  1.0
  Zn  Zn1  1  0.10356000  0.35386000  0.70767000  1.0
  H  H2  1  0.00189000  0.85788000  0.57169000  1.0
  H  H3  1  0.06955000  0.71319000  0.57153000  1.0
  H  H4  1  0.99810000  0.14212000  0.42831000  1.0
  H  H5  1  0.93045000  0.28681000  0.42847000  1.0
  H  H6  1  0.16930000  0.17427000  0.26027000  1.0
  H  H7  1  0.59041000  0.08623000  0.26027000  1.0
  H  H8  1  0.83071000  0.82575000  0.73974000  1.0
  H  H9  1  0.40959000  0.91377000  0.73973000  1.0
  H  H10  1  0.78588000  0.72815000  0.91534000  1.0
  H  H11  1  0.62994000  0.18695000  0.91518000  1.0
  H  H12  1  0.21413000  0.27185000  0.08467000  1.0
  H  H13  1  0.37005000  0.81305000  0.08482000  1.0
  H  H14  1  0.63552000  0.87099000  0.31311000  1.0
  H  H15  1  0.17809000  0.44230000  0.31316000  1.0
  H  H16  1  0.36448000  0.12901000  0.68689000  1.0
  H  H17  1  0.82191000  0.55770000  0.68684000  1.0
  H  H18  1  0.69920000  0.87053000  0.47931000  1.0
  H  H19  1  0.28022000  0.60906000  0.47934000  1.0
  H  H20  1  0.30080000  0.12947000  0.52069000  1.0
  H  H21  1  0.71977000  0.39093000  0.52065000  1.0
  H  H22  1  0.61909000  0.62734000  0.48570000  1.0
  H  H23  1  0.36666000  0.85848000  0.48571000  1.0
  H  H24  1  0.38091000  0.37266000  0.51430000  1.0
  H  H25  1  0.63334000  0.14152000  0.51429000  1.0
  H  H26  1  0.51596000  0.45138000  0.32650000  1.0
  H  H27  1  0.31095000  0.87532000  0.32657000  1.0
  H  H28  1  0.48404000  0.54862000  0.67350000  1.0
  H  H29  1  0.68905000  0.12468000  0.67343000  1.0
  H  H30  1  0.43323000  0.45702000  0.09978000  1.0
  H  H31  1  0.16719000  0.64241000  0.09962000  1.0
  H  H32  1  0.56678000  0.54298000  0.90022000  1.0
  H  H33  1  0.83281000  0.35759000  0.90038000  1.0
  H  H34  1  0.49254000  0.63512000  0.09561000  1.0
  H  H35  1  0.10383000  0.46035000  0.09577000  1.0
  H  H36  1  0.50746000  0.36489000  0.90439000  1.0
  H  H37  1  0.89618000  0.53965000  0.90423000  1.0
  C  C38  1  0.95357000  0.88365000  0.20294000  1.0
  C  C39  1  0.74964000  0.31928000  0.20285000  1.0
  C  C40  1  0.04643000  0.11635000  0.79706000  1.0
  C  C41  1  0.25036000  0.68071000  0.79714000  1.0
  C  C42  1  0.97458000  0.94453000  0.09828000  1.0
  C  C43  1  0.62382000  0.15378000  0.09824000  1.0
  C  C44  1  0.02544000  0.05548000  0.90173000  1.0
  C  C45  1  0.37618000  0.84622000  0.90176000  1.0
  C  C46  1  0.09477000  0.09846000  0.14602000  1.0
  C  C47  1  0.55102000  0.04765000  0.14601000  1.0
  C  C48  1  0.90524000  0.90154000  0.85398000  1.0
  C  C49  1  0.44898000  0.95235000  0.85399000  1.0
  C  C50  1  0.88018000  0.84704000  0.95138000  1.0
  C  C51  1  0.57145000  0.10420000  0.95132000  1.0
  C  C52  1  0.11983000  0.15296000  0.04862000  1.0
  C  C53  1  0.42854000  0.89578000  0.04867000  1.0
  C  C54  1  0.58404000  0.81120000  0.37197000  1.0
  C  C55  1  0.28826000  0.56097000  0.37202000  1.0
  C  C56  1  0.41596000  0.18880000  0.62803000  1.0
  C  C57  1  0.71174000  0.43903000  0.62798000  1.0
  C  C58  1  0.50900000  0.56739000  0.37633000  1.0
  C  C59  1  0.36761000  0.80908000  0.37631000  1.0
  C  C60  1  0.49100000  0.43261000  0.62367000  1.0
  C  C61  1  0.63239000  0.19092000  0.62369000  1.0
  C  C62  1  0.43417000  0.57494000  0.15217000  1.0
  C  C63  1  0.21864000  0.57712000  0.15218000  1.0
  C  C64  1  0.56583000  0.42506000  0.84783000  1.0
  C  C65  1  0.78136000  0.42288000  0.84782000  1.0
  N  N66  1  0.58281000  0.65136000  0.29999000  1.0
  N  N67  1  0.21768000  0.64875000  0.30000000  1.0
  N  N68  1  0.41719000  0.34864000  0.70001000  1.0
  N  N69  1  0.78232000  0.35125000  0.70000000  1.0
  O  O70  1  0.00753000  0.97513000  0.33393000  1.0
  O  O71  1  0.82559000  0.35898000  0.33393000  1.0
  O  O72  1  0.99246000  0.02487000  0.66607000  1.0
  O  O73  1  0.17442000  0.64103000  0.66607000  1.0
  O  O74  1  0.88474000  0.73581000  0.15175000  1.0
  O  O75  1  0.76860000  0.41582000  0.15158000  1.0
  O  O76  1  0.11526000  0.26419000  0.84825000  1.0
  O  O77  1  0.23139000  0.58418000  0.84841000  1.0
  O  O78  1  0.00404000  0.75426000  0.50953000  1.0
  O  O79  1  0.99595000  0.24574000  0.49047000  1.0
