# generated using pymatgen
data_CdH18C15(NO3)2
_symmetry_space_group_name_H-M   'P 1'
_cell_length_a   8.94079000
_cell_length_b   10.13620000
_cell_length_c   10.47040000
_cell_angle_alpha   68.21980000
_cell_angle_beta   69.77580000
_cell_angle_gamma   78.00500000
_symmetry_Int_Tables_number   1
_chemical_formula_structural   CdH18C15(NO3)2
_chemical_formula_sum   'Cd2 H36 C30 N4 O12'
_cell_volume   823.37064246
_cell_formula_units_Z   2
loop_
 _symmetry_equiv_pos_site_id
 _symmetry_equiv_pos_as_xyz
  1  'x, y, z'
loop_
 _atom_site_type_symbol
 _atom_site_label
 _atom_site_symmetry_multiplicity
 _atom_site_fract_x
 _atom_site_fract_y
 _atom_site_fract_z
 _atom_site_occupancy
  Cd  Cd0  1  0.77336000  0.69753000  0.34588000  1.0
  Cd  Cd1  1  0.22664000  0.30247000  0.65412000  1.0
  H  H2  1  0.06275000  0.91685000  0.74210000  1.0
  H  H3  1  0.93725000  0.08315000  0.25790000  1.0
  H  H4  1  0.28997000  0.91133000  0.83691000  1.0
  H  H5  1  0.71003000  0.08867000  0.16309000  1.0
  H  H6  1  0.56115000  0.99569000  0.72224000  1.0
  H  H7  1  0.43885000  0.00431000  0.27776000  1.0
  H  H8  1  0.75489000  0.90503000  0.52674000  1.0
  H  H9  1  0.24511000  0.09497000  0.47326000  1.0
  H  H10  1  0.42308000  0.65380000  0.55906000  1.0
  H  H11  1  0.57692000  0.34620000  0.44094000  1.0
  H  H12  1  0.17486000  0.63720000  0.72272000  1.0
  H  H13  1  0.82514000  0.36280000  0.27728000  1.0
  H  H14  1  0.35418000  0.49198000  0.90424000  1.0
  H  H15  1  0.64582000  0.50802000  0.09576000  1.0
  H  H16  1  0.30200000  0.36559000  0.17125000  1.0
  H  H17  1  0.69801000  0.63441000  0.82875000  1.0
  H  H18  1  0.06232000  0.45057000  0.34008000  1.0
  H  H19  1  0.93768000  0.54943000  0.65992000  1.0
  H  H20  1  0.92362000  0.76706000  0.00300000  1.0
  H  H21  1  0.07638000  0.23294000  0.99700000  1.0
  H  H22  1  0.16919000  0.99820000  0.30574000  1.0
  H  H23  1  0.83081000  0.00180000  0.69427000  1.0
  H  H24  1  0.26651000  0.82049000  0.35766000  1.0
  H  H25  1  0.73349000  0.17951000  0.64234000  1.0
  H  H26  1  0.11955000  0.88351000  0.49002000  1.0
  H  H27  1  0.88044000  0.11649000  0.50998000  1.0
  H  H28  1  0.36514000  0.70715000  0.12421000  1.0
  H  H29  1  0.63486000  0.29285000  0.87579000  1.0
  H  H30  1  0.53641000  0.77938000  0.98062000  1.0
  H  H31  1  0.46358000  0.22062000  0.01938000  1.0
  H  H32  1  0.39693000  0.89223000  0.06779000  1.0
  H  H33  1  0.60307000  0.10777000  0.93221000  1.0
  H  H34  1  0.64423000  0.43574000  0.58383000  1.0
  H  H35  1  0.35576000  0.56426000  0.41617000  1.0
  H  H36  1  0.83684000  0.40595000  0.53518000  1.0
  H  H37  1  0.16316000  0.59405000  0.46482000  1.0
  C  C38  1  0.33510000  0.77467000  0.70657000  1.0
  C  C39  1  0.66490000  0.22533000  0.29343000  1.0
  C  C40  1  0.37551000  0.87176000  0.75283000  1.0
  C  C41  1  0.62448000  0.12825000  0.24717000  1.0
  C  C42  1  0.52768000  0.91931000  0.68884000  1.0
  C  C43  1  0.47232000  0.08069000  0.31116000  1.0
  C  C44  1  0.63536000  0.86923000  0.58060000  1.0
  C  C45  1  0.36464000  0.13077000  0.41940000  1.0
  C  C46  1  0.45023000  0.72979000  0.59754000  1.0
  C  C47  1  0.54976000  0.27021000  0.40246000  1.0
  C  C48  1  0.17196000  0.71697000  0.77222000  1.0
  C  C49  1  0.82804000  0.28303000  0.22778000  1.0
  C  C50  1  0.14319000  0.64002000  0.93288000  1.0
  C  C51  1  0.85681000  0.35998000  0.06712000  1.0
  C  C52  1  0.25013000  0.52550000  0.98188000  1.0
  C  C53  1  0.74987000  0.47450000  0.01812000  1.0
  C  C54  1  0.22203000  0.45559000  0.12903000  1.0
  C  C55  1  0.77797000  0.54441000  0.87097000  1.0
  C  C56  1  0.08786000  0.50235000  0.22406000  1.0
  C  C57  1  0.91214000  0.49765000  0.77594000  1.0
  C  C58  1  0.01131000  0.67941000  0.03510000  1.0
  C  C59  1  0.98869000  0.32059000  0.96490000  1.0
  C  C60  1  0.02419000  0.82796000  0.35902000  1.0
  C  C61  1  0.97581000  0.17204000  0.64098000  1.0
  C  C62  1  0.15368000  0.88805000  0.37685000  1.0
  C  C63  1  0.84632000  0.11195000  0.62315000  1.0
  C  C64  1  0.55345000  0.74839000  0.18812000  1.0
  C  C65  1  0.44655000  0.25161000  0.81188000  1.0
  C  C66  1  0.45503000  0.78287000  0.08577000  1.0
  C  C67  1  0.54497000  0.21713000  0.91423000  1.0
  N  N68  1  0.59712000  0.77634000  0.53518000  1.0
  N  N69  1  0.40288000  0.22366000  0.46482000  1.0
  N  N70  1  0.98444000  0.61190000  0.17766000  1.0
  N  N71  1  0.01556000  0.38809000  0.82234000  1.0
  O  O72  1  0.04692000  0.82284000  0.73935000  1.0
  O  O73  1  0.95308000  0.17715000  0.26065000  1.0
  O  O74  1  0.00669000  0.69459000  0.42218000  1.0
  O  O75  1  0.99331000  0.30541000  0.57781000  1.0
  O  O76  1  0.93128000  0.90920000  0.28692000  1.0
  O  O77  1  0.06872000  0.09080000  0.71308000  1.0
  O  O78  1  0.65908000  0.83171000  0.15741000  1.0
  O  O79  1  0.34092000  0.16829000  0.84259000  1.0
  O  O80  1  0.53157000  0.63683000  0.29973000  1.0
  O  O81  1  0.46842000  0.36317000  0.70027000  1.0
  O  O82  1  0.74326000  0.46477000  0.50321000  1.0
  O  O83  1  0.25674000  0.53523000  0.49679000  1.0
