# generated using pymatgen
data_ZnH8C17N2O3F4
_symmetry_space_group_name_H-M   'P 1'
_cell_length_a   6.34889000
_cell_length_b   9.01138000
_cell_length_c   26.51060000
_cell_angle_alpha   89.99990000
_cell_angle_beta   89.99980000
_cell_angle_gamma   89.99980000
_symmetry_Int_Tables_number   1
_chemical_formula_structural   ZnH8C17N2O3F4
_chemical_formula_sum   'Zn4 H32 C68 N8 O12 F16'
_cell_volume   1516.73134970
_cell_formula_units_Z   4
loop_
 _symmetry_equiv_pos_site_id
 _symmetry_equiv_pos_as_xyz
  1  'x, y, z'
loop_
 _atom_site_type_symbol
 _atom_site_label
 _atom_site_symmetry_multiplicity
 _atom_site_fract_x
 _atom_site_fract_y
 _atom_site_fract_z
 _atom_site_occupancy
  Zn  Zn0  1  0.00000000  0.00000000  0.71195000  1.0
  Zn  Zn1  1  0.50000000  0.00000000  0.78805000  1.0
  Zn  Zn2  1  0.00000000  0.00000000  0.28805000  1.0
  Zn  Zn3  1  0.50000000  0.99999000  0.21195000  1.0
  H  H4  1  0.73582000  0.86616000  0.63050000  1.0
  H  H5  1  0.23582000  0.13384000  0.86950000  1.0
  H  H6  1  0.76419000  0.86617000  0.86950000  1.0
  H  H7  1  0.26418000  0.13383000  0.63050000  1.0
  H  H8  1  0.26418000  0.13384000  0.36950000  1.0
  H  H9  1  0.76418000  0.86616000  0.13050000  1.0
  H  H10  1  0.23582000  0.13383000  0.13050000  1.0
  H  H11  1  0.73582000  0.86616000  0.36950000  1.0
  H  H12  1  0.71984000  0.86226000  0.53667000  1.0
  H  H13  1  0.21983000  0.13774000  0.96334000  1.0
  H  H14  1  0.78016000  0.86226000  0.96333000  1.0
  H  H15  1  0.28016000  0.13774000  0.53667000  1.0
  H  H16  1  0.28016000  0.13774000  0.46333000  1.0
  H  H17  1  0.78016000  0.86226000  0.03667000  1.0
  H  H18  1  0.21984000  0.13774000  0.03667000  1.0
  H  H19  1  0.71984000  0.86225000  0.46333000  1.0
  H  H20  1  0.55848000  0.27849000  0.57818000  1.0
  H  H21  1  0.05848000  0.72151000  0.92182000  1.0
  H  H22  1  0.94152000  0.27848000  0.92182000  1.0
  H  H23  1  0.44152000  0.72151000  0.57818000  1.0
  H  H24  1  0.44153000  0.72151000  0.42182000  1.0
  H  H25  1  0.94153000  0.27849000  0.07818000  1.0
  H  H26  1  0.05847000  0.72151000  0.07818000  1.0
  H  H27  1  0.55848000  0.27849000  0.42182000  1.0
  H  H28  1  0.87336000  0.43494000  0.58181000  1.0
  H  H29  1  0.37336000  0.56506000  0.91819000  1.0
  H  H30  1  0.62664000  0.43493000  0.91819000  1.0
  H  H31  1  0.12664000  0.56507000  0.58181000  1.0
  H  H32  1  0.12664000  0.56507000  0.41819000  1.0
  H  H33  1  0.62664000  0.43493000  0.08181000  1.0
  H  H34  1  0.37336000  0.56506000  0.08181000  1.0
  H  H35  1  0.87337000  0.43494000  0.41819000  1.0
  C  C36  1  0.74999000  0.74125000  0.75000000  1.0
  C  C37  1  0.25000000  0.25876000  0.75000000  1.0
  C  C38  1  0.25000000  0.25875000  0.25000000  1.0
  C  C39  1  0.75000000  0.74124000  0.25000000  1.0
  C  C40  1  0.74999000  0.57516000  0.75000000  1.0
  C  C41  1  0.25000000  0.42485000  0.75000000  1.0
  C  C42  1  0.25000000  0.42485000  0.25000000  1.0
  C  C43  1  0.75000000  0.57514000  0.25000000  1.0
  C  C44  1  0.75448000  0.49190000  0.79481000  1.0
  C  C45  1  0.25448000  0.50811000  0.70519000  1.0
  C  C46  1  0.74551000  0.49189000  0.70519000  1.0
  C  C47  1  0.24552000  0.50811000  0.79481000  1.0
  C  C48  1  0.24552000  0.50811000  0.20519000  1.0
  C  C49  1  0.74552000  0.49188000  0.29481000  1.0
  C  C50  1  0.25448000  0.50811000  0.29481000  1.0
  C  C51  1  0.75448000  0.49189000  0.20519000  1.0
  C  C52  1  0.75972000  0.33804000  0.79480000  1.0
  C  C53  1  0.25972000  0.66197000  0.70521000  1.0
  C  C54  1  0.74027000  0.33804000  0.70521000  1.0
  C  C55  1  0.24028000  0.66196000  0.79480000  1.0
  C  C56  1  0.24028000  0.66196000  0.20521000  1.0
  C  C57  1  0.74027000  0.33803000  0.29479000  1.0
  C  C58  1  0.25972000  0.66196000  0.29480000  1.0
  C  C59  1  0.75972000  0.33803000  0.20521000  1.0
  C  C60  1  0.75000000  0.25456000  0.75000000  1.0
  C  C61  1  0.25000000  0.74545000  0.75000000  1.0
  C  C62  1  0.25000000  0.74545000  0.25000000  1.0
  C  C63  1  0.75000000  0.25455000  0.25000000  1.0
  C  C64  1  0.85104000  0.92611000  0.60786000  1.0
  C  C65  1  0.35104000  0.07389000  0.89214000  1.0
  C  C66  1  0.64896000  0.92611000  0.89214000  1.0
  C  C67  1  0.14896000  0.07389000  0.60786000  1.0
  C  C68  1  0.14896000  0.07389000  0.39213000  1.0
  C  C69  1  0.64896000  0.92611000  0.10787000  1.0
  C  C70  1  0.35104000  0.07389000  0.10786000  1.0
  C  C71  1  0.85104000  0.92611000  0.39214000  1.0
  C  C72  1  0.84503000  0.92394000  0.55553000  1.0
  C  C73  1  0.34503000  0.07606000  0.94447000  1.0
  C  C74  1  0.65497000  0.92395000  0.94447000  1.0
  C  C75  1  0.15497000  0.07605000  0.55553000  1.0
  C  C76  1  0.15497000  0.07605000  0.44447000  1.0
  C  C77  1  0.65497000  0.92394000  0.05553000  1.0
  C  C78  1  0.34504000  0.07605000  0.05553000  1.0
  C  C79  1  0.84504000  0.92394000  0.44447000  1.0
  C  C80  1  0.00001000  0.00000000  0.52792000  1.0
  C  C81  1  0.50000000  0.00000000  0.97208000  1.0
  C  C82  1  0.00000000  0.00000000  0.47208000  1.0
  C  C83  1  0.50000000  0.00000000  0.02792000  1.0
  C  C84  1  0.63269000  0.31463000  0.54313000  1.0
  C  C85  1  0.13269000  0.68537000  0.95687000  1.0
  C  C86  1  0.86732000  0.31463000  0.95687000  1.0
  C  C87  1  0.36731000  0.68538000  0.54313000  1.0
  C  C88  1  0.36731000  0.68538000  0.45687000  1.0
  C  C89  1  0.86731000  0.31463000  0.04313000  1.0
  C  C90  1  0.13269000  0.68537000  0.04313000  1.0
  C  C91  1  0.63269000  0.31463000  0.45687000  1.0
  C  C92  1  0.81143000  0.40365000  0.54506000  1.0
  C  C93  1  0.31144000  0.59635000  0.95494000  1.0
  C  C94  1  0.68857000  0.40365000  0.95494000  1.0
  C  C95  1  0.18856000  0.59636000  0.54506000  1.0
  C  C96  1  0.18857000  0.59636000  0.45494000  1.0
  C  C97  1  0.68857000  0.40364000  0.04506000  1.0
  C  C98  1  0.31143000  0.59635000  0.04506000  1.0
  C  C99  1  0.81144000  0.40365000  0.45494000  1.0
  C  C100  1  0.90562000  0.45167000  0.50000000  1.0
  C  C101  1  0.40562000  0.54833000  0.00000000  1.0
  C  C102  1  0.59439000  0.45167000  0.00000000  1.0
  C  C103  1  0.09438000  0.54833000  0.50000000  1.0
  N  N104  1  0.00000000  0.00000000  0.63394000  1.0
  N  N105  1  0.50000000  0.00000000  0.86607000  1.0
  N  N106  1  0.00000000  0.00000000  0.36606000  1.0
  N  N107  1  0.50000000  0.00000000  0.13393000  1.0
  N  N108  1  0.54203000  0.26974000  0.50000000  1.0
  N  N109  1  0.04203000  0.73026000  0.00000000  1.0
  N  N110  1  0.95798000  0.26973000  0.00000000  1.0
  N  N111  1  0.45797000  0.73027000  0.50000000  1.0
  O  O112  1  0.83109000  0.80581000  0.71204000  1.0
  O  O113  1  0.33109000  0.19420000  0.78796000  1.0
  O  O114  1  0.66891000  0.80580000  0.78796000  1.0
  O  O115  1  0.16891000  0.19420000  0.71204000  1.0
  O  O116  1  0.16890000  0.19420000  0.28796000  1.0
  O  O117  1  0.66891000  0.80580000  0.21204000  1.0
  O  O118  1  0.33109000  0.19420000  0.21204000  1.0
  O  O119  1  0.83109000  0.80580000  0.28796000  1.0
  O  O120  1  0.75000000  0.10678000  0.75000000  1.0
  O  O121  1  0.25000000  0.89323000  0.75000000  1.0
  O  O122  1  0.25000000  0.89322000  0.25000000  1.0
  O  O123  1  0.75000000  0.10677000  0.25000000  1.0
  F  F124  1  0.76553000  0.56027000  0.84040000  1.0
  F  F125  1  0.26553000  0.43974000  0.65960000  1.0
  F  F126  1  0.73447000  0.56027000  0.65960000  1.0
  F  F127  1  0.23447000  0.43974000  0.84040000  1.0
  F  F128  1  0.23447000  0.43974000  0.15960000  1.0
  F  F129  1  0.73447000  0.56026000  0.34040000  1.0
  F  F130  1  0.26553000  0.43973000  0.34040000  1.0
  F  F131  1  0.76553000  0.56026000  0.15960000  1.0
  F  F132  1  0.77351000  0.26434000  0.83934000  1.0
  F  F133  1  0.27351000  0.73567000  0.66066000  1.0
  F  F134  1  0.72648000  0.26433000  0.66066000  1.0
  F  F135  1  0.22649000  0.73567000  0.83934000  1.0
  F  F136  1  0.22649000  0.73567000  0.16066000  1.0
  F  F137  1  0.72648000  0.26432000  0.33934000  1.0
  F  F138  1  0.27351000  0.73567000  0.33934000  1.0
  F  F139  1  0.77351000  0.26432000  0.16066000  1.0
