# generated using pymatgen
data_KH2C6N3O7
_symmetry_space_group_name_H-M   'P 1'
_cell_length_a   7.15071000
_cell_length_b   12.23477718
_cell_length_c   12.23480106
_cell_angle_alpha   66.18726211
_cell_angle_beta   73.02450279
_cell_angle_gamma   73.02466866
_symmetry_Int_Tables_number   1
_chemical_formula_structural   KH2C6N3O7
_chemical_formula_sum   'K4 H8 C24 N12 O28'
_cell_volume   917.87843777
_cell_formula_units_Z   4
loop_
 _symmetry_equiv_pos_site_id
 _symmetry_equiv_pos_as_xyz
  1  'x, y, z'
loop_
 _atom_site_type_symbol
 _atom_site_label
 _atom_site_symmetry_multiplicity
 _atom_site_fract_x
 _atom_site_fract_y
 _atom_site_fract_z
 _atom_site_occupancy
  K  K0  1  0.25000000  0.88493000  0.11507000  1.0
  K  K1  1  0.75001000  0.61484000  0.38515000  1.0
  K  K2  1  0.75000000  0.11507000  0.88493000  1.0
  K  K3  1  0.24999000  0.38516000  0.61485000  1.0
  H  H4  1  0.14024000  0.63144000  0.83779000  1.0
  H  H5  1  0.10947000  0.86848000  0.66242000  1.0
  H  H6  1  0.35976000  0.16221000  0.36856000  1.0
  H  H7  1  0.39053000  0.33758000  0.13152000  1.0
  H  H8  1  0.85976000  0.36856000  0.16221000  1.0
  H  H9  1  0.89054000  0.13152000  0.33758000  1.0
  H  H10  1  0.64024000  0.83779000  0.63144000  1.0
  H  H11  1  0.60947000  0.66242000  0.86848000  1.0
  C  C12  1  0.12226000  0.62767000  0.12790000  1.0
  C  C13  1  0.37774000  0.87209000  0.37234000  1.0
  C  C14  1  0.87774000  0.37233000  0.87210000  1.0
  C  C15  1  0.62226000  0.12791000  0.62766000  1.0
  C  C16  1  0.09916000  0.66942000  0.00094000  1.0
  C  C17  1  0.26932000  0.83038000  0.49932000  1.0
  C  C18  1  0.40086000  0.99906000  0.33057000  1.0
  C  C19  1  0.23068000  0.50068000  0.16962000  1.0
  C  C20  1  0.90084000  0.33058000  0.99906000  1.0
  C  C21  1  0.73068000  0.16962000  0.50068000  1.0
  C  C22  1  0.59915000  0.00094000  0.66942000  1.0
  C  C23  1  0.76932000  0.49932000  0.83038000  1.0
  C  C24  1  0.16671000  0.59660000  0.93027000  1.0
  C  C25  1  0.19359000  0.90325000  0.56992000  1.0
  C  C26  1  0.33330000  0.06973000  0.40340000  1.0
  C  C27  1  0.30641000  0.43008000  0.09675000  1.0
  C  C28  1  0.83329000  0.40340000  0.06973000  1.0
  C  C29  1  0.80642000  0.09675000  0.43007000  1.0
  C  C30  1  0.66671000  0.93027000  0.59660000  1.0
  C  C31  1  0.69359000  0.56992000  0.90325000  1.0
  C  C32  1  0.27211000  0.47772000  0.97784000  1.0
  C  C33  1  0.22788000  0.02216000  0.52229000  1.0
  C  C34  1  0.72789000  0.52228000  0.02216000  1.0
  C  C35  1  0.77212000  0.97784000  0.47771000  1.0
  N  N36  1  0.99095000  0.79165000  0.94551000  1.0
  N  N37  1  0.22763000  0.70822000  0.55471000  1.0
  N  N38  1  0.50904000  0.05449000  0.20836000  1.0
  N  N39  1  0.27237000  0.44529000  0.29178000  1.0
  N  N40  1  0.00904000  0.20836000  0.05449000  1.0
  N  N41  1  0.77238000  0.29178000  0.44529000  1.0
  N  N42  1  0.49096000  0.94551000  0.79164000  1.0
  N  N43  1  0.72763000  0.55471000  0.70822000  1.0
  N  N44  1  0.34691000  0.40301000  0.90307000  1.0
  N  N45  1  0.15310000  0.09693000  0.59699000  1.0
  N  N46  1  0.65309000  0.59699000  0.09693000  1.0
  N  N47  1  0.84691000  0.90307000  0.40300000  1.0
  O  O48  1  0.05712000  0.69265000  0.19303000  1.0
  O  O49  1  0.44288000  0.80697000  0.30735000  1.0
  O  O50  1  0.94286000  0.30735000  0.80698000  1.0
  O  O51  1  0.55712000  0.19303000  0.69265000  1.0
  O  O52  1  0.98680000  0.87357000  0.98255000  1.0
  O  O53  1  0.34237000  0.62627000  0.51775000  1.0
  O  O54  1  0.51319000  0.01745000  0.12644000  1.0
  O  O55  1  0.15763000  0.48225000  0.37373000  1.0
  O  O56  1  0.01319000  0.12644000  0.01745000  1.0
  O  O57  1  0.65764000  0.37373000  0.48225000  1.0
  O  O58  1  0.48680000  0.98255000  0.87356000  1.0
  O  O59  1  0.84237000  0.51775000  0.62627000  1.0
  O  O60  1  0.90587000  0.80910000  0.86253000  1.0
  O  O61  1  0.07687000  0.69086000  0.63751000  1.0
  O  O62  1  0.59414000  0.13746000  0.19090000  1.0
  O  O63  1  0.42313000  0.36250000  0.30914000  1.0
  O  O64  1  0.09413000  0.19090000  0.13747000  1.0
  O  O65  1  0.92314000  0.30914000  0.36249000  1.0
  O  O66  1  0.40587000  0.86253000  0.80910000  1.0
  O  O67  1  0.57688000  0.63750000  0.69086000  1.0
  O  O68  1  0.29806000  0.44278000  0.80184000  1.0
  O  O69  1  0.04273000  0.05718000  0.69818000  1.0
  O  O70  1  0.20194000  0.19816000  0.55722000  1.0
  O  O71  1  0.45727000  0.30182000  0.94282000  1.0
  O  O72  1  0.70194000  0.55722000  0.19816000  1.0
  O  O73  1  0.95728000  0.94282000  0.30182000  1.0
  O  O74  1  0.79806000  0.80184000  0.44278000  1.0
  O  O75  1  0.54273000  0.69818000  0.05718000  1.0
