# generated using pymatgen
data_ZnH14C18I2(N2O)2
_symmetry_space_group_name_H-M   'P 1'
_cell_length_a   6.69008000
_cell_length_b   12.37550000
_cell_length_c   13.47150000
_cell_angle_alpha   65.55500000
_cell_angle_beta   89.99980000
_cell_angle_gamma   89.99980000
_symmetry_Int_Tables_number   1
_chemical_formula_structural   ZnH14C18I2(N2O)2
_chemical_formula_sum   'Zn2 H28 C36 I4 N8 O4'
_cell_volume   1015.36614089
_cell_formula_units_Z   2
loop_
 _symmetry_equiv_pos_site_id
 _symmetry_equiv_pos_as_xyz
  1  'x, y, z'
loop_
 _atom_site_type_symbol
 _atom_site_label
 _atom_site_symmetry_multiplicity
 _atom_site_fract_x
 _atom_site_fract_y
 _atom_site_fract_z
 _atom_site_occupancy
  Zn  Zn0  1  0.39414000  0.50000000  0.75000000  1.0
  Zn  Zn1  1  0.60585000  0.50000000  0.25000000  1.0
  H  H2  1  0.44799000  0.15056000  0.65818000  1.0
  H  H3  1  0.44800000  0.84943000  0.84182000  1.0
  H  H4  1  0.55200000  0.84944000  0.34182000  1.0
  H  H5  1  0.55200000  0.15057000  0.15818000  1.0
  H  H6  1  0.51229000  0.34183000  0.64206000  1.0
  H  H7  1  0.51229000  0.65816000  0.85794000  1.0
  H  H8  1  0.48771000  0.65817000  0.35794000  1.0
  H  H9  1  0.48771000  0.34183000  0.14206000  1.0
  H  H10  1  0.70045000  0.37839000  0.91951000  1.0
  H  H11  1  0.70045000  0.62161000  0.58049000  1.0
  H  H12  1  0.29954000  0.62160000  0.08049000  1.0
  H  H13  1  0.29954000  0.37839000  0.41951000  1.0
  H  H14  1  0.94154000  0.21040000  0.96782000  1.0
  H  H15  1  0.94154000  0.78960000  0.53218000  1.0
  H  H16  1  0.05845000  0.78959000  0.03218000  1.0
  H  H17  1  0.05845000  0.21041000  0.46782000  1.0
  H  H18  1  0.96538000  0.10296000  0.84302000  1.0
  H  H19  1  0.96538000  0.89704000  0.65698000  1.0
  H  H20  1  0.03462000  0.89704000  0.15698000  1.0
  H  H21  1  0.03462000  0.10296000  0.34302000  1.0
  H  H22  1  0.78031000  0.14435000  0.44950000  1.0
  H  H23  1  0.78032000  0.85565000  0.05050000  1.0
  H  H24  1  0.21968000  0.85565000  0.55050000  1.0
  H  H25  1  0.21968000  0.14435000  0.94950000  1.0
  H  H26  1  0.27823000  0.97738000  0.65537000  1.0
  H  H27  1  0.27823000  0.02261000  0.84463000  1.0
  H  H28  1  0.72177000  0.02262000  0.34462000  1.0
  H  H29  1  0.72178000  0.97738000  0.15537000  1.0
  C  C30  1  0.74145000  0.21370000  0.73368000  1.0
  C  C31  1  0.74146000  0.78630000  0.76632000  1.0
  C  C32  1  0.25854000  0.78631000  0.26632000  1.0
  C  C33  1  0.25855000  0.21370000  0.23368000  1.0
  C  C34  1  0.60906000  0.30739000  0.71386000  1.0
  C  C35  1  0.60906000  0.69261000  0.78614000  1.0
  C  C36  1  0.39094000  0.69262000  0.28613000  1.0
  C  C37  1  0.39094000  0.30738000  0.21387000  1.0
  C  C38  1  0.71609000  0.32949000  0.86853000  1.0
  C  C39  1  0.71609000  0.67051000  0.63147000  1.0
  C  C40  1  0.28390000  0.67050000  0.13147000  1.0
  C  C41  1  0.28391000  0.32949000  0.36854000  1.0
  C  C42  1  0.85145000  0.23643000  0.89412000  1.0
  C  C43  1  0.85144000  0.76358000  0.60587000  1.0
  C  C44  1  0.14855000  0.76358000  0.10588000  1.0
  C  C45  1  0.14856000  0.23643000  0.39413000  1.0
  C  C46  1  0.86520000  0.17804000  0.82553000  1.0
  C  C47  1  0.86520000  0.82195000  0.67447000  1.0
  C  C48  1  0.13480000  0.82196000  0.17446000  1.0
  C  C49  1  0.13479000  0.17804000  0.32554000  1.0
  C  C50  1  0.75342000  0.15173000  0.65933000  1.0
  C  C51  1  0.75344000  0.84827000  0.84068000  1.0
  C  C52  1  0.24658000  0.84827000  0.34067000  1.0
  C  C53  1  0.24657000  0.15173000  0.15933000  1.0
  C  C54  1  0.53629000  0.06684000  0.56030000  1.0
  C  C55  1  0.53630000  0.93316000  0.93970000  1.0
  C  C56  1  0.46370000  0.93317000  0.43970000  1.0
  C  C57  1  0.46370000  0.06684000  0.06030000  1.0
  C  C58  1  0.65970000  0.08007000  0.47209000  1.0
  C  C59  1  0.65971000  0.91993000  0.02791000  1.0
  C  C60  1  0.34031000  0.91994000  0.52791000  1.0
  C  C61  1  0.34031000  0.08006000  0.97209000  1.0
  C  C62  1  0.37607000  0.98684000  0.58738000  1.0
  C  C63  1  0.37607000  0.01316000  0.91262000  1.0
  C  C64  1  0.62393000  0.01316000  0.41261000  1.0
  C  C65  1  0.62394000  0.98684000  0.08739000  1.0
  I  I66  1  0.20948000  0.53295000  0.57537000  1.0
  I  I67  1  0.20948000  0.46705000  0.92463000  1.0
  I  I68  1  0.79052000  0.46705000  0.42463000  1.0
  I  I69  1  0.79052000  0.53295000  0.07537000  1.0
  N  N70  1  0.57025000  0.13208000  0.62320000  1.0
  N  N71  1  0.57025000  0.86792000  0.87680000  1.0
  N  N72  1  0.42975000  0.86793000  0.37679000  1.0
  N  N73  1  0.42976000  0.13208000  0.12321000  1.0
  N  N74  1  0.59709000  0.36356000  0.78029000  1.0
  N  N75  1  0.59709000  0.63644000  0.71971000  1.0
  N  N76  1  0.40291000  0.63644000  0.21971000  1.0
  N  N77  1  0.40291000  0.36356000  0.28029000  1.0
  O  O78  1  0.91442000  0.11861000  0.63605000  1.0
  O  O79  1  0.91440000  0.88139000  0.86394000  1.0
  O  O80  1  0.08557000  0.88140000  0.36395000  1.0
  O  O81  1  0.08558000  0.11861000  0.13606000  1.0
