# generated using pymatgen
data_CoH20C18(N2O3)2
_symmetry_space_group_name_H-M   'P 1'
_cell_length_a   8.89080000
_cell_length_b   9.24961000
_cell_length_c   14.42230000
_cell_angle_alpha   73.29320000
_cell_angle_beta   81.88420000
_cell_angle_gamma   79.99680000
_symmetry_Int_Tables_number   1
_chemical_formula_structural   CoH20C18(N2O3)2
_chemical_formula_sum   'Co2 H40 C36 N8 O12'
_cell_volume   1113.45882631
_cell_formula_units_Z   2
loop_
 _symmetry_equiv_pos_site_id
 _symmetry_equiv_pos_as_xyz
  1  'x, y, z'
loop_
 _atom_site_type_symbol
 _atom_site_label
 _atom_site_symmetry_multiplicity
 _atom_site_fract_x
 _atom_site_fract_y
 _atom_site_fract_z
 _atom_site_occupancy
  Co  Co0  1  0.12369000  0.29497000  0.03456000  1.0
  Co  Co1  1  0.87631000  0.70503000  0.96544000  1.0
  H  H2  1  0.63619000  0.01294000  0.43675000  1.0
  H  H3  1  0.36383000  0.98705000  0.56325000  1.0
  H  H4  1  0.58162000  0.83183000  0.49137000  1.0
  H  H5  1  0.41840000  0.16816000  0.50863000  1.0
  H  H6  1  0.61679000  0.81865000  0.77400000  1.0
  H  H7  1  0.38322000  0.18135000  0.22601000  1.0
  H  H8  1  0.63064000  0.90221000  0.64810000  1.0
  H  H9  1  0.36938000  0.09779000  0.35190000  1.0
  H  H10  1  0.89221000  0.08871000  0.03972000  1.0
  H  H11  1  0.10778000  0.91131000  0.96028000  1.0
  H  H12  1  0.73473000  0.91283000  0.16066000  1.0
  H  H13  1  0.26527000  0.08718000  0.83934000  1.0
  H  H14  1  0.89265000  0.05730000  0.38534000  1.0
  H  H15  1  0.10737000  0.94269000  0.61466000  1.0
  H  H16  1  0.04656000  0.22786000  0.25348000  1.0
  H  H17  1  0.95345000  0.77213000  0.74652000  1.0
  H  H18  1  0.21645000  0.33407000  0.81778000  1.0
  H  H19  1  0.78354000  0.66595000  0.18221000  1.0
  H  H20  1  0.34376000  0.51355000  0.68021000  1.0
  H  H21  1  0.65624000  0.48646000  0.31979000  1.0
  H  H22  1  0.47096000  0.71419000  0.88974000  1.0
  H  H23  1  0.52904000  0.28581000  0.11026000  1.0
  H  H24  1  0.33547000  0.52777000  0.01817000  1.0
  H  H25  1  0.66453000  0.47223000  0.98184000  1.0
  H  H26  1  0.43948000  0.89502000  0.20257000  1.0
  H  H27  1  0.56052000  0.10497000  0.79743000  1.0
  H  H28  1  0.52538000  0.89957000  0.08444000  1.0
  H  H29  1  0.47461000  0.10042000  0.91556000  1.0
  H  H30  1  0.42225000  0.66023000  0.15071000  1.0
  H  H31  1  0.57773000  0.33976000  0.84929000  1.0
  H  H32  1  0.31173000  0.77429000  0.05612000  1.0
  H  H33  1  0.68826000  0.22572000  0.94388000  1.0
  H  H34  1  0.21733000  0.75381000  0.27192000  1.0
  H  H35  1  0.78265000  0.24620000  0.72807000  1.0
  H  H36  1  0.10310000  0.84171000  0.17443000  1.0
  H  H37  1  0.89688000  0.15829000  0.82556000  1.0
  H  H38  1  0.21782000  0.49792000  0.24500000  1.0
  H  H39  1  0.78217000  0.50208000  0.75501000  1.0
  H  H40  1  0.03065000  0.58910000  0.26936000  1.0
  H  H41  1  0.96934000  0.41090000  0.73064000  1.0
  C  C42  1  0.88951000  0.07896000  0.11686000  1.0
  C  C43  1  0.11048000  0.92105000  0.88314000  1.0
  C  C44  1  0.80132000  0.98047000  0.18512000  1.0
  C  C45  1  0.19867000  0.01954000  0.81488000  1.0
  C  C46  1  0.80045000  0.96955000  0.28383000  1.0
  C  C47  1  0.19955000  0.03044000  0.71617000  1.0
  C  C48  1  0.88896000  0.06071000  0.30955000  1.0
  C  C49  1  0.11105000  0.93928000  0.69045000  1.0
  C  C50  1  0.97531000  0.15556000  0.23688000  1.0
  C  C51  1  0.02470000  0.84444000  0.76312000  1.0
  C  C52  1  0.71163000  0.85670000  0.35808000  1.0
  C  C53  1  0.28837000  0.14331000  0.64191000  1.0
  C  C54  1  0.27162000  0.42121000  0.83122000  1.0
  C  C55  1  0.72838000  0.57879000  0.16878000  1.0
  C  C56  1  0.34324000  0.52226000  0.75393000  1.0
  C  C57  1  0.65676000  0.47775000  0.24607000  1.0
  C  C58  1  0.41537000  0.63260000  0.77258000  1.0
  C  C59  1  0.58463000  0.36739000  0.22743000  1.0
  C  C60  1  0.41477000  0.63336000  0.86960000  1.0
  C  C61  1  0.58524000  0.36664000  0.13040000  1.0
  C  C62  1  0.33890000  0.52883000  0.94230000  1.0
  C  C63  1  0.66111000  0.47117000  0.05770000  1.0
  C  C64  1  0.48620000  0.74496000  0.68804000  1.0
  C  C65  1  0.51382000  0.25504000  0.31197000  1.0
  C  C66  1  0.32012000  0.05328000  0.08779000  1.0
  C  C67  1  0.67988000  0.94672000  0.91221000  1.0
  C  C68  1  0.41400000  0.90082000  0.12900000  1.0
  C  C69  1  0.58599000  0.09916000  0.87100000  1.0
  C  C70  1  0.33873000  0.76367000  0.13010000  1.0
  C  C71  1  0.66126000  0.23633000  0.86990000  1.0
  C  C72  1  0.19309000  0.74670000  0.20061000  1.0
  C  C73  1  0.80689000  0.25330000  0.79938000  1.0
  C  C74  1  0.13250000  0.59592000  0.21554000  1.0
  C  C75  1  0.86749000  0.40408000  0.78446000  1.0
  C  C76  1  0.08170000  0.57275000  0.12514000  1.0
  C  C77  1  0.91829000  0.42725000  0.87486000  1.0
  N  N78  1  0.97629000  0.16504000  0.14190000  1.0
  N  N79  1  0.02371000  0.83497000  0.85810000  1.0
  N  N80  1  0.64864000  0.90013000  0.43874000  1.0
  N  N81  1  0.35138000  0.09986000  0.56126000  1.0
  N  N82  1  0.26561000  0.42516000  0.92460000  1.0
  N  N83  1  0.73439000  0.57484000  0.07539000  1.0
  N  N84  1  0.58794000  0.82308000  0.70576000  1.0
  N  N85  1  0.41206000  0.17693000  0.29425000  1.0
  O  O86  1  0.70224000  0.73231000  0.34417000  1.0
  O  O87  1  0.29774000  0.26767000  0.65583000  1.0
  O  O88  1  0.44814000  0.76389000  0.60419000  1.0
  O  O89  1  0.55187000  0.23612000  0.39581000  1.0
  O  O90  1  0.32460000  0.16791000  0.12023000  1.0
  O  O91  1  0.67539000  0.83209000  0.87977000  1.0
  O  O92  1  0.23519000  0.07006000  0.02044000  1.0
  O  O93  1  0.76481000  0.92993000  0.97956000  1.0
  O  O94  1  0.02285000  0.68959000  0.06277000  1.0
  O  O95  1  0.97716000  0.31040000  0.93722000  1.0
  O  O96  1  0.09767000  0.43705000  0.11823000  1.0
  O  O97  1  0.90233000  0.56295000  0.88177000  1.0
