# generated using pymatgen
data_CuH5C6INO
_symmetry_space_group_name_H-M   'P 1'
_cell_length_a   4.04817000
_cell_length_b   7.56584000
_cell_length_c   12.09930000
_cell_angle_alpha   96.91240000
_cell_angle_beta   91.16800000
_cell_angle_gamma   100.17300000
_symmetry_Int_Tables_number   1
_chemical_formula_structural   CuH5C6INO
_chemical_formula_sum   'Cu2 H10 C12 I2 N2 O2'
_cell_volume   361.76899534
_cell_formula_units_Z   2
loop_
 _symmetry_equiv_pos_site_id
 _symmetry_equiv_pos_as_xyz
  1  'x, y, z'
loop_
 _atom_site_type_symbol
 _atom_site_label
 _atom_site_symmetry_multiplicity
 _atom_site_fract_x
 _atom_site_fract_y
 _atom_site_fract_z
 _atom_site_occupancy
  Cu  Cu0  1  0.27559000  0.08631000  0.45819000  1.0
  Cu  Cu1  1  0.72442000  0.91370000  0.54181000  1.0
  H  H2  1  0.89143000  0.93123000  0.24765000  1.0
  H  H3  1  0.10859000  0.06877000  0.75235000  1.0
  H  H4  1  0.73954000  0.03727000  0.06971000  1.0
  H  H5  1  0.26045000  0.96272000  0.93029000  1.0
  H  H6  1  0.00912000  0.34981000  0.03125000  1.0
  H  H7  1  0.99086000  0.65019000  0.96875000  1.0
  H  H8  1  0.56922000  0.40421000  0.34608000  1.0
  H  H9  1  0.43077000  0.59581000  0.65392000  1.0
  H  H10  1  0.68872000  0.64220000  0.23796000  1.0
  H  H11  1  0.31128000  0.35779000  0.76204000  1.0
  C  C12  1  0.00817000  0.06368000  0.22716000  1.0
  C  C13  1  0.99185000  0.93632000  0.77284000  1.0
  C  C14  1  0.92424000  0.12479000  0.12803000  1.0
  C  C15  1  0.07577000  0.87520000  0.87197000  1.0
  C  C16  1  0.07447000  0.29698000  0.10705000  1.0
  C  C17  1  0.92554000  0.70302000  0.89294000  1.0
  C  C18  1  0.31037000  0.40073000  0.18645000  1.0
  C  C19  1  0.68965000  0.59926000  0.81355000  1.0
  C  C20  1  0.38423000  0.32774000  0.28298000  1.0
  C  C21  1  0.61579000  0.67226000  0.71702000  1.0
  C  C22  1  0.48381000  0.58531000  0.17378000  1.0
  C  C23  1  0.51618000  0.41469000  0.82622000  1.0
  I  I24  1  0.16826000  0.73469000  0.43688000  1.0
  I  I25  1  0.83172000  0.26532000  0.56313000  1.0
  N  N26  1  0.23339000  0.16334000  0.30447000  1.0
  N  N27  1  0.76661000  0.83666000  0.69554000  1.0
  O  O28  1  0.41827000  0.67323000  0.09965000  1.0
  O  O29  1  0.58169000  0.32676000  0.90035000  1.0
