# generated using pymatgen
data_CdH10C5(NO3)2
_symmetry_space_group_name_H-M   'P 1'
_cell_length_a   8.15558000
_cell_length_b   8.15559000
_cell_length_c   14.02300000
_cell_angle_alpha   83.97060000
_cell_angle_beta   83.97060000
_cell_angle_gamma   73.24950000
_symmetry_Int_Tables_number   1
_chemical_formula_structural   CdH10C5(NO3)2
_chemical_formula_sum   'Cd4 H40 C20 N8 O24'
_cell_volume   885.46078465
_cell_formula_units_Z   4
loop_
 _symmetry_equiv_pos_site_id
 _symmetry_equiv_pos_as_xyz
  1  'x, y, z'
loop_
 _atom_site_type_symbol
 _atom_site_label
 _atom_site_symmetry_multiplicity
 _atom_site_fract_x
 _atom_site_fract_y
 _atom_site_fract_z
 _atom_site_occupancy
  Cd  Cd0  1  0.21723000  0.05025000  0.66853000  1.0
  Cd  Cd1  1  0.94975000  0.78277000  0.83147000  1.0
  Cd  Cd2  1  0.78277000  0.94975000  0.33147000  1.0
  Cd  Cd3  1  0.05025000  0.21723000  0.16853000  1.0
  H  H4  1  0.21263000  0.56098000  0.53116000  1.0
  H  H5  1  0.43902000  0.78737000  0.96884000  1.0
  H  H6  1  0.78737000  0.43902000  0.46884000  1.0
  H  H7  1  0.56098000  0.21263000  0.03116000  1.0
  H  H8  1  0.39400000  0.56852000  0.58552000  1.0
  H  H9  1  0.43148000  0.60600000  0.91448000  1.0
  H  H10  1  0.60600000  0.43148000  0.41448000  1.0
  H  H11  1  0.56852000  0.39401000  0.08552000  1.0
  H  H12  1  0.33287000  0.75330000  0.42679000  1.0
  H  H13  1  0.24670000  0.66713000  0.07321000  1.0
  H  H14  1  0.66713000  0.24670000  0.57321000  1.0
  H  H15  1  0.75330000  0.33287000  0.92679000  1.0
  H  H16  1  0.13809000  0.87603000  0.48365000  1.0
  H  H17  1  0.12397000  0.86191000  0.01635000  1.0
  H  H18  1  0.86191000  0.12397000  0.51635000  1.0
  H  H19  1  0.87602000  0.13809000  0.98365000  1.0
  H  H20  1  0.59709000  0.75472000  0.47442000  1.0
  H  H21  1  0.24528000  0.40291000  0.02558000  1.0
  H  H22  1  0.40291000  0.24528000  0.52558000  1.0
  H  H23  1  0.75472000  0.59709000  0.97443000  1.0
  H  H24  1  0.54993000  0.73215000  0.60117000  1.0
  H  H25  1  0.26785000  0.45007000  0.89884000  1.0
  H  H26  1  0.45007000  0.26785000  0.39883000  1.0
  H  H27  1  0.73215000  0.54993000  0.10117000  1.0
  H  H28  1  0.22001000  0.12814000  0.43759000  1.0
  H  H29  1  0.87186000  0.77999000  0.06241000  1.0
  H  H30  1  0.77999000  0.87186000  0.56241000  1.0
  H  H31  1  0.12814000  0.22001000  0.93759000  1.0
  H  H32  1  0.40234000  0.99149000  0.37782000  1.0
  H  H33  1  0.00851000  0.59766000  0.12219000  1.0
  H  H34  1  0.59766000  0.00851000  0.62218000  1.0
  H  H35  1  0.99149000  0.40234000  0.87782000  1.0
  H  H36  1  0.41640000  0.21976000  0.75638000  1.0
  H  H37  1  0.78024000  0.58360000  0.74361000  1.0
  H  H38  1  0.58360000  0.78024000  0.24362000  1.0
  H  H39  1  0.21976000  0.41640000  0.25638000  1.0
  H  H40  1  0.27186000  0.36991000  0.70788000  1.0
  H  H41  1  0.63009000  0.72814000  0.79212000  1.0
  H  H42  1  0.72814000  0.63009000  0.29212000  1.0
  H  H43  1  0.36991000  0.27186000  0.20788000  1.0
  C  C44  1  0.15352000  0.68804000  0.65873000  1.0
  C  C45  1  0.31196000  0.84649000  0.84127000  1.0
  C  C46  1  0.84648000  0.31196000  0.34127000  1.0
  C  C47  1  0.68804000  0.15352000  0.15873000  1.0
  C  C48  1  0.26554000  0.64643000  0.56689000  1.0
  C  C49  1  0.35357000  0.73447000  0.93311000  1.0
  C  C50  1  0.73447000  0.35357000  0.43311000  1.0
  C  C51  1  0.64643000  0.26554000  0.06689000  1.0
  C  C52  1  0.26973000  0.79995000  0.49625000  1.0
  C  C53  1  0.20005000  0.73027000  0.00375000  1.0
  C  C54  1  0.73027000  0.20005000  0.50375000  1.0
  C  C55  1  0.79995000  0.26973000  0.99625000  1.0
  C  C56  1  0.54265000  0.82554000  0.53859000  1.0
  C  C57  1  0.17446000  0.45735000  0.96141000  1.0
  C  C58  1  0.45734000  0.17446000  0.46141000  1.0
  C  C59  1  0.82554000  0.54265000  0.03859000  1.0
  C  C60  1  0.35428000  0.05417000  0.44521000  1.0
  C  C61  1  0.94583000  0.64572000  0.05479000  1.0
  C  C62  1  0.64572000  0.94583000  0.55479000  1.0
  C  C63  1  0.05417000  0.35428000  0.94521000  1.0
  N  N64  1  0.35995000  0.91894000  0.52578000  1.0
  N  N65  1  0.08106000  0.64005000  0.97422000  1.0
  N  N66  1  0.64005000  0.08106000  0.47422000  1.0
  N  N67  1  0.91894000  0.35995000  0.02578000  1.0
  N  N68  1  0.94114000  0.35704000  0.64461000  1.0
  N  N69  1  0.64296000  0.05886000  0.85539000  1.0
  N  N70  1  0.05886000  0.64296000  0.35539000  1.0
  N  N71  1  0.35704000  0.94114000  0.14461000  1.0
  O  O72  1  0.15500000  0.57024000  0.72628000  1.0
  O  O73  1  0.42976000  0.84501000  0.77372000  1.0
  O  O74  1  0.84500000  0.42976000  0.27372000  1.0
  O  O75  1  0.57024000  0.15500000  0.22628000  1.0
  O  O76  1  0.05660000  0.84133000  0.66767000  1.0
  O  O77  1  0.15866000  0.94340000  0.83233000  1.0
  O  O78  1  0.94340000  0.15867000  0.33233000  1.0
  O  O79  1  0.84133000  0.05660000  0.16767000  1.0
  O  O80  1  0.04076000  0.29376000  0.57264000  1.0
  O  O81  1  0.70623000  0.95925000  0.92736000  1.0
  O  O82  1  0.95925000  0.70623000  0.42736000  1.0
  O  O83  1  0.29377000  0.04075000  0.07264000  1.0
  O  O84  1  0.96002000  0.27623000  0.72683000  1.0
  O  O85  1  0.72376000  0.03998000  0.77317000  1.0
  O  O86  1  0.03999000  0.72376000  0.27317000  1.0
  O  O87  1  0.27623000  0.96002000  0.22683000  1.0
  O  O88  1  0.82696000  0.49787000  0.63299000  1.0
  O  O89  1  0.50213000  0.17304000  0.86701000  1.0
  O  O90  1  0.17304000  0.50213000  0.36701000  1.0
  O  O91  1  0.49786000  0.82695000  0.13299000  1.0
  O  O92  1  0.35087000  0.25222000  0.69795000  1.0
  O  O93  1  0.74778000  0.64913000  0.80205000  1.0
  O  O94  1  0.64913000  0.74778000  0.30205000  1.0
  O  O95  1  0.25222000  0.35087000  0.19795000  1.0
