# generated using pymatgen
data_CdH6C5N8
_symmetry_space_group_name_H-M   'P 1'
_cell_length_a   8.20184000
_cell_length_b   8.92716000
_cell_length_c   12.75710000
_cell_angle_alpha   109.03500000
_cell_angle_beta   90.00000000
_cell_angle_gamma   90.00000000
_symmetry_Int_Tables_number   1
_chemical_formula_structural   CdH6C5N8
_chemical_formula_sum   'Cd4 H24 C20 N32'
_cell_volume   882.98880543
_cell_formula_units_Z   4
loop_
 _symmetry_equiv_pos_site_id
 _symmetry_equiv_pos_as_xyz
  1  'x, y, z'
loop_
 _atom_site_type_symbol
 _atom_site_label
 _atom_site_symmetry_multiplicity
 _atom_site_fract_x
 _atom_site_fract_y
 _atom_site_fract_z
 _atom_site_occupancy
  Cd  Cd0  1  0.80985000  0.96036000  0.93007000  1.0
  Cd  Cd1  1  0.30985000  0.53964000  0.56993000  1.0
  Cd  Cd2  1  0.19015000  0.03964000  0.06993000  1.0
  Cd  Cd3  1  0.69015000  0.46036000  0.43007000  1.0
  H  H4  1  0.03851000  0.71008000  0.75855000  1.0
  H  H5  1  0.53851000  0.78992000  0.74145000  1.0
  H  H6  1  0.96149000  0.28992000  0.24145000  1.0
  H  H7  1  0.46149000  0.21008000  0.25855000  1.0
  H  H8  1  0.26873000  0.86809000  0.52431000  1.0
  H  H9  1  0.76873000  0.63190000  0.97569000  1.0
  H  H10  1  0.73127000  0.13191000  0.47569000  1.0
  H  H11  1  0.23127000  0.36809000  0.02431000  1.0
  H  H12  1  0.10558000  0.12028000  0.58897000  1.0
  H  H13  1  0.60558000  0.37972000  0.91104000  1.0
  H  H14  1  0.89442000  0.87972000  0.41104000  1.0
  H  H15  1  0.39442000  0.62028000  0.08896000  1.0
  H  H16  1  0.85213000  0.24630000  0.69462000  1.0
  H  H17  1  0.35213000  0.25370000  0.80538000  1.0
  H  H18  1  0.14787000  0.75370000  0.30538000  1.0
  H  H19  1  0.64787000  0.74630000  0.19462000  1.0
  H  H20  1  0.96017000  0.28748000  0.82105000  1.0
  H  H21  1  0.46017000  0.21252000  0.67895000  1.0
  H  H22  1  0.03983000  0.71252000  0.17895000  1.0
  H  H23  1  0.53983000  0.78748000  0.32105000  1.0
  H  H24  1  0.77409000  0.17740000  0.80127000  1.0
  H  H25  1  0.27408000  0.32260000  0.69873000  1.0
  H  H26  1  0.22592000  0.82260000  0.19873000  1.0
  H  H27  1  0.72592000  0.67740000  0.30127000  1.0
  C  C28  1  0.05373000  0.80281000  0.72112000  1.0
  C  C29  1  0.55373000  0.69718000  0.77888000  1.0
  C  C30  1  0.94627000  0.19718000  0.27888000  1.0
  C  C31  1  0.44627000  0.30282000  0.22112000  1.0
  C  C32  1  0.18076000  0.89034000  0.59186000  1.0
  C  C33  1  0.68076000  0.60965000  0.90814000  1.0
  C  C34  1  0.81924000  0.10965000  0.40814000  1.0
  C  C35  1  0.31924000  0.39035000  0.09186000  1.0
  C  C36  1  0.09078000  0.02851000  0.62732000  1.0
  C  C37  1  0.59078000  0.47149000  0.87268000  1.0
  C  C38  1  0.90922000  0.97149000  0.37268000  1.0
  C  C39  1  0.40922000  0.52852000  0.12732000  1.0
  C  C40  1  0.98036000  0.04925000  0.71487000  1.0
  C  C41  1  0.48036000  0.45075000  0.78513000  1.0
  C  C42  1  0.01964000  0.95075000  0.28513000  1.0
  C  C43  1  0.51964000  0.54925000  0.21487000  1.0
  C  C44  1  0.88502000  0.19783000  0.76032000  1.0
  C  C45  1  0.38502000  0.30217000  0.73968000  1.0
  C  C46  1  0.11498000  0.80217000  0.23968000  1.0
  C  C47  1  0.61498000  0.69783000  0.26032000  1.0
  N  N48  1  0.96839000  0.17759000  0.01774000  1.0
  N  N49  1  0.46839000  0.32241000  0.48226000  1.0
  N  N50  1  0.03162000  0.82242000  0.98226000  1.0
  N  N51  1  0.53161000  0.67758000  0.51774000  1.0
  N  N52  1  0.91347000  0.31025000  0.05172000  1.0
  N  N53  1  0.41347000  0.18975000  0.44828000  1.0
  N  N54  1  0.08653000  0.68975000  0.94828000  1.0
  N  N55  1  0.58653000  0.81025000  0.55172000  1.0
  N  N56  1  0.86233000  0.43915000  0.08404000  1.0
  N  N57  1  0.36233000  0.06085000  0.41596000  1.0
  N  N58  1  0.13767000  0.56085000  0.91596000  1.0
  N  N59  1  0.63767000  0.93915000  0.58404000  1.0
  N  N60  1  0.58735000  0.10780000  0.90549000  1.0
  N  N61  1  0.08735000  0.39220000  0.59451000  1.0
  N  N62  1  0.41266000  0.89220000  0.09451000  1.0
  N  N63  1  0.91265000  0.60780000  0.40549000  1.0
  N  N64  1  0.44984000  0.06349000  0.89777000  1.0
  N  N65  1  0.94984000  0.43651000  0.60223000  1.0
  N  N66  1  0.55015000  0.93651000  0.10223000  1.0
  N  N67  1  0.05016000  0.56349000  0.39777000  1.0
  N  N68  1  0.31129000  0.02462000  0.88917000  1.0
  N  N69  1  0.81129000  0.47538000  0.61083000  1.0
  N  N70  1  0.68871000  0.97538000  0.11083000  1.0
  N  N71  1  0.18871000  0.52462000  0.38917000  1.0
  N  N72  1  0.96210000  0.93291000  0.76044000  1.0
  N  N73  1  0.46210000  0.56709000  0.73956000  1.0
  N  N74  1  0.03790000  0.06709000  0.23956000  1.0
  N  N75  1  0.53790000  0.43291000  0.26044000  1.0
  N  N76  1  0.16278000  0.77666000  0.63936000  1.0
  N  N77  1  0.66279000  0.72334000  0.86064000  1.0
  N  N78  1  0.83721000  0.22334000  0.36064000  1.0
  N  N79  1  0.33721000  0.27666000  0.13936000  1.0
