# generated using pymatgen
data_ZnNiH32(C2N)12
_symmetry_space_group_name_H-M   'P 1'
_cell_length_a   8.67949000
_cell_length_b   9.16090000
_cell_length_c   10.17097269
_cell_angle_alpha   107.06769212
_cell_angle_beta   104.39769890
_cell_angle_gamma   104.66800000
_symmetry_Int_Tables_number   1
_chemical_formula_structural   ZnNiH32(C2N)12
_chemical_formula_sum   'Zn1 Ni1 H32 C24 N12'
_cell_volume   700.81061570
_cell_formula_units_Z   1
loop_
 _symmetry_equiv_pos_site_id
 _symmetry_equiv_pos_as_xyz
  1  'x, y, z'
loop_
 _atom_site_type_symbol
 _atom_site_label
 _atom_site_symmetry_multiplicity
 _atom_site_fract_x
 _atom_site_fract_y
 _atom_site_fract_z
 _atom_site_occupancy
  Zn  Zn0  1  0.00000000  0.50000000  0.00000000  1.0
  Ni  Ni1  1  0.00001000  0.50002000  0.50000000  1.0
  H  H2  1  0.67964000  0.43236000  0.68205000  1.0
  H  H3  1  0.32036000  0.56764000  0.31795000  1.0
  H  H4  1  0.44814000  0.59422000  0.70037000  1.0
  H  H5  1  0.55186000  0.40577000  0.29963000  1.0
  H  H6  1  0.76805000  0.68906000  0.12722000  1.0
  H  H7  1  0.23194000  0.31093000  0.87278000  1.0
  H  H8  1  0.50346000  0.86704000  0.94000000  1.0
  H  H9  1  0.49651000  0.13294000  0.06000000  1.0
  H  H10  1  0.35724000  0.70193000  0.95286000  1.0
  H  H11  1  0.64276000  0.29805000  0.04715000  1.0
  H  H12  1  0.49757000  0.93713000  0.19451000  1.0
  H  H13  1  0.50242000  0.06285000  0.80549000  1.0
  H  H14  1  0.70020000  0.93306000  0.19716000  1.0
  H  H15  1  0.29979000  0.06693000  0.80283000  1.0
  H  H16  1  0.54954000  0.76555000  0.20678000  1.0
  H  H17  1  0.45045000  0.23444000  0.79322000  1.0
  H  H18  1  0.08230000  0.85096000  0.94960000  1.0
  H  H19  1  0.91768000  0.14904000  0.05040000  1.0
  H  H20  1  0.21761000  0.15449000  0.18226000  1.0
  H  H21  1  0.78238000  0.84551000  0.81774000  1.0
  H  H22  1  0.19472000  0.78252000  0.35051000  1.0
  H  H23  1  0.80528000  0.21748000  0.64948000  1.0
  H  H24  1  0.41470000  0.21255000  0.46938000  1.0
  H  H25  1  0.58531000  0.78744000  0.53062000  1.0
  H  H26  1  0.32982000  0.05894000  0.53031000  1.0
  H  H27  1  0.67018000  0.94105000  0.46968000  1.0
  H  H28  1  0.22840000  0.29301000  0.61069000  1.0
  H  H29  1  0.77160000  0.70698000  0.38931000  1.0
  H  H30  1  0.05264000  0.11476000  0.48615000  1.0
  H  H31  1  0.94737000  0.88524000  0.51385000  1.0
  H  H32  1  0.13828000  0.27037000  0.42626000  1.0
  H  H33  1  0.86173000  0.72963000  0.57374000  1.0
  C  C34  1  0.96039000  0.47971000  0.30865000  1.0
  C  C35  1  0.03962000  0.52032000  0.69134000  1.0
  C  C36  1  0.20348000  0.66597000  0.55433000  1.0
  C  C37  1  0.79656000  0.33408000  0.44567000  1.0
  C  C38  1  0.66294000  0.50798000  0.77788000  1.0
  C  C39  1  0.33706000  0.49202000  0.22212000  1.0
  C  C40  1  0.54644000  0.58533000  0.78416000  1.0
  C  C41  1  0.45355000  0.41466000  0.21584000  1.0
  C  C42  1  0.71271000  0.63908000  0.00864000  1.0
  C  C43  1  0.28728000  0.36091000  0.99136000  1.0
  C  C44  1  0.49251000  0.77574000  0.99056000  1.0
  C  C45  1  0.50747000  0.22424000  0.00944000  1.0
  C  C46  1  0.56516000  0.85674000  0.15653000  1.0
  C  C47  1  0.43483000  0.14325000  0.84347000  1.0
  C  C48  1  0.12515000  0.88106000  0.06701000  1.0
  C  C49  1  0.87484000  0.11895000  0.93299000  1.0
  C  C50  1  0.19118000  0.03160000  0.18021000  1.0
  C  C51  1  0.80882000  0.96840000  0.81979000  1.0
  C  C52  1  0.18025000  0.83804000  0.26972000  1.0
  C  C53  1  0.81975000  0.16195000  0.73027000  1.0
  C  C54  1  0.29591000  0.12336000  0.45833000  1.0
  C  C55  1  0.70410000  0.87663000  0.54167000  1.0
  C  C56  1  0.17126000  0.20408000  0.49694000  1.0
  C  C57  1  0.82875000  0.79592000  0.50306000  1.0
  N  N58  1  0.93789000  0.47068000  0.18744000  1.0
  N  N59  1  0.06210000  0.52932000  0.81255000  1.0
  N  N60  1  0.33308000  0.77038000  0.58477000  1.0
  N  N61  1  0.66695000  0.22966000  0.41524000  1.0
  N  N62  1  0.76592000  0.54249000  0.91870000  1.0
  N  N63  1  0.23406000  0.45750000  0.08129000  1.0
  N  N64  1  0.58016000  0.66853000  0.93164000  1.0
  N  N65  1  0.41982000  0.33146000  0.06836000  1.0
  N  N66  1  0.11875000  0.76127000  0.12423000  1.0
  N  N67  1  0.88125000  0.23873000  0.87576000  1.0
  N  N68  1  0.22579000  0.00191000  0.30799000  1.0
  N  N69  1  0.77422000  0.99809000  0.69201000  1.0
