# generated using pymatgen
data_ZnH20C24(N9O2)2
_symmetry_space_group_name_H-M   'P 1'
_cell_length_a   7.35583000
_cell_length_b   7.57312000
_cell_length_c   14.44530000
_cell_angle_alpha   78.66800000
_cell_angle_beta   75.96040000
_cell_angle_gamma   62.96190000
_symmetry_Int_Tables_number   1
_chemical_formula_structural   ZnH20C24(N9O2)2
_chemical_formula_sum   'Zn1 H20 C24 N18 O4'
_cell_volume   691.86812935
_cell_formula_units_Z   1
loop_
 _symmetry_equiv_pos_site_id
 _symmetry_equiv_pos_as_xyz
  1  'x, y, z'
loop_
 _atom_site_type_symbol
 _atom_site_label
 _atom_site_symmetry_multiplicity
 _atom_site_fract_x
 _atom_site_fract_y
 _atom_site_fract_z
 _atom_site_occupancy
  Zn  Zn0  1  0.00000000  0.00000000  0.00000000  1.0
  H  H1  1  0.60313000  0.12835000  0.53618000  1.0
  H  H2  1  0.39687000  0.87166000  0.46382000  1.0
  H  H3  1  0.83486000  0.91226000  0.50644000  1.0
  H  H4  1  0.16514000  0.08773000  0.49355000  1.0
  H  H5  1  0.31605000  0.69841000  0.12909000  1.0
  H  H6  1  0.68396000  0.30159000  0.87091000  1.0
  H  H7  1  0.33905000  0.59979000  0.30471000  1.0
  H  H8  1  0.66095000  0.40020000  0.69529000  1.0
  H  H9  1  0.73234000  0.15533000  0.19933000  1.0
  H  H10  1  0.26766000  0.84466000  0.80067000  1.0
  H  H11  1  0.37060000  0.41204000  0.45108000  1.0
  H  H12  1  0.62940000  0.58797000  0.54892000  1.0
  H  H13  1  0.13960000  0.62813000  0.48151000  1.0
  H  H14  1  0.86039000  0.37187000  0.51849000  1.0
  H  H15  1  0.21683000  0.36552000  0.78759000  1.0
  H  H16  1  0.78318000  0.63449000  0.21241000  1.0
  H  H17  1  0.64357000  0.84224000  0.85468000  1.0
  H  H18  1  0.35642000  0.15775000  0.14532000  1.0
  H  H19  1  0.63898000  0.95108000  0.67935000  1.0
  H  H20  1  0.36101000  0.04891000  0.32065000  1.0
  C  C21  1  0.28772000  0.22526000  0.96052000  1.0
  C  C22  1  0.71228000  0.77473000  0.03947000  1.0
  C  C23  1  0.26897000  0.53994000  0.96211000  1.0
  C  C24  1  0.73103000  0.46007000  0.03788000  1.0
  C  C25  1  0.18982000  0.77695000  0.18472000  1.0
  C  C26  1  0.81018000  0.22305000  0.81528000  1.0
  C  C27  1  0.20165000  0.72455000  0.28211000  1.0
  C  C28  1  0.79835000  0.27545000  0.71790000  1.0
  C  C29  1  0.88171000  0.97887000  0.32029000  1.0
  C  C30  1  0.11829000  0.02113000  0.67970000  1.0
  C  C31  1  0.86776000  0.03051000  0.22301000  1.0
  C  C32  1  0.13224000  0.96950000  0.77699000  1.0
  C  C33  1  0.70955000  0.10483000  0.39257000  1.0
  C  C34  1  0.29046000  0.89516000  0.60743000  1.0
  C  C35  1  0.08296000  0.55560000  0.66661000  1.0
  C  C36  1  0.91704000  0.44440000  0.33333333  1.0
  C  C37  1  0.08572000  0.49730000  0.76459000  1.0
  C  C38  1  0.91428000  0.50270000  0.23541000  1.0
  C  C39  1  0.77221000  0.75865000  0.80070000  1.0
  C  C40  1  0.22779000  0.24135000  0.19930000  1.0
  C  C41  1  0.76937000  0.81884000  0.70292000  1.0
  C  C42  1  0.23062000  0.18115000  0.29708000  1.0
  C  C43  1  0.25927000  0.43121000  0.59501000  1.0
  C  C44  1  0.74073000  0.56880000  0.40499000  1.0
  N  N45  1  0.02150000  0.92826000  0.15566000  1.0
  N  N46  1  0.97850000  0.07174000  0.84434000  1.0
  N  N47  1  0.04714000  0.82350000  0.35022000  1.0
  N  N48  1  0.95286000  0.17650000  0.64978000  1.0
  N  N49  1  0.35713000  0.35889000  0.94110000  1.0
  N  N50  1  0.64286000  0.64111000  0.05889000  1.0
  N  N51  1  0.21213000  0.70738000  0.97470000  1.0
  N  N52  1  0.78788000  0.29262000  0.02530000  1.0
  N  N53  1  0.71938000  0.04318000  0.48482000  1.0
  N  N54  1  0.28062000  0.95682000  0.51518000  1.0
  N  N55  1  0.24588000  0.08847000  0.97206000  1.0
  N  N56  1  0.75413000  0.91153000  0.02794000  1.0
  N  N57  1  0.25469000  0.49666000  0.50266000  1.0
  N  N58  1  0.74531000  0.50335000  0.49734000  1.0
  N  N59  1  0.92514000  0.71851000  0.63545000  1.0
  N  N60  1  0.07486000  0.28148000  0.36455000  1.0
  N  N61  1  0.93137000  0.59847000  0.83209000  1.0
  N  N62  1  0.06862000  0.40153000  0.16791000  1.0
  O  O63  1  0.56812000  0.26289000  0.36285000  1.0
  O  O64  1  0.43188000  0.73711000  0.63715000  1.0
  O  O65  1  0.39956000  0.27203000  0.62475000  1.0
  O  O66  1  0.60044000  0.72798000  0.37525000  1.0
