# generated using pymatgen
data_ZnH16C20(N3O2)2
_symmetry_space_group_name_H-M   'P 1'
_cell_length_a   10.21210000
_cell_length_b   10.41920000
_cell_length_c   11.66130000
_cell_angle_alpha   96.84730000
_cell_angle_beta   98.30810000
_cell_angle_gamma   119.32100000
_symmetry_Int_Tables_number   1
_chemical_formula_structural   ZnH16C20(N3O2)2
_chemical_formula_sum   'Zn2 H32 C40 N12 O8'
_cell_volume   1044.19671597
_cell_formula_units_Z   2
loop_
 _symmetry_equiv_pos_site_id
 _symmetry_equiv_pos_as_xyz
  1  'x, y, z'
loop_
 _atom_site_type_symbol
 _atom_site_label
 _atom_site_symmetry_multiplicity
 _atom_site_fract_x
 _atom_site_fract_y
 _atom_site_fract_z
 _atom_site_occupancy
  Zn  Zn0  1  0.71135000  0.76628000  0.14023000  1.0
  Zn  Zn1  1  0.28865000  0.23372000  0.85977000  1.0
  H  H2  1  0.24964000  0.40855000  0.17036000  1.0
  H  H3  1  0.75035000  0.59145000  0.82964000  1.0
  H  H4  1  0.81103000  0.38343000  0.13775000  1.0
  H  H5  1  0.18897000  0.61658000  0.86225000  1.0
  H  H6  1  0.96523000  0.25819000  0.15293000  1.0
  H  H7  1  0.03476000  0.74181000  0.84708000  1.0
  H  H8  1  0.22443000  0.80651000  0.15788000  1.0
  H  H9  1  0.77557000  0.19350000  0.84212000  1.0
  H  H10  1  0.68523000  0.97708000  0.35229000  1.0
  H  H11  1  0.31477000  0.02292000  0.64771000  1.0
  H  H12  1  0.08290000  0.00530000  0.26529000  1.0
  H  H13  1  0.91710000  0.99471000  0.73471000  1.0
  H  H14  1  0.03359000  0.22581000  0.61587000  1.0
  H  H15  1  0.96641000  0.77419000  0.38413000  1.0
  H  H16  1  0.83146000  0.15215000  0.57525000  1.0
  H  H17  1  0.16854000  0.84785000  0.42475000  1.0
  H  H18  1  0.43357000  0.58782000  0.90808000  1.0
  H  H19  1  0.56643000  0.41218000  0.09192000  1.0
  H  H20  1  0.86202000  0.98962000  0.94723000  1.0
  H  H21  1  0.13798000  0.01037000  0.05277000  1.0
  H  H22  1  0.40186000  0.73983000  0.64445000  1.0
  H  H23  1  0.59814000  0.26015000  0.35555000  1.0
  H  H24  1  0.31364000  0.57228000  0.70052000  1.0
  H  H25  1  0.68636000  0.42772000  0.29948000  1.0
  H  H26  1  0.38612000  0.37655000  0.65871000  1.0
  H  H27  1  0.61388000  0.62344000  0.34129000  1.0
  H  H28  1  0.54929000  0.75693000  0.49313000  1.0
  H  H29  1  0.45072000  0.24307000  0.50687000  1.0
  H  H30  1  0.79184000  0.35850000  0.60171000  1.0
  H  H31  1  0.20816000  0.64150000  0.39829000  1.0
  H  H32  1  0.15608000  0.39426000  0.43609000  1.0
  H  H33  1  0.84392000  0.60574000  0.56391000  1.0
  C  C34  1  0.42565000  0.71102000  0.17817000  1.0
  C  C35  1  0.57435000  0.28898000  0.82183000  1.0
  C  C36  1  0.25447000  0.61689000  0.16662000  1.0
  C  C37  1  0.74552000  0.38311000  0.83338000  1.0
  C  C38  1  0.18087000  0.46199000  0.16435000  1.0
  C  C39  1  0.81912000  0.53802000  0.83565000  1.0
  C  C40  1  0.91777000  0.68094000  0.13443000  1.0
  C  C41  1  0.08223000  0.31906000  0.86557000  1.0
  C  C42  1  0.00735000  0.60288000  0.14653000  1.0
  C  C43  1  0.99264000  0.39712000  0.85347000  1.0
  C  C44  1  0.93546000  0.44859000  0.14660000  1.0
  C  C45  1  0.06454000  0.55141000  0.85340000  1.0
  C  C46  1  0.02198000  0.37862000  0.15504000  1.0
  C  C47  1  0.97801000  0.62138000  0.84497000  1.0
  C  C48  1  0.16704000  0.68639000  0.15722000  1.0
  C  C49  1  0.83296000  0.31361000  0.84278000  1.0
  C  C50  1  0.80461000  0.00858000  0.35681000  1.0
  C  C51  1  0.19539000  0.99143000  0.64319000  1.0
  C  C52  1  0.00828000  0.02473000  0.31280000  1.0
  C  C53  1  0.99172000  0.97528000  0.68720000  1.0
  C  C54  1  0.93944000  0.21023000  0.54593000  1.0
  C  C55  1  0.06056000  0.78977000  0.45407000  1.0
  C  C56  1  0.96997000  0.35980000  0.52079000  1.0
  C  C57  1  0.03003000  0.64020000  0.47921000  1.0
  C  C58  1  0.88249000  0.41982000  0.55614000  1.0
  C  C59  1  0.11751000  0.58018000  0.44386000  1.0
  C  C60  1  0.08763000  0.44053000  0.46425000  1.0
  C  C61  1  0.91237000  0.55948000  0.53575000  1.0
  C  C62  1  0.53140000  0.68747000  0.89343000  1.0
  C  C63  1  0.46860000  0.31252000  0.10657000  1.0
  C  C64  1  0.74816000  0.89030000  0.91029000  1.0
  C  C65  1  0.25184000  0.10970000  0.08971000  1.0
  C  C66  1  0.41968000  0.65391000  0.67740000  1.0
  C  C67  1  0.58032000  0.34608000  0.32260000  1.0
  C  C68  1  0.46242000  0.57516000  0.58574000  1.0
  C  C69  1  0.53759000  0.42483000  0.41427000  1.0
  C  C70  1  0.43543000  0.43044000  0.58876000  1.0
  C  C71  1  0.56457000  0.56955000  0.41125000  1.0
  C  C72  1  0.52710000  0.64386000  0.49607000  1.0
  C  C73  1  0.47291000  0.35613000  0.50393000  1.0
  N  N74  1  0.66398000  0.78758000  0.97236000  1.0
  N  N75  1  0.33602000  0.21242000  0.02764000  1.0
  N  N76  1  0.67469000  0.85883000  0.79798000  1.0
  N  N77  1  0.32531000  0.14116000  0.20202000  1.0
  N  N78  1  0.53767000  0.72978000  0.78925000  1.0
  N  N79  1  0.46233000  0.27021000  0.21075000  1.0
  N  N80  1  0.85065000  0.95058000  0.27358000  1.0
  N  N81  1  0.14935000  0.04943000  0.72641000  1.0
  N  N82  1  0.06041000  0.12334000  0.41523000  1.0
  N  N83  1  0.93959000  0.87667000  0.58477000  1.0
  N  N84  1  0.92940000  0.11069000  0.44170000  1.0
  N  N85  1  0.07060000  0.88931000  0.55830000  1.0
  O  O86  1  0.49365000  0.63678000  0.15307000  1.0
  O  O87  1  0.50635000  0.36322000  0.84693000  1.0
  O  O88  1  0.78391000  0.61848000  0.16198000  1.0
  O  O89  1  0.21609000  0.38152000  0.83802000  1.0
  O  O90  1  0.97288000  0.80393000  0.10162000  1.0
  O  O91  1  0.02712000  0.19607000  0.89837000  1.0
  O  O92  1  0.49299000  0.85179000  0.20963000  1.0
  O  O93  1  0.50701000  0.14821000  0.79037000  1.0
