# generated using pymatgen
data_ZnH7C5N3Cl2
_symmetry_space_group_name_H-M   'P 1'
_cell_length_a   6.31871000
_cell_length_b   9.25779000
_cell_length_c   13.80640000
_cell_angle_alpha   93.18090000
_cell_angle_beta   90.00000000
_cell_angle_gamma   89.99990000
_symmetry_Int_Tables_number   1
_chemical_formula_structural   ZnH7C5N3Cl2
_chemical_formula_sum   'Zn4 H28 C20 N12 Cl8'
_cell_volume   806.39267574
_cell_formula_units_Z   4
loop_
 _symmetry_equiv_pos_site_id
 _symmetry_equiv_pos_as_xyz
  1  'x, y, z'
loop_
 _atom_site_type_symbol
 _atom_site_label
 _atom_site_symmetry_multiplicity
 _atom_site_fract_x
 _atom_site_fract_y
 _atom_site_fract_z
 _atom_site_occupancy
  Zn  Zn0  1  0.31640000  0.97786000  0.33348000  1.0
  Zn  Zn1  1  0.18360000  0.47786000  0.83348000  1.0
  Zn  Zn2  1  0.68360000  0.02214000  0.66652000  1.0
  Zn  Zn3  1  0.81640000  0.52214000  0.16652000  1.0
  H  H4  1  0.18877000  0.60769000  0.37227000  1.0
  H  H5  1  0.31123000  0.10769000  0.87226000  1.0
  H  H6  1  0.81122000  0.39231000  0.62773000  1.0
  H  H7  1  0.68878000  0.89231000  0.12774000  1.0
  H  H8  1  0.22536000  0.45508000  0.51759000  1.0
  H  H9  1  0.27465000  0.95509000  0.01758000  1.0
  H  H10  1  0.77464000  0.54492000  0.48242000  1.0
  H  H11  1  0.72537000  0.04491000  0.98242000  1.0
  H  H12  1  0.24445000  0.18734000  0.48945000  1.0
  H  H13  1  0.25555000  0.68734000  0.98945000  1.0
  H  H14  1  0.75555000  0.81266000  0.51055000  1.0
  H  H15  1  0.74445000  0.31266000  0.01055000  1.0
  H  H16  1  0.19108000  0.08858000  0.16742000  1.0
  H  H17  1  0.30892000  0.58859000  0.66742000  1.0
  H  H18  1  0.80892000  0.91141000  0.83258000  1.0
  H  H19  1  0.69108000  0.41142000  0.33258000  1.0
  H  H20  1  0.18662000  0.25057000  0.10930000  1.0
  H  H21  1  0.31338000  0.75057000  0.60930000  1.0
  H  H22  1  0.81338000  0.74943000  0.89070000  1.0
  H  H23  1  0.68662000  0.24943000  0.39070000  1.0
  H  H24  1  0.21743000  0.46788000  0.12560000  1.0
  H  H25  1  0.28257000  0.96788000  0.62559000  1.0
  H  H26  1  0.78257000  0.53212000  0.87441000  1.0
  H  H27  1  0.71743000  0.03212000  0.37441000  1.0
  H  H28  1  0.19481000  0.61250000  0.20214000  1.0
  H  H29  1  0.30518000  0.11250000  0.70214000  1.0
  H  H30  1  0.80518000  0.38750000  0.79786000  1.0
  H  H31  1  0.69482000  0.88751000  0.29786000  1.0
  C  C32  1  0.20664000  0.26984000  0.25990000  1.0
  C  C33  1  0.29336000  0.76985000  0.75990000  1.0
  C  C34  1  0.79335000  0.73015000  0.74010000  1.0
  C  C35  1  0.70664000  0.23016000  0.24010000  1.0
  C  C36  1  0.18974000  0.42317000  0.27130000  1.0
  C  C37  1  0.31025000  0.92318000  0.77130000  1.0
  C  C38  1  0.81026000  0.57683000  0.72870000  1.0
  C  C39  1  0.68974000  0.07683000  0.22870000  1.0
  C  C40  1  0.19959000  0.49007000  0.36333000  1.0
  C  C41  1  0.30040000  0.99008000  0.86332000  1.0
  C  C42  1  0.80040000  0.50993000  0.63667000  1.0
  C  C43  1  0.69960000  0.00993000  0.13668000  1.0
  C  C44  1  0.22005000  0.40644000  0.44421000  1.0
  C  C45  1  0.27995000  0.90645000  0.94421000  1.0
  C  C46  1  0.77995000  0.59356000  0.55579000  1.0
  C  C47  1  0.72005000  0.09356000  0.05579000  1.0
  C  C48  1  0.23145000  0.25816000  0.42935000  1.0
  C  C49  1  0.26855000  0.75816000  0.92935000  1.0
  C  C50  1  0.76855000  0.74184000  0.57065000  1.0
  C  C51  1  0.73145000  0.24184000  0.07065000  1.0
  N  N52  1  0.22883000  0.19084000  0.33957000  1.0
  N  N53  1  0.27116000  0.69084000  0.83957000  1.0
  N  N54  1  0.77116000  0.80916000  0.66043000  1.0
  N  N55  1  0.72883000  0.30916000  0.16043000  1.0
  N  N56  1  0.20465000  0.19873000  0.17175000  1.0
  N  N57  1  0.29535000  0.69873000  0.67175000  1.0
  N  N58  1  0.79535000  0.80127000  0.82825000  1.0
  N  N59  1  0.70465000  0.30127000  0.32825000  1.0
  N  N60  1  0.14664000  0.50641000  0.18927000  1.0
  N  N61  1  0.35336000  0.00641000  0.68927000  1.0
  N  N62  1  0.85336000  0.49359000  0.81073000  1.0
  N  N63  1  0.64664000  0.99359000  0.31073000  1.0
  Cl  Cl64  1  0.18656000  0.85542000  0.20054000  1.0
  Cl  Cl65  1  0.31344000  0.35542000  0.70054000  1.0
  Cl  Cl66  1  0.81344000  0.14458000  0.79946000  1.0
  Cl  Cl67  1  0.68655000  0.64458000  0.29946000  1.0
  Cl  Cl68  1  0.23866000  0.87098000  0.47053000  1.0
  Cl  Cl69  1  0.26134000  0.37099000  0.97053000  1.0
  Cl  Cl70  1  0.76134000  0.12902000  0.52947000  1.0
  Cl  Cl71  1  0.73867000  0.62902000  0.02947000  1.0
