# generated using pymatgen
data_BaH4(C2O3)2
_symmetry_space_group_name_H-M   'P 1'
_cell_length_a   7.30034000
_cell_length_b   8.26453000
_cell_length_c   10.27990000
_cell_angle_alpha   89.99930000
_cell_angle_beta   89.99980000
_cell_angle_gamma   90.72150000
_symmetry_Int_Tables_number   1
_chemical_formula_structural   BaH4(C2O3)2
_chemical_formula_sum   'Ba4 H16 C16 O24'
_cell_volume   620.17706736
_cell_formula_units_Z   4
loop_
 _symmetry_equiv_pos_site_id
 _symmetry_equiv_pos_as_xyz
  1  'x, y, z'
loop_
 _atom_site_type_symbol
 _atom_site_label
 _atom_site_symmetry_multiplicity
 _atom_site_fract_x
 _atom_site_fract_y
 _atom_site_fract_z
 _atom_site_occupancy
  Ba  Ba0  1  0.09528000  0.26105000  0.38444000  1.0
  Ba  Ba1  1  0.40472000  0.73895000  0.88445000  1.0
  Ba  Ba2  1  0.90471000  0.73895000  0.61555000  1.0
  Ba  Ba3  1  0.59528000  0.26105000  0.11555000  1.0
  H  H4  1  0.24973000  0.03760000  0.05792000  1.0
  H  H5  1  0.25027000  0.96240000  0.55792000  1.0
  H  H6  1  0.75027000  0.96240000  0.94208000  1.0
  H  H7  1  0.74973000  0.03760000  0.44208000  1.0
  H  H8  1  0.43568000  0.33017000  0.85054000  1.0
  H  H9  1  0.06432000  0.66982000  0.35055000  1.0
  H  H10  1  0.56432000  0.66983000  0.14946000  1.0
  H  H11  1  0.93568000  0.33017000  0.64945000  1.0
  H  H12  1  0.02738000  0.10588000  0.91105000  1.0
  H  H13  1  0.47262000  0.89412000  0.41105000  1.0
  H  H14  1  0.97262000  0.89413000  0.08895000  1.0
  H  H15  1  0.52738000  0.10587000  0.58894000  1.0
  H  H16  1  0.07703000  0.38961000  0.86722000  1.0
  H  H17  1  0.42297000  0.61039000  0.36723000  1.0
  H  H18  1  0.92297000  0.61039000  0.13278000  1.0
  H  H19  1  0.57703000  0.38961000  0.63278000  1.0
  C  C20  1  0.19644000  0.11573000  0.74520000  1.0
  C  C21  1  0.30356000  0.88428000  0.24520000  1.0
  C  C22  1  0.80356000  0.88429000  0.25481000  1.0
  C  C23  1  0.69644000  0.11571000  0.75481000  1.0
  C  C24  1  0.16953000  0.14610000  0.89127000  1.0
  C  C25  1  0.33047000  0.85390000  0.39128000  1.0
  C  C26  1  0.83047000  0.85391000  0.10872000  1.0
  C  C27  1  0.66953000  0.14610000  0.60872000  1.0
  C  C28  1  0.17864000  0.32600000  0.92663000  1.0
  C  C29  1  0.32136000  0.67399000  0.42664000  1.0
  C  C30  1  0.82136000  0.67400000  0.07337000  1.0
  C  C31  1  0.67864000  0.32600000  0.57336000  1.0
  C  C32  1  0.12359000  0.34061000  0.07045000  1.0
  C  C33  1  0.37641000  0.65939000  0.57046000  1.0
  C  C34  1  0.87642000  0.65939000  0.92955000  1.0
  C  C35  1  0.62358000  0.34061000  0.42954000  1.0
  O  O36  1  0.13362000  0.21784000  0.66615000  1.0
  O  O37  1  0.36638000  0.78216000  0.16615000  1.0
  O  O38  1  0.86639000  0.78217000  0.33385000  1.0
  O  O39  1  0.63362000  0.21783000  0.83385000  1.0
  O  O40  1  0.27515000  0.98440000  0.71216000  1.0
  O  O41  1  0.22486000  0.01560000  0.21216000  1.0
  O  O42  1  0.72487000  0.01560000  0.28784000  1.0
  O  O43  1  0.77513000  0.98440000  0.78784000  1.0
  O  O44  1  0.29619000  0.05392000  0.96548000  1.0
  O  O45  1  0.20381000  0.94607000  0.46549000  1.0
  O  O46  1  0.70382000  0.94608000  0.03452000  1.0
  O  O47  1  0.79619000  0.05392000  0.53451000  1.0
  O  O48  1  0.35657000  0.39669000  0.90777000  1.0
  O  O49  1  0.14343000  0.60331000  0.40777000  1.0
  O  O50  1  0.64343000  0.60331000  0.09223000  1.0
  O  O51  1  0.85657000  0.39669000  0.59223000  1.0
  O  O52  1  0.95981000  0.30167000  0.09952000  1.0
  O  O53  1  0.54017000  0.69833000  0.59953000  1.0
  O  O54  1  0.04019000  0.69833000  0.90048000  1.0
  O  O55  1  0.45982000  0.30167000  0.40047000  1.0
  O  O56  1  0.24528000  0.38178000  0.15247000  1.0
  O  O57  1  0.25471000  0.61822000  0.65247000  1.0
  O  O58  1  0.75472000  0.61822000  0.84753000  1.0
  O  O59  1  0.74528000  0.38178000  0.34753000  1.0
