# generated using pymatgen
data_AgH12C16(NO)5
_symmetry_space_group_name_H-M   'P 1'
_cell_length_a   5.03837000
_cell_length_b   11.03020000
_cell_length_c   14.62250000
_cell_angle_alpha   81.19100000
_cell_angle_beta   88.89960000
_cell_angle_gamma   78.59570000
_symmetry_Int_Tables_number   1
_chemical_formula_structural   AgH12C16(NO)5
_chemical_formula_sum   'Ag2 H24 C32 N10 O10'
_cell_volume   787.14202082
_cell_formula_units_Z   2
loop_
 _symmetry_equiv_pos_site_id
 _symmetry_equiv_pos_as_xyz
  1  'x, y, z'
loop_
 _atom_site_type_symbol
 _atom_site_label
 _atom_site_symmetry_multiplicity
 _atom_site_fract_x
 _atom_site_fract_y
 _atom_site_fract_z
 _atom_site_occupancy
  Ag  Ag0  1  0.13172000  0.72570000  0.69686000  1.0
  Ag  Ag1  1  0.86828000  0.27429000  0.30314000  1.0
  H  H2  1  0.50067000  0.98198000  0.91972000  1.0
  H  H3  1  0.49933000  0.01802000  0.08028000  1.0
  H  H4  1  0.97917000  0.76569000  0.13618000  1.0
  H  H5  1  0.02083000  0.23431000  0.86382000  1.0
  H  H6  1  0.44628000  0.91304000  0.77586000  1.0
  H  H7  1  0.55372000  0.08696000  0.22414000  1.0
  H  H8  1  0.99727000  0.62026000  0.37041000  1.0
  H  H9  1  0.00273000  0.37974000  0.62959000  1.0
  H  H10  1  0.21776000  0.59505000  0.51509000  1.0
  H  H11  1  0.78224000  0.40495000  0.48491000  1.0
  H  H12  1  0.99008000  0.99628000  0.34868000  1.0
  H  H13  1  0.00991000  0.00373000  0.65132000  1.0
  H  H14  1  0.63903000  0.72183000  0.25962000  1.0
  H  H15  1  0.36097000  0.27817000  0.74038000  1.0
  H  H16  1  0.21466000  0.87896000  0.22529000  1.0
  H  H17  1  0.78534000  0.12104000  0.77471000  1.0
  H  H18  1  0.19984000  0.95252000  0.50790000  1.0
  H  H19  1  0.80015000  0.04748000  0.49210000  1.0
  H  H20  1  0.62710000  0.54947000  0.96653000  1.0
  H  H21  1  0.37290000  0.45053000  0.03347000  1.0
  H  H22  1  0.69017000  0.60903000  0.12192000  1.0
  H  H23  1  0.30983000  0.39097000  0.87808000  1.0
  H  H24  1  0.85280000  0.63757000  0.82961000  1.0
  H  H25  1  0.14720000  0.36242000  0.17039000  1.0
  C  C26  1  0.04432000  0.75342000  0.90388000  1.0
  C  C27  1  0.95568000  0.24657000  0.09612000  1.0
  C  C28  1  0.24386000  0.88142000  0.99781000  1.0
  C  C29  1  0.75614000  0.11858000  0.00218000  1.0
  C  C30  1  0.94590000  0.73866000  0.06941000  1.0
  C  C31  1  0.05410000  0.26134000  0.93059000  1.0
  C  C32  1  0.33372000  0.87855000  0.83552000  1.0
  C  C33  1  0.66628000  0.12145000  0.16448000  1.0
  C  C34  1  0.07530000  0.79050000  0.99120000  1.0
  C  C35  1  0.92470000  0.20951000  0.00880000  1.0
  C  C36  1  0.65694000  0.75098000  0.40213000  1.0
  C  C37  1  0.34306000  0.24902000  0.59787000  1.0
  C  C38  1  0.65595000  0.79007000  0.56484000  1.0
  C  C39  1  0.34405000  0.20992000  0.43516000  1.0
  C  C40  1  0.01985000  0.65684000  0.50513000  1.0
  C  C41  1  0.98015000  0.34316000  0.49487000  1.0
  C  C42  1  0.53083000  0.81521000  0.47263000  1.0
  C  C43  1  0.46917000  0.18479000  0.52737000  1.0
  C  C44  1  0.17556000  0.92633000  0.36443000  1.0
  C  C45  1  0.82443000  0.07367000  0.63557000  1.0
  C  C46  1  0.54077000  0.77327000  0.31306000  1.0
  C  C47  1  0.45923000  0.22673000  0.68694000  1.0
  C  C48  1  0.30156000  0.86067000  0.29491000  1.0
  C  C49  1  0.69844000  0.13933000  0.70509000  1.0
  C  C50  1  0.28941000  0.90315000  0.45241000  1.0
  C  C51  1  0.71059000  0.09685000  0.54760000  1.0
  C  C52  1  0.75135000  0.61763000  0.97417000  1.0
  C  C53  1  0.24865000  0.38237000  0.02583000  1.0
  C  C54  1  0.78553000  0.65223000  0.06122000  1.0
  C  C55  1  0.21448000  0.34777000  0.93878000  1.0
  C  C56  1  0.87849000  0.66684000  0.89644000  1.0
  C  C57  1  0.12150000  0.33316000  0.10356000  1.0
  N  N58  1  0.36794000  0.92005000  0.91641000  1.0
  N  N59  1  0.63206000  0.07995000  0.08359000  1.0
  N  N60  1  0.17703000  0.79986000  0.82599000  1.0
  N  N61  1  0.82297000  0.20014000  0.17401000  1.0
  N  N62  1  0.64177000  0.49537000  0.70408000  1.0
  N  N63  1  0.35823000  0.50463000  0.29592000  1.0
  N  N64  1  0.89876000  0.66781000  0.42313000  1.0
  N  N65  1  0.10124000  0.33219000  0.57687000  1.0
  N  N66  1  0.91503000  0.71544000  0.57400000  1.0
  N  N67  1  0.08497000  0.28456000  0.42600000  1.0
  O  O68  1  0.27875000  0.92463000  0.07013000  1.0
  O  O69  1  0.72125000  0.07536000  0.92987000  1.0
  O  O70  1  0.55709000  0.51260000  0.62138000  1.0
  O  O71  1  0.44291000  0.48740000  0.37862000  1.0
  O  O72  1  0.49560000  0.53939000  0.76730000  1.0
  O  O73  1  0.50440000  0.46061000  0.23270000  1.0
  O  O74  1  0.88029000  0.43253000  0.72480000  1.0
  O  O75  1  0.11971000  0.56747000  0.27520000  1.0
  O  O76  1  0.54403000  0.83383000  0.63284000  1.0
  O  O77  1  0.45597000  0.16617000  0.36716000  1.0
