# generated using pymatgen
data_ZnH6C7(N3O)2
_symmetry_space_group_name_H-M   'P 1'
_cell_length_a   9.54350000
_cell_length_b   12.16570000
_cell_length_c   12.16580000
_cell_angle_alpha   88.40280000
_cell_angle_beta   68.83200000
_cell_angle_gamma   68.83240000
_symmetry_Int_Tables_number   1
_chemical_formula_structural   ZnH6C7(N3O)2
_chemical_formula_sum   'Zn4 H24 C28 N24 O8'
_cell_volume   1219.74461821
_cell_formula_units_Z   4
loop_
 _symmetry_equiv_pos_site_id
 _symmetry_equiv_pos_as_xyz
  1  'x, y, z'
loop_
 _atom_site_type_symbol
 _atom_site_label
 _atom_site_symmetry_multiplicity
 _atom_site_fract_x
 _atom_site_fract_y
 _atom_site_fract_z
 _atom_site_occupancy
  Zn  Zn0  1  0.84222000  0.86140000  0.64067000  1.0
  Zn  Zn1  1  0.34222000  0.64067000  0.86141000  1.0
  Zn  Zn2  1  0.65778000  0.35933000  0.13859000  1.0
  Zn  Zn3  1  0.15778000  0.13860000  0.35933000  1.0
  H  H4  1  0.16563000  0.51612000  0.27855000  1.0
  H  H5  1  0.30271000  0.48801000  0.05502000  1.0
  H  H6  1  0.13482000  0.85211000  0.04098000  1.0
  H  H7  1  0.99649000  0.89415000  0.26110000  1.0
  H  H8  1  0.29223000  0.55548000  0.63069000  1.0
  H  H9  1  0.12970000  0.61353000  0.58377000  1.0
  H  H10  1  0.66561000  0.27855000  0.51612000  1.0
  H  H11  1  0.80269000  0.05501000  0.48800000  1.0
  H  H12  1  0.63486000  0.04098000  0.85210000  1.0
  H  H13  1  0.49653000  0.26109000  0.89415000  1.0
  H  H14  1  0.79223000  0.63069000  0.55548000  1.0
  H  H15  1  0.62970000  0.58378000  0.61354000  1.0
  H  H16  1  0.33436000  0.72145000  0.48388000  1.0
  H  H17  1  0.19727000  0.94499000  0.51199000  1.0
  H  H18  1  0.36516000  0.95903000  0.14789000  1.0
  H  H19  1  0.50349000  0.73891000  0.10585000  1.0
  H  H20  1  0.20778000  0.36931000  0.44452000  1.0
  H  H21  1  0.37031000  0.41622000  0.38646000  1.0
  H  H22  1  0.83438000  0.48388000  0.72145000  1.0
  H  H23  1  0.69730000  0.51199000  0.94498000  1.0
  H  H24  1  0.86518000  0.14789000  0.95902000  1.0
  H  H25  1  0.00351000  0.10585000  0.73890000  1.0
  H  H26  1  0.70777000  0.44452000  0.36931000  1.0
  H  H27  1  0.87030000  0.38647000  0.41622000  1.0
  C  C28  1  0.99559000  0.72696000  0.42005000  1.0
  C  C29  1  0.07020000  0.70718000  0.28661000  1.0
  C  C30  1  0.15659000  0.59176000  0.22788000  1.0
  C  C31  1  0.23212000  0.57595000  0.10509000  1.0
  C  C32  1  0.13845000  0.78022000  0.09680000  1.0
  C  C33  1  0.06029000  0.80276000  0.21945000  1.0
  C  C34  1  0.13003000  0.71878000  0.71011000  1.0
  C  C35  1  0.49560000  0.42004000  0.72696000  1.0
  C  C36  1  0.57020000  0.28661000  0.70718000  1.0
  C  C37  1  0.65659000  0.22788000  0.59176000  1.0
  C  C38  1  0.73212000  0.10509000  0.57595000  1.0
  C  C39  1  0.63847000  0.09680000  0.78021000  1.0
  C  C40  1  0.56031000  0.21945000  0.80276000  1.0
  C  C41  1  0.63003000  0.71011000  0.71878000  1.0
  C  C42  1  0.50440000  0.57996000  0.27304000  1.0
  C  C43  1  0.42979000  0.71339000  0.29282000  1.0
  C  C44  1  0.34340000  0.77212000  0.40824000  1.0
  C  C45  1  0.26786000  0.89491000  0.42405000  1.0
  C  C46  1  0.36154000  0.90320000  0.21979000  1.0
  C  C47  1  0.43970000  0.78055000  0.19724000  1.0
  C  C48  1  0.36997000  0.28989000  0.28121000  1.0
  C  C49  1  0.00441000  0.27304000  0.57996000  1.0
  C  C50  1  0.92981000  0.29282000  0.71339000  1.0
  C  C51  1  0.84342000  0.40824000  0.77212000  1.0
  C  C52  1  0.76789000  0.42405000  0.89491000  1.0
  C  C53  1  0.86156000  0.21978000  0.90320000  1.0
  C  C54  1  0.93972000  0.19723000  0.78055000  1.0
  C  C55  1  0.86997000  0.28122000  0.28990000  1.0
  N  N56  1  0.17570000  0.61292000  0.64804000  1.0
  N  N57  1  0.01698000  0.82247000  0.70436000  1.0
  N  N58  1  0.00729000  0.90580000  0.78322000  1.0
  N  N59  1  0.10953000  0.85653000  0.83303000  1.0
  N  N60  1  0.18879000  0.73865000  0.78998000  1.0
  N  N61  1  0.22351000  0.66865000  0.04073000  1.0
  N  N62  1  0.67569000  0.64804000  0.61292000  1.0
  N  N63  1  0.51698000  0.70436000  0.82247000  1.0
  N  N64  1  0.50729000  0.78322000  0.90580000  1.0
  N  N65  1  0.60954000  0.83302000  0.85653000  1.0
  N  N66  1  0.68879000  0.78997000  0.73866000  1.0
  N  N67  1  0.72352000  0.04072000  0.66865000  1.0
  N  N68  1  0.32431000  0.35195000  0.38708000  1.0
  N  N69  1  0.48302000  0.29564000  0.17753000  1.0
  N  N70  1  0.49270000  0.21679000  0.09420000  1.0
  N  N71  1  0.39045000  0.16698000  0.14346000  1.0
  N  N72  1  0.31121000  0.21003000  0.26134000  1.0
  N  N73  1  0.27648000  0.95928000  0.33134000  1.0
  N  N74  1  0.82431000  0.38709000  0.35196000  1.0
  N  N75  1  0.98302000  0.17753000  0.29565000  1.0
  N  N76  1  0.99269000  0.09420000  0.21679000  1.0
  N  N77  1  0.89045000  0.14347000  0.16698000  1.0
  N  N78  1  0.81121000  0.26135000  0.21003000  1.0
  N  N79  1  0.77649000  0.33134000  0.95928000  1.0
  O  O80  1  0.91932000  0.83633000  0.46614000  1.0
  O  O81  1  0.01229000  0.63907000  0.47819000  1.0
  O  O82  1  0.41933000  0.46614000  0.83633000  1.0
  O  O83  1  0.51229000  0.47819000  0.63907000  1.0
  O  O84  1  0.58068000  0.53386000  0.16367000  1.0
  O  O85  1  0.48771000  0.52181000  0.36093000  1.0
  O  O86  1  0.08069000  0.16368000  0.53386000  1.0
  O  O87  1  0.98771000  0.36093000  0.52181000  1.0
