# generated using pymatgen
data_CuH12C18NO4
_symmetry_space_group_name_H-M   'P 1'
_cell_length_a   11.72920000
_cell_length_b   13.00540000
_cell_length_c   13.04950000
_cell_angle_alpha   97.80170000
_cell_angle_beta   105.31700000
_cell_angle_gamma   105.54400000
_symmetry_Int_Tables_number   1
_chemical_formula_structural   CuH12C18NO4
_chemical_formula_sum   'Cu4 H48 C72 N4 O16'
_cell_volume   1803.41089482
_cell_formula_units_Z   4
loop_
 _symmetry_equiv_pos_site_id
 _symmetry_equiv_pos_as_xyz
  1  'x, y, z'
loop_
 _atom_site_type_symbol
 _atom_site_label
 _atom_site_symmetry_multiplicity
 _atom_site_fract_x
 _atom_site_fract_y
 _atom_site_fract_z
 _atom_site_occupancy
  Cu  Cu0  1  0.87068000  0.76331000  0.32660000  1.0
  Cu  Cu1  1  0.62940000  0.67285000  0.23722000  1.0
  Cu  Cu2  1  0.12933000  0.23669000  0.67341000  1.0
  Cu  Cu3  1  0.37061000  0.32715000  0.76279000  1.0
  H  H4  1  0.89429000  0.81361000  0.66375000  1.0
  H  H5  1  0.60629000  0.33625000  0.18651000  1.0
  H  H6  1  0.10570000  0.18639000  0.33626000  1.0
  H  H7  1  0.39371000  0.66376000  0.81350000  1.0
  H  H8  1  0.51576000  0.60327000  0.51292000  1.0
  H  H9  1  0.98413000  0.48840000  0.39664000  1.0
  H  H10  1  0.48425000  0.39674000  0.48708000  1.0
  H  H11  1  0.01587000  0.51160000  0.60336000  1.0
  H  H12  1  0.49530000  0.58130000  0.69465000  1.0
  H  H13  1  0.00410000  0.30593000  0.41846000  1.0
  H  H14  1  0.50471000  0.41870000  0.30536000  1.0
  H  H15  1  0.99591000  0.69408000  0.58154000  1.0
  H  H16  1  0.98926000  0.85487000  0.86442000  1.0
  H  H17  1  0.51109000  0.13487000  0.14527000  1.0
  H  H18  1  0.01076000  0.14514000  0.13559000  1.0
  H  H19  1  0.48891000  0.86513000  0.85473000  1.0
  H  H20  1  0.97063000  0.82898000  0.04664000  1.0
  H  H21  1  0.52913000  0.95187000  0.17108000  1.0
  H  H22  1  0.02937000  0.17102000  0.95336000  1.0
  H  H23  1  0.47088000  0.04813000  0.82893000  1.0
  H  H24  1  0.58911000  0.62495000  0.89624000  1.0
  H  H25  1  0.91007000  0.10357000  0.37485000  1.0
  H  H26  1  0.41089000  0.37504000  0.10376000  1.0
  H  H27  1  0.08994000  0.89643000  0.62515000  1.0
  H  H28  1  0.06657000  0.99160000  0.39269000  1.0
  H  H29  1  0.43432000  0.60732000  0.00924000  1.0
  H  H30  1  0.93342000  0.00839000  0.60731000  1.0
  H  H31  1  0.56568000  0.39267000  0.99076000  1.0
  H  H32  1  0.09248000  0.68095000  0.39097000  1.0
  H  H33  1  0.40625000  0.60864000  0.31822000  1.0
  H  H34  1  0.90752000  0.31905000  0.60901000  1.0
  H  H35  1  0.59374000  0.39135000  0.68178000  1.0
  H  H36  1  0.29426000  0.07186000  0.42329000  1.0
  H  H37  1  0.20698000  0.57696000  0.92922000  1.0
  H  H38  1  0.70572000  0.92814000  0.57670000  1.0
  H  H39  1  0.79303000  0.42305000  0.07078000  1.0
  H  H40  1  0.32374000  0.74818000  0.42555000  1.0
  H  H41  1  0.17524000  0.57437000  0.25114000  1.0
  H  H42  1  0.67625000  0.25181000  0.57442000  1.0
  H  H43  1  0.82475000  0.42563000  0.74885000  1.0
  H  H44  1  0.48271000  0.00416000  0.37995000  1.0
  H  H45  1  0.01820000  0.62083000  0.99665000  1.0
  H  H46  1  0.51728000  0.99585000  0.62004000  1.0
  H  H47  1  0.98181000  0.37918000  0.00334000  1.0
  H  H48  1  0.50513000  0.89286000  0.43667000  1.0
  H  H49  1  0.99473000  0.56301000  0.10705000  1.0
  H  H50  1  0.49486000  0.10714000  0.56332000  1.0
  H  H51  1  0.00527000  0.43700000  0.89294000  1.0
  C  C52  1  0.72162000  0.71833000  0.46932000  1.0
  C  C53  1  0.77865000  0.53113000  0.28162000  1.0
  C  C54  1  0.27836000  0.28167000  0.53068000  1.0
  C  C55  1  0.22133000  0.46886000  0.71839000  1.0
  C  C56  1  0.70708000  0.71031000  0.57857000  1.0
  C  C57  1  0.79318000  0.42183000  0.28961000  1.0
  C  C58  1  0.29292000  0.28969000  0.42143000  1.0
  C  C59  1  0.20682000  0.57816000  0.71039000  1.0
  C  C60  1  0.80744000  0.76372000  0.67155000  1.0
  C  C61  1  0.69286000  0.32846000  0.23623000  1.0
  C  C62  1  0.19256000  0.23628000  0.32845000  1.0
  C  C63  1  0.30714000  0.67154000  0.76377000  1.0
  C  C64  1  0.59305000  0.64489000  0.58724000  1.0
  C  C65  1  0.90692000  0.41362000  0.35508000  1.0
  C  C66  1  0.40696000  0.35512000  0.41276000  1.0
  C  C67  1  0.09309000  0.58638000  0.64492000  1.0
  C  C68  1  0.79918000  0.75284000  0.77576000  1.0
  C  C69  1  0.70086000  0.22398000  0.24715000  1.0
  C  C70  1  0.20083000  0.24716000  0.22425000  1.0
  C  C71  1  0.29914000  0.77602000  0.75286000  1.0
  C  C72  1  0.58193000  0.63296000  0.68768000  1.0
  C  C73  1  0.91776000  0.31287000  0.36700000  1.0
  C  C74  1  0.41807000  0.36705000  0.31233000  1.0
  C  C75  1  0.08225000  0.68713000  0.63300000  1.0
  C  C76  1  0.68407000  0.68607000  0.78422000  1.0
  C  C77  1  0.81566000  0.21586000  0.31390000  1.0
  C  C78  1  0.31594000  0.31393000  0.21578000  1.0
  C  C79  1  0.18435000  0.78414000  0.68610000  1.0
  C  C80  1  0.90222000  0.80440000  0.87186000  1.0
  C  C81  1  0.59780000  0.12741000  0.19563000  1.0
  C  C82  1  0.09780000  0.19560000  0.12814000  1.0
  C  C83  1  0.40220000  0.87259000  0.80436000  1.0
  C  C84  1  0.89241000  0.79040000  0.97221000  1.0
  C  C85  1  0.60733000  0.02673000  0.20955000  1.0
  C  C86  1  0.10760000  0.20959000  0.02779000  1.0
  C  C87  1  0.39267000  0.97327000  0.79045000  1.0
  C  C88  1  0.67596000  0.67510000  0.88855000  1.0
  C  C89  1  0.82354000  0.11127000  0.32484000  1.0
  C  C90  1  0.32405000  0.32489000  0.11145000  1.0
  C  C91  1  0.17647000  0.88873000  0.67516000  1.0
  C  C92  1  0.77797000  0.72597000  0.98083000  1.0
  C  C93  1  0.72155000  0.01858000  0.27390000  1.0
  C  C94  1  0.22203000  0.27403000  0.01917000  1.0
  C  C95  1  0.27845000  0.98142000  0.72610000  1.0
  C  C96  1  0.76752000  0.71567000  0.09088000  1.0
  C  C97  1  0.73217000  0.90856000  0.28428000  1.0
  C  C98  1  0.23248000  0.28433000  0.90912000  1.0
  C  C99  1  0.26782000  0.09144000  0.71572000  1.0
  C  C100  1  0.12706000  0.94050000  0.39964000  1.0
  C  C101  1  0.37346000  0.60025000  0.06005000  1.0
  C  C102  1  0.87293000  0.05950000  0.60036000  1.0
  C  C103  1  0.62655000  0.39975000  0.93995000  1.0
  C  C104  1  0.14198000  0.76712000  0.39920000  1.0
  C  C105  1  0.35726000  0.60054000  0.23244000  1.0
  C  C106  1  0.85802000  0.23288000  0.60080000  1.0
  C  C107  1  0.64274000  0.39946000  0.76756000  1.0
  C  C108  1  0.25411000  0.98449000  0.41721000  1.0
  C  C109  1  0.24658000  0.58284000  0.01617000  1.0
  C  C110  1  0.74588000  0.01551000  0.58278000  1.0
  C  C111  1  0.75343000  0.41716000  0.98383000  1.0
  C  C112  1  0.27000000  0.80504000  0.41804000  1.0
  C  C113  1  0.22934000  0.58180000  0.19458000  1.0
  C  C114  1  0.73000000  0.19496000  0.58194000  1.0
  C  C115  1  0.77066000  0.41820000  0.80541000  1.0
  C  C116  1  0.32853000  0.91588000  0.42553000  1.0
  C  C117  1  0.17150000  0.57440000  0.08421000  1.0
  C  C118  1  0.67146000  0.08412000  0.57446000  1.0
  C  C119  1  0.82850000  0.42560000  0.91579000  1.0
  C  C120  1  0.46593000  0.96041000  0.44383000  1.0
  C  C121  1  0.03423000  0.55626000  0.03974000  1.0
  C  C122  1  0.53407000  0.03960000  0.55615000  1.0
  C  C123  1  0.96577000  0.44375000  0.96025000  1.0
  N  N124  1  0.07091000  0.83310000  0.38931000  1.0
  N  N125  1  0.42892000  0.61034000  0.16697000  1.0
  N  N126  1  0.92909000  0.16689000  0.61068000  1.0
  N  N127  1  0.57108000  0.38966000  0.83303000  1.0
  O  O128  1  0.82676000  0.77687000  0.46717000  1.0
  O  O129  1  0.67351000  0.53297000  0.22358000  1.0
  O  O130  1  0.17322000  0.22314000  0.53284000  1.0
  O  O131  1  0.32649000  0.46703000  0.77642000  1.0
  O  O132  1  0.62719000  0.66372000  0.38647000  1.0
  O  O133  1  0.87318000  0.61438000  0.33582000  1.0
  O  O134  1  0.37280000  0.33628000  0.61352000  1.0
  O  O135  1  0.12680000  0.38561000  0.66422000  1.0
  O  O136  1  0.86795000  0.73434000  0.16814000  1.0
  O  O137  1  0.63172000  0.83080000  0.26605000  1.0
  O  O138  1  0.13205000  0.26564000  0.83186000  1.0
  O  O139  1  0.36828000  0.16920000  0.73395000  1.0
  O  O140  1  0.65702000  0.69089000  0.09782000  1.0
  O  O141  1  0.84277000  0.90221000  0.30867000  1.0
  O  O142  1  0.34298000  0.30912000  0.90219000  1.0
  O  O143  1  0.15722000  0.09781000  0.69132000  1.0
