# generated using pymatgen
data_BaH16C10N8O9
_symmetry_space_group_name_H-M   'P 1'
_cell_length_a   6.72459000
_cell_length_b   11.29530000
_cell_length_c   12.66320000
_cell_angle_alpha   107.58700000
_cell_angle_beta   92.40750000
_cell_angle_gamma   100.19600000
_symmetry_Int_Tables_number   1
_chemical_formula_structural   BaH16C10N8O9
_chemical_formula_sum   'Ba2 H32 C20 N16 O18'
_cell_volume   897.72570773
_cell_formula_units_Z   2
loop_
 _symmetry_equiv_pos_site_id
 _symmetry_equiv_pos_as_xyz
  1  'x, y, z'
loop_
 _atom_site_type_symbol
 _atom_site_label
 _atom_site_symmetry_multiplicity
 _atom_site_fract_x
 _atom_site_fract_y
 _atom_site_fract_z
 _atom_site_occupancy
  Ba  Ba0  1  0.36173000  0.50798000  0.35520000  1.0
  Ba  Ba1  1  0.63827000  0.49201000  0.64479000  1.0
  H  H2  1  0.12859000  0.42651000  0.56769000  1.0
  H  H3  1  0.87141000  0.57349000  0.43231000  1.0
  H  H4  1  0.19188000  0.57167000  0.60539000  1.0
  H  H5  1  0.80812000  0.42833000  0.39460000  1.0
  H  H6  1  0.93029000  0.24439000  0.34315000  1.0
  H  H7  1  0.06971000  0.75561000  0.65685000  1.0
  H  H8  1  0.97264000  0.29364000  0.24033000  1.0
  H  H9  1  0.02736000  0.70636000  0.75967000  1.0
  H  H10  1  0.08691000  0.74403000  0.41561000  1.0
  H  H11  1  0.91309000  0.25598000  0.58439000  1.0
  H  H12  1  0.97114000  0.64123000  0.30268000  1.0
  H  H13  1  0.02886000  0.35877000  0.69732000  1.0
  H  H14  1  0.39827000  0.24035000  0.98770000  1.0
  H  H15  1  0.60173000  0.75966000  0.01230000  1.0
  H  H16  1  0.62202000  0.21926000  0.05423000  1.0
  H  H17  1  0.37798000  0.78074000  0.94577000  1.0
  H  H18  1  0.60474000  0.20203000  0.90796000  1.0
  H  H19  1  0.39526000  0.79797000  0.09204000  1.0
  H  H20  1  0.02670000  0.80304000  0.19152000  1.0
  H  H21  1  0.97331000  0.19697000  0.80847000  1.0
  H  H22  1  0.00997000  0.78494000  0.04404000  1.0
  H  H23  1  0.99003000  0.21506000  0.95596000  1.0
  H  H24  1  0.68216000  0.00831000  0.79690000  1.0
  H  H25  1  0.31783000  0.99169000  0.20310000  1.0
  H  H26  1  0.82157000  0.88330000  0.77574000  1.0
  H  H27  1  0.17842000  0.11669000  0.22426000  1.0
  H  H28  1  0.55054000  0.84546000  0.75675000  1.0
  H  H29  1  0.44945000  0.15454000  0.24325000  1.0
  H  H30  1  0.55930000  0.77751000  0.24321000  1.0
  H  H31  1  0.44071000  0.22250000  0.75679000  1.0
  H  H32  1  0.69668000  0.94064000  0.27649000  1.0
  H  H33  1  0.30333000  0.05936000  0.72351000  1.0
  C  C34  1  0.56418000  0.25381000  0.98949000  1.0
  C  C35  1  0.43582000  0.74619000  0.01051000  1.0
  C  C36  1  0.70019000  0.46205000  0.12920000  1.0
  C  C37  1  0.29982000  0.53796000  0.87080000  1.0
  C  C38  1  0.69584000  0.43709000  0.92874000  1.0
  C  C39  1  0.30416000  0.56291000  0.07126000  1.0
  C  C40  1  0.80962000  0.56793000  0.96223000  1.0
  C  C41  1  0.19038000  0.43207000  0.03777000  1.0
  C  C42  1  0.86758000  0.63409000  0.08042000  1.0
  C  C43  1  0.13242000  0.36591000  0.91957000  1.0
  C  C44  1  0.60171000  0.78736000  0.54922000  1.0
  C  C45  1  0.39828000  0.21263000  0.45078000  1.0
  C  C46  1  0.68486000  0.91071000  0.74765000  1.0
  C  C47  1  0.31513000  0.08929000  0.25235000  1.0
  C  C48  1  0.76933000  0.01033000  0.60351000  1.0
  C  C49  1  0.23067000  0.98968000  0.39651000  1.0
  C  C50  1  0.75163000  0.99776000  0.48471000  1.0
  C  C51  1  0.24836000  0.00223000  0.51529000  1.0
  C  C52  1  0.65651000  0.87561000  0.40603000  1.0
  C  C53  1  0.34349000  0.12439000  0.59397000  1.0
  N  N54  1  0.81474000  0.58109000  0.15895000  1.0
  N  N55  1  0.18527000  0.41891000  0.84105000  1.0
  N  N56  1  0.66017000  0.38725000  0.01495000  1.0
  N  N57  1  0.33983000  0.61276000  0.98505000  1.0
  N  N58  1  0.85435000  0.61202000  0.87725000  1.0
  N  N59  1  0.14565000  0.38798000  0.12275000  1.0
  N  N60  1  0.97320000  0.75267000  0.10986000  1.0
  N  N61  1  0.02681000  0.24734000  0.89014000  1.0
  N  N62  1  0.58710000  0.77588000  0.43957000  1.0
  N  N63  1  0.41291000  0.22412000  0.56043000  1.0
  N  N64  1  0.68295000  0.90412000  0.63062000  1.0
  N  N65  1  0.31704000  0.09587000  0.36938000  1.0
  N  N66  1  0.82799000  0.10402000  0.46195000  1.0
  N  N67  1  0.17201000  0.89599000  0.53805000  1.0
  N  N68  1  0.63624000  0.86216000  0.29779000  1.0
  N  N69  1  0.36376000  0.13784000  0.70221000  1.0
  O  O70  1  0.23349000  0.49520000  0.55686000  1.0
  O  O71  1  0.76651000  0.50480000  0.44314000  1.0
  O  O72  1  0.98257000  0.32243000  0.32297000  1.0
  O  O73  1  0.01743000  0.67757000  0.67703000  1.0
  O  O74  1  0.04985000  0.65158000  0.37426000  1.0
  O  O75  1  0.95016000  0.34842000  0.62574000  1.0
  O  O76  1  0.62519000  0.41329000  0.19812000  1.0
  O  O77  1  0.37482000  0.58671000  0.80189000  1.0
  O  O78  1  0.63455000  0.37290000  0.83006000  1.0
  O  O79  1  0.36544000  0.62710000  0.16994000  1.0
  O  O80  1  0.96300000  0.72505000  0.89749000  1.0
  O  O81  1  0.03700000  0.27495000  0.10250000  1.0
  O  O82  1  0.54098000  0.69366000  0.58094000  1.0
  O  O83  1  0.45902000  0.30634000  0.41906000  1.0
  O  O84  1  0.85463000  0.10966000  0.67657000  1.0
  O  O85  1  0.14535000  0.89032000  0.32343000  1.0
  O  O86  1  0.82193000  0.10247000  0.35916000  1.0
  O  O87  1  0.17807000  0.89753000  0.64085000  1.0
