# generated using pymatgen
data_Al6H69C85ClO28
_symmetry_space_group_name_H-M   'P 1'
_cell_length_a   12.61200000
_cell_length_b   12.74597087
_cell_length_c   28.48970000
_cell_angle_alpha   89.29783409
_cell_angle_beta   89.23800000
_cell_angle_gamma   60.50204019
_symmetry_Int_Tables_number   1
_chemical_formula_structural   Al6H69C85ClO28
_chemical_formula_sum   'Al6 H69 C85 Cl1 O28'
_cell_volume   3985.68102919
_cell_formula_units_Z   1
loop_
 _symmetry_equiv_pos_site_id
 _symmetry_equiv_pos_as_xyz
  1  'x, y, z'
loop_
 _atom_site_type_symbol
 _atom_site_label
 _atom_site_symmetry_multiplicity
 _atom_site_fract_x
 _atom_site_fract_y
 _atom_site_fract_z
 _atom_site_occupancy
  Al  Al0  1  0.59319000  0.59174000  0.49778000  1.0
  Al  Al1  1  0.34327000  0.58176000  0.50006000  1.0
  Al  Al2  1  0.57831000  0.34732000  0.50020000  1.0
  Al  Al3  1  0.07756000  0.06992000  0.99772000  1.0
  Al  Al4  1  0.08375000  0.31903000  0.99968000  1.0
  Al  Al5  1  0.32290000  0.08845000  0.99889000  1.0
  H  H6  1  0.39556000  0.44584000  0.20570000  1.0
  H  H7  1  0.86963000  0.48214000  0.21213000  1.0
  H  H8  1  0.51983000  0.72427000  0.20332000  1.0
  H  H9  1  0.20154000  0.54363000  0.27255000  1.0
  H  H10  1  0.52330000  0.70217000  0.28407000  1.0
  H  H11  1  0.27515000  0.00810000  0.30234000  1.0
  H  H12  1  0.43447000  0.91380000  0.29891000  1.0
  H  H13  1  0.42831000  0.94852000  0.21772000  1.0
  H  H14  1  0.26876000  0.04240000  0.22110000  1.0
  H  H15  1  0.19244000  0.76849000  0.28378000  1.0
  H  H16  1  0.13598000  0.92367000  0.29174000  1.0
  H  H17  1  0.99274000  0.15225000  0.29978000  1.0
  H  H18  1  0.19775000  0.79146000  0.20199000  1.0
  H  H19  1  0.42257000  0.66224000  0.19768000  1.0
  H  H20  1  0.53700000  0.25638000  0.26978000  1.0
  H  H21  1  0.13025000  0.94823000  0.20983000  1.0
  H  H22  1  0.51479000  0.21759000  0.79458000  1.0
  H  H23  1  0.53331000  0.24174000  0.71383000  1.0
  H  H24  1  0.22900000  0.26328000  0.69868000  1.0
  H  H25  1  0.38689000  0.16236000  0.70447000  1.0
  H  H26  1  0.35729000  0.15228000  0.78489000  1.0
  H  H27  1  0.20193000  0.26215000  0.78006000  1.0
  H  H28  1  0.01918000  0.14381000  0.21805000  1.0
  H  H29  1  0.24874000  0.54483000  0.71389000  1.0
  H  H30  1  0.14759000  0.48785000  0.70846000  1.0
  H  H31  1  0.24493000  0.52943000  0.79593000  1.0
  H  H32  1  0.44289000  0.11681000  0.23065000  1.0
  H  H33  1  0.47743000  0.39773000  0.72096000  1.0
  H  H34  1  0.47014000  0.37121000  0.80226000  1.0
  H  H35  1  0.13464000  0.48363000  0.79055000  1.0
  H  H36  1  0.75915000  0.52340000  0.79185000  1.0
  H  H37  1  0.72836000  0.52909000  0.71068000  1.0
  H  H38  1  0.01120000  0.23181000  0.69733000  1.0
  H  H39  1  0.04811000  0.26552000  0.22022000  1.0
  H  H40  1  0.95239000  0.38948000  0.69729000  1.0
  H  H41  1  0.98388000  0.38292000  0.77846000  1.0
  H  H42  1  0.04195000  0.22535000  0.77841000  1.0
  H  H43  1  0.71335000  0.24229000  0.71931000  1.0
  H  H44  1  0.24934000  0.21389000  0.29718000  1.0
  H  H45  1  0.87057000  0.14556000  0.71063000  1.0
  H  H46  1  0.74280000  0.23790000  0.80053000  1.0
  H  H47  1  0.62828000  0.47091000  0.71968000  1.0
  H  H48  1  0.65954000  0.46463000  0.80091000  1.0
  H  H49  1  0.89985000  0.13991000  0.79211000  1.0
  H  H50  1  0.69556000  0.51477000  0.28713000  1.0
  H  H51  1  0.22547000  0.77407000  0.80181000  1.0
  H  H52  1  0.21487000  0.75409000  0.72039000  1.0
  H  H53  1  0.27842000  0.00725000  0.69611000  1.0
  H  H54  1  0.16081000  0.97034000  0.70158000  1.0
  H  H55  1  0.15687000  0.99132000  0.78348000  1.0
  H  H56  1  0.10746000  0.40431000  0.23349000  1.0
  H  H57  1  0.26348000  0.04216000  0.77697000  1.0
  H  H58  1  0.53751000  0.69512000  0.71080000  1.0
  H  H59  1  0.49770000  0.84660000  0.69973000  1.0
  H  H60  1  0.53576000  0.72715000  0.79109000  1.0
  H  H61  1  0.84529000  0.48764000  0.29414000  1.0
  H  H62  1  0.36887000  0.63910000  0.72079000  1.0
  H  H63  1  0.38185000  0.66657000  0.80131000  1.0
  H  H64  1  0.80594000  0.18051000  0.20620000  1.0
  H  H65  1  0.77943000  0.18730000  0.28804000  1.0
  H  H66  1  0.01906000  0.27612000  0.30190000  1.0
  H  H67  1  0.35774000  0.59213000  0.27062000  1.0
  H  H68  1  0.51740000  0.51487000  0.26219000  1.0
  H  H69  1  0.45479000  0.56699000  0.31919000  1.0
  H  H70  1  0.72078000  0.50583000  0.20528000  1.0
  H  H71  1  0.65638000  0.33547000  0.28323000  1.0
  H  H72  1  0.68310000  0.32901000  0.20143000  1.0
  H  H73  1  0.66769000  0.71769000  0.52239000  1.0
  H  H74  1  0.98170000  0.96403000  0.02588000  1.0
  C  C75  1  0.38057000  0.71798000  0.43234000  1.0
  C  C76  1  0.34790000  0.35730000  0.34740000  1.0
  C  C77  1  0.75220000  0.27708000  0.27334000  1.0
  C  C78  1  0.38739000  0.39631000  0.43494000  1.0
  C  C79  1  0.96450000  0.24199000  0.28482000  1.0
  C  C80  1  0.98267000  0.23626000  0.23088000  1.0
  C  C81  1  0.90190000  0.30061000  0.11370000  1.0
  C  C82  1  0.82872000  0.32645000  0.29693000  1.0
  C  C83  1  0.76984000  0.27258000  0.21947000  1.0
  C  C84  1  0.85978000  0.31782000  0.20589000  1.0
  C  C85  1  0.80761000  0.44887000  0.22316000  1.0
  C  C86  1  0.36180000  0.37012000  0.38885000  1.0
  C  C87  1  0.79060000  0.45379000  0.27702000  1.0
  C  C88  1  0.88060000  0.31032000  0.15561000  1.0
  C  C89  1  0.80636000  0.33399000  0.34710000  1.0
  C  C90  1  0.72323000  0.37727000  0.43425000  1.0
  C  C91  1  0.77898000  0.34634000  0.38849000  1.0
  C  C92  1  0.43981000  0.70732000  0.27018000  1.0
  C  C93  1  0.34782000  0.92988000  0.28397000  1.0
  C  C94  1  0.34374000  0.95264000  0.23042000  1.0
  C  C95  1  0.31669000  0.89927000  0.11198000  1.0
  C  C96  1  0.33195000  0.81886000  0.29461000  1.0
  C  C97  1  0.20317000  0.37111000  0.24185000  1.0
  C  C98  1  0.43455000  0.73061000  0.21645000  1.0
  C  C99  1  0.32717000  0.85619000  0.20400000  1.0
  C  C100  1  0.20732000  0.86131000  0.22062000  1.0
  C  C101  1  0.20852000  0.84332000  0.27438000  1.0
  C  C102  1  0.37886000  0.71958000  0.56549000  1.0
  C  C103  1  0.32369000  0.87795000  0.15386000  1.0
  C  C104  1  0.33727000  0.79654000  0.34476000  1.0
  C  C105  1  0.34798000  0.77134000  0.38632000  1.0
  C  C106  1  0.45858000  0.32398000  0.72922000  1.0
  C  C107  1  0.31121000  0.24778000  0.71737000  1.0
  C  C108  1  0.31060000  0.31646000  0.20425000  1.0
  C  C109  1  0.29471000  0.24254000  0.77111000  1.0
  C  C110  1  0.29875000  0.30830000  0.88850000  1.0
  C  C111  1  0.33805000  0.35114000  0.70502000  1.0
  C  C112  1  0.44944000  0.30943000  0.78293000  1.0
  C  C113  1  0.31943000  0.33554000  0.79639000  1.0
  C  C114  1  0.38902000  0.39190000  0.56546000  1.0
  C  C115  1  0.22610000  0.46341000  0.77893000  1.0
  C  C116  1  0.23320000  0.47060000  0.72477000  1.0
  C  C117  1  0.30862000  0.32286000  0.84671000  1.0
  C  C118  1  0.35035000  0.36024000  0.65457000  1.0
  C  C119  1  0.28156000  0.26549000  0.27642000  1.0
  C  C120  1  0.36276000  0.36920000  0.61252000  1.0
  C  C121  1  0.71995000  0.45551000  0.72754000  1.0
  C  C122  1  0.94364000  0.31603000  0.71413000  1.0
  C  C123  1  0.96415000  0.31182000  0.76769000  1.0
  C  C124  1  0.89775000  0.31294000  0.88637000  1.0
  C  C125  1  0.81480000  0.33517000  0.70453000  1.0
  C  C126  1  0.71431000  0.38547000  0.56695000  1.0
  C  C127  1  0.74041000  0.45165000  0.78106000  1.0
  C  C128  1  0.84967000  0.32847000  0.79504000  1.0
  C  C129  1  0.82323000  0.22670000  0.78087000  1.0
  C  C130  1  0.33428000  0.34391000  0.29889000  1.0
  C  C131  1  0.80357000  0.23019000  0.72731000  1.0
  C  C132  1  0.87303000  0.32271000  0.84493000  1.0
  C  C133  1  0.79153000  0.34269000  0.65458000  1.0
  C  C134  1  0.76556000  0.35479000  0.61323000  1.0
  C  C135  1  0.30677000  0.73289000  0.73101000  1.0
  C  C136  1  0.25062000  0.94884000  0.71495000  1.0
  C  C137  1  0.24640000  0.96820000  0.76851000  1.0
  C  C138  1  0.25540000  0.44873000  0.26282000  1.0
  C  C139  1  0.32355000  0.90061000  0.88507000  1.0
  C  C140  1  0.34301000  0.81601000  0.70336000  1.0
  C  C141  1  0.38938000  0.21167000  0.24031000  1.0
  C  C142  1  0.31260000  0.74984000  0.78435000  1.0
  C  C143  1  0.34263000  0.85223000  0.79376000  1.0
  C  C144  1  0.47093000  0.80964000  0.77261000  1.0
  C  C145  1  0.47094000  0.78874000  0.71943000  1.0
  C  C146  1  0.33704000  0.87539000  0.84367000  1.0
  C  C147  1  0.34613000  0.79348000  0.65349000  1.0
  C  C148  1  0.35336000  0.76924000  0.61206000  1.0
  C  C149  1  0.94934000  0.27428000  0.06655000  1.0
  C  C150  1  0.36324000  0.39474000  0.22670000  1.0
  C  C151  1  0.26846000  0.27467000  0.06588000  1.0
  C  C152  1  0.44160000  0.28921000  0.26125000  1.0
  C  C153  1  0.29063000  0.94665000  0.06491000  1.0
  C  C154  1  0.94857000  0.28412000  0.93271000  1.0
  C  C155  1  0.27518000  0.27941000  0.93500000  1.0
  C  C156  1  0.29061000  0.95174000  0.93133000  1.0
  C  C157  1  0.29065000  0.29595000  0.11323000  1.0
  C  C158  1  0.44247000  0.58881000  0.28156000  1.0
  C  C159  1  0.29978000  0.30501000  0.15540000  1.0
  Cl  Cl160  1  0.52448000  0.91450000  0.78449000  1.0
  O  O161  1  0.70068000  0.47755000  0.45081000  1.0
  O  O162  1  0.34915000  0.17820000  0.04606000  1.0
  O  O163  1  0.36885000  0.97146000  0.04549000  1.0
  O  O164  1  0.48726000  0.68605000  0.44563000  1.0
  O  O165  1  0.18646000  0.97629000  0.94633000  1.0
  O  O166  1  0.97271000  0.18280000  0.94947000  1.0
  O  O167  1  0.96998000  0.36267000  0.95224000  1.0
  O  O168  1  0.17438000  0.35416000  0.95457000  1.0
  O  O169  1  0.35390000  0.17793000  0.95250000  1.0
  O  O170  1  0.36823000  0.97248000  0.95238000  1.0
  O  O171  1  0.16254000  0.16009000  0.99903000  1.0
  O  O172  1  0.31143000  0.49046000  0.54580000  1.0
  O  O173  1  0.30010000  0.70249000  0.45520000  1.0
  O  O174  1  0.31095000  0.49843000  0.45247000  1.0
  O  O175  1  0.48701000  0.31871000  0.45411000  1.0
  O  O176  1  0.69581000  0.30122000  0.45340000  1.0
  O  O177  1  0.68713000  0.48880000  0.55142000  1.0
  O  O178  1  0.47734000  0.70114000  0.54632000  1.0
  O  O179  1  0.30095000  0.69313000  0.54828000  1.0
  O  O180  1  0.49131000  0.31461000  0.54749000  1.0
  O  O181  1  0.69605000  0.30638000  0.54616000  1.0
  O  O182  1  0.50368000  0.50611000  0.49968000  1.0
  O  O183  1  0.19157000  0.96515000  0.04731000  1.0
  O  O184  1  0.97745000  0.17174000  0.05064000  1.0
  O  O185  1  0.96406000  0.35628000  0.04529000  1.0
  O  O186  1  0.16651000  0.35127000  0.04786000  1.0
  O  O187  1  0.67516000  0.66950000  0.49531000  1.0
  O  O188  1  0.00019000  0.98774000  0.99589000  1.0
