# generated using pymatgen
data_Cu3H12C18N15O
_symmetry_space_group_name_H-M   'P 1'
_cell_length_a   25.98320000
_cell_length_b   25.98311073
_cell_length_c   25.98327855
_cell_angle_alpha   59.99988634
_cell_angle_beta   59.99990000
_cell_angle_gamma   59.99985903
_symmetry_Int_Tables_number   1
_chemical_formula_structural   Cu3H12C18N15O
_chemical_formula_sum   'Cu24 H96 C144 N120 O8'
_cell_volume   12403.99457413
_cell_formula_units_Z   8
loop_
 _symmetry_equiv_pos_site_id
 _symmetry_equiv_pos_as_xyz
  1  'x, y, z'
loop_
 _atom_site_type_symbol
 _atom_site_label
 _atom_site_symmetry_multiplicity
 _atom_site_fract_x
 _atom_site_fract_y
 _atom_site_fract_z
 _atom_site_occupancy
  Cu  Cu0  1  0.25000000  0.67549000  0.74999000  1.0
  Cu  Cu1  1  0.67549000  0.25000000  0.82451000  1.0
  Cu  Cu2  1  0.82451000  0.75000000  0.67549000  1.0
  Cu  Cu3  1  0.75000000  0.82451000  0.25000000  1.0
  Cu  Cu4  1  0.67549000  0.75000000  0.25000000  1.0
  Cu  Cu5  1  0.24999000  0.82451000  0.67549000  1.0
  Cu  Cu6  1  0.75000000  0.67549000  0.82451000  1.0
  Cu  Cu7  1  0.82451000  0.25000000  0.75000000  1.0
  Cu  Cu8  1  0.75000000  0.25000000  0.67549000  1.0
  Cu  Cu9  1  0.82451000  0.67549000  0.25000000  1.0
  Cu  Cu10  1  0.67549000  0.82451000  0.75000000  1.0
  Cu  Cu11  1  0.25000000  0.75000000  0.82450000  1.0
  Cu  Cu12  1  0.74999000  0.32451000  0.25000000  1.0
  Cu  Cu13  1  0.32451000  0.75000000  0.17549000  1.0
  Cu  Cu14  1  0.17549000  0.25000000  0.32451000  1.0
  Cu  Cu15  1  0.25000000  0.17549000  0.75000000  1.0
  Cu  Cu16  1  0.32451000  0.25000000  0.75000000  1.0
  Cu  Cu17  1  0.75001000  0.17549000  0.32450000  1.0
  Cu  Cu18  1  0.25000000  0.32451000  0.17549000  1.0
  Cu  Cu19  1  0.17549000  0.75000000  0.25000000  1.0
  Cu  Cu20  1  0.25000000  0.75000000  0.32451000  1.0
  Cu  Cu21  1  0.17549000  0.32451000  0.75000000  1.0
  Cu  Cu22  1  0.32451000  0.17549000  0.25000000  1.0
  Cu  Cu23  1  0.75000000  0.25000000  0.17548000  1.0
  H  H24  1  0.26523000  0.83978000  0.45248000  1.0
  H  H25  1  0.26664000  0.83504000  0.35787000  1.0
  H  H26  1  0.83978000  0.26523000  0.94251000  1.0
  H  H27  1  0.83504000  0.26665000  0.04044000  1.0
  H  H28  1  0.94251000  0.45248000  0.83978000  1.0
  H  H29  1  0.04044000  0.35787000  0.83504000  1.0
  H  H30  1  0.45248000  0.94251000  0.26523000  1.0
  H  H31  1  0.35787000  0.04044000  0.26665000  1.0
  H  H32  1  0.83978000  0.45248000  0.26523000  1.0
  H  H33  1  0.83503000  0.35787000  0.26666000  1.0
  H  H34  1  0.26523000  0.94251000  0.83978000  1.0
  H  H35  1  0.26665000  0.04044000  0.83504000  1.0
  H  H36  1  0.45248000  0.83978000  0.94251000  1.0
  H  H37  1  0.35788000  0.83503000  0.04044000  1.0
  H  H38  1  0.94251000  0.26523000  0.45248000  1.0
  H  H39  1  0.04044000  0.26665000  0.35787000  1.0
  H  H40  1  0.45248000  0.26523000  0.83978000  1.0
  H  H41  1  0.35787000  0.26665000  0.83504000  1.0
  H  H42  1  0.94251000  0.83978000  0.26523000  1.0
  H  H43  1  0.04044000  0.83504000  0.26665000  1.0
  H  H44  1  0.83978000  0.94251000  0.45248000  1.0
  H  H45  1  0.83504000  0.04044000  0.35787000  1.0
  H  H46  1  0.26523000  0.45248000  0.94251000  1.0
  H  H47  1  0.26665000  0.35787000  0.04044000  1.0
  H  H48  1  0.23477000  0.66022000  0.55749000  1.0
  H  H49  1  0.23334000  0.66496000  0.45956000  1.0
  H  H50  1  0.66022000  0.23477000  0.04752000  1.0
  H  H51  1  0.66496000  0.23335000  0.14213000  1.0
  H  H52  1  0.55749000  0.04752000  0.23477000  1.0
  H  H53  1  0.45956000  0.14213000  0.23335000  1.0
  H  H54  1  0.04752000  0.55749000  0.66022000  1.0
  H  H55  1  0.14214000  0.45956000  0.66496000  1.0
  H  H56  1  0.66022000  0.04752000  0.55749000  1.0
  H  H57  1  0.66497000  0.14213000  0.45956000  1.0
  H  H58  1  0.23477000  0.55749000  0.04752000  1.0
  H  H59  1  0.23335000  0.45956000  0.14213000  1.0
  H  H60  1  0.04752000  0.66022000  0.23477000  1.0
  H  H61  1  0.14212000  0.66497000  0.23335000  1.0
  H  H62  1  0.55749000  0.23477000  0.66022000  1.0
  H  H63  1  0.45956000  0.23335000  0.66496000  1.0
  H  H64  1  0.04752000  0.23477000  0.55749000  1.0
  H  H65  1  0.14213000  0.23335000  0.45956000  1.0
  H  H66  1  0.55749000  0.66022000  0.04752000  1.0
  H  H67  1  0.45956000  0.66496000  0.14213000  1.0
  H  H68  1  0.66022000  0.55749000  0.23477000  1.0
  H  H69  1  0.66497000  0.45956000  0.23334000  1.0
  H  H70  1  0.23477000  0.04752000  0.66022000  1.0
  H  H71  1  0.23334000  0.14213000  0.66497000  1.0
  H  H72  1  0.73477000  0.16022000  0.54752000  1.0
  H  H73  1  0.73334000  0.16497000  0.64213000  1.0
  H  H74  1  0.16022000  0.73477000  0.05749000  1.0
  H  H75  1  0.16496000  0.73335000  0.95956000  1.0
  H  H76  1  0.05749000  0.54752000  0.16022000  1.0
  H  H77  1  0.95956000  0.64213000  0.16496000  1.0
  H  H78  1  0.54752000  0.05749000  0.73477000  1.0
  H  H79  1  0.64213000  0.95956000  0.73335000  1.0
  H  H80  1  0.16022000  0.54752000  0.73477000  1.0
  H  H81  1  0.16496000  0.64213000  0.73335000  1.0
  H  H82  1  0.73477000  0.05749000  0.16022000  1.0
  H  H83  1  0.73334000  0.95956000  0.16497000  1.0
  H  H84  1  0.54752000  0.16022000  0.05749000  1.0
  H  H85  1  0.64212000  0.16497000  0.95956000  1.0
  H  H86  1  0.05749000  0.73477000  0.54752000  1.0
  H  H87  1  0.95956000  0.73335000  0.64213000  1.0
  H  H88  1  0.54752000  0.73477000  0.16022000  1.0
  H  H89  1  0.64212000  0.73335000  0.16497000  1.0
  H  H90  1  0.05749000  0.16022000  0.73477000  1.0
  H  H91  1  0.95956000  0.16496000  0.73335000  1.0
  H  H92  1  0.16022000  0.05749000  0.54752000  1.0
  H  H93  1  0.16496000  0.95956000  0.64213000  1.0
  H  H94  1  0.73477000  0.54752000  0.05749000  1.0
  H  H95  1  0.73335000  0.64213000  0.95956000  1.0
  H  H96  1  0.76523000  0.33978000  0.44251000  1.0
  H  H97  1  0.76666000  0.33503000  0.54044000  1.0
  H  H98  1  0.33978000  0.76523000  0.95248000  1.0
  H  H99  1  0.33504000  0.76665000  0.85787000  1.0
  H  H100  1  0.44251000  0.95248000  0.76523000  1.0
  H  H101  1  0.54045000  0.85787000  0.76665000  1.0
  H  H102  1  0.95248000  0.44251000  0.33978000  1.0
  H  H103  1  0.85788000  0.54044000  0.33503000  1.0
  H  H104  1  0.33978000  0.95248000  0.44251000  1.0
  H  H105  1  0.33504000  0.85787000  0.54044000  1.0
  H  H106  1  0.76523000  0.44251000  0.95248000  1.0
  H  H107  1  0.76665000  0.54044000  0.85787000  1.0
  H  H108  1  0.95248000  0.33978000  0.76523000  1.0
  H  H109  1  0.85787000  0.33504000  0.76665000  1.0
  H  H110  1  0.44251000  0.76523000  0.33978000  1.0
  H  H111  1  0.54044000  0.76665000  0.33504000  1.0
  H  H112  1  0.95248000  0.76523000  0.44251000  1.0
  H  H113  1  0.85788000  0.76665000  0.54044000  1.0
  H  H114  1  0.44251000  0.33978000  0.95248000  1.0
  H  H115  1  0.54044000  0.33504000  0.85787000  1.0
  H  H116  1  0.33978000  0.44251000  0.76523000  1.0
  H  H117  1  0.33503000  0.54044000  0.76666000  1.0
  H  H118  1  0.76523000  0.95248000  0.33978000  1.0
  H  H119  1  0.76665000  0.85787000  0.33504000  1.0
  C  C120  1  0.25852000  0.80000000  0.45561000  1.0
  C  C121  1  0.25874000  0.79769000  0.40328000  1.0
  C  C122  1  0.79999000  0.25852000  0.98587000  1.0
  C  C123  1  0.79769000  0.25874000  0.04029000  1.0
  C  C124  1  0.98587000  0.45561000  0.80000000  1.0
  C  C125  1  0.04030000  0.40328000  0.79769000  1.0
  C  C126  1  0.45561000  0.98587000  0.25852000  1.0
  C  C127  1  0.40328000  0.04029000  0.25874000  1.0
  C  C128  1  0.79999000  0.45562000  0.25852000  1.0
  C  C129  1  0.79769000  0.40328000  0.25874000  1.0
  C  C130  1  0.25851000  0.98587000  0.80000000  1.0
  C  C131  1  0.25873000  0.04029000  0.79770000  1.0
  C  C132  1  0.45561000  0.80000000  0.98587000  1.0
  C  C133  1  0.40328000  0.79769000  0.04029000  1.0
  C  C134  1  0.98587000  0.25852000  0.45561000  1.0
  C  C135  1  0.04029000  0.25874000  0.40328000  1.0
  C  C136  1  0.45561000  0.25852000  0.80000000  1.0
  C  C137  1  0.40328000  0.25874000  0.79769000  1.0
  C  C138  1  0.98587000  0.80000000  0.25852000  1.0
  C  C139  1  0.04029000  0.79769000  0.25874000  1.0
  C  C140  1  0.79999000  0.98587000  0.45562000  1.0
  C  C141  1  0.79769000  0.04029000  0.40328000  1.0
  C  C142  1  0.25851000  0.45562000  0.98587000  1.0
  C  C143  1  0.25874000  0.40328000  0.04029000  1.0
  C  C144  1  0.24148000  0.70000000  0.51413000  1.0
  C  C145  1  0.24126000  0.70231000  0.45971000  1.0
  C  C146  1  0.70000000  0.24148000  0.04439000  1.0
  C  C147  1  0.70231000  0.24126000  0.09672000  1.0
  C  C148  1  0.51413000  0.04439000  0.24148000  1.0
  C  C149  1  0.45971000  0.09672000  0.24126000  1.0
  C  C150  1  0.04439000  0.51413000  0.70000000  1.0
  C  C151  1  0.09672000  0.45971000  0.70231000  1.0
  C  C152  1  0.70000000  0.04439000  0.51413000  1.0
  C  C153  1  0.70231000  0.09672000  0.45971000  1.0
  C  C154  1  0.24149000  0.51413000  0.04438000  1.0
  C  C155  1  0.24126000  0.45971000  0.09672000  1.0
  C  C156  1  0.04439000  0.70000000  0.24148000  1.0
  C  C157  1  0.09672000  0.70231000  0.24126000  1.0
  C  C158  1  0.51413000  0.24148000  0.70000000  1.0
  C  C159  1  0.45970000  0.24127000  0.70231000  1.0
  C  C160  1  0.04439000  0.24148000  0.51413000  1.0
  C  C161  1  0.09672000  0.24126000  0.45971000  1.0
  C  C162  1  0.51413000  0.70000000  0.04439000  1.0
  C  C163  1  0.45971000  0.70231000  0.09672000  1.0
  C  C164  1  0.70000000  0.51413000  0.24148000  1.0
  C  C165  1  0.70231000  0.45971000  0.24126000  1.0
  C  C166  1  0.24149000  0.04438000  0.70000000  1.0
  C  C167  1  0.24126000  0.09672000  0.70231000  1.0
  C  C168  1  0.74148000  0.20000000  0.54439000  1.0
  C  C169  1  0.74126000  0.20231000  0.59672000  1.0
  C  C170  1  0.20000000  0.74148000  0.01413000  1.0
  C  C171  1  0.20230000  0.74127000  0.95971000  1.0
  C  C172  1  0.01413000  0.54439000  0.20000000  1.0
  C  C173  1  0.95971000  0.59672000  0.20231000  1.0
  C  C174  1  0.54439000  0.01413000  0.74148000  1.0
  C  C175  1  0.59673000  0.95971000  0.74126000  1.0
  C  C176  1  0.20000000  0.54439000  0.74148000  1.0
  C  C177  1  0.20230000  0.59672000  0.74127000  1.0
  C  C178  1  0.74149000  0.01413000  0.20000000  1.0
  C  C179  1  0.74126000  0.95971000  0.20231000  1.0
  C  C180  1  0.54439000  0.20000000  0.01413000  1.0
  C  C181  1  0.59672000  0.20231000  0.95971000  1.0
  C  C182  1  0.01413000  0.74148000  0.54439000  1.0
  C  C183  1  0.95971000  0.74126000  0.59672000  1.0
  C  C184  1  0.54439000  0.74148000  0.20000000  1.0
  C  C185  1  0.59672000  0.74126000  0.20231000  1.0
  C  C186  1  0.01413000  0.20000000  0.74148000  1.0
  C  C187  1  0.95971000  0.20231000  0.74126000  1.0
  C  C188  1  0.20000000  0.01413000  0.54439000  1.0
  C  C189  1  0.20231000  0.95971000  0.59672000  1.0
  C  C190  1  0.74148000  0.54439000  0.01413000  1.0
  C  C191  1  0.74126000  0.59672000  0.95971000  1.0
  C  C192  1  0.75852000  0.30000000  0.48587000  1.0
  C  C193  1  0.75874000  0.29769000  0.54029000  1.0
  C  C194  1  0.29999000  0.75852000  0.95562000  1.0
  C  C195  1  0.29769000  0.75874000  0.90328000  1.0
  C  C196  1  0.48587000  0.95561000  0.75852000  1.0
  C  C197  1  0.54029000  0.90328000  0.75874000  1.0
  C  C198  1  0.95561000  0.48587000  0.30000000  1.0
  C  C199  1  0.90328000  0.54029000  0.29769000  1.0
  C  C200  1  0.30000000  0.95561000  0.48587000  1.0
  C  C201  1  0.29770000  0.90328000  0.54029000  1.0
  C  C202  1  0.75851000  0.48587000  0.95562000  1.0
  C  C203  1  0.75874000  0.54029000  0.90328000  1.0
  C  C204  1  0.95561000  0.30000000  0.75852000  1.0
  C  C205  1  0.90328000  0.29769000  0.75874000  1.0
  C  C206  1  0.48587000  0.75852000  0.30000000  1.0
  C  C207  1  0.54029000  0.75874000  0.29769000  1.0
  C  C208  1  0.95561000  0.75852000  0.48587000  1.0
  C  C209  1  0.90328000  0.75874000  0.54029000  1.0
  C  C210  1  0.48587000  0.30000000  0.95561000  1.0
  C  C211  1  0.54029000  0.29769000  0.90328000  1.0
  C  C212  1  0.30000000  0.48587000  0.75852000  1.0
  C  C213  1  0.29769000  0.54029000  0.75874000  1.0
  C  C214  1  0.75851000  0.95562000  0.30000000  1.0
  C  C215  1  0.75874000  0.90328000  0.29769000  1.0
  C  C216  1  0.25000000  0.75000000  0.56881000  1.0
  C  C217  1  0.25000000  0.75000000  0.51272000  1.0
  C  C218  1  0.75000000  0.25000000  0.93118000  1.0
  C  C219  1  0.75000000  0.25000000  0.98728000  1.0
  C  C220  1  0.93118000  0.56882000  0.75000000  1.0
  C  C221  1  0.98728000  0.51272000  0.75000000  1.0
  C  C222  1  0.56882000  0.93118000  0.25000000  1.0
  C  C223  1  0.51272000  0.98728000  0.25000000  1.0
  C  C224  1  0.75000000  0.56882000  0.25000000  1.0
  C  C225  1  0.75000000  0.51272000  0.25000000  1.0
  C  C226  1  0.25000000  0.93118000  0.75000000  1.0
  C  C227  1  0.25000000  0.98728000  0.75000000  1.0
  C  C228  1  0.56881000  0.75000000  0.93119000  1.0
  C  C229  1  0.51272000  0.75000000  0.98728000  1.0
  C  C230  1  0.93118000  0.25000000  0.56882000  1.0
  C  C231  1  0.98728000  0.25000000  0.51272000  1.0
  C  C232  1  0.56882000  0.25000000  0.75000000  1.0
  C  C233  1  0.51272000  0.25000000  0.75000000  1.0
  C  C234  1  0.93118000  0.75000000  0.25000000  1.0
  C  C235  1  0.98728000  0.75000000  0.25000000  1.0
  C  C236  1  0.75000000  0.93118000  0.56882000  1.0
  C  C237  1  0.75000000  0.98728000  0.51272000  1.0
  C  C238  1  0.25000000  0.56882000  0.93118000  1.0
  C  C239  1  0.25000000  0.51272000  0.98728000  1.0
  C  C240  1  0.75000000  0.25000000  0.43118000  1.0
  C  C241  1  0.75000000  0.25000000  0.48728000  1.0
  C  C242  1  0.25000000  0.75000000  0.06882000  1.0
  C  C243  1  0.25000000  0.75000000  0.01272000  1.0
  C  C244  1  0.06882000  0.43118000  0.25000000  1.0
  C  C245  1  0.01272000  0.48728000  0.25000000  1.0
  C  C246  1  0.43118000  0.06882000  0.75000000  1.0
  C  C247  1  0.48728000  0.01272000  0.75000000  1.0
  C  C248  1  0.25000000  0.43118000  0.75000000  1.0
  C  C249  1  0.25000000  0.48728000  0.75000000  1.0
  C  C250  1  0.75000000  0.06882000  0.25000000  1.0
  C  C251  1  0.75000000  0.01272000  0.25000000  1.0
  C  C252  1  0.43118000  0.25000000  0.06882000  1.0
  C  C253  1  0.48728000  0.25000000  0.01272000  1.0
  C  C254  1  0.06882000  0.75000000  0.43118000  1.0
  C  C255  1  0.01272000  0.75000000  0.48728000  1.0
  C  C256  1  0.43118000  0.75000000  0.25000000  1.0
  C  C257  1  0.48728000  0.75000000  0.25000000  1.0
  C  C258  1  0.06882000  0.25000000  0.75000000  1.0
  C  C259  1  0.01272000  0.25000000  0.75000000  1.0
  C  C260  1  0.25000000  0.06882000  0.43118000  1.0
  C  C261  1  0.25000000  0.01272000  0.48728000  1.0
  C  C262  1  0.75000000  0.43118000  0.06882000  1.0
  C  C263  1  0.75000000  0.48728000  0.01272000  1.0
  N  N264  1  0.24934000  0.72056000  0.66103000  1.0
  N  N265  1  0.24883000  0.70068000  0.62325000  1.0
  N  N266  1  0.72056000  0.24934000  0.86906000  1.0
  N  N267  1  0.70068000  0.24883000  0.92723000  1.0
  N  N268  1  0.86906000  0.66104000  0.72057000  1.0
  N  N269  1  0.92723000  0.62326000  0.70068000  1.0
  N  N270  1  0.66104000  0.86906000  0.24934000  1.0
  N  N271  1  0.62325000  0.92724000  0.24883000  1.0
  N  N272  1  0.72056000  0.66104000  0.24934000  1.0
  N  N273  1  0.70068000  0.62326000  0.24883000  1.0
  N  N274  1  0.24933000  0.86906000  0.72057000  1.0
  N  N275  1  0.24883000  0.92723000  0.70068000  1.0
  N  N276  1  0.66104000  0.72056000  0.86906000  1.0
  N  N277  1  0.62325000  0.70068000  0.92724000  1.0
  N  N278  1  0.86906000  0.24933000  0.66104000  1.0
  N  N279  1  0.92723000  0.24883000  0.62326000  1.0
  N  N280  1  0.66103000  0.24934000  0.72057000  1.0
  N  N281  1  0.62325000  0.24883000  0.70068000  1.0
  N  N282  1  0.86906000  0.72056000  0.24934000  1.0
  N  N283  1  0.92723000  0.70068000  0.24883000  1.0
  N  N284  1  0.72056000  0.86906000  0.66104000  1.0
  N  N285  1  0.70068000  0.92723000  0.62326000  1.0
  N  N286  1  0.24933000  0.66104000  0.86906000  1.0
  N  N287  1  0.24883000  0.62326000  0.92723000  1.0
  N  N288  1  0.25066000  0.77944000  0.63093000  1.0
  N  N289  1  0.25117000  0.79932000  0.57276000  1.0
  N  N290  1  0.77944000  0.25066000  0.83896000  1.0
  N  N291  1  0.79932000  0.25117000  0.87674000  1.0
  N  N292  1  0.63094000  0.83896000  0.25067000  1.0
  N  N293  1  0.57277000  0.87674000  0.25117000  1.0
  N  N294  1  0.83896000  0.63094000  0.77944000  1.0
  N  N295  1  0.87674000  0.57277000  0.79932000  1.0
  N  N296  1  0.77944000  0.83896000  0.63094000  1.0
  N  N297  1  0.79932000  0.87674000  0.57277000  1.0
  N  N298  1  0.25066000  0.63094000  0.83896000  1.0
  N  N299  1  0.25117000  0.57277000  0.87674000  1.0
  N  N300  1  0.83897000  0.77943000  0.25066000  1.0
  N  N301  1  0.87675000  0.79932000  0.25117000  1.0
  N  N302  1  0.63094000  0.25066000  0.77944000  1.0
  N  N303  1  0.57277000  0.25117000  0.79932000  1.0
  N  N304  1  0.83896000  0.25066000  0.63094000  1.0
  N  N305  1  0.87675000  0.25117000  0.57276000  1.0
  N  N306  1  0.63095000  0.77943000  0.83896000  1.0
  N  N307  1  0.57277000  0.79932000  0.87674000  1.0
  N  N308  1  0.77944000  0.63094000  0.25066000  1.0
  N  N309  1  0.79932000  0.57277000  0.25117000  1.0
  N  N310  1  0.25066000  0.83896000  0.77944000  1.0
  N  N311  1  0.25117000  0.87674000  0.79932000  1.0
  N  N312  1  0.75066000  0.27944000  0.33896000  1.0
  N  N313  1  0.75118000  0.29932000  0.37674000  1.0
  N  N314  1  0.27943000  0.75066000  0.13094000  1.0
  N  N315  1  0.29933000  0.75117000  0.07276000  1.0
  N  N316  1  0.13094000  0.33896000  0.27943000  1.0
  N  N317  1  0.07277000  0.37674000  0.29932000  1.0
  N  N318  1  0.33896000  0.13094000  0.75066000  1.0
  N  N319  1  0.37675000  0.07276000  0.75117000  1.0
  N  N320  1  0.27944000  0.33896000  0.75066000  1.0
  N  N321  1  0.29932000  0.37674000  0.75117000  1.0
  N  N322  1  0.75067000  0.13094000  0.27943000  1.0
  N  N323  1  0.75117000  0.07277000  0.29932000  1.0
  N  N324  1  0.33896000  0.27944000  0.13094000  1.0
  N  N325  1  0.37675000  0.29932000  0.07276000  1.0
  N  N326  1  0.13094000  0.75067000  0.33896000  1.0
  N  N327  1  0.07277000  0.75117000  0.37674000  1.0
  N  N328  1  0.33897000  0.75066000  0.27943000  1.0
  N  N329  1  0.37674000  0.75117000  0.29932000  1.0
  N  N330  1  0.13094000  0.27944000  0.75066000  1.0
  N  N331  1  0.07277000  0.29932000  0.75117000  1.0
  N  N332  1  0.27944000  0.13094000  0.33896000  1.0
  N  N333  1  0.29932000  0.07277000  0.37674000  1.0
  N  N334  1  0.75067000  0.33896000  0.13093000  1.0
  N  N335  1  0.75118000  0.37674000  0.07276000  1.0
  N  N336  1  0.74934000  0.22056000  0.36906000  1.0
  N  N337  1  0.74882000  0.20068000  0.42724000  1.0
  N  N338  1  0.22056000  0.74934000  0.16104000  1.0
  N  N339  1  0.20067000  0.74883000  0.12326000  1.0
  N  N340  1  0.36905000  0.16104000  0.74934000  1.0
  N  N341  1  0.42723000  0.12326000  0.74883000  1.0
  N  N342  1  0.16104000  0.36906000  0.22056000  1.0
  N  N343  1  0.12326000  0.42723000  0.20068000  1.0
  N  N344  1  0.22056000  0.16104000  0.36906000  1.0
  N  N345  1  0.20068000  0.12326000  0.42723000  1.0
  N  N346  1  0.74933000  0.36906000  0.16104000  1.0
  N  N347  1  0.74883000  0.42723000  0.12326000  1.0
  N  N348  1  0.16104000  0.22056000  0.74934000  1.0
  N  N349  1  0.12325000  0.20068000  0.74883000  1.0
  N  N350  1  0.36906000  0.74934000  0.22056000  1.0
  N  N351  1  0.42723000  0.74883000  0.20068000  1.0
  N  N352  1  0.16104000  0.74934000  0.36906000  1.0
  N  N353  1  0.12326000  0.74883000  0.42723000  1.0
  N  N354  1  0.36905000  0.22057000  0.16104000  1.0
  N  N355  1  0.42723000  0.20068000  0.12326000  1.0
  N  N356  1  0.22056000  0.36906000  0.74934000  1.0
  N  N357  1  0.20068000  0.42723000  0.74883000  1.0
  N  N358  1  0.74934000  0.16104000  0.22056000  1.0
  N  N359  1  0.74882000  0.12326000  0.20068000  1.0
  N  N360  1  0.25000000  0.75000000  0.40485000  1.0
  N  N361  1  0.75000000  0.25000000  0.09515000  1.0
  N  N362  1  0.09515000  0.40485000  0.75000000  1.0
  N  N363  1  0.40485000  0.09515000  0.25000000  1.0
  N  N364  1  0.75000000  0.40485000  0.25000000  1.0
  N  N365  1  0.25000000  0.09515000  0.75000000  1.0
  N  N366  1  0.40485000  0.75000000  0.09515000  1.0
  N  N367  1  0.09515000  0.25000000  0.40485000  1.0
  N  N368  1  0.40485000  0.25000000  0.75000000  1.0
  N  N369  1  0.09515000  0.75000000  0.25000000  1.0
  N  N370  1  0.75000000  0.09515000  0.40485000  1.0
  N  N371  1  0.25000000  0.40485000  0.09515000  1.0
  N  N372  1  0.75000000  0.25000000  0.59515000  1.0
  N  N373  1  0.25000000  0.75000000  0.90485000  1.0
  N  N374  1  0.90485000  0.59515000  0.25000000  1.0
  N  N375  1  0.59515000  0.90485000  0.75000000  1.0
  N  N376  1  0.25000000  0.59515000  0.75000000  1.0
  N  N377  1  0.75000000  0.90485000  0.25000000  1.0
  N  N378  1  0.59515000  0.25000000  0.90485000  1.0
  N  N379  1  0.90485000  0.75000000  0.59515000  1.0
  N  N380  1  0.59515000  0.75000000  0.25000000  1.0
  N  N381  1  0.90485000  0.25000000  0.75000000  1.0
  N  N382  1  0.25000000  0.90485000  0.59515000  1.0
  N  N383  1  0.75000000  0.59515000  0.90485000  1.0
  O  O384  1  0.25000000  0.75000000  0.75000000  1.0
  O  O385  1  0.75000000  0.25000000  0.75000000  1.0
  O  O386  1  0.75000000  0.75000000  0.75000000  1.0
  O  O387  1  0.75000000  0.75000000  0.25000000  1.0
  O  O388  1  0.75000000  0.25000000  0.25000000  1.0
  O  O389  1  0.25000000  0.75000000  0.25000000  1.0
  O  O390  1  0.25000000  0.25000000  0.25000000  1.0
  O  O391  1  0.25000000  0.25000000  0.75000000  1.0
