# generated using pymatgen
data_CuH5C7IN2O
_symmetry_space_group_name_H-M   'P 1'
_cell_length_a   4.14710000
_cell_length_b   7.91090000
_cell_length_c   12.72700000
_cell_angle_alpha   74.55680000
_cell_angle_beta   83.87960000
_cell_angle_gamma   80.02360000
_symmetry_Int_Tables_number   1
_chemical_formula_structural   CuH5C7IN2O
_chemical_formula_sum   'Cu2 H10 C14 I2 N4 O2'
_cell_volume   395.57218903
_cell_formula_units_Z   2
loop_
 _symmetry_equiv_pos_site_id
 _symmetry_equiv_pos_as_xyz
  1  'x, y, z'
loop_
 _atom_site_type_symbol
 _atom_site_label
 _atom_site_symmetry_multiplicity
 _atom_site_fract_x
 _atom_site_fract_y
 _atom_site_fract_z
 _atom_site_occupancy
  Cu  Cu0  1  0.28192000  0.88945000  0.02726000  1.0
  Cu  Cu1  1  0.71811000  0.11055000  0.97274000  1.0
  H  H2  1  0.61476000  0.51470000  0.12950000  1.0
  H  H3  1  0.38525000  0.48530000  0.87051000  1.0
  H  H4  1  0.80978000  0.65012000  0.41508000  1.0
  H  H5  1  0.19020000  0.34989000  0.58492000  1.0
  H  H6  1  0.87962000  0.87631000  0.23370000  1.0
  H  H7  1  0.12038000  0.12370000  0.76630000  1.0
  H  H8  1  0.77441000  0.25592000  0.50080000  1.0
  H  H9  1  0.22559000  0.74408000  0.49920000  1.0
  H  H10  1  0.29041000  0.98733000  0.32642000  1.0
  H  H11  1  0.70959000  0.01267000  0.67358000  1.0
  C  C12  1  0.43228000  0.54582000  0.19276000  1.0
  C  C13  1  0.56771000  0.45418000  0.80725000  1.0
  C  C14  1  0.38593000  0.42189000  0.29350000  1.0
  C  C15  1  0.61406000  0.57811000  0.70650000  1.0
  C  C16  1  0.98741000  0.62007000  0.35035000  1.0
  C  C17  1  0.01259000  0.37993000  0.64965000  1.0
  C  C18  1  0.02629000  0.74480000  0.25202000  1.0
  C  C19  1  0.97370000  0.25520000  0.74798000  1.0
  C  C20  1  0.64992000  0.14495000  0.50215000  1.0
  C  C21  1  0.35008000  0.85505000  0.49785000  1.0
  C  C22  1  0.53172000  0.13278000  0.40649000  1.0
  C  C23  1  0.46828000  0.86722000  0.59351000  1.0
  C  C24  1  0.38300000  0.98979000  0.40291000  1.0
  C  C25  1  0.61700000  0.01021000  0.59709000  1.0
  I  I26  1  0.83822000  0.80271000  0.92113000  1.0
  I  I27  1  0.16178000  0.19728000  0.07887000  1.0
  N  N28  1  0.25212000  0.70698000  0.17322000  1.0
  N  N29  1  0.74789000  0.29302000  0.82678000  1.0
  N  N30  1  0.16805000  0.45743000  0.37198000  1.0
  N  N31  1  0.83193000  0.54257000  0.62802000  1.0
  O  O32  1  0.57762000  0.26097000  0.30820000  1.0
  O  O33  1  0.42237000  0.73903000  0.69180000  1.0
