# generated using pymatgen
data_AlH6C9O7
_symmetry_space_group_name_H-M   'P 1'
_cell_length_a   6.63913000
_cell_length_b   8.75502000
_cell_length_c   15.37870000
_cell_angle_alpha   77.27030000
_cell_angle_beta   78.03860000
_cell_angle_gamma   75.86940000
_symmetry_Int_Tables_number   1
_chemical_formula_structural   AlH6C9O7
_chemical_formula_sum   'Al2 H12 C18 O14'
_cell_volume   834.34198561
_cell_formula_units_Z   2
loop_
 _symmetry_equiv_pos_site_id
 _symmetry_equiv_pos_as_xyz
  1  'x, y, z'
loop_
 _atom_site_type_symbol
 _atom_site_label
 _atom_site_symmetry_multiplicity
 _atom_site_fract_x
 _atom_site_fract_y
 _atom_site_fract_z
 _atom_site_occupancy
  Al  Al0  1  0.49980000  0.50023000  0.49997000  1.0
  Al  Al1  1  0.99986000  0.50015000  0.49999000  1.0
  H  H2  1  0.23537000  0.38748000  0.60920000  1.0
  H  H3  1  0.76467000  0.61207000  0.39066000  1.0
  H  H4  1  0.10730000  0.40434000  0.23761000  1.0
  H  H5  1  0.89571000  0.59176000  0.76275000  1.0
  H  H6  1  0.34198000  0.41113000  0.77817000  1.0
  H  H7  1  0.26387000  0.40770000  0.94083000  1.0
  H  H8  1  0.65404000  0.59414000  0.22137000  1.0
  H  H9  1  0.73216000  0.59763000  0.05877000  1.0
  H  H10  1  0.19266000  0.13526000  0.52231000  1.0
  H  H11  1  0.80696000  0.86510000  0.47760000  1.0
  H  H12  1  0.04408000  0.36040000  0.11623000  1.0
  H  H13  1  0.96155000  0.63259000  0.88446000  1.0
  C  C14  1  0.67885000  0.49823000  0.66068000  1.0
  C  C15  1  0.83229000  0.21381000  0.50205000  1.0
  C  C16  1  0.32067000  0.50224000  0.33929000  1.0
  C  C17  1  0.16728000  0.78654000  0.49790000  1.0
  C  C18  1  0.10096000  0.95766000  0.50486000  1.0
  C  C19  1  0.89864000  0.04274000  0.49503000  1.0
  C  C20  1  0.37443000  0.49925000  0.24090000  1.0
  C  C21  1  0.62506000  0.50141000  0.75905000  1.0
  C  C22  1  0.24651000  0.44610000  0.19770000  1.0
  C  C23  1  0.29351000  0.44255000  0.10523000  1.0
  C  C24  1  0.75505000  0.55192000  0.80248000  1.0
  C  C25  1  0.70864000  0.55499000  0.89504000  1.0
  C  C26  1  0.44493000  0.45210000  0.81064000  1.0
  C  C27  1  0.40118000  0.45146000  0.90288000  1.0
  C  C28  1  0.55273000  0.55105000  0.18911000  1.0
  C  C29  1  0.59658000  0.55169000  0.09687000  1.0
  C  C30  1  0.47232000  0.49808000  0.04961000  1.0
  C  C31  1  0.52776000  0.50214000  0.95041000  1.0
  O  O32  1  0.53975000  0.47279000  0.62270000  1.0
  O  O33  1  0.97117000  0.28056000  0.51869000  1.0
  O  O34  1  0.13811000  0.48114000  0.37909000  1.0
  O  O35  1  0.35415000  0.71630000  0.50747000  1.0
  O  O36  1  0.45978000  0.52771000  0.37727000  1.0
  O  O37  1  0.02835000  0.71977000  0.48129000  1.0
  O  O38  1  0.86152000  0.51903000  0.62089000  1.0
  O  O39  1  0.64543000  0.28409000  0.49250000  1.0
  O  O40  1  0.25207000  0.42451000  0.54441000  1.0
  O  O41  1  0.74763000  0.57581000  0.45552000  1.0
  O  O42  1  0.25398000  0.01982000  0.52090000  1.0
  O  O43  1  0.74564000  0.98053000  0.47902000  1.0
  O  O44  1  0.16150000  0.38398000  0.06925000  1.0
  O  O45  1  0.84348000  0.61008000  0.93136000  1.0
