# generated using pymatgen
data_HoH7C11N3O7
_symmetry_space_group_name_H-M   'P 1'
_cell_length_a   8.19479000
_cell_length_b   11.51800000
_cell_length_c   14.65370000
_cell_angle_alpha   90.00000000
_cell_angle_beta   89.99990000
_cell_angle_gamma   91.84710000
_symmetry_Int_Tables_number   1
_chemical_formula_structural   HoH7C11N3O7
_chemical_formula_sum   'Ho4 H28 C44 N12 O28'
_cell_volume   1382.40877442
_cell_formula_units_Z   4
loop_
 _symmetry_equiv_pos_site_id
 _symmetry_equiv_pos_as_xyz
  1  'x, y, z'
loop_
 _atom_site_type_symbol
 _atom_site_label
 _atom_site_symmetry_multiplicity
 _atom_site_fract_x
 _atom_site_fract_y
 _atom_site_fract_z
 _atom_site_occupancy
  Ho  Ho0  1  0.77408000  0.42670000  0.86838000  1.0
  Ho  Ho1  1  0.22591000  0.07330000  0.36838000  1.0
  Ho  Ho2  1  0.22591000  0.57330000  0.13163000  1.0
  Ho  Ho3  1  0.77409000  0.92670000  0.63162000  1.0
  H  H4  1  0.25210000  0.48412000  0.82176000  1.0
  H  H5  1  0.74790000  0.01588000  0.32176000  1.0
  H  H6  1  0.74789000  0.51589000  0.17824000  1.0
  H  H7  1  0.25211000  0.98411000  0.67824000  1.0
  H  H8  1  0.41507000  0.67170000  0.83343000  1.0
  H  H9  1  0.58493000  0.82830000  0.33343000  1.0
  H  H10  1  0.58493000  0.32831000  0.16657000  1.0
  H  H11  1  0.41507000  0.17169000  0.66657000  1.0
  H  H12  1  0.25101000  0.78155000  0.58105000  1.0
  H  H13  1  0.74899000  0.71845000  0.08106000  1.0
  H  H14  1  0.74900000  0.21845000  0.41893000  1.0
  H  H15  1  0.25101000  0.28154000  0.91894000  1.0
  H  H16  1  0.08277000  0.59986000  0.55880000  1.0
  H  H17  1  0.91724000  0.90014000  0.05881000  1.0
  H  H18  1  0.91724000  0.40015000  0.44119000  1.0
  H  H19  1  0.08277000  0.09985000  0.94119000  1.0
  H  H20  1  0.16718000  0.34970000  0.55576000  1.0
  H  H21  1  0.83282000  0.15030000  0.05576000  1.0
  H  H22  1  0.83282000  0.65029000  0.44424000  1.0
  H  H23  1  0.16719000  0.84970000  0.94424000  1.0
  H  H24  1  0.53892000  0.46333000  0.72545000  1.0
  H  H25  1  0.46108000  0.03667000  0.22545000  1.0
  H  H26  1  0.46109000  0.53667000  0.27455000  1.0
  H  H27  1  0.53891000  0.96333000  0.77455000  1.0
  H  H28  1  0.46902000  0.34052000  0.77274000  1.0
  H  H29  1  0.53098000  0.15948000  0.27274000  1.0
  H  H30  1  0.53098000  0.65948000  0.22726000  1.0
  H  H31  1  0.46902000  0.84053000  0.72726000  1.0
  C  C32  1  0.24923000  0.54807000  0.76734000  1.0
  C  C33  1  0.75077000  0.95193000  0.26734000  1.0
  C  C34  1  0.75076000  0.45193000  0.23266000  1.0
  C  C35  1  0.24924000  0.04806000  0.73266000  1.0
  C  C36  1  0.33807000  0.65261000  0.77409000  1.0
  C  C37  1  0.66193000  0.84740000  0.27410000  1.0
  C  C38  1  0.66193000  0.34740000  0.22590000  1.0
  C  C39  1  0.33807000  0.15260000  0.72590000  1.0
  C  C40  1  0.24748000  0.71412000  0.63334000  1.0
  C  C41  1  0.75252000  0.78588000  0.13334000  1.0
  C  C42  1  0.75252000  0.28588000  0.36665000  1.0
  C  C43  1  0.24749000  0.21411000  0.86666000  1.0
  C  C44  1  0.15558000  0.61143000  0.62051000  1.0
  C  C45  1  0.84443000  0.88857000  0.12051000  1.0
  C  C46  1  0.84442000  0.38857000  0.37948000  1.0
  C  C47  1  0.15558000  0.11143000  0.87948000  1.0
  C  C48  1  0.15478000  0.52662000  0.68903000  1.0
  C  C49  1  0.84522000  0.97339000  0.18903000  1.0
  C  C50  1  0.84522000  0.47339000  0.31097000  1.0
  C  C51  1  0.15479000  0.02661000  0.81097000  1.0
  C  C52  1  0.06483000  0.41496000  0.68007000  1.0
  C  C53  1  0.93517000  0.08504000  0.18008000  1.0
  C  C54  1  0.93516000  0.58504000  0.31993000  1.0
  C  C55  1  0.06484000  0.91496000  0.81993000  1.0
  C  C56  1  0.00356000  0.23774000  0.62604000  1.0
  C  C57  1  0.99644000  0.26227000  0.12604000  1.0
  C  C58  1  0.99644000  0.76226000  0.37396000  1.0
  C  C59  1  0.00356000  0.73774000  0.87396000  1.0
  C  C60  1  0.92371000  0.25477000  0.70849000  1.0
  C  C61  1  0.07629000  0.24523000  0.20849000  1.0
  C  C62  1  0.07629000  0.74523000  0.29152000  1.0
  C  C63  1  0.92371000  0.75477000  0.79151000  1.0
  C  C64  1  0.80890000  0.18028000  0.76399000  1.0
  C  C65  1  0.19110000  0.31972000  0.26399000  1.0
  C  C66  1  0.19111000  0.81972000  0.23602000  1.0
  C  C67  1  0.80889000  0.68028000  0.73602000  1.0
  C  C68  1  0.03915000  0.13711000  0.56708000  1.0
  C  C69  1  0.96085000  0.36289000  0.06708000  1.0
  C  C70  1  0.96086000  0.86289000  0.43292000  1.0
  C  C71  1  0.03914000  0.63710000  0.93292000  1.0
  C  C72  1  0.46443000  0.43684000  0.00020000  1.0
  C  C73  1  0.53556000  0.06316000  0.50020000  1.0
  C  C74  1  0.53555000  0.56316000  0.99979000  1.0
  C  C75  1  0.46444000  0.93684000  0.49979000  1.0
  N  N76  1  0.96365000  0.36468000  0.74090000  1.0
  N  N77  1  0.03636000  0.13532000  0.24090000  1.0
  N  N78  1  0.03636000  0.63532000  0.25910000  1.0
  N  N79  1  0.96365000  0.86468000  0.75910000  1.0
  N  N80  1  0.08758000  0.34104000  0.60905000  1.0
  N  N81  1  0.91242000  0.15896000  0.10906000  1.0
  N  N82  1  0.91242000  0.65896000  0.39095000  1.0
  N  N83  1  0.08758000  0.84104000  0.89095000  1.0
  N  N84  1  0.33640000  0.73469000  0.70895000  1.0
  N  N85  1  0.66360000  0.76531000  0.20896000  1.0
  N  N86  1  0.66360000  0.26531000  0.29104000  1.0
  N  N87  1  0.33640000  0.23469000  0.79104000  1.0
  O  O88  1  0.76073000  0.22587000  0.83785000  1.0
  O  O89  1  0.23927000  0.27414000  0.33785000  1.0
  O  O90  1  0.23927000  0.77414000  0.16216000  1.0
  O  O91  1  0.76072000  0.72587000  0.66216000  1.0
  O  O92  1  0.76613000  0.07927000  0.73724000  1.0
  O  O93  1  0.23386000  0.42073000  0.23724000  1.0
  O  O94  1  0.23387000  0.92073000  0.26277000  1.0
  O  O95  1  0.76614000  0.57927000  0.76277000  1.0
  O  O96  1  0.99965000  0.03590000  0.59376000  1.0
  O  O97  1  0.00035000  0.46410000  0.09376000  1.0
  O  O98  1  0.00035000  0.96409000  0.40625000  1.0
  O  O99  1  0.99964000  0.53590000  0.90625000  1.0
  O  O100  1  0.12158000  0.16322000  0.49609000  1.0
  O  O101  1  0.87841000  0.33678000  0.99610000  1.0
  O  O102  1  0.87843000  0.83677000  0.50392000  1.0
  O  O103  1  0.12157000  0.66322000  0.00392000  1.0
  O  O104  1  0.54012000  0.36310000  0.95420000  1.0
  O  O105  1  0.45987000  0.13690000  0.45420000  1.0
  O  O106  1  0.45986000  0.63691000  0.04579000  1.0
  O  O107  1  0.54013000  0.86309000  0.54580000  1.0
  O  O108  1  0.33543000  0.41861000  0.04679000  1.0
  O  O109  1  0.66457000  0.08139000  0.54680000  1.0
  O  O110  1  0.66455000  0.58140000  0.95320000  1.0
  O  O111  1  0.33544000  0.91861000  0.45320000  1.0
  O  O112  1  0.56809000  0.39494000  0.75986000  1.0
  O  O113  1  0.43191000  0.10506000  0.25986000  1.0
  O  O114  1  0.43191000  0.60506000  0.24014000  1.0
  O  O115  1  0.56809000  0.89494000  0.74014000  1.0
