# generated using pymatgen
data_ZnH10(C7N2)2
_symmetry_space_group_name_H-M   'P 1'
_cell_length_a   14.20960000
_cell_length_b   14.20960000
_cell_length_c   14.20960000
_cell_angle_alpha   107.19700000
_cell_angle_beta   107.19700000
_cell_angle_gamma   107.19700000
_symmetry_Int_Tables_number   1
_chemical_formula_structural   ZnH10(C7N2)2
_chemical_formula_sum   'Zn6 H60 C84 N24'
_cell_volume   2376.45576024
_cell_formula_units_Z   6
loop_
 _symmetry_equiv_pos_site_id
 _symmetry_equiv_pos_as_xyz
  1  'x, y, z'
loop_
 _atom_site_type_symbol
 _atom_site_label
 _atom_site_symmetry_multiplicity
 _atom_site_fract_x
 _atom_site_fract_y
 _atom_site_fract_z
 _atom_site_occupancy
  Zn  Zn0  1  0.25151000  0.71956000  0.97788000  1.0
  Zn  Zn1  1  0.71956000  0.97788000  0.25151000  1.0
  Zn  Zn2  1  0.97788000  0.25151000  0.71956000  1.0
  Zn  Zn3  1  0.74849000  0.28044000  0.02212000  1.0
  Zn  Zn4  1  0.28044000  0.02212000  0.74849000  1.0
  Zn  Zn5  1  0.02212000  0.74849000  0.28044000  1.0
  H  H6  1  0.48822000  0.90125000  0.07950000  1.0
  H  H7  1  0.90125000  0.07950000  0.48822000  1.0
  H  H8  1  0.07950000  0.48822000  0.90125000  1.0
  H  H9  1  0.51178000  0.09875000  0.92050000  1.0
  H  H10  1  0.09875000  0.92050000  0.51178000  1.0
  H  H11  1  0.92050000  0.51178000  0.09875000  1.0
  H  H12  1  0.28057000  0.57399000  0.12158000  1.0
  H  H13  1  0.57399000  0.12158000  0.28057000  1.0
  H  H14  1  0.12157000  0.28057000  0.57399000  1.0
  H  H15  1  0.71943000  0.42601000  0.87843000  1.0
  H  H16  1  0.42601000  0.87843000  0.71943000  1.0
  H  H17  1  0.87843000  0.71943000  0.42601000  1.0
  H  H18  1  0.38040000  0.52108000  0.25746000  1.0
  H  H19  1  0.52108000  0.25746000  0.38040000  1.0
  H  H20  1  0.25746000  0.38039000  0.52108000  1.0
  H  H21  1  0.61961000  0.47892000  0.74254000  1.0
  H  H22  1  0.47892000  0.74254000  0.61960000  1.0
  H  H23  1  0.74254000  0.61960000  0.47892000  1.0
  H  H24  1  0.57750000  0.62731000  0.37226000  1.0
  H  H25  1  0.62731000  0.37226000  0.57750000  1.0
  H  H26  1  0.37226000  0.57749000  0.62731000  1.0
  H  H27  1  0.42251000  0.37269000  0.62774000  1.0
  H  H28  1  0.37269000  0.62774000  0.42250000  1.0
  H  H29  1  0.62774000  0.42250000  0.37269000  1.0
  H  H30  1  0.68284000  0.79175000  0.35663000  1.0
  H  H31  1  0.79176000  0.35663000  0.68284000  1.0
  H  H32  1  0.35663000  0.68284000  0.79175000  1.0
  H  H33  1  0.31716000  0.20825000  0.64337000  1.0
  H  H34  1  0.20824000  0.64337000  0.31716000  1.0
  H  H35  1  0.64337000  0.31716000  0.20825000  1.0
  H  H36  1  0.25291000  0.79673000  0.77675000  1.0
  H  H37  1  0.79673000  0.77675000  0.25291000  1.0
  H  H38  1  0.77675000  0.25291000  0.79673000  1.0
  H  H39  1  0.74709000  0.20327000  0.22325000  1.0
  H  H40  1  0.20327000  0.22325000  0.74709000  1.0
  H  H41  1  0.22325000  0.74709000  0.20327000  1.0
  H  H42  1  0.34617000  0.18950000  0.98865000  1.0
  H  H43  1  0.18950000  0.98865000  0.34616000  1.0
  H  H44  1  0.98865000  0.34616000  0.18950000  1.0
  H  H45  1  0.65384000  0.81050000  0.01136000  1.0
  H  H46  1  0.81050000  0.01135000  0.65384000  1.0
  H  H47  1  0.01135000  0.65384000  0.81050000  1.0
  H  H48  1  0.30281000  0.92864000  0.16528000  1.0
  H  H49  1  0.92863000  0.16527000  0.30281000  1.0
  H  H50  1  0.16527000  0.30281000  0.92863000  1.0
  H  H51  1  0.69719000  0.07136000  0.83472000  1.0
  H  H52  1  0.07137000  0.83473000  0.69719000  1.0
  H  H53  1  0.83473000  0.69719000  0.07137000  1.0
  H  H54  1  0.37083000  0.25158000  0.18118000  1.0
  H  H55  1  0.25158000  0.18118000  0.37083000  1.0
  H  H56  1  0.18118000  0.37083000  0.25158000  1.0
  H  H57  1  0.62917000  0.74842000  0.81882000  1.0
  H  H58  1  0.74842000  0.81882000  0.62917000  1.0
  H  H59  1  0.81882000  0.62917000  0.74842000  1.0
  H  H60  1  0.34717000  0.12277000  0.26683000  1.0
  H  H61  1  0.12276000  0.26683000  0.34716000  1.0
  H  H62  1  0.26683000  0.34717000  0.12276000  1.0
  H  H63  1  0.65283000  0.87723000  0.73317000  1.0
  H  H64  1  0.87724000  0.73317000  0.65284000  1.0
  H  H65  1  0.73317000  0.65283000  0.87724000  1.0
  C  C66  1  0.48649000  0.84668000  0.11943000  1.0
  C  C67  1  0.84668000  0.11943000  0.48649000  1.0
  C  C68  1  0.11943000  0.48650000  0.84668000  1.0
  C  C69  1  0.51350000  0.15332000  0.88057000  1.0
  C  C70  1  0.15332000  0.88057000  0.51350000  1.0
  C  C71  1  0.88057000  0.51350000  0.15332000  1.0
  C  C72  1  0.42690000  0.71344000  0.16246000  1.0
  C  C73  1  0.71344000  0.16246000  0.42690000  1.0
  C  C74  1  0.16246000  0.42690000  0.71344000  1.0
  C  C75  1  0.57310000  0.28656000  0.83754000  1.0
  C  C76  1  0.28656000  0.83754000  0.57310000  1.0
  C  C77  1  0.83754000  0.57310000  0.28656000  1.0
  C  C78  1  0.36741000  0.62162000  0.17211000  1.0
  C  C79  1  0.62162000  0.17211000  0.36741000  1.0
  C  C80  1  0.17211000  0.36741000  0.62162000  1.0
  C  C81  1  0.63259000  0.37838000  0.82789000  1.0
  C  C82  1  0.37838000  0.82789000  0.63259000  1.0
  C  C83  1  0.82789000  0.63259000  0.37838000  1.0
  C  C84  1  0.42412000  0.59260000  0.24838000  1.0
  C  C85  1  0.59261000  0.24838000  0.42413000  1.0
  C  C86  1  0.24838000  0.42412000  0.59260000  1.0
  C  C87  1  0.57588000  0.40740000  0.75162000  1.0
  C  C88  1  0.40740000  0.75162000  0.57588000  1.0
  C  C89  1  0.75162000  0.57587000  0.40740000  1.0
  C  C90  1  0.53631000  0.65325000  0.31400000  1.0
  C  C91  1  0.65326000  0.31401000  0.53631000  1.0
  C  C92  1  0.31400000  0.53630000  0.65325000  1.0
  C  C93  1  0.46370000  0.34675000  0.68600000  1.0
  C  C94  1  0.34674000  0.68600000  0.46369000  1.0
  C  C95  1  0.68600000  0.46369000  0.34675000  1.0
  C  C96  1  0.54034000  0.77407000  0.22775000  1.0
  C  C97  1  0.77407000  0.22775000  0.54034000  1.0
  C  C98  1  0.22775000  0.54034000  0.77407000  1.0
  C  C99  1  0.45966000  0.22593000  0.77225000  1.0
  C  C100  1  0.22593000  0.77225000  0.45966000  1.0
  C  C101  1  0.77225000  0.45966000  0.22593000  1.0
  C  C102  1  0.59614000  0.74481000  0.30506000  1.0
  C  C103  1  0.74482000  0.30507000  0.59614000  1.0
  C  C104  1  0.30507000  0.59614000  0.74481000  1.0
  C  C105  1  0.40386000  0.25518000  0.69493000  1.0
  C  C106  1  0.25519000  0.69493000  0.40386000  1.0
  C  C107  1  0.69493000  0.40386000  0.25519000  1.0
  C  C108  1  0.27102000  0.86227000  0.85191000  1.0
  C  C109  1  0.86227000  0.85191000  0.27102000  1.0
  C  C110  1  0.85191000  0.27102000  0.86227000  1.0
  C  C111  1  0.72898000  0.13773000  0.14808000  1.0
  C  C112  1  0.13773000  0.14809000  0.72898000  1.0
  C  C113  1  0.14809000  0.72898000  0.13773000  1.0
  C  C114  1  0.31069000  0.02299000  0.96885000  1.0
  C  C115  1  0.02299000  0.96884000  0.31069000  1.0
  C  C116  1  0.96884000  0.31069000  0.02299000  1.0
  C  C117  1  0.68931000  0.97701000  0.03115000  1.0
  C  C118  1  0.97701000  0.03116000  0.68931000  1.0
  C  C119  1  0.03116000  0.68931000  0.97701000  1.0
  C  C120  1  0.33690000  0.13279000  0.02639000  1.0
  C  C121  1  0.13279000  0.02639000  0.33690000  1.0
  C  C122  1  0.02639000  0.33690000  0.13279000  1.0
  C  C123  1  0.66310000  0.86721000  0.97361000  1.0
  C  C124  1  0.86721000  0.97361000  0.66310000  1.0
  C  C125  1  0.97361000  0.66310000  0.86721000  1.0
  C  C126  1  0.29886000  0.94981000  0.01866000  1.0
  C  C127  1  0.94981000  0.01866000  0.29886000  1.0
  C  C128  1  0.01866000  0.29885000  0.94981000  1.0
  C  C129  1  0.70114000  0.05019000  0.98134000  1.0
  C  C130  1  0.05019000  0.98134000  0.70114000  1.0
  C  C131  1  0.98134000  0.70114000  0.05020000  1.0
  C  C132  1  0.31217000  0.98456000  0.12672000  1.0
  C  C133  1  0.98455000  0.12672000  0.31217000  1.0
  C  C134  1  0.12672000  0.31217000  0.98455000  1.0
  C  C135  1  0.68783000  0.01544000  0.87328000  1.0
  C  C136  1  0.01545000  0.87328000  0.68783000  1.0
  C  C137  1  0.87328000  0.68783000  0.01545000  1.0
  C  C138  1  0.35025000  0.16662000  0.13388000  1.0
  C  C139  1  0.16662000  0.13388000  0.35025000  1.0
  C  C140  1  0.13388000  0.35025000  0.16662000  1.0
  C  C141  1  0.64975000  0.83338000  0.86612000  1.0
  C  C142  1  0.83338000  0.86612000  0.64975000  1.0
  C  C143  1  0.86612000  0.64975000  0.83338000  1.0
  C  C144  1  0.33744000  0.09356000  0.18299000  1.0
  C  C145  1  0.09355000  0.18298000  0.33743000  1.0
  C  C146  1  0.18298000  0.33743000  0.09355000  1.0
  C  C147  1  0.66257000  0.90645000  0.81701000  1.0
  C  C148  1  0.90645000  0.81702000  0.66257000  1.0
  C  C149  1  0.81702000  0.66257000  0.90645000  1.0
  N  N150  1  0.39525000  0.76223000  0.09488000  1.0
  N  N151  1  0.76223000  0.09488000  0.39525000  1.0
  N  N152  1  0.09488000  0.39525000  0.76223000  1.0
  N  N153  1  0.60475000  0.23777000  0.90512000  1.0
  N  N154  1  0.23777000  0.90512000  0.60475000  1.0
  N  N155  1  0.90512000  0.60475000  0.23777000  1.0
  N  N156  1  0.57578000  0.85799000  0.19775000  1.0
  N  N157  1  0.85799000  0.19775000  0.57578000  1.0
  N  N158  1  0.19775000  0.57578000  0.85799000  1.0
  N  N159  1  0.42422000  0.14201000  0.80225000  1.0
  N  N160  1  0.14201000  0.80225000  0.42422000  1.0
  N  N161  1  0.80225000  0.42422000  0.14201000  1.0
  N  N162  1  0.27380000  0.84807000  0.94215000  1.0
  N  N163  1  0.84807000  0.94214000  0.27380000  1.0
  N  N164  1  0.94214000  0.27379000  0.84807000  1.0
  N  N165  1  0.72620000  0.15193000  0.05785000  1.0
  N  N166  1  0.15193000  0.05785000  0.72620000  1.0
  N  N167  1  0.05785000  0.72620000  0.15193000  1.0
  N  N168  1  0.29248000  0.96473000  0.86263000  1.0
  N  N169  1  0.96472000  0.86263000  0.29248000  1.0
  N  N170  1  0.86262000  0.29248000  0.96472000  1.0
  N  N171  1  0.70752000  0.03528000  0.13737000  1.0
  N  N172  1  0.03528000  0.13737000  0.70752000  1.0
  N  N173  1  0.13737000  0.70752000  0.03528000  1.0
