# generated using pymatgen
data_CuH7C9O5
_symmetry_space_group_name_H-M   'P 1'
_cell_length_a   6.78235000
_cell_length_b   15.42300000
_cell_length_c   15.43620000
_cell_angle_alpha   78.02210000
_cell_angle_beta   78.34460000
_cell_angle_gamma   78.21670000
_symmetry_Int_Tables_number   1
_chemical_formula_structural   CuH7C9O5
_chemical_formula_sum   'Cu4 H28 C36 O20'
_cell_volume   1524.61157197
_cell_formula_units_Z   4
loop_
 _symmetry_equiv_pos_site_id
 _symmetry_equiv_pos_as_xyz
  1  'x, y, z'
loop_
 _atom_site_type_symbol
 _atom_site_label
 _atom_site_symmetry_multiplicity
 _atom_site_fract_x
 _atom_site_fract_y
 _atom_site_fract_z
 _atom_site_occupancy
  Cu  Cu0  1  0.84296000  0.53399000  0.96407000  1.0
  Cu  Cu1  1  0.84195000  0.96359000  0.53406000  1.0
  Cu  Cu2  1  0.15711000  0.46618000  0.03587000  1.0
  Cu  Cu3  1  0.15826000  0.03625000  0.46589000  1.0
  H  H4  1  0.49596000  0.54817000  0.89637000  1.0
  H  H5  1  0.49320000  0.89709000  0.54946000  1.0
  H  H6  1  0.50472000  0.45136000  0.10328000  1.0
  H  H7  1  0.50626000  0.10311000  0.45125000  1.0
  H  H8  1  0.66392000  0.59008000  0.82490000  1.0
  H  H9  1  0.65396000  0.82562000  0.59679000  1.0
  H  H10  1  0.34005000  0.40678000  0.17446000  1.0
  H  H11  1  0.34140000  0.17505000  0.40719000  1.0
  H  H12  1  0.50761000  0.55689000  0.24507000  1.0
  H  H13  1  0.80653000  0.94329000  0.25133000  1.0
  H  H14  1  0.19294000  0.74840000  0.05703000  1.0
  H  H15  1  0.49217000  0.75528000  0.44431000  1.0
  H  H16  1  0.49177000  0.44271000  0.75488000  1.0
  H  H17  1  0.19308000  0.05699000  0.74854000  1.0
  H  H18  1  0.80724000  0.25182000  0.94275000  1.0
  H  H19  1  0.50880000  0.24457000  0.55618000  1.0
  H  H20  1  0.87027000  0.42986000  0.31993000  1.0
  H  H21  1  0.12302000  0.07015000  0.18463000  1.0
  H  H22  1  0.87682000  0.81560000  0.92967000  1.0
  H  H23  1  0.12902000  0.68024000  0.56965000  1.0
  H  H24  1  0.13019000  0.57044000  0.67984000  1.0
  H  H25  1  0.87721000  0.92986000  0.81532000  1.0
  H  H26  1  0.12262000  0.18456000  0.07041000  1.0
  H  H27  1  0.87052000  0.31976000  0.42977000  1.0
  H  H28  1  0.50026000  0.62775000  0.37261000  1.0
  H  H29  1  0.99974000  0.87274000  0.12715000  1.0
  H  H30  1  0.49978000  0.37217000  0.62724000  1.0
  H  H31  1  0.00008000  0.12745000  0.87278000  1.0
  C  C32  1  0.78372000  0.50193000  0.15894000  1.0
  C  C33  1  0.94319000  0.99415000  0.34329000  1.0
  C  C34  1  0.05609000  0.65676000  0.00608000  1.0
  C  C35  1  0.21496000  0.84156000  0.49828000  1.0
  C  C36  1  0.21616000  0.49818000  0.84091000  1.0
  C  C37  1  0.05687000  0.00586000  0.65665000  1.0
  C  C38  1  0.94383000  0.34341000  0.99388000  1.0
  C  C39  1  0.78549000  0.15839000  0.50167000  1.0
  C  C40  1  0.65768000  0.51493000  0.24710000  1.0
  C  C41  1  0.91856000  0.98440000  0.25279000  1.0
  C  C42  1  0.08079000  0.74710000  0.01586000  1.0
  C  C43  1  0.34190000  0.75321000  0.48575000  1.0
  C  C44  1  0.34204000  0.48497000  0.75278000  1.0
  C  C45  1  0.08129000  0.01575000  0.74713000  1.0
  C  C46  1  0.91916000  0.25309000  0.98405000  1.0
  C  C47  1  0.65863000  0.24671000  0.51433000  1.0
  C  C48  1  0.72348000  0.47531000  0.32483000  1.0
  C  C49  1  0.02444000  0.02515000  0.17718000  1.0
  C  C50  1  0.97535000  0.82291000  0.97480000  1.0
  C  C51  1  0.27627000  0.67535000  0.52477000  1.0
  C  C52  1  0.27661000  0.52471000  0.67500000  1.0
  C  C53  1  0.97558000  0.97494000  0.82276000  1.0
  C  C54  1  0.02439000  0.17727000  0.02517000  1.0
  C  C55  1  0.72376000  0.32459000  0.47503000  1.0
  C  C56  1  0.61302000  0.48748000  0.41421000  1.0
  C  C57  1  0.01498000  0.01341000  0.08659000  1.0
  C  C58  1  0.98478000  0.91354000  0.98654000  1.0
  C  C59  1  0.38712000  0.58589000  0.51250000  1.0
  C  C60  1  0.38698000  0.51246000  0.58564000  1.0
  C  C61  1  0.98489000  0.98676000  0.91333000  1.0
  C  C62  1  0.01501000  0.08665000  0.01340000  1.0
  C  C63  1  0.61293000  0.41405000  0.48734000  1.0
  C  C64  1  0.50016000  0.57149000  0.42867000  1.0
  C  C65  1  0.99981000  0.92894000  0.07105000  1.0
  C  C66  1  0.49984000  0.42844000  0.57117000  1.0
  C  C67  1  0.00000000  0.07124000  0.92888000  1.0
  O  O68  1  0.97254000  0.46985000  0.15609000  1.0
  O  O69  1  0.09236000  0.03056000  0.34892000  1.0
  O  O70  1  0.90652000  0.65091000  0.96989000  1.0
  O  O71  1  0.02627000  0.84414000  0.53007000  1.0
  O  O72  1  0.02779000  0.53113000  0.84371000  1.0
  O  O73  1  0.90933000  0.96839000  0.65108000  1.0
  O  O74  1  0.09199000  0.34924000  0.03099000  1.0
  O  O75  1  0.97371000  0.15586000  0.46897000  1.0
  O  O76  1  0.68909000  0.52568000  0.09112000  1.0
  O  O77  1  0.81347000  0.96285000  0.40878000  1.0
  O  O78  1  0.18628000  0.59077000  0.03687000  1.0
  O  O79  1  0.30944000  0.90936000  0.47418000  1.0
  O  O80  1  0.31054000  0.47372000  0.90879000  1.0
  O  O81  1  0.18519000  0.03807000  0.59109000  1.0
  O  O82  1  0.81501000  0.40946000  0.96216000  1.0
  O  O83  1  0.69132000  0.09052000  0.52659000  1.0
  O  O84  1  0.58943000  0.59219000  0.88551000  1.0
  O  O85  1  0.58512000  0.88773000  0.59395000  1.0
  O  O86  1  0.41206000  0.40711000  0.11316000  1.0
  O  O87  1  0.41338000  0.11367000  0.40700000  1.0
