# generated using pymatgen
data_DyZnH10C15NO10
_symmetry_space_group_name_H-M   'P 1'
_cell_length_a   7.78759000
_cell_length_b   10.16490000
_cell_length_c   11.55890000
_cell_angle_alpha   69.78180000
_cell_angle_beta   74.69050000
_cell_angle_gamma   79.62970000
_symmetry_Int_Tables_number   1
_chemical_formula_structural   DyZnH10C15NO10
_chemical_formula_sum   'Dy2 Zn2 H20 C30 N2 O20'
_cell_volume   824.16244864
_cell_formula_units_Z   2
loop_
 _symmetry_equiv_pos_site_id
 _symmetry_equiv_pos_as_xyz
  1  'x, y, z'
loop_
 _atom_site_type_symbol
 _atom_site_label
 _atom_site_symmetry_multiplicity
 _atom_site_fract_x
 _atom_site_fract_y
 _atom_site_fract_z
 _atom_site_occupancy
  Dy  Dy0  1  0.36531000  0.94989000  0.17676000  1.0
  Dy  Dy1  1  0.63468000  0.05011000  0.82323000  1.0
  Zn  Zn2  1  0.34172000  0.74610000  0.96552000  1.0
  Zn  Zn3  1  0.65828000  0.25390000  0.03448000  1.0
  H  H4  1  0.27812000  0.98687000  0.94506000  1.0
  H  H5  1  0.72190000  0.01313000  0.05494000  1.0
  H  H6  1  0.54092000  0.75037000  0.38189000  1.0
  H  H7  1  0.45910000  0.24964000  0.61812000  1.0
  H  H8  1  0.42266000  0.87236000  0.42793000  1.0
  H  H9  1  0.57733000  0.12764000  0.57207000  1.0
  H  H10  1  0.95397000  0.60148000  0.33432000  1.0
  H  H11  1  0.04604000  0.39849000  0.66570000  1.0
  H  H12  1  0.71841000  0.45773000  0.49908000  1.0
  H  H13  1  0.28160000  0.54225000  0.50095000  1.0
  H  H14  1  0.53841000  0.54722000  0.67354000  1.0
  H  H15  1  0.46159000  0.45277000  0.32648000  1.0
  H  H16  1  0.82462000  0.91760000  0.51998000  1.0
  H  H17  1  0.17536000  0.08240000  0.48001000  1.0
  H  H18  1  0.73838000  0.40238000  0.24265000  1.0
  H  H19  1  0.26162000  0.59763000  0.75736000  1.0
  H  H20  1  0.04753000  0.30180000  0.27181000  1.0
  H  H21  1  0.95247000  0.69821000  0.72820000  1.0
  H  H22  1  0.30281000  0.45382000  0.15358000  1.0
  H  H23  1  0.69719000  0.54618000  0.84642000  1.0
  C  C24  1  0.05221000  0.84543000  0.32405000  1.0
  C  C25  1  0.94779000  0.15456000  0.67595000  1.0
  C  C26  1  0.90026000  0.76836000  0.41612000  1.0
  C  C27  1  0.09972000  0.23164000  0.58389000  1.0
  C  C28  1  0.86971000  0.63955000  0.40985000  1.0
  C  C29  1  0.13029000  0.36044000  0.59017000  1.0
  C  C30  1  0.73866000  0.56011000  0.50158000  1.0
  C  C31  1  0.26134000  0.43988000  0.49844000  1.0
  C  C32  1  0.63691000  0.61029000  0.59936000  1.0
  C  C33  1  0.36308000  0.38971000  0.40064000  1.0
  C  C34  1  0.66315000  0.74122000  0.60469000  1.0
  C  C35  1  0.33684000  0.25879000  0.39531000  1.0
  C  C36  1  0.55875000  0.79218000  0.71283000  1.0
  C  C37  1  0.44123000  0.20783000  0.28717000  1.0
  C  C38  1  0.79634000  0.81957000  0.51318000  1.0
  C  C39  1  0.20364000  0.18044000  0.48683000  1.0
  C  C40  1  0.96369000  0.81840000  0.94797000  1.0
  C  C41  1  0.03632000  0.18160000  0.05202000  1.0
  C  C42  1  0.97408000  0.67617000  0.04809000  1.0
  C  C43  1  0.02592000  0.32383000  0.95190000  1.0
  C  C44  1  0.82357000  0.60320000  0.11522000  1.0
  C  C45  1  0.17643000  0.39680000  0.88477000  1.0
  C  C46  1  0.63559000  0.67042000  0.10673000  1.0
  C  C47  1  0.36441000  0.32957000  0.89325000  1.0
  C  C48  1  0.85118000  0.46537000  0.19515000  1.0
  C  C49  1  0.14882000  0.53463000  0.80485000  1.0
  C  C50  1  0.02325000  0.40886000  0.21062000  1.0
  C  C51  1  0.97675000  0.59115000  0.78938000  1.0
  C  C52  1  0.16529000  0.49102000  0.14548000  1.0
  C  C53  1  0.83472000  0.50899000  0.85452000  1.0
  N  N54  1  0.13958000  0.62049000  0.06520000  1.0
  N  N55  1  0.86043000  0.37951000  0.93479000  1.0
  O  O56  1  0.09504000  0.95212000  0.33953000  1.0
  O  O57  1  0.90496000  0.04787000  0.66048000  1.0
  O  O58  1  0.14250000  0.79736000  0.23398000  1.0
  O  O59  1  0.85750000  0.20263000  0.76602000  1.0
  O  O60  1  0.58201000  0.91260000  0.71278000  1.0
  O  O61  1  0.41796000  0.08743000  0.28721000  1.0
  O  O62  1  0.45490000  0.70799000  0.80070000  1.0
  O  O63  1  0.54509000  0.29201000  0.19929000  1.0
  O  O64  1  0.10461000  0.87895000  0.89645000  1.0
  O  O65  1  0.89540000  0.12105000  0.10354000  1.0
  O  O66  1  0.80992000  0.86416000  0.92293000  1.0
  O  O67  1  0.19009000  0.13584000  0.07707000  1.0
  O  O68  1  0.57324000  0.75697000  0.16844000  1.0
  O  O69  1  0.42674000  0.24301000  0.83156000  1.0
  O  O70  1  0.55268000  0.62888000  0.04724000  1.0
  O  O71  1  0.44736000  0.37112000  0.95271000  1.0
  O  O72  1  0.38580000  0.93211000  0.97137000  1.0
  O  O73  1  0.61421000  0.06788000  0.02864000  1.0
  O  O74  1  0.42310000  0.80388000  0.38594000  1.0
  O  O75  1  0.57692000  0.19613000  0.61405000  1.0
