# generated using pymatgen
data_CdH27C35N5O12
_symmetry_space_group_name_H-M   'P 1'
_cell_length_a   8.35705000
_cell_length_b   14.20290000
_cell_length_c   16.65440000
_cell_angle_alpha   69.47140000
_cell_angle_beta   87.75490000
_cell_angle_gamma   74.63260000
_symmetry_Int_Tables_number   1
_chemical_formula_structural   CdH27C35N5O12
_chemical_formula_sum   'Cd2 H54 C70 N10 O24'
_cell_volume   1781.89707833
_cell_formula_units_Z   2
loop_
 _symmetry_equiv_pos_site_id
 _symmetry_equiv_pos_as_xyz
  1  'x, y, z'
loop_
 _atom_site_type_symbol
 _atom_site_label
 _atom_site_symmetry_multiplicity
 _atom_site_fract_x
 _atom_site_fract_y
 _atom_site_fract_z
 _atom_site_occupancy
  Cd  Cd0  1  0.99741000  0.64732000  0.38511000  1.0
  Cd  Cd1  1  0.42585000  0.36690000  0.17822000  1.0
  H  H2  1  0.37295000  0.54518000  0.41428000  1.0
  H  H3  1  0.34792000  0.59014000  0.31351000  1.0
  H  H4  1  0.05676000  0.47963000  0.15128000  1.0
  H  H5  1  0.07461000  0.43028000  0.25224000  1.0
  H  H6  1  0.70179000  0.90152000  0.46370000  1.0
  H  H7  1  0.79510000  0.04053000  0.49166000  1.0
  H  H8  1  0.87869000  0.01632000  0.39904000  1.0
  H  H9  1  0.00659000  0.96898000  0.49521000  1.0
  H  H10  1  0.34878000  0.83053000  0.68335000  1.0
  H  H11  1  0.30210000  0.77485000  0.84179000  1.0
  H  H12  1  0.17356000  0.68943000  0.77498000  1.0
  H  H13  1  0.12700000  0.61884000  0.93293000  1.0
  H  H14  1  0.76052000  0.57892000  0.15626000  1.0
  H  H15  1  0.47426000  0.77763000  0.12318000  1.0
  H  H16  1  0.68983000  0.77250000  0.12206000  1.0
  H  H17  1  0.60748000  0.70442000  0.21800000  1.0
  H  H18  1  0.29504000  0.15430000  0.03760000  1.0
  H  H19  1  0.55182000  0.98730000  0.06614000  1.0
  H  H20  1  0.42676000  0.00203000  0.15064000  1.0
  H  H21  1  0.62136000  0.03133000  0.14316000  1.0
  H  H22  1  0.19193000  0.35216000  0.74500000  1.0
  H  H23  1  0.29739000  0.41922000  0.59935000  1.0
  H  H24  1  0.97624000  0.16952000  0.91906000  1.0
  H  H25  1  0.08306000  0.21972000  0.77232000  1.0
  H  H26  1  0.96597000  0.28772000  0.47995000  1.0
  H  H27  1  0.63138000  0.40389000  0.37856000  1.0
  H  H28  1  0.69249000  0.26781000  0.44248000  1.0
  H  H29  1  0.80553000  0.32009000  0.35343000  1.0
  H  H30  1  0.30352000  0.42155000  0.34665000  1.0
  H  H31  1  0.25134000  0.32686000  0.49984000  1.0
  H  H32  1  0.48907000  0.03779000  0.46265000  1.0
  H  H33  1  0.53354000  0.14431000  0.31011000  1.0
  H  H34  1  0.89503000  0.03744000  0.61960000  1.0
  H  H35  1  0.80212000  0.95568000  0.76659000  1.0
  H  H36  1  0.59169000  0.05650000  0.79640000  1.0
  H  H37  1  0.49235000  0.98283000  0.94317000  1.0
  H  H38  1  0.84636000  0.86903000  0.25251000  1.0
  H  H39  1  0.87138000  0.97693000  0.09721000  1.0
  H  H40  1  0.16745000  0.69406000  0.06659000  1.0
  H  H41  1  0.12647000  0.59819000  0.21996000  1.0
  H  H42  1  0.66458000  0.64583000  0.48187000  1.0
  H  H43  1  0.24155000  0.82831000  0.33454000  1.0
  H  H44  1  0.35004000  0.91543000  0.34686000  1.0
  H  H45  1  0.43780000  0.83349000  0.28664000  1.0
  H  H46  1  0.25877000  0.69903000  0.48655000  1.0
  H  H47  1  0.30623000  0.80049000  0.51238000  1.0
  H  H48  1  0.44451000  0.67261000  0.54980000  1.0
  H  H49  1  0.76755000  0.19162000  0.14378000  1.0
  H  H50  1  0.17405000  0.19318000  0.26528000  1.0
  H  H51  1  0.07592000  0.11383000  0.34994000  1.0
  H  H52  1  0.97830000  0.24993000  0.29924000  1.0
  H  H53  1  0.06897000  0.00030000  0.24486000  1.0
  H  H54  1  0.18642000  0.08551000  0.18136000  1.0
  H  H55  1  0.99752000  0.08241000  0.13661000  1.0
  C  C56  1  0.93028000  0.80091000  0.45860000  1.0
  C  C57  1  0.82644000  0.88273000  0.49399000  1.0
  C  C58  1  0.88093000  0.98293000  0.46925000  1.0
  C  C59  1  0.94322000  0.79368000  0.64428000  1.0
  C  C60  1  0.63891000  0.84063000  0.61049000  1.0
  C  C61  1  0.61301000  0.79713000  0.70313000  1.0
  C  C62  1  0.45307000  0.80075000  0.73093000  1.0
  C  C63  1  0.42719000  0.76800000  0.81922000  1.0
  C  C64  1  0.56036000  0.72841000  0.87969000  1.0
  C  C65  1  0.72434000  0.71632000  0.85267000  1.0
  C  C66  1  0.75097000  0.75334000  0.76350000  1.0
  C  C67  1  0.91488000  0.74589000  0.73653000  1.0
  C  C68  1  0.04812000  0.69669000  0.79733000  1.0
  C  C69  1  0.02208000  0.65733000  0.88549000  1.0
  C  C70  1  0.86130000  0.66859000  0.91341000  1.0
  C  C71  1  0.83225000  0.63090000  0.00633000  1.0
  C  C72  1  0.53070000  0.70362000  0.97216000  1.0
  C  C73  1  0.64041000  0.63007000  0.12381000  1.0
  C  C74  1  0.59909000  0.72760000  0.14790000  1.0
  C  C75  1  0.51949000  0.56081000  0.15464000  1.0
  C  C76  1  0.41956000  0.22445000  0.09970000  1.0
  C  C77  1  0.42541000  0.14884000  0.05151000  1.0
  C  C78  1  0.51326000  0.03573000  0.10589000  1.0
  C  C79  1  0.65869000  0.18130000  0.95994000  1.0
  C  C80  1  0.37126000  0.23849000  0.89509000  1.0
  C  C81  1  0.43423000  0.28260000  0.80930000  1.0
  C  C82  1  0.32510000  0.33799000  0.73718000  1.0
  C  C83  1  0.38478000  0.37553000  0.65505000  1.0
  C  C84  1  0.55491000  0.35527000  0.64433000  1.0
  C  C85  1  0.66787000  0.30004000  0.71682000  1.0
  C  C86  1  0.60732000  0.26583000  0.80016000  1.0
  C  C87  1  0.72091000  0.21658000  0.87291000  1.0
  C  C88  1  0.89016000  0.20321000  0.86259000  1.0
  C  C89  1  0.95002000  0.23336000  0.77994000  1.0
  C  C90  1  0.84118000  0.27997000  0.70742000  1.0
  C  C91  1  0.90554000  0.30432000  0.62047000  1.0
  C  C92  1  0.62016000  0.39112000  0.55789000  1.0
  C  C93  1  0.85386000  0.35382000  0.46451000  1.0
  C  C94  1  0.73716000  0.33611000  0.40657000  1.0
  C  C95  1  0.91919000  0.45034000  0.42098000  1.0
  C  C96  1  0.34491000  0.33675000  0.37489000  1.0
  C  C97  1  0.31766000  0.28465000  0.45992000  1.0
  C  C98  1  0.37002000  0.17624000  0.49076000  1.0
  C  C99  1  0.45128000  0.12272000  0.43881000  1.0
  C  C100  1  0.47501000  0.18117000  0.35507000  1.0
  C  C101  1  0.43744000  0.09934000  0.64507000  1.0
  C  C102  1  0.17582000  0.09510000  0.58010000  1.0
  C  C103  1  0.12276000  0.04662000  0.66690000  1.0
  C  C104  1  0.97186000  0.02157000  0.67653000  1.0
  C  C105  1  0.91852000  0.97759000  0.75887000  1.0
  C  C106  1  0.01278000  0.96157000  0.83158000  1.0
  C  C107  1  0.16611000  0.98822000  0.82311000  1.0
  C  C108  1  0.22296000  0.02977000  0.73976000  1.0
  C  C109  1  0.37779000  0.05437000  0.73133000  1.0
  C  C110  1  0.47315000  0.03722000  0.80405000  1.0
  C  C111  1  0.41656000  0.99722000  0.88624000  1.0
  C  C112  1  0.26383000  0.97450000  0.89582000  1.0
  C  C113  1  0.20321000  0.93519000  0.98236000  1.0
  C  C114  1  0.95447000  0.91485000  0.91789000  1.0
  C  C115  1  0.91364000  0.83420000  0.20809000  1.0
  C  C116  1  0.92812000  0.89317000  0.12308000  1.0
  C  C117  1  0.02206000  0.84201000  0.07250000  1.0
  C  C118  1  0.09212000  0.73481000  0.10507000  1.0
  C  C119  1  0.07102000  0.68189000  0.19067000  1.0
  C  C120  1  0.61242000  0.70675000  0.41968000  1.0
  C  C121  1  0.36525000  0.83820000  0.34192000  1.0
  C  C122  1  0.35994000  0.73067000  0.49609000  1.0
  C  C123  1  0.81264000  0.21422000  0.19397000  1.0
  C  C124  1  0.05443000  0.18026000  0.28885000  1.0
  C  C125  1  0.06037000  0.07715000  0.19512000  1.0
  N  N126  1  0.80252000  0.83758000  0.58664000  1.0
  N  N127  1  0.66874000  0.65489000  0.03078000  1.0
  N  N128  1  0.48935000  0.18723000  0.96540000  1.0
  N  N129  1  0.78863000  0.34750000  0.55019000  1.0
  N  N130  1  0.42018000  0.28582000  0.32359000  1.0
  N  N131  1  0.32939000  0.11926000  0.57561000  1.0
  N  N132  1  0.05899000  0.89996000  0.98717000  1.0
  N  N133  1  0.98704000  0.73109000  0.24122000  1.0
  N  N134  1  0.45228000  0.75612000  0.41925000  1.0
  N  N135  1  0.96904000  0.16047000  0.22440000  1.0
  O  O136  1  0.97778000  0.83534000  0.38355000  1.0
  O  O137  1  0.94846000  0.70445000  0.50241000  1.0
  O  O138  1  0.52023000  0.88096000  0.55642000  1.0
  O  O139  1  0.08243000  0.79838000  0.61908000  1.0
  O  O140  1  0.95044000  0.58227000  0.06011000  1.0
  O  O141  1  0.38939000  0.72749000  0.99643000  1.0
  O  O142  1  0.50505000  0.50847000  0.10770000  1.0
  O  O143  1  0.45450000  0.55450000  0.22505000  1.0
  O  O144  1  0.40609000  0.18861000  0.18000000  1.0
  O  O145  1  0.42509000  0.31752000  0.05754000  1.0
  O  O146  1  0.75277000  0.14531000  0.02526000  1.0
  O  O147  1  0.22248000  0.24378000  0.90474000  1.0
  O  O148  1  0.05627000  0.28410000  0.61000000  1.0
  O  O149  1  0.53007000  0.45528000  0.49496000  1.0
  O  O150  1  0.93218000  0.50290000  0.46800000  1.0
  O  O151  1  0.96227000  0.46870000  0.34490000  1.0
  O  O152  1  0.57318000  0.11960000  0.63342000  1.0
  O  O153  1  0.09203000  0.11591000  0.51404000  1.0
  O  O154  1  0.27088000  0.93239000  0.04752000  1.0
  O  O155  1  0.82263000  0.88955000  0.92961000  1.0
  O  O156  1  0.29200000  0.59202000  0.36663000  1.0
  O  O157  1  0.69972000  0.72618000  0.35599000  1.0
  O  O158  1  0.72354000  0.28384000  0.21858000  1.0
  O  O159  1  0.12933000  0.42558000  0.19975000  1.0
