# generated using pymatgen
data_CuH14C24Br2(NO2)2
_symmetry_space_group_name_H-M   'P 1'
_cell_length_a   4.64742000
_cell_length_b   12.61840000
_cell_length_c   18.95490000
_cell_angle_alpha   89.99970000
_cell_angle_beta   89.99970000
_cell_angle_gamma   85.28270000
_symmetry_Int_Tables_number   1
_chemical_formula_structural   CuH14C24Br2(NO2)2
_chemical_formula_sum   'Cu2 H28 C48 Br4 N4 O8'
_cell_volume   1107.80694733
_cell_formula_units_Z   2
loop_
 _symmetry_equiv_pos_site_id
 _symmetry_equiv_pos_as_xyz
  1  'x, y, z'
loop_
 _atom_site_type_symbol
 _atom_site_label
 _atom_site_symmetry_multiplicity
 _atom_site_fract_x
 _atom_site_fract_y
 _atom_site_fract_z
 _atom_site_occupancy
  Cu  Cu0  1  0.00000000  0.00000000  0.00000000  1.0
  Cu  Cu1  1  0.50000000  0.50000000  0.50000000  1.0
  H  H2  1  0.16698000  0.80349000  0.82364000  1.0
  H  H3  1  0.33303000  0.69651000  0.32364000  1.0
  H  H4  1  0.83303000  0.19651000  0.17636000  1.0
  H  H5  1  0.66697000  0.30349000  0.67636000  1.0
  H  H6  1  0.24087000  0.72922000  0.70385000  1.0
  H  H7  1  0.25913000  0.77078000  0.20385000  1.0
  H  H8  1  0.75913000  0.27078000  0.29615000  1.0
  H  H9  1  0.74086000  0.22922000  0.79615000  1.0
  H  H10  1  0.86388000  0.95697000  0.66283000  1.0
  H  H11  1  0.63612000  0.54303000  0.16284000  1.0
  H  H12  1  0.13613000  0.04303000  0.33717000  1.0
  H  H13  1  0.36387000  0.45697000  0.83717000  1.0
  H  H14  1  0.78232000  0.03124000  0.78305000  1.0
  H  H15  1  0.71770000  0.46876000  0.28306000  1.0
  H  H16  1  0.21769000  0.96876000  0.21695000  1.0
  H  H17  1  0.28231000  0.53124000  0.71694000  1.0
  H  H18  1  0.47294000  0.63708000  0.62422000  1.0
  H  H19  1  0.02706000  0.86292000  0.12422000  1.0
  H  H20  1  0.52707000  0.36292000  0.37578000  1.0
  H  H21  1  0.97293000  0.13708000  0.87578000  1.0
  H  H22  1  0.73233000  0.94286000  0.55514000  1.0
  H  H23  1  0.76767000  0.55714000  0.05514000  1.0
  H  H24  1  0.26768000  0.05714000  0.44486000  1.0
  H  H25  1  0.23234000  0.44286000  0.94486000  1.0
  H  H26  1  0.68384000  0.67497000  0.41485000  1.0
  H  H27  1  0.81617000  0.82503000  0.91485000  1.0
  H  H28  1  0.31617000  0.32503000  0.58515000  1.0
  H  H29  1  0.18383000  0.17497000  0.08515000  1.0
  C  C30  1  0.41406000  0.97321000  0.88251000  1.0
  C  C31  1  0.08593000  0.52679000  0.38251000  1.0
  C  C32  1  0.58593000  0.02679000  0.11749000  1.0
  C  C33  1  0.91407000  0.47321000  0.61749000  1.0
  C  C34  1  0.46703000  0.92333000  0.81071000  1.0
  C  C35  1  0.03297000  0.57666000  0.31071000  1.0
  C  C36  1  0.53297000  0.07667000  0.18929000  1.0
  C  C37  1  0.96703000  0.42334000  0.68929000  1.0
  C  C38  1  0.32089000  0.83645000  0.78823000  1.0
  C  C39  1  0.17911000  0.66355000  0.28823000  1.0
  C  C40  1  0.67912000  0.16355000  0.21177000  1.0
  C  C41  1  0.82088000  0.33645000  0.71176000  1.0
  C  C42  1  0.36524000  0.79432000  0.72090000  1.0
  C  C43  1  0.13476000  0.70568000  0.22090000  1.0
  C  C44  1  0.63476000  0.20568000  0.27910000  1.0
  C  C45  1  0.86524000  0.29432000  0.77910000  1.0
  C  C46  1  0.55704000  0.83834000  0.67378000  1.0
  C  C47  1  0.94295000  0.66166000  0.17378000  1.0
  C  C48  1  0.44296000  0.16166000  0.32622000  1.0
  C  C49  1  0.05704000  0.33834000  0.82622000  1.0
  C  C50  1  0.70626000  0.92418000  0.69732000  1.0
  C  C51  1  0.79374000  0.57582000  0.19732000  1.0
  C  C52  1  0.29374000  0.07583000  0.30268000  1.0
  C  C53  1  0.20626000  0.42417000  0.80268000  1.0
  C  C54  1  0.66299000  0.96578000  0.76468000  1.0
  C  C55  1  0.83701000  0.53421000  0.26468000  1.0
  C  C56  1  0.33701000  0.03422000  0.23532000  1.0
  C  C57  1  0.16298000  0.46578000  0.73532000  1.0
  C  C58  1  0.54652000  0.69158000  0.58495000  1.0
  C  C59  1  0.95348000  0.80842000  0.08496000  1.0
  C  C60  1  0.45349000  0.30843000  0.41504000  1.0
  C  C61  1  0.04652000  0.19158000  0.91505000  1.0
  C  C62  1  0.59927000  0.79663000  0.60144000  1.0
  C  C63  1  0.90072000  0.70337000  0.10144000  1.0
  C  C64  1  0.40073000  0.20337000  0.39856000  1.0
  C  C65  1  0.09927000  0.29663000  0.89856000  1.0
  C  C66  1  0.69235000  0.86006000  0.54624000  1.0
  C  C67  1  0.80764000  0.63994000  0.04624000  1.0
  C  C68  1  0.30766000  0.13995000  0.45376000  1.0
  C  C69  1  0.19235000  0.36006000  0.95376000  1.0
  C  C70  1  0.72632000  0.81576000  0.47937000  1.0
  C  C71  1  0.77367000  0.68424000  0.97937000  1.0
  C  C72  1  0.27369000  0.18425000  0.52063000  1.0
  C  C73  1  0.22632000  0.31576000  0.02063000  1.0
  C  C74  1  0.66695000  0.71116000  0.46688000  1.0
  C  C75  1  0.83305000  0.78884000  0.96688000  1.0
  C  C76  1  0.33306000  0.28884000  0.53312000  1.0
  C  C77  1  0.16695000  0.21116000  0.03312000  1.0
  Br  Br78  1  0.84402000  0.89776000  0.40191000  1.0
  Br  Br79  1  0.65598000  0.60225000  0.90191000  1.0
  Br  Br80  1  0.15599000  0.10224000  0.59809000  1.0
  Br  Br81  1  0.34403000  0.39776000  0.09808000  1.0
  N  N82  1  0.57902000  0.65130000  0.51985000  1.0
  N  N83  1  0.92097000  0.84870000  0.01985000  1.0
  N  N84  1  0.42098000  0.34870000  0.48015000  1.0
  N  N85  1  0.07902000  0.15130000  0.98015000  1.0
  O  O86  1  0.18705000  0.94285000  0.91359000  1.0
  O  O87  1  0.31295000  0.55715000  0.41359000  1.0
  O  O88  1  0.81295000  0.05715000  0.08641000  1.0
  O  O89  1  0.68706000  0.44285000  0.58641000  1.0
  O  O90  1  0.58038000  0.03807000  0.90566000  1.0
  O  O91  1  0.91961000  0.46193000  0.40567000  1.0
  O  O92  1  0.41962000  0.96193000  0.09434000  1.0
  O  O93  1  0.08039000  0.53807000  0.59434000  1.0
