# generated using pymatgen
data_CuH19C14N5O3
_symmetry_space_group_name_H-M   'P 1'
_cell_length_a   9.23589000
_cell_length_b   9.72777000
_cell_length_c   18.41320000
_cell_angle_alpha   77.76700000
_cell_angle_beta   89.99210000
_cell_angle_gamma   89.99560000
_symmetry_Int_Tables_number   1
_chemical_formula_structural   CuH19C14N5O3
_chemical_formula_sum   'Cu4 H76 C56 N20 O12'
_cell_volume   1616.76370732
_cell_formula_units_Z   4
loop_
 _symmetry_equiv_pos_site_id
 _symmetry_equiv_pos_as_xyz
  1  'x, y, z'
loop_
 _atom_site_type_symbol
 _atom_site_label
 _atom_site_symmetry_multiplicity
 _atom_site_fract_x
 _atom_site_fract_y
 _atom_site_fract_z
 _atom_site_occupancy
  Cu  Cu0  1  0.13760000  0.67030000  0.18892000  1.0
  Cu  Cu1  1  0.63759000  0.82969000  0.31108000  1.0
  Cu  Cu2  1  0.86239000  0.32971000  0.81108000  1.0
  Cu  Cu3  1  0.36242000  0.17030000  0.68892000  1.0
  H  H4  1  0.35433000  0.06763000  0.07171000  1.0
  H  H5  1  0.85431000  0.43239000  0.42830000  1.0
  H  H6  1  0.64567000  0.93237000  0.92830000  1.0
  H  H7  1  0.14569000  0.56760000  0.57170000  1.0
  H  H8  1  0.23753000  0.29736000  0.01782000  1.0
  H  H9  1  0.73753000  0.20265000  0.48218000  1.0
  H  H10  1  0.76245000  0.70264000  0.98218000  1.0
  H  H11  1  0.26247000  0.79734000  0.51783000  1.0
  H  H12  1  0.81864000  0.10575000  0.06377000  1.0
  H  H13  1  0.31862000  0.39425000  0.43622000  1.0
  H  H14  1  0.18137000  0.89425000  0.93622000  1.0
  H  H15  1  0.68138000  0.60576000  0.56379000  1.0
  H  H16  1  0.76742000  0.29516000  0.97011000  1.0
  H  H17  1  0.26740000  0.20485000  0.52989000  1.0
  H  H18  1  0.23260000  0.70484000  0.02988000  1.0
  H  H19  1  0.73262000  0.79515000  0.47012000  1.0
  H  H20  1  0.79697000  0.47551000  0.97419000  1.0
  H  H21  1  0.29698000  0.02451000  0.52580000  1.0
  H  H22  1  0.20303000  0.52452000  0.02580000  1.0
  H  H23  1  0.70302000  0.97548000  0.47421000  1.0
  H  H24  1  0.76475000  0.34840000  0.05851000  1.0
  H  H25  1  0.26479000  0.15162000  0.44149000  1.0
  H  H26  1  0.23522000  0.65160000  0.94148000  1.0
  H  H27  1  0.73519000  0.84838000  0.55853000  1.0
  H  H28  1  0.79090000  0.86736000  0.10626000  1.0
  H  H29  1  0.29085000  0.63266000  0.39373000  1.0
  H  H30  1  0.20908000  0.13263000  0.89372000  1.0
  H  H31  1  0.70916000  0.36734000  0.60628000  1.0
  H  H32  1  0.86616000  0.55111000  0.10921000  1.0
  H  H33  1  0.36608000  0.94893000  0.39079000  1.0
  H  H34  1  0.13386000  0.44888000  0.89078000  1.0
  H  H35  1  0.63393000  0.05106000  0.60923000  1.0
  H  H36  1  0.73487000  0.64043000  0.15393000  1.0
  H  H37  1  0.23484000  0.85961000  0.34608000  1.0
  H  H38  1  0.26513000  0.35957000  0.84605000  1.0
  H  H39  1  0.76517000  0.14039000  0.65392000  1.0
  H  H40  1  0.84844000  0.55831000  0.27483000  1.0
  H  H41  1  0.34847000  0.94170000  0.22517000  1.0
  H  H42  1  0.15155000  0.44169000  0.72516000  1.0
  H  H43  1  0.65154000  0.05831000  0.77483000  1.0
  H  H44  1  0.81452000  0.41031000  0.23424000  1.0
  H  H45  1  0.31450000  0.08972000  0.26577000  1.0
  H  H46  1  0.18548000  0.58969000  0.76576000  1.0
  H  H47  1  0.68551000  0.91027000  0.73424000  1.0
  H  H48  1  0.03821000  0.50303000  0.34717000  1.0
  H  H49  1  0.53824000  0.99697000  0.15282000  1.0
  H  H50  1  0.96179000  0.49698000  0.65283000  1.0
  H  H51  1  0.46176000  0.00303000  0.84719000  1.0
  H  H52  1  0.19958000  0.43089000  0.31731000  1.0
  H  H53  1  0.69960000  0.06910000  0.18267000  1.0
  H  H54  1  0.80042000  0.56912000  0.68269000  1.0
  H  H55  1  0.30041000  0.93090000  0.81734000  1.0
  H  H56  1  0.06599000  0.24328000  0.40530000  1.0
  H  H57  1  0.56601000  0.25672000  0.09469000  1.0
  H  H58  1  0.93401000  0.75672000  0.59471000  1.0
  H  H59  1  0.43399000  0.74327000  0.90532000  1.0
  H  H60  1  0.90973000  0.27113000  0.34745000  1.0
  H  H61  1  0.40974000  0.22889000  0.15256000  1.0
  H  H62  1  0.09027000  0.72887000  0.65254000  1.0
  H  H63  1  0.59026000  0.77111000  0.84744000  1.0
  H  H64  1  0.92124000  0.20714000  0.22902000  1.0
  H  H65  1  0.42121000  0.29289000  0.27099000  1.0
  H  H66  1  0.07876000  0.79287000  0.77098000  1.0
  H  H67  1  0.57879000  0.70711000  0.72901000  1.0
  H  H68  1  0.08874000  0.14545000  0.20108000  1.0
  H  H69  1  0.58872000  0.35454000  0.29892000  1.0
  H  H70  1  0.91127000  0.85456000  0.79892000  1.0
  H  H71  1  0.41127000  0.64546000  0.70108000  1.0
  H  H72  1  0.20446000  0.37687000  0.19162000  1.0
  H  H73  1  0.70444000  0.12309000  0.30836000  1.0
  H  H74  1  0.79554000  0.62314000  0.80837000  1.0
  H  H75  1  0.29557000  0.87692000  0.69165000  1.0
  H  H76  1  0.04295000  0.39932000  0.13770000  1.0
  H  H77  1  0.54291000  0.10067000  0.36229000  1.0
  H  H78  1  0.95706000  0.60069000  0.86229000  1.0
  H  H79  1  0.45710000  0.89933000  0.63772000  1.0
  C  C80  1  0.00071000  0.96938000  0.09904000  1.0
  C  C81  1  0.50069000  0.53064000  0.40096000  1.0
  C  C82  1  0.99927000  0.03062000  0.90095000  1.0
  C  C83  1  0.49931000  0.46936000  0.59905000  1.0
  C  C84  1  0.15520000  0.95663000  0.10341000  1.0
  C  C85  1  0.65518000  0.54339000  0.39660000  1.0
  C  C86  1  0.84478000  0.04338000  0.89659000  1.0
  C  C87  1  0.34482000  0.45660000  0.60340000  1.0
  C  C88  1  0.23702000  0.07863000  0.07203000  1.0
  C  C89  1  0.73700000  0.42139000  0.42798000  1.0
  C  C90  1  0.76298000  0.92138000  0.92797000  1.0
  C  C91  1  0.26300000  0.57861000  0.57202000  1.0
  C  C92  1  0.17204000  0.20569000  0.04195000  1.0
  C  C93  1  0.67203000  0.29431000  0.45805000  1.0
  C  C94  1  0.82796000  0.79431000  0.95805000  1.0
  C  C95  1  0.32797000  0.70568000  0.54195000  1.0
  C  C96  1  0.02007000  0.21849000  0.04028000  1.0
  C  C97  1  0.52007000  0.28151000  0.45971000  1.0
  C  C98  1  0.97993000  0.78151000  0.95972000  1.0
  C  C99  1  0.47994000  0.71848000  0.54029000  1.0
  C  C100  1  0.93622000  0.10084000  0.06779000  1.0
  C  C101  1  0.43621000  0.39917000  0.43221000  1.0
  C  C102  1  0.06377000  0.89916000  0.93221000  1.0
  C  C103  1  0.56380000  0.60083000  0.56780000  1.0
  C  C104  1  0.81494000  0.36631000  0.00295000  1.0
  C  C105  1  0.31494000  0.13370000  0.49705000  1.0
  C  C106  1  0.18507000  0.63370000  0.99704000  1.0
  C  C107  1  0.68506000  0.86630000  0.50296000  1.0
  C  C108  1  0.90670000  0.84941000  0.11846000  1.0
  C  C109  1  0.40667000  0.65062000  0.38154000  1.0
  C  C110  1  0.09327000  0.15060000  0.88153000  1.0
  C  C111  1  0.59334000  0.34938000  0.61846000  1.0
  C  C112  1  0.84818000  0.60486000  0.15547000  1.0
  C  C113  1  0.34813000  0.89517000  0.34454000  1.0
  C  C114  1  0.15180000  0.39513000  0.84452000  1.0
  C  C115  1  0.65188000  0.10482000  0.65547000  1.0
  C  C116  1  0.87915000  0.50661000  0.22956000  1.0
  C  C117  1  0.37913000  0.99341000  0.27044000  1.0
  C  C118  1  0.12084000  0.49339000  0.77043000  1.0
  C  C119  1  0.62088000  0.00659000  0.72957000  1.0
  C  C120  1  0.08064000  0.42748000  0.31583000  1.0
  C  C121  1  0.58065000  0.07253000  0.18416000  1.0
  C  C122  1  0.91935000  0.57252000  0.68416000  1.0
  C  C123  1  0.41936000  0.92747000  0.81585000  1.0
  C  C124  1  0.02917000  0.27804000  0.34757000  1.0
  C  C125  1  0.52920000  0.22196000  0.15243000  1.0
  C  C126  1  0.97083000  0.72196000  0.65242000  1.0
  C  C127  1  0.47081000  0.77803000  0.84758000  1.0
  C  C128  1  0.03987000  0.22048000  0.23071000  1.0
  C  C129  1  0.53986000  0.27953000  0.26929000  1.0
  C  C130  1  0.96013000  0.77953000  0.76929000  1.0
  C  C131  1  0.46015000  0.72048000  0.73072000  1.0
  C  C132  1  0.08566000  0.37018000  0.19452000  1.0
  C  C133  1  0.58563000  0.12981000  0.30547000  1.0
  C  C134  1  0.91434000  0.62983000  0.80548000  1.0
  C  C135  1  0.41438000  0.87019000  0.69454000  1.0
  N  N136  1  0.94924000  0.72218000  0.14607000  1.0
  N  N137  1  0.44919000  0.77783000  0.35394000  1.0
  N  N138  1  0.05073000  0.27781000  0.85392000  1.0
  N  N139  1  0.55083000  0.22217000  0.64606000  1.0
  N  N140  1  0.03702000  0.47585000  0.23714000  1.0
  N  N141  1  0.53702000  0.02415000  0.26286000  1.0
  N  N142  1  0.96297000  0.52417000  0.76286000  1.0
  N  N143  1  0.46299000  0.97585000  0.73715000  1.0
  N  N144  1  0.32831000  0.59254000  0.22272000  1.0
  N  N145  1  0.82830000  0.90747000  0.27728000  1.0
  N  N146  1  0.67168000  0.40745000  0.77728000  1.0
  N  N147  1  0.17171000  0.09252000  0.72272000  1.0
  N  N148  1  0.43588000  0.66256000  0.21062000  1.0
  N  N149  1  0.93587000  0.83744000  0.28940000  1.0
  N  N150  1  0.56410000  0.33743000  0.78937000  1.0
  N  N151  1  0.06414000  0.16257000  0.71059000  1.0
  N  N152  1  0.54328000  0.72856000  0.20128000  1.0
  N  N153  1  0.04327000  0.77143000  0.29875000  1.0
  N  N154  1  0.45671000  0.27144000  0.79870000  1.0
  N  N155  1  0.95675000  0.22857000  0.70123000  1.0
  O  O156  1  0.22657000  0.84141000  0.13239000  1.0
  O  O157  1  0.72656000  0.65860000  0.36763000  1.0
  O  O158  1  0.77343000  0.15860000  0.86762000  1.0
  O  O159  1  0.27345000  0.34139000  0.63237000  1.0
  O  O160  1  0.96815000  0.35001000  0.00885000  1.0
  O  O161  1  0.46815000  0.15000000  0.49114000  1.0
  O  O162  1  0.03184000  0.65001000  0.99114000  1.0
  O  O163  1  0.53184000  0.85000000  0.50886000  1.0
  O  O164  1  0.08887000  0.18235000  0.30630000  1.0
  O  O165  1  0.58889000  0.31765000  0.19368000  1.0
  O  O166  1  0.91113000  0.81765000  0.69369000  1.0
  O  O167  1  0.41112000  0.68235000  0.80632000  1.0
