# generated using pymatgen
data_AgH12C7(NO)5
_symmetry_space_group_name_H-M   'P 1'
_cell_length_a   7.90953000
_cell_length_b   10.67480000
_cell_length_c   12.60070000
_cell_angle_alpha   89.99990000
_cell_angle_beta   89.99980000
_cell_angle_gamma   89.99990000
_symmetry_Int_Tables_number   1
_chemical_formula_structural   AgH12C7(NO)5
_chemical_formula_sum   'Ag4 H48 C28 N20 O20'
_cell_volume   1063.91050348
_cell_formula_units_Z   4
loop_
 _symmetry_equiv_pos_site_id
 _symmetry_equiv_pos_as_xyz
  1  'x, y, z'
loop_
 _atom_site_type_symbol
 _atom_site_label
 _atom_site_symmetry_multiplicity
 _atom_site_fract_x
 _atom_site_fract_y
 _atom_site_fract_z
 _atom_site_occupancy
  Ag  Ag0  1  0.46028000  0.79305000  0.63767000  1.0
  Ag  Ag1  1  0.03972000  0.20695000  0.13767000  1.0
  Ag  Ag2  1  0.96028000  0.70695000  0.36233000  1.0
  Ag  Ag3  1  0.53972000  0.29305000  0.86233000  1.0
  H  H4  1  0.00718000  0.11835000  0.53950000  1.0
  H  H5  1  0.49282000  0.88165000  0.03950000  1.0
  H  H6  1  0.50718000  0.38165000  0.46050000  1.0
  H  H7  1  0.99282000  0.61836000  0.96050000  1.0
  H  H8  1  0.03603000  0.26729000  0.60211000  1.0
  H  H9  1  0.46397000  0.73271000  0.10210000  1.0
  H  H10  1  0.53604000  0.23271000  0.39790000  1.0
  H  H11  1  0.96397000  0.76729000  0.89789000  1.0
  H  H12  1  0.15425000  0.92477000  0.77203000  1.0
  H  H13  1  0.34575000  0.07523000  0.27203000  1.0
  H  H14  1  0.65425000  0.57523000  0.22797000  1.0
  H  H15  1  0.84575000  0.42477000  0.72797000  1.0
  H  H16  1  0.07861000  0.91719000  0.63873000  1.0
  H  H17  1  0.42139000  0.08281000  0.13873000  1.0
  H  H18  1  0.57861000  0.58281000  0.36127000  1.0
  H  H19  1  0.92139000  0.41719000  0.86127000  1.0
  H  H20  1  0.14156000  0.27927000  0.78876000  1.0
  H  H21  1  0.35844000  0.72073000  0.28876000  1.0
  H  H22  1  0.64156000  0.22073000  0.21124000  1.0
  H  H23  1  0.85844000  0.77927000  0.71124000  1.0
  H  H24  1  0.18892000  0.14079000  0.86256000  1.0
  H  H25  1  0.31108000  0.85921000  0.36256000  1.0
  H  H26  1  0.68892000  0.35921000  0.13744000  1.0
  H  H27  1  0.81108000  0.64079000  0.63744000  1.0
  H  H28  1  0.31731000  0.34114000  0.64147000  1.0
  H  H29  1  0.18269000  0.65886000  0.14147000  1.0
  H  H30  1  0.81731000  0.15886000  0.35853000  1.0
  H  H31  1  0.68269000  0.84114000  0.85853000  1.0
  H  H32  1  0.49696000  0.24617000  0.60728000  1.0
  H  H33  1  0.00305000  0.75383000  0.10728000  1.0
  H  H34  1  0.99696000  0.25382000  0.39272000  1.0
  H  H35  1  0.50304000  0.74618000  0.89272000  1.0
  H  H36  1  0.56016000  0.06189000  0.70261000  1.0
  H  H37  1  0.93984000  0.93810000  0.20261000  1.0
  H  H38  1  0.06016000  0.43811000  0.29739000  1.0
  H  H39  1  0.43984000  0.56190000  0.79739000  1.0
  H  H40  1  0.42742000  0.01119000  0.80897000  1.0
  H  H41  1  0.07258000  0.98881000  0.30898000  1.0
  H  H42  1  0.92742000  0.48881000  0.19103000  1.0
  H  H43  1  0.57258000  0.51119000  0.69102000  1.0
  H  H44  1  0.45784000  0.04951000  0.52092000  1.0
  H  H45  1  0.04216000  0.95049000  0.02092000  1.0
  H  H46  1  0.95784000  0.45049000  0.47908000  1.0
  H  H47  1  0.54216000  0.54951000  0.97908000  1.0
  H  H48  1  0.24629000  0.99300000  0.49681000  1.0
  H  H49  1  0.25371000  0.00700000  0.99681000  1.0
  H  H50  1  0.74629000  0.50700000  0.50319000  1.0
  H  H51  1  0.75371000  0.49300000  0.00319000  1.0
  C  C52  1  0.07970000  0.10574000  0.70491000  1.0
  C  C53  1  0.42030000  0.89426000  0.20492000  1.0
  C  C54  1  0.57970000  0.39426000  0.29509000  1.0
  C  C55  1  0.92030000  0.60574000  0.79508000  1.0
  C  C56  1  0.08501000  0.17146000  0.59577000  1.0
  C  C57  1  0.41499000  0.82854000  0.09577000  1.0
  C  C58  1  0.58501000  0.32854000  0.40423000  1.0
  C  C59  1  0.91499000  0.67146000  0.90423000  1.0
  C  C60  1  0.15305000  0.97272000  0.69516000  1.0
  C  C61  1  0.34695000  0.02728000  0.19517000  1.0
  C  C62  1  0.65305000  0.52728000  0.30483000  1.0
  C  C63  1  0.84695000  0.47272000  0.80483000  1.0
  C  C64  1  0.18943000  0.18297000  0.78311000  1.0
  C  C65  1  0.31057000  0.81703000  0.28312000  1.0
  C  C66  1  0.68943000  0.31703000  0.21689000  1.0
  C  C67  1  0.81057000  0.68297000  0.71688000  1.0
  C  C68  1  0.36522000  0.24506000  0.63470000  1.0
  C  C69  1  0.13478000  0.75494000  0.13470000  1.0
  C  C70  1  0.86522000  0.25494000  0.36530000  1.0
  C  C71  1  0.63478000  0.74507000  0.86530000  1.0
  C  C72  1  0.42979000  0.05686000  0.73107000  1.0
  C  C73  1  0.07021000  0.94314000  0.23107000  1.0
  C  C74  1  0.92979000  0.44314000  0.26893000  1.0
  C  C75  1  0.57021000  0.55687000  0.76893000  1.0
  C  C76  1  0.32730000  0.04742000  0.55043000  1.0
  C  C77  1  0.17270000  0.95258000  0.05043000  1.0
  C  C78  1  0.82730000  0.45258000  0.44957000  1.0
  C  C79  1  0.67270000  0.54742000  0.94957000  1.0
  N  N80  1  0.28875000  0.60291000  0.49200000  1.0
  N  N81  1  0.21125000  0.39709000  0.99200000  1.0
  N  N82  1  0.78875000  0.89709000  0.50800000  1.0
  N  N83  1  0.71125000  0.10291000  0.00800000  1.0
  N  N84  1  0.90373000  0.10100000  0.74815000  1.0
  N  N85  1  0.59627000  0.89900000  0.24815000  1.0
  N  N86  1  0.40373000  0.39900000  0.25185000  1.0
  N  N87  1  0.09627000  0.60100000  0.75185000  1.0
  N  N88  1  0.26154000  0.17461000  0.55942000  1.0
  N  N89  1  0.23846000  0.82538000  0.05942000  1.0
  N  N90  1  0.76154000  0.32539000  0.44058000  1.0
  N  N91  1  0.73846000  0.67462000  0.94058000  1.0
  N  N92  1  0.32891000  0.98163000  0.65518000  1.0
  N  N93  1  0.17109000  0.01837000  0.15518000  1.0
  N  N94  1  0.82891000  0.51837000  0.34482000  1.0
  N  N95  1  0.67109000  0.48163000  0.84482000  1.0
  N  N96  1  0.36377000  0.18593000  0.74209000  1.0
  N  N97  1  0.13623000  0.81407000  0.24210000  1.0
  N  N98  1  0.86377000  0.31407000  0.25791000  1.0
  N  N99  1  0.63623000  0.68593000  0.75791000  1.0
  O  O100  1  0.81069000  0.19239000  0.73069000  1.0
  O  O101  1  0.68930000  0.80761000  0.23069000  1.0
  O  O102  1  0.31070000  0.30761000  0.26931000  1.0
  O  O103  1  0.18931000  0.69239000  0.76931000  1.0
  O  O104  1  0.86189000  0.00792000  0.80122000  1.0
  O  O105  1  0.63811000  0.99207000  0.30122000  1.0
  O  O106  1  0.36189000  0.49207000  0.19878000  1.0
  O  O107  1  0.13811000  0.50793000  0.69878000  1.0
  O  O108  1  0.43436000  0.59688000  0.53543000  1.0
  O  O109  1  0.06564000  0.40312000  0.03543000  1.0
  O  O110  1  0.93436000  0.90312000  0.46457000  1.0
  O  O111  1  0.56564000  0.09688000  0.96457000  1.0
  O  O112  1  0.19556000  0.69805000  0.50918000  1.0
  O  O113  1  0.30444000  0.30195000  0.00918000  1.0
  O  O114  1  0.69556000  0.80195000  0.49082000  1.0
  O  O115  1  0.80444000  0.19805000  0.99082000  1.0
  O  O116  1  0.24018000  0.51573000  0.43192000  1.0
  O  O117  1  0.25982000  0.48427000  0.93192000  1.0
  O  O118  1  0.74018000  0.98427000  0.56808000  1.0
  O  O119  1  0.75981000  0.01573000  0.06808000  1.0
