# generated using pymatgen
data_Lu2Cd3H36(C2O3)12
_symmetry_space_group_name_H-M   'P 1'
_cell_length_a   18.38540000
_cell_length_b   18.38540000
_cell_length_c   18.38540000
_cell_angle_alpha   59.99970000
_cell_angle_beta   90.00025981
_cell_angle_gamma   120.00000000
_symmetry_Int_Tables_number   1
_chemical_formula_structural   Lu2Cd3H36(C2O3)12
_chemical_formula_sum   'Lu8 Cd12 H144 C96 O144'
_cell_volume   4394.43724081
_cell_formula_units_Z   4
loop_
 _symmetry_equiv_pos_site_id
 _symmetry_equiv_pos_as_xyz
  1  'x, y, z'
loop_
 _atom_site_type_symbol
 _atom_site_label
 _atom_site_symmetry_multiplicity
 _atom_site_fract_x
 _atom_site_fract_y
 _atom_site_fract_z
 _atom_site_occupancy
  Lu  Lu0  1  0.25002000  0.00000000  0.75000000  1.0
  Lu  Lu1  1  0.75000000  0.50000000  0.74999000  1.0
  Lu  Lu2  1  0.75000000  0.00001000  0.75000000  1.0
  Lu  Lu3  1  0.75000000  0.49999000  0.25000000  1.0
  Lu  Lu4  1  0.75002000  0.00000000  0.25000000  1.0
  Lu  Lu5  1  0.24999000  0.50000000  0.25000000  1.0
  Lu  Lu6  1  0.24999000  0.00002000  0.25000000  1.0
  Lu  Lu7  1  0.25001000  0.50001000  0.75001000  1.0
  Cd  Cd8  1  0.50000000  0.00000000  0.49999000  1.0
  Cd  Cd9  1  0.99999000  0.49999000  1.00000000  1.0
  Cd  Cd10  1  0.49999000  0.99999000  0.00002000  1.0
  Cd  Cd11  1  0.50000000  0.50000000  0.00001000  1.0
  Cd  Cd12  1  0.50000000  0.50000000  0.49999000  1.0
  Cd  Cd13  1  0.00000000  0.00001000  0.50001000  1.0
  Cd  Cd14  1  0.00001000  0.50002000  0.50000000  1.0
  Cd  Cd15  1  0.00000000  0.99999000  0.99999000  1.0
  Cd  Cd16  1  0.87500000  0.75000000  0.87499000  1.0
  Cd  Cd17  1  0.62500000  0.24999000  0.62500000  1.0
  Cd  Cd18  1  0.12500000  0.25001000  0.12500000  1.0
  Cd  Cd19  1  0.37500000  0.75001000  0.37499000  1.0
  H  H20  1  0.27922000  0.85316000  0.65165000  1.0
  H  H21  1  0.84834000  0.35314000  0.92606000  1.0
  H  H22  1  0.57391000  0.85315000  0.99519000  1.0
  H  H23  1  0.50482000  0.35316000  0.22077000  1.0
  H  H24  1  0.65166000  0.64684000  0.27920000  1.0
  H  H25  1  0.22077000  0.14683000  0.50481000  1.0
  H  H26  1  0.99519000  0.64686000  0.57392000  1.0
  H  H27  1  0.92608000  0.14684000  0.84835000  1.0
  H  H28  1  0.57392000  0.22557000  0.27923000  1.0
  H  H29  1  0.22076000  0.72557000  0.84834000  1.0
  H  H30  1  0.65165000  0.22557000  0.99519000  1.0
  H  H31  1  0.50481000  0.72559000  0.92607000  1.0
  H  H32  1  0.27923000  0.27440000  0.57393000  1.0
  H  H33  1  0.92606000  0.77441000  0.50481000  1.0
  H  H34  1  0.99519000  0.27441000  0.65166000  1.0
  H  H35  1  0.84834000  0.77442000  0.22076000  1.0
  H  H36  1  0.65166000  0.93089000  0.57392000  1.0
  H  H37  1  0.22076000  0.06911000  0.92608000  1.0
  H  H38  1  0.92606000  0.43087000  0.22078000  1.0
  H  H39  1  0.84833000  0.06911000  0.50482000  1.0
  H  H40  1  0.50480000  0.43087000  0.84833000  1.0
  H  H41  1  0.57393000  0.56911000  0.65165000  1.0
  H  H42  1  0.27920000  0.93086000  0.99520000  1.0
  H  H43  1  0.99520000  0.56914000  0.27921000  1.0
  H  H44  1  0.72077000  0.14683000  0.34835000  1.0
  H  H45  1  0.15164000  0.64685000  0.07391000  1.0
  H  H46  1  0.42606000  0.14685000  0.00482000  1.0
  H  H47  1  0.49519000  0.64685000  0.77925000  1.0
  H  H48  1  0.34834000  0.35315000  0.72078000  1.0
  H  H49  1  0.77921000  0.85313000  0.49519000  1.0
  H  H50  1  0.00479000  0.35313000  0.42608000  1.0
  H  H51  1  0.07396000  0.85317000  0.15165000  1.0
  H  H52  1  0.42608000  0.77442000  0.72079000  1.0
  H  H53  1  0.77923000  0.27441000  0.15166000  1.0
  H  H54  1  0.34833000  0.77440000  0.00481000  1.0
  H  H55  1  0.49517000  0.27441000  0.07394000  1.0
  H  H56  1  0.72079000  0.72558000  0.42606000  1.0
  H  H57  1  0.07392000  0.22557000  0.49521000  1.0
  H  H58  1  0.00481000  0.72557000  0.34834000  1.0
  H  H59  1  0.15165000  0.22559000  0.77923000  1.0
  H  H60  1  0.34834000  0.06911000  0.42608000  1.0
  H  H61  1  0.77923000  0.93087000  0.07393000  1.0
  H  H62  1  0.07392000  0.56911000  0.77924000  1.0
  H  H63  1  0.15166000  0.93088000  0.49521000  1.0
  H  H64  1  0.49518000  0.56911000  0.15165000  1.0
  H  H65  1  0.42606000  0.43087000  0.34833000  1.0
  H  H66  1  0.72079000  0.06912000  0.00481000  1.0
  H  H67  1  0.00483000  0.43088000  0.72079000  1.0
  H  H68  1  0.35792000  0.87260000  0.70881000  1.0
  H  H69  1  0.79117000  0.37259000  0.98531000  1.0
  H  H70  1  0.51468000  0.87261000  0.91855000  1.0
  H  H71  1  0.58144000  0.37260000  0.14208000  1.0
  H  H72  1  0.70883000  0.62740000  0.35790000  1.0
  H  H73  1  0.14209000  0.12739000  0.58145000  1.0
  H  H74  1  0.91855000  0.62739000  0.51469000  1.0
  H  H75  1  0.98530000  0.12739000  0.79116000  1.0
  H  H76  1  0.51469000  0.22351000  0.35793000  1.0
  H  H77  1  0.14209000  0.72355000  0.79115000  1.0
  H  H78  1  0.70882000  0.22350000  0.91856000  1.0
  H  H79  1  0.58143000  0.72352000  0.98531000  1.0
  H  H80  1  0.35794000  0.27649000  0.51469000  1.0
  H  H81  1  0.98530000  0.77648000  0.58143000  1.0
  H  H82  1  0.91857000  0.27650000  0.70882000  1.0
  H  H83  1  0.79117000  0.77646000  0.14206000  1.0
  H  H84  1  0.70882000  0.06675000  0.51469000  1.0
  H  H85  1  0.14207000  0.93324000  0.98530000  1.0
  H  H86  1  0.98532000  0.56675000  0.14208000  1.0
  H  H87  1  0.79117000  0.93325000  0.58146000  1.0
  H  H88  1  0.58143000  0.56673000  0.79115000  1.0
  H  H89  1  0.51469000  0.43324000  0.70881000  1.0
  H  H90  1  0.35792000  0.06673000  0.91859000  1.0
  H  H91  1  0.91856000  0.43326000  0.35792000  1.0
  H  H92  1  0.64208000  0.12737000  0.29118000  1.0
  H  H93  1  0.20882000  0.62738000  0.01470000  1.0
  H  H94  1  0.48529000  0.12740000  0.08145000  1.0
  H  H95  1  0.41855000  0.62738000  0.85794000  1.0
  H  H96  1  0.29116000  0.37260000  0.64209000  1.0
  H  H97  1  0.85793000  0.87260000  0.41856000  1.0
  H  H98  1  0.08141000  0.37259000  0.48533000  1.0
  H  H99  1  0.01467000  0.87260000  0.20880000  1.0
  H  H100  1  0.48532000  0.77648000  0.64209000  1.0
  H  H101  1  0.85792000  0.27647000  0.20883000  1.0
  H  H102  1  0.29117000  0.77650000  0.08142000  1.0
  H  H103  1  0.41855000  0.27650000  0.01470000  1.0
  H  H104  1  0.64210000  0.72352000  0.48530000  1.0
  H  H105  1  0.01469000  0.22352000  0.41857000  1.0
  H  H106  1  0.08148000  0.72357000  0.29114000  1.0
  H  H107  1  0.20883000  0.22352000  0.85792000  1.0
  H  H108  1  0.29117000  0.93325000  0.48531000  1.0
  H  H109  1  0.85793000  0.06674000  0.01468000  1.0
  H  H110  1  0.01470000  0.43324000  0.85792000  1.0
  H  H111  1  0.20882000  0.06675000  0.41858000  1.0
  H  H112  1  0.41853000  0.43324000  0.20882000  1.0
  H  H113  1  0.48531000  0.56673000  0.29117000  1.0
  H  H114  1  0.64209000  0.93325000  0.08144000  1.0
  H  H115  1  0.08143000  0.56674000  0.64209000  1.0
  H  H116  1  0.02549000  0.77278000  0.94483000  1.0
  H  H117  1  0.55516000  0.27278000  0.75270000  1.0
  H  H118  1  0.74726000  0.77276000  0.78239000  1.0
  H  H119  1  0.71762000  0.27277000  0.47452000  1.0
  H  H120  1  0.94483000  0.72719000  0.02550000  1.0
  H  H121  1  0.47447000  0.22714000  0.71766000  1.0
  H  H122  1  0.78233000  0.72714000  0.74733000  1.0
  H  H123  1  0.75270000  0.22717000  0.55519000  1.0
  H  H124  1  0.74727000  0.69211000  0.02548000  1.0
  H  H125  1  0.47449000  0.19214000  0.55518000  1.0
  H  H126  1  0.94481000  0.69212000  0.78235000  1.0
  H  H127  1  0.71763000  0.19212000  0.75269000  1.0
  H  H128  1  0.02548000  0.80787000  0.74728000  1.0
  H  H129  1  0.75270000  0.30787000  0.71763000  1.0
  H  H130  1  0.78236000  0.80787000  0.94481000  1.0
  H  H131  1  0.55516000  0.30787000  0.47449000  1.0
  H  H132  1  0.94483000  0.97033000  0.74730000  1.0
  H  H133  1  0.47445000  0.02966000  0.75267000  1.0
  H  H134  1  0.75267000  0.47032000  0.47447000  1.0
  H  H135  1  0.55512000  0.02965000  0.71761000  1.0
  H  H136  1  0.71762000  0.47032000  0.55515000  1.0
  H  H137  1  0.74730000  0.52965000  0.94482000  1.0
  H  H138  1  0.02549000  0.97033000  0.78238000  1.0
  H  H139  1  0.78236000  0.52966000  0.02550000  1.0
  H  H140  1  0.97450000  0.22718000  0.05518000  1.0
  H  H141  1  0.44483000  0.72721000  0.24729000  1.0
  H  H142  1  0.25267000  0.22716000  0.21765000  1.0
  H  H143  1  0.28236000  0.72716000  0.52552000  1.0
  H  H144  1  0.05518000  0.27280000  0.97450000  1.0
  H  H145  1  0.52551000  0.77281000  0.28236000  1.0
  H  H146  1  0.21762000  0.27277000  0.25273000  1.0
  H  H147  1  0.24727000  0.77275000  0.44487000  1.0
  H  H148  1  0.25268000  0.30787000  0.97450000  1.0
  H  H149  1  0.52551000  0.80787000  0.44482000  1.0
  H  H150  1  0.05512000  0.30786000  0.21763000  1.0
  H  H151  1  0.28238000  0.80786000  0.24726000  1.0
  H  H152  1  0.97447000  0.19212000  0.25267000  1.0
  H  H153  1  0.24731000  0.69211000  0.28236000  1.0
  H  H154  1  0.21763000  0.19213000  0.05518000  1.0
  H  H155  1  0.44483000  0.69212000  0.52549000  1.0
  H  H156  1  0.05520000  0.02968000  0.25268000  1.0
  H  H157  1  0.52551000  0.97034000  0.24729000  1.0
  H  H158  1  0.24731000  0.52967000  0.52549000  1.0
  H  H159  1  0.44484000  0.97034000  0.28238000  1.0
  H  H160  1  0.28236000  0.52968000  0.44480000  1.0
  H  H161  1  0.25269000  0.47034000  0.05518000  1.0
  H  H162  1  0.97451000  0.02967000  0.21763000  1.0
  H  H163  1  0.21763000  0.47035000  0.97450000  1.0
  C  C164  1  0.36835000  0.00994000  0.61122000  1.0
  C  C165  1  0.88877000  0.50993000  0.85839000  1.0
  C  C166  1  0.64159000  0.00993000  0.87884000  1.0
  C  C167  1  0.62118000  0.50994000  0.13166000  1.0
  C  C168  1  0.61123000  0.49005000  0.36833000  1.0
  C  C169  1  0.13166000  0.99005000  0.62118000  1.0
  C  C170  1  0.87884000  0.49007000  0.64160000  1.0
  C  C171  1  0.85840000  0.99007000  0.88877000  1.0
  C  C172  1  0.64162000  0.25283000  0.36833000  1.0
  C  C173  1  0.13167000  0.75284000  0.88877000  1.0
  C  C174  1  0.61122000  0.25282000  0.87883000  1.0
  C  C175  1  0.62116000  0.75283000  0.85840000  1.0
  C  C176  1  0.36834000  0.24717000  0.64160000  1.0
  C  C177  1  0.85839000  0.74717000  0.62116000  1.0
  C  C178  1  0.87884000  0.24719000  0.61122000  1.0
  C  C179  1  0.88878000  0.74716000  0.13167000  1.0
  C  C180  1  0.61124000  0.97957000  0.64159000  1.0
  C  C181  1  0.13169000  0.02045000  0.85838000  1.0
  C  C182  1  0.85839000  0.47956000  0.13167000  1.0
  C  C183  1  0.88877000  0.02046000  0.62116000  1.0
  C  C184  1  0.62115000  0.47954000  0.88877000  1.0
  C  C185  1  0.64160000  0.52043000  0.61122000  1.0
  C  C186  1  0.36833000  0.97955000  0.87885000  1.0
  C  C187  1  0.87884000  0.52045000  0.36833000  1.0
  C  C188  1  0.63168000  0.99006000  0.38877000  1.0
  C  C189  1  0.11121000  0.49006000  0.14161000  1.0
  C  C190  1  0.35838000  0.99007000  0.12117000  1.0
  C  C191  1  0.37884000  0.49005000  0.86835000  1.0
  C  C192  1  0.38878000  0.50994000  0.63167000  1.0
  C  C193  1  0.86834000  0.00993000  0.37884000  1.0
  C  C194  1  0.12115000  0.50993000  0.35841000  1.0
  C  C195  1  0.14160000  0.00995000  0.11122000  1.0
  C  C196  1  0.35841000  0.74718000  0.63167000  1.0
  C  C197  1  0.86834000  0.24716000  0.11123000  1.0
  C  C198  1  0.38875000  0.74716000  0.12117000  1.0
  C  C199  1  0.37884000  0.24718000  0.14161000  1.0
  C  C200  1  0.63167000  0.75283000  0.35838000  1.0
  C  C201  1  0.14160000  0.25283000  0.37884000  1.0
  C  C202  1  0.12117000  0.75285000  0.38877000  1.0
  C  C203  1  0.11122000  0.25283000  0.86834000  1.0
  C  C204  1  0.38876000  0.02043000  0.35840000  1.0
  C  C205  1  0.86835000  0.97957000  0.14159000  1.0
  C  C206  1  0.14162000  0.52045000  0.86833000  1.0
  C  C207  1  0.11121000  0.97955000  0.37886000  1.0
  C  C208  1  0.37883000  0.52045000  0.11122000  1.0
  C  C209  1  0.35841000  0.47957000  0.38876000  1.0
  C  C210  1  0.63169000  0.02044000  0.12116000  1.0
  C  C211  1  0.12118000  0.47958000  0.63166000  1.0
  C  C212  1  0.31284000  0.89416000  0.68194000  1.0
  C  C213  1  0.81805000  0.39415000  0.91867000  1.0
  C  C214  1  0.58131000  0.89417000  0.92389000  1.0
  C  C215  1  0.57611000  0.39416000  0.18716000  1.0
  C  C216  1  0.68194000  0.60583000  0.31283000  1.0
  C  C217  1  0.18716000  0.10582000  0.57611000  1.0
  C  C218  1  0.92390000  0.60584000  0.58132000  1.0
  C  C219  1  0.91868000  0.10584000  0.81806000  1.0
  C  C220  1  0.58132000  0.26325000  0.31285000  1.0
  C  C221  1  0.18716000  0.76327000  0.81805000  1.0
  C  C222  1  0.68192000  0.26324000  0.92389000  1.0
  C  C223  1  0.57611000  0.76326000  0.91867000  1.0
  C  C224  1  0.31286000  0.23674000  0.58132000  1.0
  C  C225  1  0.91867000  0.73673000  0.57610000  1.0
  C  C226  1  0.92390000  0.23675000  0.68194000  1.0
  C  C227  1  0.81807000  0.73674000  0.18714000  1.0
  C  C228  1  0.68192000  0.99479000  0.58132000  1.0
  C  C229  1  0.18715000  0.00523000  0.91866000  1.0
  C  C230  1  0.91866000  0.49477000  0.18716000  1.0
  C  C231  1  0.81808000  0.00523000  0.57611000  1.0
  C  C232  1  0.57610000  0.49477000  0.81805000  1.0
  C  C233  1  0.58132000  0.50520000  0.68193000  1.0
  C  C234  1  0.31284000  0.99477000  0.92391000  1.0
  C  C235  1  0.92390000  0.50523000  0.31284000  1.0
  C  C236  1  0.68716000  0.10582000  0.31807000  1.0
  C  C237  1  0.18192000  0.60583000  0.08132000  1.0
  C  C238  1  0.41866000  0.10584000  0.07611000  1.0
  C  C239  1  0.42389000  0.60582000  0.81287000  1.0
  C  C240  1  0.31806000  0.39417000  0.68716000  1.0
  C  C241  1  0.81285000  0.89416000  0.42389000  1.0
  C  C242  1  0.07609000  0.39415000  0.41869000  1.0
  C  C243  1  0.08132000  0.89418000  0.18193000  1.0
  C  C244  1  0.41869000  0.73675000  0.68716000  1.0
  C  C245  1  0.81284000  0.23672000  0.18195000  1.0
  C  C246  1  0.31805000  0.73674000  0.07611000  1.0
  C  C247  1  0.42388000  0.23675000  0.08133000  1.0
  C  C248  1  0.68716000  0.76325000  0.41867000  1.0
  C  C249  1  0.08132000  0.26326000  0.42391000  1.0
  C  C250  1  0.07612000  0.76328000  0.31806000  1.0
  C  C251  1  0.18193000  0.26326000  0.81285000  1.0
  C  C252  1  0.31806000  0.00522000  0.41868000  1.0
  C  C253  1  0.81285000  0.99477000  0.08132000  1.0
  C  C254  1  0.08133000  0.50522000  0.81285000  1.0
  C  C255  1  0.18193000  0.99478000  0.42391000  1.0
  C  C256  1  0.42388000  0.50522000  0.18192000  1.0
  C  C257  1  0.41868000  0.49478000  0.31806000  1.0
  C  C258  1  0.68717000  0.00523000  0.07610000  1.0
  C  C259  1  0.07612000  0.49479000  0.68716000  1.0
  O  O260  1  0.42304000  0.04829000  0.54015000  1.0
  O  O261  1  0.95984000  0.54827000  0.87474000  1.0
  O  O262  1  0.62524000  0.04830000  0.91154000  1.0
  O  O263  1  0.58849000  0.54831000  0.07693000  1.0
  O  O264  1  0.54017000  0.45169000  0.42305000  1.0
  O  O265  1  0.07690000  0.95167000  0.58852000  1.0
  O  O266  1  0.91155000  0.45171000  0.62525000  1.0
  O  O267  1  0.87476000  0.95171000  0.95983000  1.0
  O  O268  1  0.62526000  0.16540000  0.42304000  1.0
  O  O269  1  0.07694000  0.66541000  0.95983000  1.0
  O  O270  1  0.54015000  0.16540000  0.91153000  1.0
  O  O271  1  0.58849000  0.66542000  0.87476000  1.0
  O  O272  1  0.42305000  0.33459000  0.62525000  1.0
  O  O273  1  0.87475000  0.83459000  0.58845000  1.0
  O  O274  1  0.91152000  0.33460000  0.54017000  1.0
  O  O275  1  0.95985000  0.83458000  0.07695000  1.0
  O  O276  1  0.54018000  0.96324000  0.62524000  1.0
  O  O277  1  0.07695000  0.03678000  0.87473000  1.0
  O  O278  1  0.87476000  0.46324000  0.07693000  1.0
  O  O279  1  0.95983000  0.03681000  0.58847000  1.0
  O  O280  1  0.58843000  0.46318000  0.95983000  1.0
  O  O281  1  0.62525000  0.53677000  0.54016000  1.0
  O  O282  1  0.42304000  0.96319000  0.91157000  1.0
  O  O283  1  0.91155000  0.53681000  0.42304000  1.0
  O  O284  1  0.57696000  0.95170000  0.45983000  1.0
  O  O285  1  0.04015000  0.45170000  0.12526000  1.0
  O  O286  1  0.37475000  0.95170000  0.08849000  1.0
  O  O287  1  0.41156000  0.45171000  0.92305000  1.0
  O  O288  1  0.45983000  0.54829000  0.57695000  1.0
  O  O289  1  0.92305000  0.04829000  0.41155000  1.0
  O  O290  1  0.08844000  0.54828000  0.37476000  1.0
  O  O291  1  0.12525000  0.04831000  0.04015000  1.0
  O  O292  1  0.37475000  0.83459000  0.57697000  1.0
  O  O293  1  0.92305000  0.33459000  0.04016000  1.0
  O  O294  1  0.45982000  0.83458000  0.08848000  1.0
  O  O295  1  0.41155000  0.33459000  0.12527000  1.0
  O  O296  1  0.57695000  0.66541000  0.37474000  1.0
  O  O297  1  0.12525000  0.16541000  0.41153000  1.0
  O  O298  1  0.08848000  0.66543000  0.45983000  1.0
  O  O299  1  0.04018000  0.16541000  0.92307000  1.0
  O  O300  1  0.45982000  0.03675000  0.37476000  1.0
  O  O301  1  0.92307000  0.96323000  0.12524000  1.0
  O  O302  1  0.12523000  0.53675000  0.92308000  1.0
  O  O303  1  0.04014000  0.96317000  0.41159000  1.0
  O  O304  1  0.41155000  0.53682000  0.04015000  1.0
  O  O305  1  0.37476000  0.46321000  0.45983000  1.0
  O  O306  1  0.57697000  0.03679000  0.08846000  1.0
  O  O307  1  0.08849000  0.46325000  0.57694000  1.0
  O  O308  1  0.35587000  0.06340000  0.62746000  1.0
  O  O309  1  0.87254000  0.56340000  0.79246000  1.0
  O  O310  1  0.70754000  0.06340000  0.80915000  1.0
  O  O311  1  0.69085000  0.56339000  0.14416000  1.0
  O  O312  1  0.62746000  0.43660000  0.35584000  1.0
  O  O313  1  0.14418000  0.93660000  0.69084000  1.0
  O  O314  1  0.80916000  0.43660000  0.70755000  1.0
  O  O315  1  0.79244000  0.93659000  0.87256000  1.0
  O  O316  1  0.70756000  0.33499000  0.35585000  1.0
  O  O317  1  0.14419000  0.83502000  0.87255000  1.0
  O  O318  1  0.62744000  0.33499000  0.80915000  1.0
  O  O319  1  0.69083000  0.83501000  0.79244000  1.0
  O  O320  1  0.35586000  0.16500000  0.70755000  1.0
  O  O321  1  0.79243000  0.66499000  0.69085000  1.0
  O  O322  1  0.80916000  0.16501000  0.62745000  1.0
  O  O323  1  0.87257000  0.66499000  0.14417000  1.0
  O  O324  1  0.62744000  0.98327000  0.70756000  1.0
  O  O325  1  0.14417000  0.01672000  0.79243000  1.0
  O  O326  1  0.79244000  0.48328000  0.14416000  1.0
  O  O327  1  0.87256000  0.01674000  0.69084000  1.0
  O  O328  1  0.69084000  0.48329000  0.87254000  1.0
  O  O329  1  0.70755000  0.51671000  0.62743000  1.0
  O  O330  1  0.35586000  0.98330000  0.80916000  1.0
  O  O331  1  0.80914000  0.51670000  0.35585000  1.0
  O  O332  1  0.64417000  0.93659000  0.37256000  1.0
  O  O333  1  0.12743000  0.43660000  0.20757000  1.0
  O  O334  1  0.29240000  0.93661000  0.19084000  1.0
  O  O335  1  0.30915000  0.43660000  0.85587000  1.0
  O  O336  1  0.37256000  0.56340000  0.64417000  1.0
  O  O337  1  0.85586000  0.06340000  0.30914000  1.0
  O  O338  1  0.19084000  0.56339000  0.29246000  1.0
  O  O339  1  0.20753000  0.06341000  0.12746000  1.0
  O  O340  1  0.29246000  0.66500000  0.64416000  1.0
  O  O341  1  0.85585000  0.16499000  0.12745000  1.0
  O  O342  1  0.37253000  0.66499000  0.19085000  1.0
  O  O343  1  0.30915000  0.16502000  0.20756000  1.0
  O  O344  1  0.64417000  0.83501000  0.29243000  1.0
  O  O345  1  0.20756000  0.33501000  0.30916000  1.0
  O  O346  1  0.19084000  0.83503000  0.37255000  1.0
  O  O347  1  0.12744000  0.33500000  0.85585000  1.0
  O  O348  1  0.37253000  0.01672000  0.29244000  1.0
  O  O349  1  0.85586000  0.98329000  0.20754000  1.0
  O  O350  1  0.20758000  0.51675000  0.85582000  1.0
  O  O351  1  0.12744000  0.98332000  0.30916000  1.0
  O  O352  1  0.30915000  0.51672000  0.12744000  1.0
  O  O353  1  0.29246000  0.48331000  0.37255000  1.0
  O  O354  1  0.64417000  0.01671000  0.19085000  1.0
  O  O355  1  0.19088000  0.48333000  0.64415000  1.0
  O  O356  1  0.25002000  0.86991000  0.75000000  1.0
  O  O357  1  0.75000000  0.36990000  0.88009000  1.0
  O  O358  1  0.61990000  0.86990000  0.88010000  1.0
  O  O359  1  0.61992000  0.36991000  0.25000000  1.0
  O  O360  1  0.75000000  0.63008000  0.25000000  1.0
  O  O361  1  0.25003000  0.13009000  0.61990000  1.0
  O  O362  1  0.88009000  0.63009000  0.61991000  1.0
  O  O363  1  0.88008000  0.13010000  0.75001000  1.0
  O  O364  1  0.74999000  0.00001000  0.61991000  1.0
  O  O365  1  0.25003000  0.00003000  0.88007000  1.0
  O  O366  1  0.88009000  0.50000000  0.25000000  1.0
  O  O367  1  0.61989000  0.49997000  0.75000000  1.0
  O  O368  1  0.75001000  0.13009000  0.25000000  1.0
  O  O369  1  0.24998000  0.63009000  0.11992000  1.0
  O  O370  1  0.38007000  0.13010000  0.11990000  1.0
  O  O371  1  0.38010000  0.63009000  0.75001000  1.0
  O  O372  1  0.25000000  0.36991000  0.75001000  1.0
  O  O373  1  0.75002000  0.86991000  0.38008000  1.0
  O  O374  1  0.11991000  0.36990000  0.38011000  1.0
  O  O375  1  0.11989000  0.86993000  0.25001000  1.0
  O  O376  1  0.25000000  0.00002000  0.38009000  1.0
  O  O377  1  0.75001000  0.99999000  0.11991000  1.0
  O  O378  1  0.11993000  0.50003000  0.74999000  1.0
  O  O379  1  0.38009000  0.50001000  0.24999000  1.0
  O  O380  1  0.96368000  0.75005000  0.96365000  1.0
  O  O381  1  0.53635000  0.25008000  0.71360000  1.0
  O  O382  1  0.78646000  0.75019000  0.78619000  1.0
  O  O383  1  0.71359000  0.24986000  0.53638000  1.0
  O  O384  1  0.78641000  0.75005000  0.96369000  1.0
  O  O385  1  0.53637000  0.24994000  0.53628000  1.0
  O  O386  1  0.96373000  0.74991000  0.78647000  1.0
  O  O387  1  0.71368000  0.25000000  0.71366000  1.0
  O  O388  1  0.96370000  0.92734000  0.78625000  1.0
  O  O389  1  0.53633000  0.07264000  0.71376000  1.0
  O  O390  1  0.71373000  0.42734000  0.53633000  1.0
  O  O391  1  0.78619000  0.57265000  0.96372000  1.0
  O  O392  1  0.03635000  0.25005000  0.03632000  1.0
  O  O393  1  0.46368000  0.75004000  0.28630000  1.0
  O  O394  1  0.21373000  0.25009000  0.21362000  1.0
  O  O395  1  0.28644000  0.75016000  0.46363000  1.0
  O  O396  1  0.21372000  0.25003000  0.03636000  1.0
  O  O397  1  0.46367000  0.75002000  0.46367000  1.0
  O  O398  1  0.03630000  0.25001000  0.21365000  1.0
  O  O399  1  0.28626000  0.74995000  0.28638000  1.0
  O  O400  1  0.03630000  0.07266000  0.21377000  1.0
  O  O401  1  0.46365000  0.92735000  0.28626000  1.0
  O  O402  1  0.28634000  0.57266000  0.46366000  1.0
  O  O403  1  0.21373000  0.42735000  0.03630000  1.0
