# generated using pymatgen
data_Zr3H4C25Cl(O8F5)2
_symmetry_space_group_name_H-M   'P 1'
_cell_length_a   14.87170000
_cell_length_b   14.87332814
_cell_length_c   14.87497312
_cell_angle_alpha   119.98672628
_cell_angle_beta   90.03471279
_cell_angle_gamma   119.93555006
_symmetry_Int_Tables_number   1
_chemical_formula_structural   Zr3H4C25Cl(O8F5)2
_chemical_formula_sum   'Zr6 H8 C50 Cl2 O32 F20'
_cell_volume   2328.56383309
_cell_formula_units_Z   2
loop_
 _symmetry_equiv_pos_site_id
 _symmetry_equiv_pos_as_xyz
  1  'x, y, z'
loop_
 _atom_site_type_symbol
 _atom_site_label
 _atom_site_symmetry_multiplicity
 _atom_site_fract_x
 _atom_site_fract_y
 _atom_site_fract_z
 _atom_site_occupancy
  Zr  Zr0  1  0.38053000  0.50013000  0.61937000  1.0
  Zr  Zr1  1  0.61800000  0.50029000  0.38130000  1.0
  Zr  Zr2  1  0.61827000  0.50026000  0.61809000  1.0
  Zr  Zr3  1  0.38032000  0.50006000  0.37994000  1.0
  Zr  Zr4  1  0.37970000  0.26225000  0.38072000  1.0
  Zr  Zr5  1  0.61768000  0.73815000  0.61865000  1.0
  H  H6  1  0.40614000  0.31404000  0.59414000  1.0
  H  H7  1  0.40580000  0.31399000  0.21906000  1.0
  H  H8  1  0.77954000  0.68683000  0.59292000  1.0
  H  H9  1  0.40512000  0.68724000  0.59332000  1.0
  H  H10  1  0.33843000  0.58618000  0.95692000  1.0
  H  H11  1  0.25565000  0.41737000  0.87261000  1.0
  H  H12  1  0.25513000  0.41731000  0.04249000  1.0
  H  H13  1  0.33784000  0.58609000  0.12705000  1.0
  C  C14  1  0.19455000  0.19848000  0.49722000  1.0
  C  C15  1  0.50235000  0.19861000  0.20131000  1.0
  C  C16  1  0.79871000  0.80214000  0.49763000  1.0
  C  C17  1  0.50214000  0.80158000  0.80502000  1.0
  C  C18  1  0.50393000  0.50608000  0.80434000  1.0
  C  C19  1  0.19482000  0.49419000  0.49649000  1.0
  C  C20  1  0.50320000  0.50590000  0.20081000  1.0
  C  C21  1  0.79807000  0.49379000  0.49626000  1.0
  C  C22  1  0.50236000  0.19854000  0.49643000  1.0
  C  C23  1  0.79878000  0.80205000  0.80355000  1.0
  C  C24  1  0.50187000  0.80148000  0.49587000  1.0
  C  C25  1  0.19429000  0.19840000  0.20061000  1.0
  C  C26  1  0.90037000  0.90317000  0.49829000  1.0
  C  C27  1  0.09436000  0.09749000  0.49797000  1.0
  C  C28  1  0.95124000  0.87323000  0.41861000  1.0
  C  C29  1  0.04459000  0.12738000  0.57873000  1.0
  C  C30  1  0.04476000  0.96706000  0.41826000  1.0
  C  C31  1  0.95085000  0.03362000  0.57882000  1.0
  C  C32  1  0.50247000  0.09745000  0.10043000  1.0
  C  C33  1  0.50227000  0.90273000  0.90609000  1.0
  C  C34  1  0.58277000  0.12714000  0.05018000  1.0
  C  C35  1  0.42187000  0.87313000  0.95624000  1.0
  C  C36  1  0.58254000  0.03311000  0.95614000  1.0
  C  C37  1  0.42182000  0.96706000  0.04996000  1.0
  C  C38  1  0.90021000  0.90310000  0.90415000  1.0
  C  C39  1  0.09403000  0.09742000  0.09897000  1.0
  C  C40  1  0.95050000  0.03351000  0.95411000  1.0
  C  C41  1  0.04443000  0.96701000  0.04834000  1.0
  C  C42  1  0.04419000  0.12728000  0.04805000  1.0
  C  C43  1  0.95098000  0.87315000  0.95403000  1.0
  C  C44  1  0.50226000  0.09735000  0.49632000  1.0
  C  C45  1  0.50193000  0.90261000  0.49603000  1.0
  C  C46  1  0.42148000  0.96698000  0.41643000  1.0
  C  C47  1  0.58223000  0.03297000  0.57642000  1.0
  C  C48  1  0.42148000  0.87303000  0.41627000  1.0
  C  C49  1  0.58252000  0.12702000  0.57637000  1.0
  C  C50  1  0.50834000  0.50442000  0.90373000  1.0
  C  C51  1  0.50784000  0.50427000  0.09978000  1.0
  C  C52  1  0.42921000  0.50380000  0.95442000  1.0
  C  C53  1  0.58873000  0.50238000  0.04881000  1.0
  C  C54  1  0.42897000  0.50379000  0.04813000  1.0
  C  C55  1  0.58901000  0.50251000  0.95318000  1.0
  C  C56  1  0.32671000  0.50237000  0.94706000  1.0
  C  C57  1  0.32640000  0.50234000  0.05332000  1.0
  C  C58  1  0.89943000  0.49441000  0.49651000  1.0
  C  C59  1  0.09397000  0.49465000  0.49663000  1.0
  C  C60  1  0.95006000  0.49509000  0.57714000  1.0
  C  C61  1  0.04395000  0.49520000  0.41659000  1.0
  C  C62  1  0.04405000  0.49523000  0.57721000  1.0
  C  C63  1  0.94993000  0.49502000  0.41652000  1.0
  Cl  Cl64  1  0.68997000  0.49836000  0.09864000  1.0
  Cl  Cl65  1  0.69059000  0.49886000  0.89999000  1.0
  O  O66  1  0.23370000  0.31355000  0.57354000  1.0
  O  O67  1  0.57796000  0.31359000  0.23979000  1.0
  O  O68  1  0.76092000  0.68725000  0.42252000  1.0
  O  O69  1  0.42607000  0.68648000  0.76607000  1.0
  O  O70  1  0.57854000  0.50863000  0.76150000  1.0
  O  O71  1  0.23405000  0.49485000  0.42064000  1.0
  O  O72  1  0.42348000  0.50318000  0.23498000  1.0
  O  O73  1  0.75940000  0.49429000  0.57265000  1.0
  O  O74  1  0.42560000  0.16145000  0.42091000  1.0
  O  O75  1  0.75883000  0.83899000  0.76511000  1.0
  O  O76  1  0.57710000  0.83857000  0.57284000  1.0
  O  O77  1  0.23335000  0.16130000  0.23966000  1.0
  O  O78  1  0.76118000  0.68718000  0.76368000  1.0
  O  O79  1  0.42589000  0.68641000  0.41966000  1.0
  O  O80  1  0.23334000  0.31344000  0.23937000  1.0
  O  O81  1  0.57821000  0.31350000  0.57274000  1.0
  O  O82  1  0.42431000  0.50356000  0.76741000  1.0
  O  O83  1  0.75925000  0.49437000  0.42046000  1.0
  O  O84  1  0.57791000  0.50871000  0.24646000  1.0
  O  O85  1  0.23402000  0.49467000  0.57293000  1.0
  O  O86  1  0.57732000  0.83866000  0.76516000  1.0
  O  O87  1  0.23337000  0.16132000  0.42092000  1.0
  O  O88  1  0.42569000  0.16150000  0.23976000  1.0
  O  O89  1  0.75879000  0.83912000  0.57296000  1.0
  O  O90  1  0.43182000  0.63412000  0.56672000  1.0
  O  O91  1  0.69978000  0.63403000  0.56656000  1.0
  O  O92  1  0.43149000  0.36601000  0.29884000  1.0
  O  O93  1  0.43179000  0.36608000  0.56641000  1.0
  O  O94  1  0.54781000  0.40095000  0.45007000  1.0
  O  O95  1  0.35142000  0.40210000  0.45068000  1.0
  O  O96  1  0.54782000  0.59884000  0.45082000  1.0
  O  O97  1  0.54801000  0.59877000  0.64714000  1.0
  F  F98  1  0.91279000  0.75261000  0.33858000  1.0
  F  F99  1  0.08491000  0.24829000  0.66069000  1.0
  F  F100  1  0.08494000  0.92563000  0.33765000  1.0
  F  F101  1  0.91176000  0.07506000  0.66057000  1.0
  F  F102  1  0.66419000  0.24770000  0.08999000  1.0
  F  F103  1  0.34026000  0.75228000  0.91634000  1.0
  F  F104  1  0.66344000  0.07430000  0.91623000  1.0
  F  F105  1  0.34029000  0.92580000  0.08926000  1.0
  F  F106  1  0.91132000  0.07490000  0.91376000  1.0
  F  F107  1  0.08455000  0.92562000  0.08769000  1.0
  F  F108  1  0.08440000  0.24816000  0.08702000  1.0
  F  F109  1  0.91254000  0.75253000  0.91347000  1.0
  F  F110  1  0.33993000  0.92578000  0.33586000  1.0
  F  F111  1  0.66311000  0.07409000  0.65756000  1.0
  F  F112  1  0.33984000  0.75220000  0.33531000  1.0
  F  F113  1  0.66398000  0.24758000  0.65714000  1.0
  F  F114  1  0.91080000  0.49584000  0.65865000  1.0
  F  F115  1  0.08407000  0.49611000  0.33589000  1.0
  F  F116  1  0.08429000  0.49622000  0.65887000  1.0
  F  F117  1  0.91049000  0.49567000  0.33572000  1.0
