# generated using pymatgen
data_Zn3H38C50(N2O9)2
_symmetry_space_group_name_H-M   'P 1'
_cell_length_a   8.24786000
_cell_length_b   18.43390000
_cell_length_c   18.50560000
_cell_angle_alpha   109.32500000
_cell_angle_beta   89.98940000
_cell_angle_gamma   102.93400000
_symmetry_Int_Tables_number   1
_chemical_formula_structural   Zn3H38C50(N2O9)2
_chemical_formula_sum   'Zn6 H76 C100 N8 O36'
_cell_volume   2579.34149214
_cell_formula_units_Z   2
loop_
 _symmetry_equiv_pos_site_id
 _symmetry_equiv_pos_as_xyz
  1  'x, y, z'
loop_
 _atom_site_type_symbol
 _atom_site_label
 _atom_site_symmetry_multiplicity
 _atom_site_fract_x
 _atom_site_fract_y
 _atom_site_fract_z
 _atom_site_occupancy
  Zn  Zn0  1  0.06215000  0.58045000  0.23828000  1.0
  Zn  Zn1  1  0.48202000  0.41926000  0.26174000  1.0
  Zn  Zn2  1  0.93785000  0.41955000  0.76172000  1.0
  Zn  Zn3  1  0.51798000  0.58074000  0.73826000  1.0
  Zn  Zn4  1  0.27760000  0.00000000  0.25037000  1.0
  Zn  Zn5  1  0.72239000  0.00000000  0.74962000  1.0
  H  H6  1  0.67608000  0.87782000  0.49747000  1.0
  H  H7  1  0.79915000  0.12191000  0.00233000  1.0
  H  H8  1  0.32392000  0.12218000  0.50253000  1.0
  H  H9  1  0.20085000  0.87809000  0.99767000  1.0
  H  H10  1  0.39619000  0.78986000  0.49688000  1.0
  H  H11  1  0.60683000  0.20966000  0.00296000  1.0
  H  H12  1  0.60380000  0.21014000  0.50312000  1.0
  H  H13  1  0.39317000  0.79035000  0.99704000  1.0
  H  H14  1  0.34850000  0.64510000  0.43346000  1.0
  H  H15  1  0.70332000  0.35443000  0.06646000  1.0
  H  H16  1  0.65149000  0.35490000  0.56654000  1.0
  H  H17  1  0.29669000  0.64558000  0.93354000  1.0
  H  H18  1  0.95288000  0.77535000  0.54456000  1.0
  H  H19  1  0.17896000  0.22470000  0.95543000  1.0
  H  H20  1  0.04711000  0.22465000  0.45545000  1.0
  H  H21  1  0.82104000  0.77530000  0.04457000  1.0
  H  H22  1  0.19922000  0.82310000  0.64085000  1.0
  H  H23  1  0.37717000  0.17675000  0.85900000  1.0
  H  H24  1  0.80079000  0.17691000  0.35915000  1.0
  H  H25  1  0.62283000  0.82325000  0.14100000  1.0
  H  H26  1  0.42827000  0.99210000  0.53727000  1.0
  H  H27  1  0.43614000  0.00743000  0.96235000  1.0
  H  H28  1  0.57173000  0.00789000  0.46273000  1.0
  H  H29  1  0.56386000  0.99258000  0.03765000  1.0
  H  H30  1  0.18748000  0.94371000  0.43751000  1.0
  H  H31  1  0.24416000  0.05605000  0.06226000  1.0
  H  H32  1  0.81251000  0.05628000  0.56249000  1.0
  H  H33  1  0.75584000  0.94396000  0.93774000  1.0
  H  H34  1  0.40155000  0.56285000  0.19441000  1.0
  H  H35  1  0.83935000  0.43719000  0.30579000  1.0
  H  H36  1  0.59845000  0.43715000  0.80560000  1.0
  H  H37  1  0.16065000  0.56281000  0.69422000  1.0
  H  H38  1  0.68356000  0.65020000  0.20910000  1.0
  H  H39  1  0.03436000  0.34999000  0.29106000  1.0
  H  H40  1  0.31644000  0.34980000  0.79090000  1.0
  H  H41  1  0.96564000  0.65001000  0.70894000  1.0
  H  H42  1  0.46001000  0.85028000  0.30208000  1.0
  H  H43  1  0.61118000  0.14972000  0.19793000  1.0
  H  H44  1  0.53999000  0.14972000  0.69792000  1.0
  H  H45  1  0.38882000  0.85028000  0.80207000  1.0
  H  H46  1  0.18966000  0.75384000  0.29076000  1.0
  H  H47  1  0.43691000  0.24596000  0.20932000  1.0
  H  H48  1  0.81034000  0.24616000  0.70924000  1.0
  H  H49  1  0.56309000  0.75404000  0.79067000  1.0
  H  H50  1  0.13599000  0.82364000  0.18018000  1.0
  H  H51  1  0.31289000  0.17638000  0.32039000  1.0
  H  H52  1  0.86401000  0.17636000  0.81982000  1.0
  H  H53  1  0.68712000  0.82362000  0.67961000  1.0
  H  H54  1  0.87304000  0.72567000  0.17781000  1.0
  H  H55  1  0.14823000  0.27443000  0.32248000  1.0
  H  H56  1  0.12697000  0.27433000  0.82218000  1.0
  H  H57  1  0.85177000  0.72557000  0.67752000  1.0
  H  H58  1  0.70366000  0.91731000  0.34326000  1.0
  H  H59  1  0.78755000  0.08282000  0.15691000  1.0
  H  H60  1  0.29635000  0.08269000  0.65674000  1.0
  H  H61  1  0.21245000  0.91718000  0.84309000  1.0
  H  H62  1  0.97263000  0.00598000  0.33796000  1.0
  H  H63  1  0.96736000  0.99408000  0.16251000  1.0
  H  H64  1  0.02737000  0.99402000  0.66204000  1.0
  H  H65  1  0.03264000  0.00591000  0.83749000  1.0
  H  H66  1  0.22214000  0.53383000  0.33057000  1.0
  H  H67  1  0.68841000  0.46613000  0.16951000  1.0
  H  H68  1  0.77786000  0.46617000  0.66943000  1.0
  H  H69  1  0.31159000  0.53387000  0.83049000  1.0
  H  H70  1  0.08058000  0.58103000  0.36771000  1.0
  H  H71  1  0.49962000  0.41913000  0.13243000  1.0
  H  H72  1  0.91942000  0.41897000  0.63229000  1.0
  H  H73  1  0.50038000  0.58087000  0.86757000  1.0
  H  H74  1  0.92087000  0.55901000  0.10678000  1.0
  H  H75  1  0.36218000  0.44073000  0.39319000  1.0
  H  H76  1  0.07913000  0.44100000  0.89322000  1.0
  H  H77  1  0.63782000  0.55927000  0.60681000  1.0
  H  H78  1  0.05767000  0.61371000  0.07782000  1.0
  H  H79  1  0.44476000  0.38613000  0.42208000  1.0
  H  H80  1  0.94233000  0.38630000  0.92218000  1.0
  H  H81  1  0.55524000  0.61387000  0.57792000  1.0
  C  C82  1  0.57134000  0.56208000  0.36054000  1.0
  C  C83  1  0.00914000  0.43767000  0.13946000  1.0
  C  C84  1  0.42865000  0.43792000  0.63946000  1.0
  C  C85  1  0.99087000  0.56233000  0.86054000  1.0
  C  C86  1  0.90490000  0.66523000  0.36628000  1.0
  C  C87  1  0.23996000  0.33471000  0.13367000  1.0
  C  C88  1  0.09509000  0.33477000  0.63372000  1.0
  C  C89  1  0.76005000  0.66529000  0.86632000  1.0
  C  C90  1  0.60049000  0.64920000  0.40014000  1.0
  C  C91  1  0.95135000  0.35055000  0.09981000  1.0
  C  C92  1  0.39950000  0.35079000  0.59987000  1.0
  C  C93  1  0.04866000  0.64946000  0.90019000  1.0
  C  C94  1  0.75915000  0.69834000  0.40064000  1.0
  C  C95  1  0.06115000  0.30152000  0.09929000  1.0
  C  C96  1  0.24083000  0.30166000  0.59936000  1.0
  C  C97  1  0.93886000  0.69848000  0.90071000  1.0
  C  C98  1  0.78098000  0.78014000  0.43491000  1.0
  C  C99  1  0.00148000  0.21970000  0.06495000  1.0
  C  C100  1  0.21901000  0.21985000  0.56509000  1.0
  C  C101  1  0.99852000  0.78030000  0.93505000  1.0
  C  C102  1  0.65333000  0.81371000  0.47050000  1.0
  C  C103  1  0.84031000  0.18602000  0.02933000  1.0
  C  C104  1  0.34667000  0.18628000  0.52950000  1.0
  C  C105  1  0.15969000  0.81399000  0.97067000  1.0
  C  C106  1  0.49776000  0.76450000  0.47037000  1.0
  C  C107  1  0.73371000  0.23513000  0.02950000  1.0
  C  C108  1  0.50224000  0.23549000  0.52963000  1.0
  C  C109  1  0.26630000  0.76488000  0.97050000  1.0
  C  C110  1  0.47132000  0.68292000  0.43475000  1.0
  C  C111  1  0.78850000  0.31671000  0.06517000  1.0
  C  C112  1  0.52867000  0.31708000  0.56525000  1.0
  C  C113  1  0.21150000  0.68329000  0.93483000  1.0
  C  C114  1  0.05595000  0.85695000  0.48589000  1.0
  C  C115  1  0.19986000  0.14295000  0.01399000  1.0
  C  C116  1  0.94404000  0.14305000  0.51411000  1.0
  C  C117  1  0.80014000  0.85705000  0.98601000  1.0
  C  C118  1  0.05576000  0.82370000  0.54380000  1.0
  C  C119  1  0.23321000  0.17626000  0.95613000  1.0
  C  C120  1  0.94424000  0.17630000  0.45620000  1.0
  C  C121  1  0.76679000  0.82374000  0.04387000  1.0
  C  C122  1  0.19308000  0.85008000  0.59716000  1.0
  C  C123  1  0.34393000  0.14977000  0.90269000  1.0
  C  C124  1  0.80692000  0.14992000  0.40284000  1.0
  C  C125  1  0.65607000  0.85024000  0.09731000  1.0
  C  C126  1  0.32921000  0.90981000  0.59428000  1.0
  C  C127  1  0.41988000  0.08987000  0.90543000  1.0
  C  C128  1  0.67079000  0.09019000  0.40571000  1.0
  C  C129  1  0.58011000  0.91014000  0.09457000  1.0
  C  C130  1  0.32359000  0.94435000  0.53757000  1.0
  C  C131  1  0.37957000  0.05532000  0.96213000  1.0
  C  C132  1  0.67641000  0.05565000  0.46243000  1.0
  C  C133  1  0.62043000  0.94469000  0.03787000  1.0
  C  C134  1  0.18876000  0.91819000  0.48285000  1.0
  C  C135  1  0.27111000  0.08160000  0.01694000  1.0
  C  C136  1  0.81123000  0.08180000  0.51715000  1.0
  C  C137  1  0.72889000  0.91841000  0.98306000  1.0
  C  C138  1  0.47940000  0.93309000  0.64856000  1.0
  C  C139  1  0.54651000  0.06639000  0.85104000  1.0
  C  C140  1  0.52061000  0.06691000  0.35143000  1.0
  C  C141  1  0.45349000  0.93361000  0.14896000  1.0
  C  C142  1  0.42052000  0.62683000  0.21823000  1.0
  C  C143  1  0.79449000  0.37320000  0.28191000  1.0
  C  C144  1  0.57949000  0.37317000  0.78177000  1.0
  C  C145  1  0.20551000  0.62680000  0.71809000  1.0
  C  C146  1  0.57747000  0.67640000  0.22527000  1.0
  C  C147  1  0.90209000  0.32372000  0.27487000  1.0
  C  C148  1  0.42253000  0.32360000  0.77473000  1.0
  C  C149  1  0.09791000  0.67628000  0.72513000  1.0
  C  C150  1  0.59759000  0.75870000  0.25587000  1.0
  C  C151  1  0.84009000  0.24142000  0.24422000  1.0
  C  C152  1  0.40242000  0.24130000  0.74413000  1.0
  C  C153  1  0.15991000  0.75858000  0.75578000  1.0
  C  C154  1  0.45527000  0.78727000  0.28008000  1.0
  C  C155  1  0.66927000  0.21274000  0.21996000  1.0
  C  C156  1  0.54474000  0.21273000  0.71992000  1.0
  C  C157  1  0.33074000  0.78725000  0.78004000  1.0
  C  C158  1  0.30261000  0.73397000  0.27227000  1.0
  C  C159  1  0.56972000  0.26594000  0.22780000  1.0
  C  C160  1  0.69739000  0.26603000  0.72773000  1.0
  C  C161  1  0.43028000  0.73406000  0.77220000  1.0
  C  C162  1  0.03545000  0.84113000  0.21509000  1.0
  C  C163  1  0.19501000  0.15894000  0.28539000  1.0
  C  C164  1  0.96456000  0.15887000  0.78491000  1.0
  C  C165  1  0.80499000  0.84106000  0.71461000  1.0
  C  C166  1  0.88794000  0.78701000  0.21473000  1.0
  C  C167  1  0.10192000  0.21310000  0.28556000  1.0
  C  C168  1  0.11207000  0.21299000  0.78527000  1.0
  C  C169  1  0.89808000  0.78690000  0.71444000  1.0
  C  C170  1  0.76128000  0.81303000  0.25972000  1.0
  C  C171  1  0.94943000  0.18708000  0.24044000  1.0
  C  C172  1  0.23872000  0.18697000  0.74028000  1.0
  C  C173  1  0.05057000  0.81292000  0.75956000  1.0
  C  C174  1  0.79407000  0.89313000  0.30566000  1.0
  C  C175  1  0.90201000  0.10697000  0.19456000  1.0
  C  C176  1  0.20593000  0.10686000  0.69434000  1.0
  C  C177  1  0.09799000  0.89303000  0.80544000  1.0
  C  C178  1  0.94504000  0.94331000  0.30319000  1.0
  C  C179  1  0.00253000  0.05676000  0.19723000  1.0
  C  C180  1  0.05496000  0.05669000  0.69681000  1.0
  C  C181  1  0.99747000  0.94323000  0.80277000  1.0
  N  N182  1  0.28476000  0.65509000  0.24103000  1.0
  N  N183  1  0.63049000  0.34484000  0.25908000  1.0
  N  N184  1  0.71524000  0.34491000  0.75897000  1.0
  N  N185  1  0.36950000  0.65516000  0.74092000  1.0
  N  N186  1  0.06327000  0.91832000  0.25773000  1.0
  N  N187  1  0.14551000  0.08172000  0.24282000  1.0
  N  N188  1  0.93673000  0.08167000  0.74227000  1.0
  N  N189  1  0.85449000  0.91828000  0.75718000  1.0
  O  O190  1  0.41767000  0.51925000  0.33993000  1.0
  O  O191  1  0.89824000  0.48049000  0.15992000  1.0
  O  O192  1  0.58232000  0.48075000  0.66008000  1.0
  O  O193  1  0.10177000  0.51951000  0.84007000  1.0
  O  O194  1  0.69128000  0.52979000  0.34494000  1.0
  O  O195  1  0.16130000  0.47001000  0.15529000  1.0
  O  O196  1  0.30871000  0.47021000  0.65506000  1.0
  O  O197  1  0.83871000  0.53000000  0.84471000  1.0
  O  O198  1  0.91023000  0.64803000  0.29305000  1.0
  O  O199  1  0.26254000  0.35169000  0.20687000  1.0
  O  O200  1  0.08976000  0.35197000  0.70695000  1.0
  O  O201  1  0.73746000  0.64831000  0.79313000  1.0
  O  O202  1  0.00982000  0.65933000  0.41190000  1.0
  O  O203  1  0.35072000  0.34085000  0.08807000  1.0
  O  O204  1  0.99017000  0.34066000  0.58811000  1.0
  O  O205  1  0.64928000  0.65915000  0.91192000  1.0
  O  O206  1  0.92986000  0.83040000  0.42796000  1.0
  O  O207  1  0.10033000  0.16953000  0.07192000  1.0
  O  O208  1  0.07013000  0.16959000  0.57204000  1.0
  O  O209  1  0.89967000  0.83047000  0.92808000  1.0
  O  O210  1  0.47513000  0.90648000  0.70394000  1.0
  O  O211  1  0.56873000  0.09289000  0.79554000  1.0
  O  O212  1  0.52488000  0.09353000  0.29606000  1.0
  O  O213  1  0.43126000  0.90711000  0.20445000  1.0
  O  O214  1  0.61198000  0.98014000  0.63869000  1.0
  O  O215  1  0.63195000  0.01933000  0.86085000  1.0
  O  O216  1  0.38802000  0.01986000  0.36130000  1.0
  O  O217  1  0.36804000  0.98067000  0.13916000  1.0
  O  O218  1  0.10332000  0.53540000  0.32388000  1.0
  O  O219  1  0.56808000  0.46464000  0.17633000  1.0
  O  O220  1  0.89668000  0.46460000  0.67613000  1.0
  O  O221  1  0.43192000  0.53536000  0.82368000  1.0
  O  O222  1  0.97246000  0.61465000  0.11425000  1.0
  O  O223  1  0.35862000  0.38511000  0.38561000  1.0
  O  O224  1  0.02755000  0.38535000  0.88575000  1.0
  O  O225  1  0.64138000  0.61489000  0.61439000  1.0
