# generated using pymatgen
data_NiH12C12(SN3)2
_symmetry_space_group_name_H-M   'P 1'
_cell_length_a   7.86039000
_cell_length_b   9.30328000
_cell_length_c   10.00670000
_cell_angle_alpha   101.72900000
_cell_angle_beta   91.31300000
_cell_angle_gamma   101.68300000
_symmetry_Int_Tables_number   1
_chemical_formula_structural   NiH12C12(SN3)2
_chemical_formula_sum   'Ni2 H24 C24 S4 N12'
_cell_volume   700.07280953
_cell_formula_units_Z   2
loop_
 _symmetry_equiv_pos_site_id
 _symmetry_equiv_pos_as_xyz
  1  'x, y, z'
loop_
 _atom_site_type_symbol
 _atom_site_label
 _atom_site_symmetry_multiplicity
 _atom_site_fract_x
 _atom_site_fract_y
 _atom_site_fract_z
 _atom_site_occupancy
  Ni  Ni0  1  0.50000000  0.50000000  0.00000000  1.0
  Ni  Ni1  1  0.50000000  0.00000000  0.50000000  1.0
  H  H2  1  0.46198000  0.54221000  0.30942000  1.0
  H  H3  1  0.53802000  0.45780000  0.69058000  1.0
  H  H4  1  0.36113000  0.38496000  0.47873000  1.0
  H  H5  1  0.63888000  0.61505000  0.52128000  1.0
  H  H6  1  0.28638000  0.99576000  0.14573000  1.0
  H  H7  1  0.71362000  0.00425000  0.85428000  1.0
  H  H8  1  0.38403000  0.17023000  0.99125000  1.0
  H  H9  1  0.61597000  0.82977000  0.00875000  1.0
  H  H10  1  0.19490000  0.98216000  0.37649000  1.0
  H  H11  1  0.80510000  0.01784000  0.62352000  1.0
  H  H12  1  0.22470000  0.13381000  0.50617000  1.0
  H  H13  1  0.77530000  0.86619000  0.49384000  1.0
  H  H14  1  0.29281000  0.06397000  0.75518000  1.0
  H  H15  1  0.70719000  0.93603000  0.24482000  1.0
  H  H16  1  0.09622000  0.92369000  0.89575000  1.0
  H  H17  1  0.90378000  0.07631000  0.10425000  1.0
  H  H18  1  0.11517000  0.51738000  0.60019000  1.0
  H  H19  1  0.88483000  0.48262000  0.39981000  1.0
  H  H20  1  0.30880000  0.67671000  0.47170000  1.0
  H  H21  1  0.69121000  0.32329000  0.52830000  1.0
  H  H22  1  0.94930000  0.50832000  0.80528000  1.0
  H  H23  1  0.05070000  0.49168000  0.19472000  1.0
  H  H24  1  0.94041000  0.66858000  0.92463000  1.0
  H  H25  1  0.05958000  0.33143000  0.07537000  1.0
  C  C26  1  0.38382000  0.76287000  0.23056000  1.0
  C  C27  1  0.61619000  0.23714000  0.76944000  1.0
  C  C28  1  0.19245000  0.31897000  0.78531000  1.0
  C  C29  1  0.80754000  0.68103000  0.21470000  1.0
  C  C30  1  0.42060000  0.42061000  0.27737000  1.0
  C  C31  1  0.57941000  0.57939000  0.72264000  1.0
  C  C32  1  0.36581000  0.33296000  0.37139000  1.0
  C  C33  1  0.63419000  0.66704000  0.62862000  1.0
  C  C34  1  0.31758000  0.17636000  0.32671000  1.0
  C  C35  1  0.68242000  0.82364000  0.67329000  1.0
  C  C36  1  0.32249000  0.11660000  0.18653000  1.0
  C  C37  1  0.67751000  0.88340000  0.81348000  1.0
  C  C38  1  0.37779000  0.21331000  0.10023000  1.0
  C  C39  1  0.62221000  0.78669000  0.89977000  1.0
  C  C40  1  0.25072000  0.94254000  0.72421000  1.0
  C  C41  1  0.74928000  0.05746000  0.27579000  1.0
  C  C42  1  0.14164000  0.86348000  0.80297000  1.0
  C  C43  1  0.85836000  0.13652000  0.19703000  1.0
  C  C44  1  0.08926000  0.70531000  0.76216000  1.0
  C  C45  1  0.91074000  0.29468000  0.23784000  1.0
  C  C46  1  0.15125000  0.63861000  0.63817000  1.0
  C  C47  1  0.84875000  0.36138000  0.36183000  1.0
  C  C48  1  0.26012000  0.72705000  0.56698000  1.0
  C  C49  1  0.73988000  0.27294000  0.43302000  1.0
  S  S50  1  0.29327000  0.66686000  0.08302000  1.0
  S  S51  1  0.70673000  0.33314000  0.91698000  1.0
  S  S52  1  0.04367000  0.24582000  0.66080000  1.0
  S  S53  1  0.95632000  0.75418000  0.33921000  1.0
  N  N54  1  0.45062000  0.83175000  0.33824000  1.0
  N  N55  1  0.54938000  0.16825000  0.66175000  1.0
  N  N56  1  0.30174000  0.37520000  0.87464000  1.0
  N  N57  1  0.69825000  0.62480000  0.12537000  1.0
  N  N58  1  0.42774000  0.36350000  0.14343000  1.0
  N  N59  1  0.57226000  0.63650000  0.85657000  1.0
  N  N60  1  0.27613000  0.08299000  0.41946000  1.0
  N  N61  1  0.72387000  0.91701000  0.58055000  1.0
  N  N62  1  0.31319000  0.87782000  0.60730000  1.0
  N  N63  1  0.68682000  0.12218000  0.39270000  1.0
  N  N64  1  0.98553000  0.62185000  0.83585000  1.0
  N  N65  1  0.01447000  0.37815000  0.16416000  1.0
