# generated using pymatgen
data_CoH24C27(NO)4
_symmetry_space_group_name_H-M   'P 1'
_cell_length_a   10.76980000
_cell_length_b   11.19250000
_cell_length_c   11.56100000
_cell_angle_alpha   64.96370000
_cell_angle_beta   83.28210000
_cell_angle_gamma   67.69520000
_symmetry_Int_Tables_number   1
_chemical_formula_structural   CoH24C27(NO)4
_chemical_formula_sum   'Co2 H48 C54 N8 O8'
_cell_volume   1166.57725737
_cell_formula_units_Z   2
loop_
 _symmetry_equiv_pos_site_id
 _symmetry_equiv_pos_as_xyz
  1  'x, y, z'
loop_
 _atom_site_type_symbol
 _atom_site_label
 _atom_site_symmetry_multiplicity
 _atom_site_fract_x
 _atom_site_fract_y
 _atom_site_fract_z
 _atom_site_occupancy
  Co  Co0  1  0.79849000  0.18355000  0.33241000  1.0
  Co  Co1  1  0.20151000  0.81645000  0.66759000  1.0
  H  H2  1  0.80184000  0.52488000  0.33139000  1.0
  H  H3  1  0.19816000  0.47512000  0.66861000  1.0
  H  H4  1  0.70763000  0.65203000  0.18716000  1.0
  H  H5  1  0.29237000  0.34797000  0.81284000  1.0
  H  H6  1  0.81261000  0.47882000  0.19971000  1.0
  H  H7  1  0.18739000  0.52118000  0.80029000  1.0
  H  H8  1  0.53049000  0.13535000  0.41622000  1.0
  H  H9  1  0.46950000  0.86466000  0.58378000  1.0
  H  H10  1  0.29553000  0.18066000  0.48916000  1.0
  H  H11  1  0.70447000  0.81934000  0.51085000  1.0
  H  H12  1  0.15495000  0.41249000  0.49068000  1.0
  H  H13  1  0.84505000  0.58751000  0.50932000  1.0
  H  H14  1  0.23968000  0.61225000  0.41373000  1.0
  H  H15  1  0.76032000  0.38776000  0.58628000  1.0
  H  H16  1  0.54971000  0.73861000  0.31145000  1.0
  H  H17  1  0.45028000  0.26139000  0.68855000  1.0
  H  H18  1  0.38815000  0.73899000  0.36211000  1.0
  H  H19  1  0.61185000  0.26102000  0.63789000  1.0
  H  H20  1  0.47642000  0.77602000  0.09070000  1.0
  H  H21  1  0.52358000  0.22398000  0.90930000  1.0
  H  H22  1  0.39418000  0.91986000  0.13412000  1.0
  H  H23  1  0.60582000  0.08014000  0.86589000  1.0
  H  H24  1  0.27076000  0.69739000  0.18066000  1.0
  H  H25  1  0.72924000  0.30261000  0.81934000  1.0
  H  H26  1  0.19116000  0.86510000  0.18452000  1.0
  H  H27  1  0.80884000  0.13490000  0.81548000  1.0
  H  H28  1  0.25323000  0.58138000  0.03608000  1.0
  H  H29  1  0.74677000  0.41861000  0.96392000  1.0
  H  H30  1  0.40975000  0.59671000  0.04728000  1.0
  H  H31  1  0.59025000  0.40329000  0.95272000  1.0
  H  H32  1  0.35727000  0.60149000  0.90365000  1.0
  H  H33  1  0.64273000  0.39851000  0.09635000  1.0
  H  H34  1  0.12103000  0.12184000  0.04564000  1.0
  H  H35  1  0.87898000  0.87816000  0.95436000  1.0
  H  H36  1  0.00707000  0.35165000  0.86464000  1.0
  H  H37  1  0.99293000  0.64836000  0.13536000  1.0
  H  H38  1  0.98327000  0.36426000  0.64881000  1.0
  H  H39  1  0.01673000  0.63574000  0.35119000  1.0
  H  H40  1  0.07151000  0.14601000  0.60567000  1.0
  H  H41  1  0.92849000  0.85400000  0.39433000  1.0
  H  H42  1  0.53285000  0.04711000  0.65255000  1.0
  H  H43  1  0.46715000  0.95289000  0.34745000  1.0
  H  H44  1  0.45049000  0.88089000  0.83136000  1.0
  H  H45  1  0.54952000  0.11910000  0.16865000  1.0
  H  H46  1  0.61449000  0.64994000  0.98216000  1.0
  H  H47  1  0.38552000  0.35005000  0.01784000  1.0
  H  H48  1  0.86056000  0.59299000  0.95362000  1.0
  H  H49  1  0.13944000  0.40700000  0.04638000  1.0
  C  C50  1  0.74429000  0.53893000  0.25095000  1.0
  C  C51  1  0.25570000  0.46107000  0.74905000  1.0
  C  C52  1  0.63342000  0.48600000  0.29867000  1.0
  C  C53  1  0.36658000  0.51400000  0.70133000  1.0
  C  C54  1  0.51541000  0.34855000  0.37294000  1.0
  C  C55  1  0.48459000  0.65146000  0.62706000  1.0
  C  C56  1  0.46708000  0.23810000  0.41522000  1.0
  C  C57  1  0.53291000  0.76190000  0.58478000  1.0
  C  C58  1  0.33643000  0.26441000  0.45646000  1.0
  C  C59  1  0.66357000  0.73559000  0.54354000  1.0
  C  C60  1  0.25597000  0.39750000  0.45603000  1.0
  C  C61  1  0.74402000  0.60250000  0.54398000  1.0
  C  C62  1  0.30194000  0.50943000  0.41344000  1.0
  C  C63  1  0.69806000  0.49057000  0.58657000  1.0
  C  C64  1  0.43263000  0.48228000  0.37110000  1.0
  C  C65  1  0.56737000  0.51772000  0.62890000  1.0
  C  C66  1  0.46401000  0.71708000  0.29429000  1.0
  C  C67  1  0.53599000  0.28292000  0.70571000  1.0
  C  C68  1  0.40521000  0.81037000  0.15696000  1.0
  C  C69  1  0.59479000  0.18963000  0.84304000  1.0
  C  C70  1  0.26874000  0.80623000  0.13758000  1.0
  C  C71  1  0.73126000  0.19377000  0.86242000  1.0
  C  C72  1  0.32331000  0.63323000  0.98285000  1.0
  C  C73  1  0.67669000  0.36677000  0.01715000  1.0
  C  C74  1  0.25473000  0.78914000  0.93017000  1.0
  C  C75  1  0.74527000  0.21086000  0.06983000  1.0
  C  C76  1  0.16239000  0.00658000  0.92474000  1.0
  C  C77  1  0.83761000  0.99342000  0.07526000  1.0
  C  C78  1  0.11208000  0.12681000  0.95071000  1.0
  C  C79  1  0.88793000  0.87319000  0.04929000  1.0
  C  C80  1  0.04812000  0.25515000  0.84820000  1.0
  C  C81  1  0.95188000  0.74485000  0.15180000  1.0
  C  C82  1  0.03523000  0.26155000  0.72553000  1.0
  C  C83  1  0.96477000  0.73845000  0.27447000  1.0
  C  C84  1  0.08447000  0.14113000  0.69986000  1.0
  C  C85  1  0.91553000  0.85887000  0.30014000  1.0
  C  C86  1  0.14983000  0.01179000  0.80192000  1.0
  C  C87  1  0.85017000  0.98821000  0.19808000  1.0
  C  C88  1  0.78317000  0.02600000  0.59116000  1.0
  C  C89  1  0.21683000  0.97400000  0.40884000  1.0
  C  C90  1  0.74256000  0.91564000  0.70110000  1.0
  C  C91  1  0.25744000  0.08436000  0.29890000  1.0
  C  C92  1  0.60464000  0.94783000  0.71932000  1.0
  C  C93  1  0.39537000  0.05217000  0.28069000  1.0
  C  C94  1  0.55832000  0.85390000  0.82033000  1.0
  C  C95  1  0.44168000  0.14609000  0.17967000  1.0
  C  C96  1  0.64992000  0.72527000  0.90442000  1.0
  C  C97  1  0.35009000  0.27472000  0.09558000  1.0
  C  C98  1  0.78726000  0.69236000  0.88837000  1.0
  C  C99  1  0.21275000  0.30764000  0.11163000  1.0
  C  C100  1  0.83458000  0.78692000  0.78728000  1.0
  C  C101  1  0.16542000  0.21308000  0.21271000  1.0
  C  C102  1  0.98338000  0.74886000  0.77780000  1.0
  C  C103  1  0.01662000  0.25114000  0.22219000  1.0
  N  N104  1  0.64015000  0.35407000  0.32775000  1.0
  N  N105  1  0.35985000  0.64593000  0.67224000  1.0
  N  N106  1  0.50979000  0.56644000  0.32301000  1.0
  N  N107  1  0.49021000  0.43356000  0.67699000  1.0
  N  N108  1  0.22860000  0.86471000  0.00296000  1.0
  N  N109  1  0.77140000  0.13529000  0.99704000  1.0
  N  N110  1  0.20906000  0.87393000  0.80869000  1.0
  N  N111  1  0.79094000  0.12607000  0.19131000  1.0
  O  O112  1  0.77475000  0.02472000  0.48048000  1.0
  O  O113  1  0.22525000  0.97528000  0.51952000  1.0
  O  O114  1  0.80933000  0.11664000  0.60885000  1.0
  O  O115  1  0.19067000  0.88336000  0.39115000  1.0
  O  O116  1  0.02337000  0.81456000  0.66666667  1.0
  O  O117  1  0.97663000  0.18545000  0.33329000  1.0
  O  O118  1  0.06069000  0.65966000  0.87413000  1.0
  O  O119  1  0.93931000  0.34035000  0.12587000  1.0
