# generated using pymatgen
data_SmH17C24(N2O3)2
_symmetry_space_group_name_H-M   'P 1'
_cell_length_a   9.82618000
_cell_length_b   9.84680000
_cell_length_c   12.76930000
_cell_angle_alpha   85.58940000
_cell_angle_beta   72.53220000
_cell_angle_gamma   73.14750000
_symmetry_Int_Tables_number   1
_chemical_formula_structural   SmH17C24(N2O3)2
_chemical_formula_sum   'Sm2 H34 C48 N8 O12'
_cell_volume   1127.85478534
_cell_formula_units_Z   2
loop_
 _symmetry_equiv_pos_site_id
 _symmetry_equiv_pos_as_xyz
  1  'x, y, z'
loop_
 _atom_site_type_symbol
 _atom_site_label
 _atom_site_symmetry_multiplicity
 _atom_site_fract_x
 _atom_site_fract_y
 _atom_site_fract_z
 _atom_site_occupancy
  Sm  Sm0  1  0.61902000  0.42802000  0.10416000  1.0
  Sm  Sm1  1  0.38098000  0.57198000  0.89584000  1.0
  H  H2  1  0.40504000  0.82575000  0.66689000  1.0
  H  H3  1  0.59496000  0.17425000  0.33311000  1.0
  H  H4  1  0.29837000  0.45427000  0.32541000  1.0
  H  H5  1  0.70163000  0.54573000  0.67459000  1.0
  H  H6  1  0.15330000  0.56024000  0.51188000  1.0
  H  H7  1  0.84670000  0.43976000  0.48812000  1.0
  H  H8  1  0.26252000  0.70460000  0.60088000  1.0
  H  H9  1  0.73747000  0.29540000  0.39912000  1.0
  H  H10  1  0.89513000  0.58143000  0.03695000  1.0
  H  H11  1  0.10487000  0.41857000  0.96305000  1.0
  H  H12  1  0.03203000  0.71536000  0.10296000  1.0
  H  H13  1  0.96797000  0.28463000  0.89705000  1.0
  H  H14  1  0.92825000  0.80840000  0.30051000  1.0
  H  H15  1  0.07175000  0.19159000  0.69949000  1.0
  H  H16  1  0.80974000  0.02140000  0.58624000  1.0
  H  H17  1  0.19026000  0.97860000  0.41376000  1.0
  H  H18  1  0.81928000  0.17019000  0.73180000  1.0
  H  H19  1  0.18072000  0.82981000  0.26820000  1.0
  H  H20  1  0.41765000  0.09190000  0.94567000  1.0
  H  H21  1  0.58235000  0.90810000  0.05434000  1.0
  H  H22  1  0.40890000  0.94421000  0.80302000  1.0
  H  H23  1  0.59110000  0.05579000  0.19698000  1.0
  H  H24  1  0.91673000  0.98780000  0.15011000  1.0
  H  H25  1  0.08326000  0.01220000  0.84989000  1.0
  H  H26  1  0.94428000  0.05357000  0.26540000  1.0
  H  H27  1  0.05572000  0.94642000  0.73460000  1.0
  H  H28  1  0.06572000  0.06415000  0.12967000  1.0
  H  H29  1  0.93428000  0.93584000  0.87033000  1.0
  H  H30  1  0.04589000  0.40751000  0.22036000  1.0
  H  H31  1  0.95411000  0.59249000  0.77964000  1.0
  H  H32  1  0.17749000  0.27685000  0.27591000  1.0
  H  H33  1  0.82251000  0.72314000  0.72409000  1.0
  H  H34  1  0.14638000  0.24549000  0.15045000  1.0
  H  H35  1  0.85362000  0.75450000  0.84955000  1.0
  C  C36  1  0.33938000  0.52213000  0.36445000  1.0
  C  C37  1  0.66062000  0.47788000  0.63555000  1.0
  C  C38  1  0.25935000  0.58087000  0.46942000  1.0
  C  C39  1  0.74065000  0.41913000  0.53058000  1.0
  C  C40  1  0.31867000  0.66089000  0.51816000  1.0
  C  C41  1  0.68133000  0.33912000  0.48184000  1.0
  C  C42  1  0.45692000  0.68321000  0.46014000  1.0
  C  C43  1  0.54308000  0.31680000  0.53985000  1.0
  C  C44  1  0.52912000  0.62291000  0.35221000  1.0
  C  C45  1  0.47088000  0.37709000  0.64779000  1.0
  C  C46  1  0.66902000  0.64744000  0.28723000  1.0
  C  C47  1  0.33098000  0.35256000  0.71277000  1.0
  C  C48  1  0.85409000  0.62202000  0.12089000  1.0
  C  C49  1  0.14591000  0.37798000  0.87911000  1.0
  C  C50  1  0.93074000  0.69836000  0.15898000  1.0
  C  C51  1  0.06926000  0.30163000  0.84102000  1.0
  C  C52  1  0.87401000  0.74904000  0.26567000  1.0
  C  C53  1  0.12599000  0.25096000  0.73434000  1.0
  C  C54  1  0.73945000  0.72673000  0.33164000  1.0
  C  C55  1  0.26055000  0.27327000  0.66836000  1.0
  C  C56  1  0.66805000  0.78290000  0.44029000  1.0
  C  C57  1  0.33195000  0.21710000  0.55971000  1.0
  C  C58  1  0.53125000  0.76196000  0.50110000  1.0
  C  C59  1  0.46874000  0.23804000  0.49890000  1.0
  C  C60  1  0.60698000  0.88994000  0.59516000  1.0
  C  C61  1  0.39302000  0.11006000  0.40484000  1.0
  C  C62  1  0.60873000  0.97400000  0.68357000  1.0
  C  C63  1  0.39127000  0.02600000  0.31643000  1.0
  C  C64  1  0.72506000  0.03723000  0.66564000  1.0
  C  C65  1  0.27494000  0.96277000  0.33436000  1.0
  C  C66  1  0.73024000  0.11945000  0.74714000  1.0
  C  C67  1  0.26976000  0.88054000  0.25286000  1.0
  C  C68  1  0.61979000  0.14004000  0.84853000  1.0
  C  C69  1  0.38021000  0.85996000  0.15147000  1.0
  C  C70  1  0.50421000  0.07671000  0.86717000  1.0
  C  C71  1  0.49579000  0.92329000  0.13283000  1.0
  C  C72  1  0.49870000  0.99417000  0.78559000  1.0
  C  C73  1  0.50131000  0.00583000  0.21441000  1.0
  C  C74  1  0.62392000  0.23384000  0.93363000  1.0
  C  C75  1  0.37608000  0.76616000  0.06637000  1.0
  C  C76  1  0.84570000  0.21136000  0.16357000  1.0
  C  C77  1  0.15430000  0.78864000  0.83643000  1.0
  C  C78  1  0.95121000  0.07171000  0.17826000  1.0
  C  C79  1  0.04879000  0.92828000  0.82174000  1.0
  C  C80  1  0.27510000  0.39026000  0.13421000  1.0
  C  C81  1  0.72490000  0.60973000  0.86579000  1.0
  C  C82  1  0.15381000  0.32665000  0.20125000  1.0
  C  C83  1  0.84619000  0.67335000  0.79874000  1.0
  N  N84  1  0.46999000  0.54205000  0.30684000  1.0
  N  N85  1  0.53001000  0.45795000  0.69315000  1.0
  N  N86  1  0.72870000  0.59515000  0.18274000  1.0
  N  N87  1  0.27130000  0.40485000  0.81726000  1.0
  N  N88  1  0.71395000  0.86245000  0.49901000  1.0
  N  N89  1  0.28605000  0.13755000  0.50099000  1.0
  N  N90  1  0.49421000  0.83110000  0.59935000  1.0
  N  N91  1  0.50578000  0.16890000  0.40065000  1.0
  O  O92  1  0.69172000  0.18575000  0.00396000  1.0
  O  O93  1  0.30828000  0.81426000  0.99604000  1.0
  O  O94  1  0.55693000  0.36688000  0.93122000  1.0
  O  O95  1  0.44307000  0.63312000  0.06878000  1.0
  O  O96  1  0.71091000  0.24392000  0.22860000  1.0
  O  O97  1  0.28909000  0.75608000  0.77140000  1.0
  O  O98  1  0.88411000  0.29458000  0.08727000  1.0
  O  O99  1  0.11589000  0.70542000  0.91273000  1.0
  O  O100  1  0.39629000  0.35861000  0.15993000  1.0
  O  O101  1  0.60371000  0.64139000  0.84007000  1.0
  O  O102  1  0.24870000  0.47038000  0.05525000  1.0
  O  O103  1  0.75130000  0.52962000  0.94475000  1.0
