# generated using pymatgen
data_CuH2C4(NO)2
_symmetry_space_group_name_H-M   'P 1'
_cell_length_a   4.82969000
_cell_length_b   8.18898362
_cell_length_c   12.98430000
_cell_angle_alpha   78.06213827
_cell_angle_beta   89.92940000
_cell_angle_gamma   72.86009568
_symmetry_Int_Tables_number   1
_chemical_formula_structural   CuH2C4(NO)2
_chemical_formula_sum   'Cu4 H8 C16 N8 O8'
_cell_volume   479.13142437
_cell_formula_units_Z   4
loop_
 _symmetry_equiv_pos_site_id
 _symmetry_equiv_pos_as_xyz
  1  'x, y, z'
loop_
 _atom_site_type_symbol
 _atom_site_label
 _atom_site_symmetry_multiplicity
 _atom_site_fract_x
 _atom_site_fract_y
 _atom_site_fract_z
 _atom_site_occupancy
  Cu  Cu0  1  0.90550000  0.52161000  0.85351000  1.0
  Cu  Cu1  1  0.42698000  0.47965000  0.64649000  1.0
  Cu  Cu2  1  0.09449000  0.47839000  0.14649000  1.0
  Cu  Cu3  1  0.57302000  0.52035000  0.35351000  1.0
  H  H4  1  0.54271000  0.05975000  0.07695000  1.0
  H  H5  1  0.60151000  0.93875000  0.42267000  1.0
  H  H6  1  0.45734000  0.94023000  0.92305000  1.0
  H  H7  1  0.39846000  0.06125000  0.57732000  1.0
  H  H8  1  0.81602000  0.17397000  0.21931000  1.0
  H  H9  1  0.99061000  0.82474000  0.28037000  1.0
  H  H10  1  0.18400000  0.82604000  0.78068000  1.0
  H  H11  1  0.00937000  0.17527000  0.71962000  1.0
  C  C12  1  0.56253000  0.29169000  0.85576000  1.0
  C  C13  1  0.85335000  0.70858000  0.64402000  1.0
  C  C14  1  0.43749000  0.70829000  0.14424000  1.0
  C  C15  1  0.14663000  0.29143000  0.35598000  1.0
  C  C16  1  0.67399000  0.26810000  0.96420000  1.0
  C  C17  1  0.94210000  0.73224000  0.53561000  1.0
  C  C18  1  0.32602000  0.73188000  0.03580000  1.0
  C  C19  1  0.05789000  0.26776000  0.46439000  1.0
  C  C20  1  0.64607000  0.16244000  0.06095000  1.0
  C  C21  1  0.80834000  0.83690000  0.43876000  1.0
  C  C22  1  0.35398000  0.83754000  0.93907000  1.0
  C  C23  1  0.19163000  0.16310000  0.56125000  1.0
  C  C24  1  0.78949000  0.21653000  0.13435000  1.0
  C  C25  1  0.00643000  0.78279000  0.36537000  1.0
  C  C26  1  0.21055000  0.78347000  0.86565000  1.0
  C  C27  1  0.99353000  0.21723000  0.63463000  1.0
  N  N28  1  0.89505000  0.34656000  0.08367000  1.0
  N  N29  1  0.24279000  0.65385000  0.41619000  1.0
  N  N30  1  0.10497000  0.65344000  0.91633000  1.0
  N  N31  1  0.75718000  0.34617000  0.58382000  1.0
  N  N32  1  0.82527000  0.37712000  0.98075000  1.0
  N  N33  1  0.20325000  0.62392000  0.51915000  1.0
  N  N34  1  0.17473000  0.62287000  0.01925000  1.0
  N  N35  1  0.79674000  0.37609000  0.48086000  1.0
  O  O36  1  0.40128000  0.21414000  0.82771000  1.0
  O  O37  1  0.61336000  0.78501000  0.67184000  1.0
  O  O38  1  0.59875000  0.78583000  0.17230000  1.0
  O  O39  1  0.38664000  0.21501000  0.32817000  1.0
  O  O40  1  0.64420000  0.41295000  0.78762000  1.0
  O  O41  1  0.05681000  0.58859000  0.71237000  1.0
  O  O42  1  0.35575000  0.58705000  0.21237000  1.0
  O  O43  1  0.94321000  0.41140000  0.28762000  1.0
