# generated using pymatgen
data_Cu3H37C30N3O14
_symmetry_space_group_name_H-M   'P 1'
_cell_length_a   7.87198000
_cell_length_b   13.39020000
_cell_length_c   16.57690000
_cell_angle_alpha   100.11800000
_cell_angle_beta   89.99990000
_cell_angle_gamma   89.99920000
_symmetry_Int_Tables_number   1
_chemical_formula_structural   Cu3H37C30N3O14
_chemical_formula_sum   'Cu6 H74 C60 N6 O28'
_cell_volume   1720.15333312
_cell_formula_units_Z   2
loop_
 _symmetry_equiv_pos_site_id
 _symmetry_equiv_pos_as_xyz
  1  'x, y, z'
loop_
 _atom_site_type_symbol
 _atom_site_label
 _atom_site_symmetry_multiplicity
 _atom_site_fract_x
 _atom_site_fract_y
 _atom_site_fract_z
 _atom_site_occupancy
  Cu  Cu0  1  0.69915000  0.46803000  0.19326000  1.0
  Cu  Cu1  1  0.19916000  0.53197000  0.80674000  1.0
  Cu  Cu2  1  0.54426000  0.52083000  0.36597000  1.0
  Cu  Cu3  1  0.04426000  0.47918000  0.63403000  1.0
  Cu  Cu4  1  0.09665000  0.64557000  0.10068000  1.0
  Cu  Cu5  1  0.59666000  0.35443000  0.89932000  1.0
  H  H6  1  0.28678000  0.35323000  0.32801000  1.0
  H  H7  1  0.78678000  0.64678000  0.67200000  1.0
  H  H8  1  0.17795000  0.17576000  0.31039000  1.0
  H  H9  1  0.67795000  0.82424000  0.68961000  1.0
  H  H10  1  0.34696000  0.03454000  0.23081000  1.0
  H  H11  1  0.84695000  0.96546000  0.76919000  1.0
  H  H12  1  0.61460000  0.07339000  0.16304000  1.0
  H  H13  1  0.11459000  0.92662000  0.83696000  1.0
  H  H14  1  0.82072000  0.18271000  0.13394000  1.0
  H  H15  1  0.32072000  0.81729000  0.86606000  1.0
  H  H16  1  0.87432000  0.27806000  0.21949000  1.0
  H  H17  1  0.37431000  0.72193000  0.78051000  1.0
  H  H18  1  0.67396000  0.31983000  0.07782000  1.0
  H  H19  1  0.17396000  0.68017000  0.92218000  1.0
  H  H20  1  0.03167000  0.33371000  0.12523000  1.0
  H  H21  1  0.53168000  0.66629000  0.87477000  1.0
  H  H22  1  0.09897000  0.29346000  0.98614000  1.0
  H  H23  1  0.59898000  0.70654000  0.01387000  1.0
  H  H24  1  0.91943000  0.21571000  0.99397000  1.0
  H  H25  1  0.41944000  0.78429000  0.00604000  1.0
  H  H26  1  0.92717000  0.40094000  0.92720000  1.0
  H  H27  1  0.42717000  0.59906000  0.07280000  1.0
  H  H28  1  0.66086000  0.66987000  0.15088000  1.0
  H  H29  1  0.16085000  0.33013000  0.84912000  1.0
  H  H30  1  0.64711000  0.85457000  0.14778000  1.0
  H  H31  1  0.14712000  0.14543000  0.85222000  1.0
  H  H32  1  0.62423000  0.97910000  0.27926000  1.0
  H  H33  1  0.12426000  0.02091000  0.72075000  1.0
  H  H34  1  0.61425000  0.91534000  0.41104000  1.0
  H  H35  1  0.11426000  0.08466000  0.58896000  1.0
  H  H36  1  0.75857000  0.68841000  0.44951000  1.0
  H  H37  1  0.25857000  0.31159000  0.55049000  1.0
  H  H38  1  0.61848000  0.79085000  0.48727000  1.0
  H  H39  1  0.11849000  0.20915000  0.51272000  1.0
  H  H40  1  0.38797000  0.67066000  0.42263000  1.0
  H  H41  1  0.88797000  0.32934000  0.57738000  1.0
  H  H42  1  0.59816000  0.63058000  0.55938000  1.0
  H  H43  1  0.09816000  0.36943000  0.44063000  1.0
  H  H44  1  0.31955000  0.67065000  0.63404000  1.0
  H  H45  1  0.81956000  0.32935000  0.36595000  1.0
  H  H46  1  0.40571000  0.77266000  0.59131000  1.0
  H  H47  1  0.90572000  0.22734000  0.40870000  1.0
  H  H48  1  0.11386000  0.65610000  0.53825000  1.0
  H  H49  1  0.61386000  0.34390000  0.46175000  1.0
  H  H50  1  0.80334000  0.74060000  0.89666000  1.0
  H  H51  1  0.30334000  0.25940000  0.10334000  1.0
  H  H52  1  0.64993000  0.90321000  0.90433000  1.0
  H  H53  1  0.14994000  0.09679000  0.09566000  1.0
  H  H54  1  0.69543000  0.04359000  0.02273000  1.0
  H  H55  1  0.19544000  0.95641000  0.97726000  1.0
  H  H56  1  0.90889000  0.01962000  0.12998000  1.0
  H  H57  1  0.40890000  0.98038000  0.87002000  1.0
  H  H58  1  0.23522000  0.84829000  0.11181000  1.0
  H  H59  1  0.73522000  0.15170000  0.88819000  1.0
  H  H60  1  0.11020000  0.93241000  0.18299000  1.0
  H  H61  1  0.61020000  0.06759000  0.81701000  1.0
  H  H62  1  0.94600000  0.77784000  0.19862000  1.0
  H  H63  1  0.44600000  0.22216000  0.80138000  1.0
  H  H64  1  0.30680000  0.79754000  0.24161000  1.0
  H  H65  1  0.80680000  0.20245000  0.75839000  1.0
  H  H66  1  0.97672000  0.81224000  0.34102000  1.0
  H  H67  1  0.47672000  0.18775000  0.65898000  1.0
  H  H68  1  0.18432000  0.81315000  0.38453000  1.0
  H  H69  1  0.68432000  0.18684000  0.61547000  1.0
  H  H70  1  0.06655000  0.97679000  0.37399000  1.0
  H  H71  1  0.56653000  0.02321000  0.62601000  1.0
  H  H72  1  0.34361000  0.49565000  0.14469000  1.0
  H  H73  1  0.84361000  0.50435000  0.85531000  1.0
  H  H74  1  0.43908000  0.42506000  0.07003000  1.0
  H  H75  1  0.93908000  0.57494000  0.92997000  1.0
  H  H76  1  0.95012000  0.46903000  0.32396000  1.0
  H  H77  1  0.45012000  0.53097000  0.67605000  1.0
  H  H78  1  0.07963000  0.48603000  0.25654000  1.0
  H  H79  1  0.57964000  0.51397000  0.74346000  1.0
  C  C80  1  0.51766000  0.31178000  0.26120000  1.0
  C  C81  1  0.01766000  0.68822000  0.73881000  1.0
  C  C82  1  0.35994000  0.29057000  0.29414000  1.0
  C  C83  1  0.85995000  0.70944000  0.70586000  1.0
  C  C84  1  0.29973000  0.19135000  0.28361000  1.0
  C  C85  1  0.79973000  0.80865000  0.71639000  1.0
  C  C86  1  0.39330000  0.11224000  0.23835000  1.0
  C  C87  1  0.89331000  0.88777000  0.76164000  1.0
  C  C88  1  0.54498000  0.13432000  0.20156000  1.0
  C  C89  1  0.04497000  0.86569000  0.79844000  1.0
  C  C90  1  0.61006000  0.23287000  0.21177000  1.0
  C  C91  1  0.11007000  0.76714000  0.78823000  1.0
  C  C92  1  0.77640000  0.25336000  0.17279000  1.0
  C  C93  1  0.27640000  0.74665000  0.82721000  1.0
  C  C94  1  0.93123000  0.35396000  0.08471000  1.0
  C  C95  1  0.43123000  0.64604000  0.91529000  1.0
  C  C96  1  0.95360000  0.46678000  0.08426000  1.0
  C  C97  1  0.45361000  0.53322000  0.91574000  1.0
  C  C98  1  0.96147000  0.29479000  0.99789000  1.0
  C  C99  1  0.46147000  0.70521000  0.00211000  1.0
  C  C100  1  0.64660000  0.68747000  0.28203000  1.0
  C  C101  1  0.14660000  0.31253000  0.71797000  1.0
  C  C102  1  0.65148000  0.72452000  0.20755000  1.0
  C  C103  1  0.15148000  0.27548000  0.79245000  1.0
  C  C104  1  0.64406000  0.82833000  0.20644000  1.0
  C  C105  1  0.14407000  0.17167000  0.79356000  1.0
  C  C106  1  0.63174000  0.89804000  0.27959000  1.0
  C  C107  1  0.13174000  0.10196000  0.72042000  1.0
  C  C108  1  0.62615000  0.86168000  0.35349000  1.0
  C  C109  1  0.12616000  0.13831000  0.64652000  1.0
  C  C110  1  0.63555000  0.75811000  0.35681000  1.0
  C  C111  1  0.13555000  0.24189000  0.64319000  1.0
  C  C112  1  0.63657000  0.72402000  0.43865000  1.0
  C  C113  1  0.13657000  0.27598000  0.56135000  1.0
  C  C114  1  0.47534000  0.62370000  0.52670000  1.0
  C  C115  1  0.97533000  0.37630000  0.47330000  1.0
  C  C116  1  0.42516000  0.51136000  0.51990000  1.0
  C  C117  1  0.92515000  0.48864000  0.48010000  1.0
  C  C118  1  0.34707000  0.69692000  0.57620000  1.0
  C  C119  1  0.84707000  0.30308000  0.42380000  1.0
  C  C120  1  0.94018000  0.78597000  0.00960000  1.0
  C  C121  1  0.44017000  0.21403000  0.99040000  1.0
  C  C122  1  0.82371000  0.80196000  0.94847000  1.0
  C  C123  1  0.32371000  0.19804000  0.05153000  1.0
  C  C124  1  0.73882000  0.89370000  0.95274000  1.0
  C  C125  1  0.23883000  0.10630000  0.04726000  1.0
  C  C126  1  0.76634000  0.97292000  0.01840000  1.0
  C  C127  1  0.26635000  0.02708000  0.98160000  1.0
  C  C128  1  0.88476000  0.95895000  0.07796000  1.0
  C  C129  1  0.38476000  0.04105000  0.92204000  1.0
  C  C130  1  0.97535000  0.86833000  0.07420000  1.0
  C  C131  1  0.47536000  0.13167000  0.92579000  1.0
  C  C132  1  0.10725000  0.86114000  0.13850000  1.0
  C  C133  1  0.60725000  0.13886000  0.86150000  1.0
  C  C134  1  0.17931000  0.76962000  0.25408000  1.0
  C  C135  1  0.67932000  0.23037000  0.74592000  1.0
  C  C136  1  0.20299000  0.65806000  0.26361000  1.0
  C  C137  1  0.70299000  0.34193000  0.73639000  1.0
  C  C138  1  0.11100000  0.83239000  0.33280000  1.0
  C  C139  1  0.61101000  0.16761000  0.66720000  1.0
  N  N140  1  0.76658000  0.33564000  0.12309000  1.0
  N  N141  1  0.26658000  0.66436000  0.87692000  1.0
  N  N142  1  0.50263000  0.64786000  0.44419000  1.0
  N  N143  1  0.00263000  0.35214000  0.55581000  1.0
  N  N144  1  0.07190000  0.77487000  0.18132000  1.0
  N  N145  1  0.57190000  0.22513000  0.81867000  1.0
  O  O146  1  0.58037000  0.40705000  0.27582000  1.0
  O  O147  1  0.08038000  0.59295000  0.72418000  1.0
  O  O148  1  0.84544000  0.52968000  0.12169000  1.0
  O  O149  1  0.34544000  0.47032000  0.87832000  1.0
  O  O150  1  0.08198000  0.49520000  0.04824000  1.0
  O  O151  1  0.58198000  0.50480000  0.95176000  1.0
  O  O152  1  0.87386000  0.33608000  0.93619000  1.0
  O  O153  1  0.37385000  0.66392000  0.06381000  1.0
  O  O154  1  0.64940000  0.58723000  0.28166000  1.0
  O  O155  1  0.14941000  0.41277000  0.71834000  1.0
  O  O156  1  0.45846000  0.45134000  0.45118000  1.0
  O  O157  1  0.95844000  0.54866000  0.54883000  1.0
  O  O158  1  0.36130000  0.48057000  0.57989000  1.0
  O  O159  1  0.86130000  0.51943000  0.42010000  1.0
  O  O160  1  0.19756000  0.70830000  0.53062000  1.0
  O  O161  1  0.69755000  0.29169000  0.46937000  1.0
  O  O162  1  0.01486000  0.69483000  0.00370000  1.0
  O  O163  1  0.51486000  0.30517000  0.99630000  1.0
  O  O164  1  0.17849000  0.59093000  0.19782000  1.0
  O  O165  1  0.67849000  0.40907000  0.80218000  1.0
  O  O166  1  0.24399000  0.63508000  0.33019000  1.0
  O  O167  1  0.74398000  0.36491000  0.66981000  1.0
  O  O168  1  0.12656000  0.93810000  0.32756000  1.0
  O  O169  1  0.62656000  0.06189000  0.67244000  1.0
  O  O170  1  0.44972000  0.48608000  0.11300000  1.0
  O  O171  1  0.94973000  0.51392000  0.88700000  1.0
  O  O172  1  0.00307000  0.43500000  0.27225000  1.0
  O  O173  1  0.50307000  0.56500000  0.72775000  1.0
