# generated using pymatgen
data_PrH11C16N2(ClO)6
_symmetry_space_group_name_H-M   'P 1'
_cell_length_a   8.86144000
_cell_length_b   12.20170000
_cell_length_c   12.28410000
_cell_angle_alpha   109.20400000
_cell_angle_beta   105.08500000
_cell_angle_gamma   102.46900000
_symmetry_Int_Tables_number   1
_chemical_formula_structural   PrH11C16N2(ClO)6
_chemical_formula_sum   'Pr2 H22 C32 N4 Cl12 O12'
_cell_volume   1142.94968029
_cell_formula_units_Z   2
loop_
 _symmetry_equiv_pos_site_id
 _symmetry_equiv_pos_as_xyz
  1  'x, y, z'
loop_
 _atom_site_type_symbol
 _atom_site_label
 _atom_site_symmetry_multiplicity
 _atom_site_fract_x
 _atom_site_fract_y
 _atom_site_fract_z
 _atom_site_occupancy
  Pr  Pr0  1  0.65107000  0.88216000  0.99173000  1.0
  Pr  Pr1  1  0.34893000  0.11784000  0.00826000  1.0
  H  H2  1  0.50536000  0.66807000  0.69782000  1.0
  H  H3  1  0.49464000  0.33193000  0.30219000  1.0
  H  H4  1  0.45287000  0.44908000  0.56005000  1.0
  H  H5  1  0.54713000  0.55092000  0.43995000  1.0
  H  H6  1  0.52931000  0.30790000  0.65968000  1.0
  H  H7  1  0.47069000  0.69210000  0.34032000  1.0
  H  H8  1  0.64232000  0.38825000  0.88746000  1.0
  H  H9  1  0.35768000  0.61175000  0.11254000  1.0
  H  H10  1  0.70678000  0.45552000  0.06994000  1.0
  H  H11  1  0.29323000  0.54448000  0.93006000  1.0
  H  H12  1  0.85830000  0.55834000  0.29643000  1.0
  H  H13  1  0.14171000  0.44166000  0.70356000  1.0
  H  H14  1  0.94230000  0.78940000  0.40187000  1.0
  H  H15  1  0.05771000  0.21060000  0.59813000  1.0
  H  H16  1  0.85939000  0.90376000  0.27432000  1.0
  H  H17  1  0.14061000  0.09624000  0.72569000  1.0
  H  H18  1  0.94740000  0.12837000  0.30809000  1.0
  H  H19  1  0.05260000  0.87163000  0.69191000  1.0
  H  H20  1  0.08445000  0.84587000  0.04069000  1.0
  H  H21  1  0.91554000  0.15413000  0.95931000  1.0
  H  H22  1  0.50330000  0.11229000  0.39635000  1.0
  H  H23  1  0.49670000  0.88770000  0.60365000  1.0
  C  C24  1  0.53471000  0.60294000  0.73596000  1.0
  C  C25  1  0.46529000  0.39706000  0.26404000  1.0
  C  C26  1  0.50644000  0.48144000  0.66000000  1.0
  C  C27  1  0.49356000  0.51856000  0.34001000  1.0
  C  C28  1  0.54737000  0.40340000  0.71513000  1.0
  C  C29  1  0.45263000  0.59661000  0.28487000  1.0
  C  C30  1  0.61214000  0.44864000  0.84325000  1.0
  C  C31  1  0.38786000  0.55136000  0.15676000  1.0
  C  C32  1  0.63693000  0.57201000  0.91401000  1.0
  C  C33  1  0.36307000  0.42800000  0.08599000  1.0
  C  C34  1  0.71151000  0.62649000  0.05067000  1.0
  C  C35  1  0.28849000  0.37351000  0.94933000  1.0
  C  C36  1  0.74488000  0.55504000  0.11696000  1.0
  C  C37  1  0.25513000  0.44496000  0.88304000  1.0
  C  C38  1  0.82908000  0.61274000  0.24410000  1.0
  C  C39  1  0.17093000  0.38726000  0.75590000  1.0
  C  C40  1  0.87463000  0.74007000  0.30298000  1.0
  C  C41  1  0.12538000  0.25992000  0.69703000  1.0
  C  C42  1  0.83102000  0.80453000  0.23194000  1.0
  C  C43  1  0.16898000  0.19547000  0.76807000  1.0
  C  C44  1  0.07309000  0.08524000  0.17597000  1.0
  C  C45  1  0.92689000  0.91475000  0.82403000  1.0
  C  C46  1  0.06125000  0.16982000  0.29666000  1.0
  C  C47  1  0.93876000  0.83018000  0.70335000  1.0
  C  C48  1  0.31505000  0.81943000  0.02287000  1.0
  C  C49  1  0.68494000  0.18056000  0.97713000  1.0
  C  C50  1  0.16532000  0.79359000  0.06227000  1.0
  C  C51  1  0.83467000  0.20641000  0.93773000  1.0
  C  C52  1  0.61430000  0.09031000  0.25634000  1.0
  C  C53  1  0.38570000  0.90967000  0.74365000  1.0
  C  C54  1  0.62773000  0.12298000  0.39272000  1.0
  C  C55  1  0.37227000  0.87702000  0.60728000  1.0
  N  N56  1  0.59918000  0.64794000  0.85990000  1.0
  N  N57  1  0.40082000  0.35206000  0.14010000  1.0
  N  N58  1  0.75220000  0.75003000  0.10888000  1.0
  N  N59  1  0.24780000  0.24997000  0.89112000  1.0
  Cl  Cl60  1  0.22987000  0.18836000  0.42622000  1.0
  Cl  Cl61  1  0.77013000  0.81165000  0.57379000  1.0
  Cl  Cl62  1  0.05784000  0.31380000  0.29308000  1.0
  Cl  Cl63  1  0.94216000  0.68620000  0.70692000  1.0
  Cl  Cl64  1  0.24265000  0.84649000  0.22686000  1.0
  Cl  Cl65  1  0.75734000  0.15351000  0.77314000  1.0
  Cl  Cl66  1  0.04725000  0.63544000  0.98868000  1.0
  Cl  Cl67  1  0.95275000  0.36456000  0.01132000  1.0
  Cl  Cl68  1  0.70714000  0.02723000  0.45679000  1.0
  Cl  Cl69  1  0.29286000  0.97277000  0.54320000  1.0
  Cl  Cl70  1  0.74862000  0.28151000  0.48511000  1.0
  Cl  Cl71  1  0.25138000  0.71848000  0.51488000  1.0
  O  O72  1  0.94995000  0.98778000  0.11132000  1.0
  O  O73  1  0.05007000  0.01224000  0.88869000  1.0
  O  O74  1  0.20209000  0.11898000  0.15423000  1.0
  O  O75  1  0.79794000  0.88103000  0.84577000  1.0
  O  O76  1  0.34892000  0.91655000  0.00364000  1.0
  O  O77  1  0.65106000  0.08345000  0.99635000  1.0
  O  O78  1  0.40069000  0.74921000  0.01494000  1.0
  O  O79  1  0.59930000  0.25080000  0.98506000  1.0
  O  O80  1  0.66542000  0.00526000  0.20602000  1.0
  O  O81  1  0.33456000  0.99475000  0.79397000  1.0
  O  O82  1  0.54786000  0.15368000  0.20937000  1.0
  O  O83  1  0.45213000  0.84634000  0.79062000  1.0
