# generated using pymatgen
data_ZnH12C18(N3O2)2
_symmetry_space_group_name_H-M   'P 1'
_cell_length_a   8.03504000
_cell_length_b   11.74260000
_cell_length_c   11.81940731
_cell_angle_alpha   114.11982814
_cell_angle_beta   102.21365343
_cell_angle_gamma   104.98500000
_symmetry_Int_Tables_number   1
_chemical_formula_structural   ZnH12C18(N3O2)2
_chemical_formula_sum   'Zn2 H24 C36 N12 O8'
_cell_volume   917.36502197
_cell_formula_units_Z   2
loop_
 _symmetry_equiv_pos_site_id
 _symmetry_equiv_pos_as_xyz
  1  'x, y, z'
loop_
 _atom_site_type_symbol
 _atom_site_label
 _atom_site_symmetry_multiplicity
 _atom_site_fract_x
 _atom_site_fract_y
 _atom_site_fract_z
 _atom_site_occupancy
  Zn  Zn0  1  0.51050000  0.20369000  0.23112000  1.0
  Zn  Zn1  1  0.77969000  0.97269000  0.76908000  1.0
  H  H2  1  0.33524000  0.84166000  0.22795000  1.0
  H  H3  1  0.60748000  0.61363000  0.77196000  1.0
  H  H4  1  0.24685000  0.60745000  0.19789000  1.0
  H  H5  1  0.54942000  0.40949000  0.80205000  1.0
  H  H6  1  0.08106000  0.44496000  0.77335000  1.0
  H  H7  1  0.80804000  0.67138000  0.22657000  1.0
  H  H8  1  0.16204000  0.67788000  0.80511000  1.0
  H  H9  1  0.85683000  0.87252000  0.19479000  1.0
  H  H10  1  0.13246000  0.16576000  0.05757000  1.0
  H  H11  1  0.57517000  0.10815000  0.94266000  1.0
  H  H12  1  0.87940000  0.26026000  0.77608000  1.0
  H  H13  1  0.60309000  0.48404000  0.22373000  1.0
  H  H14  1  0.42435000  0.04822000  0.38997000  1.0
  H  H15  1  0.53430000  0.65850000  0.60994000  1.0
  H  H16  1  0.16970000  0.11876000  0.32553000  1.0
  H  H17  1  0.34414000  0.79352000  0.67418000  1.0
  H  H18  1  0.03322000  0.13552000  0.66345000  1.0
  H  H19  1  0.86960000  0.47224000  0.33656000  1.0
  H  H20  1  0.29297000  0.06717000  0.72970000  1.0
  H  H21  1  0.06311000  0.33766000  0.27038000  1.0
  H  H22  1  0.74325000  0.37999000  0.55201000  1.0
  H  H23  1  0.69109000  0.82827000  0.44812000  1.0
  H  H24  1  0.82725000  0.07711000  0.24879000  1.0
  H  H25  1  0.07825000  0.82817000  0.75112000  1.0
  C  C26  1  0.25111000  0.77466000  0.01848000  1.0
  C  C27  1  0.73264000  0.75600000  0.98145000  1.0
  C  C28  1  0.27763000  0.75418000  0.12886000  1.0
  C  C29  1  0.64895000  0.62519000  0.87105000  1.0
  C  C30  1  0.22973000  0.62446000  0.11291000  1.0
  C  C31  1  0.61713000  0.51143000  0.88701000  1.0
  C  C32  1  0.15653000  0.51432000  0.98429000  1.0
  C  C33  1  0.67256000  0.52988000  0.01563000  1.0
  C  C34  1  0.13223000  0.53188000  0.87279000  1.0
  C  C35  1  0.75971000  0.65889000  0.12714000  1.0
  C  C36  1  0.17836000  0.66233000  0.89089000  1.0
  C  C37  1  0.78752000  0.77122000  0.10903000  1.0
  C  C38  1  0.30333000  0.91569000  0.03690000  1.0
  C  C39  1  0.76653000  0.87866000  0.96312000  1.0
  C  C40  1  0.10154000  0.22193000  0.00819000  1.0
  C  C41  1  0.59359000  0.21368000  0.99197000  1.0
  C  C42  1  0.96928000  0.26658000  0.86284000  1.0
  C  C43  1  0.60643000  0.40363000  0.13709000  1.0
  C  C44  1  0.37598000  0.05496000  0.56473000  1.0
  C  C45  1  0.31115000  0.49040000  0.43528000  1.0
  C  C46  1  0.33782000  0.06648000  0.44948000  1.0
  C  C47  1  0.38825000  0.61721000  0.55044000  1.0
  C  C48  1  0.19426000  0.10477000  0.41230000  1.0
  C  C49  1  0.28189000  0.69272000  0.58751000  1.0
  C  C50  1  0.09067000  0.13353000  0.49360000  1.0
  C  C51  1  0.09693000  0.64012000  0.50630000  1.0
  C  C52  1  0.12240000  0.11824000  0.60642000  1.0
  C  C53  1  0.01585000  0.51201000  0.39355000  1.0
  C  C54  1  0.26480000  0.07863000  0.64154000  1.0
  C  C55  1  0.12313000  0.43728000  0.35847000  1.0
  C  C56  1  0.54011000  0.02395000  0.60803000  1.0
  C  C57  1  0.43206000  0.41611000  0.39220000  1.0
  C  C58  1  0.79606000  0.30461000  0.50312000  1.0
  C  C59  1  0.79278000  0.80168000  0.49691000  1.0
  C  C60  1  0.83535000  0.15064000  0.34605000  1.0
  C  C61  1  0.98912000  0.80457000  0.65389000  1.0
  N  N62  1  0.10415000  0.38074000  0.96590000  1.0
  N  N63  1  0.63858000  0.41472000  0.03409000  1.0
  N  N64  1  0.18948000  0.35395000  0.05988000  1.0
  N  N65  1  0.63008000  0.29397000  0.94026000  1.0
  N  N66  1  0.96531000  0.16408000  0.88664000  1.0
  N  N67  1  0.57862000  0.27737000  0.11341000  1.0
  N  N68  1  0.95328000  0.18372000  0.46467000  1.0
  N  N69  1  0.98844000  0.71918000  0.53524000  1.0
  N  N70  1  0.92916000  0.28143000  0.56558000  1.0
  N  N71  1  0.86338000  0.71607000  0.43438000  1.0
  N  N72  1  0.73403000  0.22620000  0.36802000  1.0
  N  N73  1  0.86582000  0.85817000  0.63200000  1.0
  O  O74  1  0.38961000  0.00991000  0.16000000  1.0
  O  O75  1  0.72924000  0.84994000  0.84003000  1.0
  O  O76  1  0.26500000  0.93469000  0.93945000  1.0
  O  O77  1  0.82621000  0.99508000  0.06066000  1.0
  O  O78  1  0.54917000  0.99390000  0.70310000  1.0
  O  O79  1  0.34611000  0.29101000  0.29711000  1.0
  O  O80  1  0.65967000  0.03080000  0.55543000  1.0
  O  O81  1  0.60420000  0.47551000  0.44498000  1.0
