# generated using pymatgen
data_CuH8C12N5ClO4
_symmetry_space_group_name_H-M   'P 1'
_cell_length_a   8.44023000
_cell_length_b   8.44168000
_cell_length_c   11.62041505
_cell_angle_alpha   107.55690435
_cell_angle_beta   96.82550716
_cell_angle_gamma   114.88400000
_symmetry_Int_Tables_number   1
_chemical_formula_structural   CuH8C12N5ClO4
_chemical_formula_sum   'Cu2 H16 C24 N10 Cl2 O8'
_cell_volume   686.57734071
_cell_formula_units_Z   2
loop_
 _symmetry_equiv_pos_site_id
 _symmetry_equiv_pos_as_xyz
  1  'x, y, z'
loop_
 _atom_site_type_symbol
 _atom_site_label
 _atom_site_symmetry_multiplicity
 _atom_site_fract_x
 _atom_site_fract_y
 _atom_site_fract_z
 _atom_site_occupancy
  Cu  Cu0  1  0.09732000  0.06005000  0.57275000  1.0
  Cu  Cu1  1  0.51286000  0.97525000  0.07290000  1.0
  H  H2  1  0.16826000  0.46833000  0.69165000  1.0
  H  H3  1  0.22358000  0.02354000  0.19138000  1.0
  H  H4  1  0.42344000  0.78437000  0.72796000  1.0
  H  H5  1  0.94353000  0.80519000  0.22772000  1.0
  H  H6  1  0.71296000  0.80023000  0.67422000  1.0
  H  H7  1  0.87354000  0.46194000  0.17419000  1.0
  H  H8  1  0.72733000  0.50440000  0.58548000  1.0
  H  H9  1  0.08060000  0.35842000  0.08578000  1.0
  H  H10  1  0.69849000  0.23008000  0.48247000  1.0
  H  H11  1  0.25235000  0.28394000  0.98287000  1.0
  H  H12  1  0.65051000  0.90459000  0.38890000  1.0
  H  H13  1  0.48422000  0.23820000  0.88918000  1.0
  H  H14  1  0.36438000  0.63140000  0.38982000  1.0
  H  H15  1  0.75837000  0.52509000  0.88996000  1.0
  H  H16  1  0.13448000  0.70354000  0.47509000  1.0
  H  H17  1  0.77167000  0.84032000  0.97526000  1.0
  C  C18  1  0.29316000  0.48229000  0.66781000  1.0
  C  C19  1  0.18556000  0.87483000  0.16766000  1.0
  C  C20  1  0.43728000  0.65815000  0.68777000  1.0
  C  C21  1  0.02944000  0.75091000  0.18758000  1.0
  C  C22  1  0.59517000  0.66628000  0.65823000  1.0
  C  C23  1  0.99170000  0.56355000  0.15824000  1.0
  C  C24  1  0.60373000  0.49929000  0.60722000  1.0
  C  C25  1  0.10772000  0.50378000  0.10744000  1.0
  C  C26  1  0.45276000  0.32732000  0.58595000  1.0
  C  C27  1  0.25863000  0.63325000  0.08615000  1.0
  C  C28  1  0.44102000  0.14130000  0.52795000  1.0
  C  C29  1  0.38664000  0.58683000  0.02820000  1.0
  C  C30  1  0.57464000  0.11193000  0.48005000  1.0
  C  C31  1  0.36807000  0.40534000  0.98038000  1.0
  C  C32  1  0.54729000  0.92742000  0.42780000  1.0
  C  C33  1  0.50032000  0.38032000  0.92810000  1.0
  C  C34  1  0.39028000  0.77756000  0.42745000  1.0
  C  C35  1  0.64991000  0.53690000  0.92771000  1.0
  C  C36  1  0.26061000  0.81604000  0.47508000  1.0
  C  C37  1  0.65918000  0.71423000  0.97537000  1.0
  C  C38  1  0.87365000  0.16142000  0.74470000  1.0
  C  C39  1  0.58343000  0.37089000  0.24460000  1.0
  C  C40  1  0.72404000  0.12783000  0.89740000  1.0
  C  C41  1  0.76943000  0.67330000  0.39717000  1.0
  N  N42  1  0.30234000  0.32206000  0.61878000  1.0
  N  N43  1  0.29684000  0.81650000  0.11884000  1.0
  N  N44  1  0.28484000  0.99298000  0.52187000  1.0
  N  N45  1  0.52903000  0.73685000  0.02216000  1.0
  N  N46  1  0.96845000  0.14956000  0.67986000  1.0
  N  N47  1  0.53045000  0.21121000  0.18002000  1.0
  N  N48  1  0.76600000  0.18542000  0.80908000  1.0
  N  N49  1  0.62376000  0.54296000  0.30869000  1.0
  N  N50  1  0.67487000  0.08627000  0.97963000  1.0
  N  N51  1  0.89297000  0.80482000  0.47942000  1.0
  Cl  Cl52  1  0.09921000  0.82327000  0.83254000  1.0
  Cl  Cl53  1  0.00945000  0.23365000  0.33257000  1.0
  O  O54  1  0.04751000  0.79384000  0.70058000  1.0
  O  O55  1  0.90750000  0.15350000  0.20050000  1.0
  O  O56  1  0.29987000  0.92491000  0.87959000  1.0
  O  O57  1  0.95468000  0.07994000  0.37953000  1.0
  O  O58  1  0.02837000  0.93793000  0.90650000  1.0
  O  O59  1  0.96828000  0.37817000  0.40632000  1.0
  O  O60  1  0.02904000  0.64032000  0.84452000  1.0
  O  O61  1  0.20453000  0.31609000  0.34498000  1.0
