# generated using pymatgen
data_AlH25C26O7
_symmetry_space_group_name_H-M   'P 1'
_cell_length_a   6.66837000
_cell_length_b   25.04050000
_cell_length_c   29.32500000
_cell_angle_alpha   90.00010000
_cell_angle_beta   90.00020000
_cell_angle_gamma   89.99930000
_symmetry_Int_Tables_number   1
_chemical_formula_structural   AlH25C26O7
_chemical_formula_sum   'Al4 H100 C104 O28'
_cell_volume   4896.66852883
_cell_formula_units_Z   4
loop_
 _symmetry_equiv_pos_site_id
 _symmetry_equiv_pos_as_xyz
  1  'x, y, z'
loop_
 _atom_site_type_symbol
 _atom_site_label
 _atom_site_symmetry_multiplicity
 _atom_site_fract_x
 _atom_site_fract_y
 _atom_site_fract_z
 _atom_site_occupancy
  Al  Al0  1  0.75588000  0.74908000  0.75000000  1.0
  Al  Al1  1  0.24414000  0.25092000  0.25001000  1.0
  Al  Al2  1  0.25588000  0.75092000  0.74998000  1.0
  Al  Al3  1  0.74413000  0.24908000  0.24999000  1.0
  H  H4  1  0.28803000  0.38028000  0.33853000  1.0
  H  H5  1  0.71043000  0.61957000  0.66177000  1.0
  H  H6  1  0.71200000  0.61972000  0.83854000  1.0
  H  H7  1  0.28964000  0.38042000  0.16176000  1.0
  H  H8  1  0.78800000  0.11971000  0.16147000  1.0
  H  H9  1  0.21043000  0.88046000  0.83824000  1.0
  H  H10  1  0.21199000  0.88027000  0.66145000  1.0
  H  H11  1  0.78962000  0.11958000  0.33823000  1.0
  H  H12  1  0.28242000  0.44486000  0.40306000  1.0
  H  H13  1  0.71431000  0.55526000  0.59736000  1.0
  H  H14  1  0.71766000  0.55514000  0.90307000  1.0
  H  H15  1  0.28578000  0.44472000  0.09734000  1.0
  H  H16  1  0.78239000  0.05513000  0.09695000  1.0
  H  H17  1  0.21433000  0.94473000  0.90267000  1.0
  H  H18  1  0.21764000  0.94486000  0.59692000  1.0
  H  H19  1  0.78578000  0.05528000  0.40266000  1.0
  H  H20  1  0.69452000  0.38911000  0.44092000  1.0
  H  H21  1  0.30429000  0.61024000  0.55967000  1.0
  H  H22  1  0.30555000  0.61088000  0.94090000  1.0
  H  H23  1  0.69577000  0.38975000  0.05966000  1.0
  H  H24  1  0.19454000  0.11089000  0.05908000  1.0
  H  H25  1  0.80425000  0.88969000  0.94036000  1.0
  H  H26  1  0.80557000  0.88912000  0.55909000  1.0
  H  H27  1  0.19578000  0.11025000  0.44034000  1.0
  H  H28  1  0.69615000  0.32739000  0.37439000  1.0
  H  H29  1  0.30341000  0.67192000  0.62613000  1.0
  H  H30  1  0.30393000  0.67260000  0.87438000  1.0
  H  H31  1  0.69664000  0.32808000  0.12612000  1.0
  H  H32  1  0.19615000  0.17261000  0.12561000  1.0
  H  H33  1  0.80333000  0.82805000  0.87389000  1.0
  H  H34  1  0.80393000  0.82739000  0.62562000  1.0
  H  H35  1  0.19662000  0.17192000  0.37388000  1.0
  H  H36  1  0.69502000  0.55129000  0.51950000  1.0
  H  H37  1  0.30487000  0.44872000  0.48039000  1.0
  H  H38  1  0.30503000  0.44870000  0.01949000  1.0
  H  H39  1  0.69523000  0.55129000  0.98039000  1.0
  H  H40  1  0.19503000  0.94870000  0.98052000  1.0
  H  H41  1  0.80489000  0.05126000  0.01963000  1.0
  H  H42  1  0.80503000  0.05130000  0.48050000  1.0
  H  H43  1  0.19521000  0.94871000  0.51961000  1.0
  H  H44  1  0.52678000  0.48910000  0.38988000  1.0
  H  H45  1  0.76891000  0.51745000  0.39619000  1.0
  H  H46  1  0.38294000  0.56213000  0.43907000  1.0
  H  H47  1  0.62257000  0.59224000  0.44226000  1.0
  H  H48  1  0.62551000  0.60317000  0.35603000  1.0
  H  H49  1  0.41685000  0.63616000  0.38096000  1.0
  H  H50  1  0.38345000  0.57375000  0.35331000  1.0
  H  H51  1  0.59308000  0.47528000  0.57315000  1.0
  H  H52  1  0.37921000  0.43539000  0.56087000  1.0
  H  H53  1  0.39282000  0.52268000  0.63455000  1.0
  H  H54  1  0.19049000  0.47899000  0.62447000  1.0
  H  H55  1  0.41221000  0.39987000  0.64613000  1.0
  H  H56  1  0.39552000  0.44702000  0.69115000  1.0
  H  H57  1  0.61351000  0.44467000  0.65654000  1.0
  H  H58  1  0.47340000  0.51091000  0.88989000  1.0
  H  H59  1  0.23124000  0.48257000  0.89617000  1.0
  H  H60  1  0.61716000  0.43785000  0.93906000  1.0
  H  H61  1  0.37748000  0.40776000  0.94224000  1.0
  H  H62  1  0.37461000  0.39685000  0.85601000  1.0
  H  H63  1  0.58323000  0.36385000  0.88093000  1.0
  H  H64  1  0.61666000  0.42627000  0.85330000  1.0
  H  H65  1  0.40701000  0.52470000  0.07316000  1.0
  H  H66  1  0.62079000  0.56461000  0.06085000  1.0
  H  H67  1  0.60748000  0.47733000  0.13454000  1.0
  H  H68  1  0.80971000  0.52105000  0.12443000  1.0
  H  H69  1  0.58785000  0.60013000  0.14611000  1.0
  H  H70  1  0.60476000  0.55300000  0.19114000  1.0
  H  H71  1  0.38671000  0.55529000  0.15655000  1.0
  H  H72  1  0.02665000  0.01089000  0.11012000  1.0
  H  H73  1  0.26885000  0.98257000  0.10385000  1.0
  H  H74  1  0.88309000  0.93782000  0.06094000  1.0
  H  H75  1  0.12276000  0.90774000  0.05779000  1.0
  H  H76  1  0.12550000  0.89686000  0.14402000  1.0
  H  H77  1  0.91699000  0.86382000  0.11908000  1.0
  H  H78  1  0.88340000  0.92625000  0.14669000  1.0
  H  H79  1  0.09306000  0.02474000  0.92691000  1.0
  H  H80  1  0.87880000  0.06455000  0.93906000  1.0
  H  H81  1  0.89366000  0.97716000  0.86549000  1.0
  H  H82  1  0.69092000  0.02073000  0.87544000  1.0
  H  H83  1  0.91204000  0.09996000  0.85377000  1.0
  H  H84  1  0.89614000  0.05272000  0.80880000  1.0
  H  H85  1  0.11380000  0.05526000  0.84350000  1.0
  H  H86  1  0.97346000  0.98909000  0.61009000  1.0
  H  H87  1  0.73127000  0.01743000  0.60382000  1.0
  H  H88  1  0.11711000  0.06216000  0.56090000  1.0
  H  H89  1  0.87742000  0.09224000  0.55775000  1.0
  H  H90  1  0.87467000  0.10314000  0.64398000  1.0
  H  H91  1  0.08321000  0.13617000  0.61904000  1.0
  H  H92  1  0.11678000  0.07374000  0.64666000  1.0
  H  H93  1  0.90699000  0.97531000  0.42684000  1.0
  H  H94  1  0.12079000  0.93539000  0.43914000  1.0
  H  H95  1  0.10742000  0.02269000  0.36546000  1.0
  H  H96  1  0.30966000  0.97897000  0.37555000  1.0
  H  H97  1  0.08781000  0.89988000  0.35388000  1.0
  H  H98  1  0.10471000  0.94702000  0.30885000  1.0
  H  H99  1  0.88666000  0.94473000  0.34344000  1.0
  H  H100  1  0.50176000  0.67965000  0.74535000  1.0
  H  H101  1  0.49825000  0.32034000  0.24521000  1.0
  H  H102  1  0.00175000  0.82032000  0.75494000  1.0
  H  H103  1  0.99827000  0.17966000  0.25476000  1.0
  C  C104  1  0.50775000  0.81342000  0.68752000  1.0
  C  C105  1  0.49277000  0.18608000  0.31202000  1.0
  C  C106  1  0.49226000  0.18657000  0.18754000  1.0
  C  C107  1  0.50720000  0.81393000  0.81202000  1.0
  C  C108  1  0.00773000  0.68657000  0.81246000  1.0
  C  C109  1  0.99280000  0.31392000  0.18797000  1.0
  C  C110  1  0.99226000  0.31343000  0.31247000  1.0
  C  C111  1  0.00723000  0.68608000  0.68797000  1.0
  C  C112  1  0.15815000  0.38285000  0.36100000  1.0
  C  C113  1  0.84056000  0.61684000  0.63940000  1.0
  C  C114  1  0.84189000  0.61715000  0.86100000  1.0
  C  C115  1  0.15948000  0.38316000  0.13939000  1.0
  C  C116  1  0.65814000  0.11714000  0.13900000  1.0
  C  C117  1  0.34055000  0.88317000  0.86062000  1.0
  C  C118  1  0.34187000  0.88284000  0.63899000  1.0
  C  C119  1  0.65947000  0.11684000  0.36060000  1.0
  C  C120  1  0.15502000  0.41845000  0.39736000  1.0
  C  C121  1  0.84295000  0.58130000  0.60301000  1.0
  C  C122  1  0.84504000  0.58155000  0.89736000  1.0
  C  C123  1  0.15711000  0.41869000  0.10299000  1.0
  C  C124  1  0.65500000  0.08154000  0.10265000  1.0
  C  C125  1  0.34297000  0.91868000  0.89702000  1.0
  C  C126  1  0.34503000  0.91845000  0.60264000  1.0
  C  C127  1  0.65711000  0.08131000  0.39700000  1.0
  C  C128  1  0.98816000  0.42197000  0.42660000  1.0
  C  C129  1  0.01025000  0.57769000  0.57383000  1.0
  C  C130  1  0.01192000  0.57803000  0.92660000  1.0
  C  C131  1  0.98981000  0.42230000  0.07382000  1.0
  C  C132  1  0.48816000  0.07803000  0.07341000  1.0
  C  C133  1  0.51026000  0.92227000  0.92619000  1.0
  C  C134  1  0.51189000  0.92197000  0.57340000  1.0
  C  C135  1  0.48980000  0.07770000  0.42617000  1.0
  C  C136  1  0.82363000  0.38800000  0.41822000  1.0
  C  C137  1  0.17508000  0.61149000  0.58230000  1.0
  C  C138  1  0.17643000  0.61200000  0.91822000  1.0
  C  C139  1  0.82499000  0.38851000  0.08230000  1.0
  C  C140  1  0.32364000  0.11200000  0.08178000  1.0
  C  C141  1  0.67505000  0.88847000  0.91772000  1.0
  C  C142  1  0.67643000  0.88801000  0.58178000  1.0
  C  C143  1  0.32498000  0.11149000  0.41770000  1.0
  C  C144  1  0.82440000  0.35321000  0.38121000  1.0
  C  C145  1  0.17488000  0.64618000  0.61935000  1.0
  C  C146  1  0.17568000  0.64678000  0.88120000  1.0
  C  C147  1  0.82517000  0.35382000  0.11934000  1.0
  C  C148  1  0.32439000  0.14679000  0.11879000  1.0
  C  C149  1  0.67485000  0.85380000  0.88066000  1.0
  C  C150  1  0.67567000  0.85322000  0.61879000  1.0
  C  C151  1  0.32514000  0.14618000  0.38065000  1.0
  C  C152  1  0.99132000  0.35044000  0.35223000  1.0
  C  C153  1  0.00789000  0.64907000  0.64828000  1.0
  C  C154  1  0.00875000  0.64956000  0.85223000  1.0
  C  C155  1  0.99216000  0.35093000  0.14828000  1.0
  C  C156  1  0.49130000  0.14955000  0.14777000  1.0
  C  C157  1  0.50787000  0.85093000  0.85172000  1.0
  C  C158  1  0.50873000  0.85043000  0.64775000  1.0
  C  C159  1  0.49213000  0.14907000  0.35172000  1.0
  C  C160  1  0.82055000  0.49114000  0.47692000  1.0
  C  C161  1  0.17916000  0.50851000  0.52366000  1.0
  C  C162  1  0.17955000  0.50886000  0.97692000  1.0
  C  C163  1  0.82090000  0.49149000  0.02366000  1.0
  C  C164  1  0.32056000  0.00885000  0.02309000  1.0
  C  C165  1  0.67919000  0.99146000  0.97636000  1.0
  C  C166  1  0.67955000  0.99113000  0.52308000  1.0
  C  C167  1  0.32089000  0.00852000  0.47634000  1.0
  C  C168  1  0.83098000  0.52899000  0.51160000  1.0
  C  C169  1  0.16854000  0.47059000  0.48886000  1.0
  C  C170  1  0.16910000  0.47100000  0.01159000  1.0
  C  C171  1  0.83155000  0.52942000  0.98887000  1.0
  C  C172  1  0.33099000  0.97098000  0.98843000  1.0
  C  C173  1  0.66855000  0.02940000  0.01114000  1.0
  C  C174  1  0.66909000  0.02900000  0.48841000  1.0
  C  C175  1  0.33153000  0.97058000  0.51113000  1.0
  C  C176  1  0.00888000  0.53883000  0.53596000  1.0
  C  C177  1  0.99080000  0.46077000  0.46463000  1.0
  C  C178  1  0.99120000  0.46116000  0.03595000  1.0
  C  C179  1  0.00928000  0.53923000  0.96462000  1.0
  C  C180  1  0.50887000  0.96114000  0.96406000  1.0
  C  C181  1  0.49081000  0.03922000  0.03538000  1.0
  C  C182  1  0.49120000  0.03884000  0.46404000  1.0
  C  C183  1  0.50927000  0.96077000  0.53537000  1.0
  C  C184  1  0.62051000  0.51369000  0.41252000  1.0
  C  C185  1  0.52429000  0.56803000  0.42028000  1.0
  C  C186  1  0.48558000  0.59688000  0.37520000  1.0
  C  C187  1  0.42824000  0.47414000  0.57486000  1.0
  C  C188  1  0.35531000  0.48178000  0.62366000  1.0
  C  C189  1  0.44902000  0.44107000  0.65611000  1.0
  C  C190  1  0.37961000  0.48632000  0.91252000  1.0
  C  C191  1  0.47581000  0.43198000  0.92027000  1.0
  C  C192  1  0.51452000  0.40314000  0.87518000  1.0
  C  C193  1  0.57184000  0.52586000  0.07485000  1.0
  C  C194  1  0.64490000  0.51823000  0.12364000  1.0
  C  C195  1  0.55119000  0.55892000  0.15610000  1.0
  C  C196  1  0.12050000  0.98631000  0.08750000  1.0
  C  C197  1  0.02439000  0.93196000  0.07974000  1.0
  C  C198  1  0.98563000  0.90311000  0.12483000  1.0
  C  C199  1  0.92822000  0.02581000  0.92514000  1.0
  C  C200  1  0.85576000  0.01805000  0.87632000  1.0
  C  C201  1  0.94930000  0.05877000  0.84387000  1.0
  C  C202  1  0.87964000  0.01368000  0.58747000  1.0
  C  C203  1  0.97578000  0.06803000  0.57971000  1.0
  C  C204  1  0.01456000  0.09687000  0.62479000  1.0
  C  C205  1  0.07182000  0.97415000  0.42514000  1.0
  C  C206  1  0.14485000  0.98179000  0.37634000  1.0
  C  C207  1  0.05114000  0.94110000  0.34389000  1.0
  O  O208  1  0.33668000  0.80113000  0.79572000  1.0
  O  O209  1  0.66309000  0.19919000  0.20379000  1.0
  O  O210  1  0.66331000  0.19888000  0.29572000  1.0
  O  O211  1  0.33694000  0.80082000  0.70378000  1.0
  O  O212  1  0.83673000  0.69888000  0.70429000  1.0
  O  O213  1  0.16309000  0.30082000  0.29620000  1.0
  O  O214  1  0.16333000  0.30112000  0.20428000  1.0
  O  O215  1  0.83691000  0.69918000  0.79622000  1.0
  O  O216  1  0.67731000  0.79775000  0.70243000  1.0
  O  O217  1  0.32324000  0.20178000  0.29707000  1.0
  O  O218  1  0.32271000  0.20223000  0.20244000  1.0
  O  O219  1  0.67673000  0.79825000  0.79704000  1.0
  O  O220  1  0.17731000  0.70222000  0.79755000  1.0
  O  O221  1  0.82328000  0.29823000  0.20294000  1.0
  O  O222  1  0.82271000  0.29777000  0.29756000  1.0
  O  O223  1  0.17677000  0.70180000  0.70292000  1.0
  O  O224  1  0.50455000  0.71785000  0.75012000  1.0
  O  O225  1  0.49547000  0.28216000  0.25011000  1.0
  O  O226  1  0.00454000  0.78216000  0.74988000  1.0
  O  O227  1  0.99547000  0.21785000  0.24988000  1.0
  O  O228  1  0.64023000  0.48375000  0.45442000  1.0
  O  O229  1  0.35956000  0.51678000  0.54565000  1.0
  O  O230  1  0.35989000  0.51625000  0.95442000  1.0
  O  O231  1  0.64050000  0.48322000  0.04564000  1.0
  O  O232  1  0.14023000  0.01624000  0.04560000  1.0
  O  O233  1  0.85956000  0.98319000  0.95437000  1.0
  O  O234  1  0.85987000  0.98374000  0.54557000  1.0
  O  O235  1  0.14049000  0.01678000  0.45435000  1.0
