# generated using pymatgen
data_ZnH10C26(NO2)7
_symmetry_space_group_name_H-M   'P 1'
_cell_length_a   15.11610000
_cell_length_b   15.83960000
_cell_length_c   19.34900000
_cell_angle_alpha   87.19480000
_cell_angle_beta   75.45260000
_cell_angle_gamma   77.99850000
_symmetry_Int_Tables_number   1
_chemical_formula_structural   ZnH10C26(NO2)7
_chemical_formula_sum   'Zn2 H20 C52 N14 O28'
_cell_volume   4386.21950707
_cell_formula_units_Z   2
loop_
 _symmetry_equiv_pos_site_id
 _symmetry_equiv_pos_as_xyz
  1  'x, y, z'
loop_
 _atom_site_type_symbol
 _atom_site_label
 _atom_site_symmetry_multiplicity
 _atom_site_fract_x
 _atom_site_fract_y
 _atom_site_fract_z
 _atom_site_occupancy
  Zn  Zn0  1  0.59750000  0.50412000  0.47371000  1.0
  Zn  Zn1  1  0.40803000  0.48796000  0.50628000  1.0
  H  H2  1  0.62472000  0.43095000  0.68666000  1.0
  H  H3  1  0.37488000  0.57560000  0.29694000  1.0
  H  H4  1  0.63028000  0.43122000  0.81513000  1.0
  H  H5  1  0.36813000  0.58132000  0.16886000  1.0
  H  H6  1  0.34100000  0.56004000  0.87175000  1.0
  H  H7  1  0.64463000  0.42223000  0.11196000  1.0
  H  H8  1  0.27332000  0.74262000  0.57517000  1.0
  H  H9  1  0.74181000  0.24293000  0.47677000  1.0
  H  H10  1  0.63937000  0.84496000  0.53015000  1.0
  H  H11  1  0.37175000  0.14049000  0.57964000  1.0
  H  H12  1  0.98024000  0.38509000  0.67205000  1.0
  H  H13  1  0.96623000  0.72379000  0.41827000  1.0
  H  H14  1  0.66753000  0.65615000  0.41029000  1.0
  H  H15  1  0.31561000  0.37976000  0.61208000  1.0
  H  H16  1  0.85734000  0.44838000  0.61454000  1.0
  H  H17  1  0.09607000  0.64616000  0.46225000  1.0
  H  H18  1  0.59533000  0.82511000  0.44529000  1.0
  H  H19  1  0.41824000  0.16924000  0.47970000  1.0
  H  H20  1  0.85212000  0.11911000  0.46541000  1.0
  H  H21  1  0.16279000  0.86360000  0.61634000  1.0
  C  C22  1  0.57177000  0.33305000  0.48522000  1.0
  C  C23  1  0.43992000  0.65973000  0.50679000  1.0
  C  C24  1  0.48210000  0.49346000  0.62925000  1.0
  C  C25  1  0.51295000  0.49688000  0.35406000  1.0
  C  C26  1  0.56336000  0.45895000  0.72788000  1.0
  C  C27  1  0.43331000  0.54216000  0.25584000  1.0
  C  C28  1  0.56639000  0.45902000  0.79899000  1.0
  C  C29  1  0.42957000  0.54547000  0.18472000  1.0
  C  C30  1  0.48680000  0.49654000  0.85134000  1.0
  C  C31  1  0.50555000  0.50230000  0.13218000  1.0
  C  C32  1  0.40333000  0.53131000  0.83166000  1.0
  C  C33  1  0.58516000  0.45598000  0.15201000  1.0
  C  C34  1  0.40245000  0.53045000  0.76013000  1.0
  C  C35  1  0.58646000  0.45264000  0.22354000  1.0
  C  C36  1  0.48164000  0.49562000  0.70680000  1.0
  C  C37  1  0.51178000  0.49560000  0.27675000  1.0
  C  C38  1  0.50172000  0.50465000  0.05701000  1.0
  C  C39  1  0.49224000  0.50130000  0.92577000  1.0
  C  C40  1  0.59848000  0.23706000  0.48941000  1.0
  C  C41  1  0.41366000  0.75360000  0.52549000  1.0
  C  C42  1  0.72284000  0.11166000  0.49089000  1.0
  C  C43  1  0.29081000  0.87358000  0.58066000  1.0
  C  C44  1  0.69231000  0.19980000  0.48611000  1.0
  C  C45  1  0.32126000  0.78721000  0.56264000  1.0
  C  C46  1  0.53360000  0.18330000  0.49718000  1.0
  C  C47  1  0.47778000  0.80849000  0.50807000  1.0
  C  C48  1  0.55992000  0.09414000  0.51290000  1.0
  C  C49  1  0.45214000  0.89473000  0.53440000  1.0
  C  C50  1  0.65665000  0.05722000  0.50816000  1.0
  C  C51  1  0.35600000  0.92918000  0.56817000  1.0
  C  C52  1  0.49143000  0.03970000  0.53177000  1.0
  C  C53  1  0.52050000  0.94877000  0.52602000  1.0
  C  C54  1  0.61640000  0.91365000  0.52182000  1.0
  C  C55  1  0.39541000  0.07290000  0.56378000  1.0
  C  C56  1  0.67914000  0.96610000  0.51825000  1.0
  C  C57  1  0.33322000  0.01903000  0.58460000  1.0
  C  C58  1  0.16835000  0.39221000  0.62117000  1.0
  C  C59  1  0.80509000  0.66351000  0.42071000  1.0
  C  C60  1  0.25609000  0.40817000  0.59075000  1.0
  C  C61  1  0.72789000  0.62652000  0.43030000  1.0
  C  C62  1  0.20119000  0.49500000  0.50575000  1.0
  C  C63  1  0.79492000  0.51420000  0.49245000  1.0
  C  C64  1  0.10685000  0.49192000  0.53654000  1.0
  C  C65  1  0.87169000  0.55127000  0.49398000  1.0
  C  C66  1  0.08970000  0.43389000  0.59575000  1.0
  C  C67  1  0.88014000  0.62763000  0.45184000  1.0
  C  C68  1  0.03002000  0.53993000  0.50975000  1.0
  C  C69  1  0.94318000  0.51386000  0.53042000  1.0
  C  C70  1  0.92741000  0.45885000  0.59080000  1.0
  C  C71  1  0.03493000  0.61756000  0.46971000  1.0
  C  C72  1  0.99618000  0.42341000  0.62427000  1.0
  C  C73  1  0.96152000  0.66231000  0.44484000  1.0
  N  N74  1  0.41728000  0.54522000  0.97361000  1.0
  N  N75  1  0.57946000  0.46728000  0.00800000  1.0
  N  N76  1  0.42203000  0.54672000  0.04052000  1.0
  N  N77  1  0.57453000  0.46543000  0.94130000  1.0
  N  N78  1  0.27253000  0.45834000  0.53212000  1.0
  N  N79  1  0.72494000  0.54960000  0.46406000  1.0
  N  N80  1  0.79455000  0.42289000  0.51629000  1.0
  N  N81  1  0.22909000  0.53284000  0.43309000  1.0
  N  N82  1  0.16323000  0.32896000  0.68075000  1.0
  N  N83  1  0.80860000  0.73941000  0.37320000  1.0
  N  N84  1  0.31495000  0.57293000  0.74099000  1.0
  N  N85  1  0.66829000  0.39682000  0.24247000  1.0
  N  N86  1  0.76788000  0.92269000  0.53441000  1.0
  N  N87  1  0.24150000  0.06088000  0.62965000  1.0
  O  O88  1  0.63796000  0.37495000  0.47156000  1.0
  O  O89  1  0.37421000  0.61775000  0.51983000  1.0
  O  O90  1  0.48540000  0.36651000  0.49823000  1.0
  O  O91  1  0.52576000  0.62749000  0.48088000  1.0
  O  O92  1  0.55704000  0.50397000  0.58558000  1.0
  O  O93  1  0.43542000  0.49345000  0.39783000  1.0
  O  O94  1  0.40892000  0.48011000  0.61445000  1.0
  O  O95  1  0.58847000  0.50385000  0.36850000  1.0
  O  O96  1  0.84469000  0.36806000  0.47264000  1.0
  O  O97  1  0.74603000  0.41013000  0.57567000  1.0
  O  O98  1  0.22903000  0.48649000  0.38380000  1.0
  O  O99  1  0.24971000  0.60450000  0.42852000  1.0
  O  O100  1  0.23216000  0.31007000  0.70616000  1.0
  O  O101  1  0.09194000  0.29860000  0.70051000  1.0
  O  O102  1  0.73428000  0.79064000  0.37426000  1.0
  O  O103  1  0.88541000  0.74541000  0.33404000  1.0
  O  O104  1  0.24426000  0.54375000  0.76817000  1.0
  O  O105  1  0.31863000  0.63594000  0.70075000  1.0
  O  O106  1  0.74634000  0.40677000  0.20808000  1.0
  O  O107  1  0.65243000  0.34250000  0.28967000  1.0
  O  O108  1  0.80998000  0.85416000  0.50213000  1.0
  O  O109  1  0.79159000  0.95488000  0.58199000  1.0
  O  O110  1  0.22159000  0.03652000  0.69208000  1.0
  O  O111  1  0.19434000  0.12012000  0.60200000  1.0
  O  O112  1  0.56282000  0.77835000  0.46369000  1.0
  O  O113  1  0.44710000  0.21688000  0.48670000  1.0
  O  O114  1  0.81549000  0.07429000  0.47798000  1.0
  O  O115  1  0.19901000  0.90883000  0.60929000  1.0
