# generated using pymatgen
data_Cd3H46C65(NO3)5
_symmetry_space_group_name_H-M   'P 1'
_cell_length_a   14.42030000
_cell_length_b   15.11570000
_cell_length_c   17.54930000
_cell_angle_alpha   112.54500000
_cell_angle_beta   106.00200000
_cell_angle_gamma   93.62050000
_symmetry_Int_Tables_number   1
_chemical_formula_structural   Cd3H46C65(NO3)5
_chemical_formula_sum   'Cd6 H92 C130 N10 O30'
_cell_volume   3334.06397274
_cell_formula_units_Z   2
loop_
 _symmetry_equiv_pos_site_id
 _symmetry_equiv_pos_as_xyz
  1  'x, y, z'
loop_
 _atom_site_type_symbol
 _atom_site_label
 _atom_site_symmetry_multiplicity
 _atom_site_fract_x
 _atom_site_fract_y
 _atom_site_fract_z
 _atom_site_occupancy
  Cd  Cd0  1  0.05378000  0.79020000  0.33463000  1.0
  Cd  Cd1  1  0.94622000  0.20980000  0.66537000  1.0
  Cd  Cd2  1  0.33847000  0.64398000  0.32010000  1.0
  Cd  Cd3  1  0.66153000  0.35602000  0.67990000  1.0
  Cd  Cd4  1  0.72813000  0.11002000  0.75582000  1.0
  Cd  Cd5  1  0.27187000  0.88998000  0.24418000  1.0
  H  H6  1  0.16497000  0.62172000  0.05501000  1.0
  H  H7  1  0.83503000  0.37828000  0.94499000  1.0
  H  H8  1  0.03123000  0.59834000  0.91726000  1.0
  H  H9  1  0.96877000  0.40165000  0.08274000  1.0
  H  H10  1  0.85797000  0.59802000  0.92127000  1.0
  H  H11  1  0.14203000  0.40197000  0.07873000  1.0
  H  H12  1  0.79887000  0.68866000  0.11619000  1.0
  H  H13  1  0.20113000  0.31135000  0.88381000  1.0
  H  H14  1  0.76053000  0.65883000  0.00190000  1.0
  H  H15  1  0.23947000  0.34117000  0.99810000  1.0
  H  H16  1  0.65471000  0.50702000  0.90172000  1.0
  H  H17  1  0.34529000  0.49298000  0.09827000  1.0
  H  H18  1  0.56313000  0.34781000  0.87313000  1.0
  H  H19  1  0.43687000  0.65219000  0.12686000  1.0
  H  H20  1  0.72607000  0.38146000  0.13057000  1.0
  H  H21  1  0.27393000  0.61855000  0.86943000  1.0
  H  H22  1  0.81939000  0.54194000  0.16040000  1.0
  H  H23  1  0.18061000  0.45807000  0.83960000  1.0
  H  H24  1  0.50703000  0.01940000  0.88183000  1.0
  H  H25  1  0.49296000  0.98060000  0.11816000  1.0
  H  H26  1  0.41809000  0.04407000  0.99024000  1.0
  H  H27  1  0.58191000  0.95594000  0.00976000  1.0
  H  H28  1  0.42843000  0.21412000  0.09904000  1.0
  H  H29  1  0.57157000  0.78588000  0.90096000  1.0
  H  H30  1  0.52777000  0.35338000  0.09913000  1.0
  H  H31  1  0.47223000  0.64662000  0.90087000  1.0
  H  H32  1  0.95840000  0.90196000  0.06576000  1.0
  H  H33  1  0.04160000  0.09803000  0.93424000  1.0
  H  H34  1  0.77314000  0.88990000  0.01649000  1.0
  H  H35  1  0.22686000  0.11010000  0.98351000  1.0
  H  H36  1  0.68423000  0.88547000  0.11929000  1.0
  H  H37  1  0.31577000  0.11453000  0.88071000  1.0
  H  H38  1  0.68604000  0.91317000  0.25126000  1.0
  H  H39  1  0.31395000  0.08683000  0.74874000  1.0
  H  H40  1  0.79695000  0.94190000  0.33878000  1.0
  H  H41  1  0.20304000  0.05810000  0.66122000  1.0
  H  H42  1  0.60114000  0.73732000  0.15848000  1.0
  H  H43  1  0.39886000  0.26268000  0.84152000  1.0
  H  H44  1  0.55912000  0.57943000  0.16455000  1.0
  H  H45  1  0.44088000  0.42057000  0.83545000  1.0
  H  H46  1  0.81474000  0.66135000  0.39217000  1.0
  H  H47  1  0.18527000  0.33865000  0.60783000  1.0
  H  H48  1  0.85700000  0.81756000  0.38502000  1.0
  H  H49  1  0.14300000  0.18244000  0.61498000  1.0
  H  H50  1  0.46768000  0.36165000  0.27623000  1.0
  H  H51  1  0.53233000  0.63835000  0.72377000  1.0
  H  H52  1  0.59434000  0.25605000  0.27608000  1.0
  H  H53  1  0.40567000  0.74395000  0.72392000  1.0
  H  H54  1  0.75950000  0.31553000  0.27733000  1.0
  H  H55  1  0.24050000  0.68447000  0.72267000  1.0
  H  H56  1  0.79985000  0.48231000  0.28502000  1.0
  H  H57  1  0.20016000  0.51769000  0.71498000  1.0
  H  H58  1  0.56135000  0.07862000  0.41315000  1.0
  H  H59  1  0.43865000  0.92138000  0.58686000  1.0
  H  H60  1  0.53074000  0.90611000  0.30256000  1.0
  H  H61  1  0.46926000  0.09390000  0.69744000  1.0
  H  H62  1  0.58019000  0.77732000  0.35747000  1.0
  H  H63  1  0.41981000  0.22269000  0.64254000  1.0
  H  H64  1  0.62976000  0.73166000  0.45984000  1.0
  H  H65  1  0.37024000  0.26834000  0.54016000  1.0
  H  H66  1  0.62707000  0.80413000  0.56630000  1.0
  H  H67  1  0.37293000  0.19587000  0.43370000  1.0
  H  H68  1  0.80531000  0.93056000  0.51264000  1.0
  H  H69  1  0.19469000  0.06944000  0.48736000  1.0
  H  H70  1  0.98269000  0.94396000  0.56617000  1.0
  H  H71  1  0.01731000  0.05604000  0.43383000  1.0
  H  H72  1  0.94456000  0.72582000  0.66226000  1.0
  H  H73  1  0.05544000  0.27417000  0.33773000  1.0
  H  H74  1  0.76462000  0.71058000  0.60678000  1.0
  H  H75  1  0.23537000  0.28942000  0.39321000  1.0
  H  H76  1  0.29433000  0.86716000  0.59831000  1.0
  H  H77  1  0.70566000  0.13284000  0.40168000  1.0
  H  H78  1  0.37173000  0.89404000  0.75308000  1.0
  H  H79  1  0.62826000  0.10595000  0.24691000  1.0
  H  H80  1  0.26470000  0.88520000  0.84161000  1.0
  H  H81  1  0.73530000  0.11480000  0.15838000  1.0
  H  H82  1  0.08344000  0.85813000  0.77678000  1.0
  H  H83  1  0.91656000  0.14187000  0.22322000  1.0
  H  H84  1  0.38699000  0.48083000  0.42548000  1.0
  H  H85  1  0.61301000  0.51917000  0.57452000  1.0
  H  H86  1  0.28131000  0.47227000  0.53470000  1.0
  H  H87  1  0.71869000  0.52772000  0.46529000  1.0
  H  H88  1  0.16239000  0.64418000  0.40426000  1.0
  H  H89  1  0.83762000  0.35583000  0.59575000  1.0
  H  H90  1  0.09542000  0.64155000  0.51595000  1.0
  H  H91  1  0.90458000  0.35845000  0.48406000  1.0
  H  H92  1  0.15643000  0.59457000  0.59076000  1.0
  H  H93  1  0.84357000  0.40542000  0.40923000  1.0
  H  H94  1  0.00857000  0.47248000  0.40843000  1.0
  H  H95  1  0.99143000  0.52753000  0.59157000  1.0
  H  H96  1  0.06773000  0.42491000  0.48290000  1.0
  H  H97  1  0.93227000  0.57509000  0.51709000  1.0
  C  C98  1  0.14939000  0.64386000  0.20690000  1.0
  C  C99  1  0.85061000  0.35614000  0.79310000  1.0
  C  C100  1  0.06892000  0.64224000  0.13084000  1.0
  C  C101  1  0.93108000  0.35776000  0.86916000  1.0
  C  C102  1  0.08951000  0.62567000  0.05425000  1.0
  C  C103  1  0.91049000  0.37433000  0.94575000  1.0
  C  C104  1  0.01554000  0.61269000  0.97762000  1.0
  C  C105  1  0.98446000  0.38730000  0.02238000  1.0
  C  C106  1  0.92080000  0.61401000  0.97913000  1.0
  C  C107  1  0.07920000  0.38599000  0.02087000  1.0
  C  C108  1  0.97145000  0.65273000  0.13424000  1.0
  C  C109  1  0.02855000  0.34727000  0.86576000  1.0
  C  C110  1  0.79622000  0.63451000  0.05218000  1.0
  C  C111  1  0.20378000  0.36549000  0.94782000  1.0
  C  C112  1  0.74210000  0.53611000  0.03379000  1.0
  C  C113  1  0.25790000  0.46389000  0.96621000  1.0
  C  C114  1  0.67001000  0.48060000  0.95294000  1.0
  C  C115  1  0.32999000  0.51940000  0.04706000  1.0
  C  C116  1  0.61801000  0.39075000  0.93676000  1.0
  C  C117  1  0.38200000  0.60925000  0.06325000  1.0
  C  C118  1  0.63624000  0.35518000  0.00125000  1.0
  C  C119  1  0.36376000  0.64482000  0.99875000  1.0
  C  C120  1  0.71066000  0.40977000  0.08091000  1.0
  C  C121  1  0.28934000  0.59023000  0.91909000  1.0
  C  C122  1  0.76315000  0.49919000  0.09744000  1.0
  C  C123  1  0.23685000  0.50081000  0.90256000  1.0
  C  C124  1  0.57546000  0.26639000  0.99240000  1.0
  C  C125  1  0.42454000  0.73362000  0.00761000  1.0
  C  C126  1  0.56833000  0.17078000  0.93057000  1.0
  C  C127  1  0.43166000  0.82923000  0.06943000  1.0
  C  C128  1  0.51038000  0.09220000  0.93016000  1.0
  C  C129  1  0.48962000  0.90780000  0.06983000  1.0
  C  C130  1  0.46084000  0.10642000  0.99055000  1.0
  C  C131  1  0.53915000  0.89358000  0.00945000  1.0
  C  C132  1  0.46688000  0.20101000  0.05133000  1.0
  C  C133  1  0.53312000  0.79899000  0.94867000  1.0
  C  C134  1  0.52313000  0.27964000  0.05158000  1.0
  C  C135  1  0.47687000  0.72037000  0.94842000  1.0
  C  C136  1  0.62425000  0.14695000  0.86684000  1.0
  C  C137  1  0.37574000  0.85306000  0.13316000  1.0
  C  C138  1  0.07383000  0.90167000  0.20965000  1.0
  C  C139  1  0.92617000  0.09832000  0.79035000  1.0
  C  C140  1  0.96529000  0.89869000  0.18711000  1.0
  C  C141  1  0.03470000  0.10131000  0.81289000  1.0
  C  C142  1  0.91532000  0.89792000  0.10699000  1.0
  C  C143  1  0.08468000  0.10208000  0.89301000  1.0
  C  C144  1  0.81317000  0.89166000  0.07959000  1.0
  C  C145  1  0.18683000  0.10834000  0.92041000  1.0
  C  C146  1  0.76325000  0.88900000  0.13537000  1.0
  C  C147  1  0.23674000  0.11100000  0.86464000  1.0
  C  C148  1  0.91208000  0.89374000  0.24436000  1.0
  C  C149  1  0.08792000  0.10626000  0.75564000  1.0
  C  C150  1  0.75421000  0.88829000  0.27282000  1.0
  C  C151  1  0.24579000  0.11171000  0.72718000  1.0
  C  C152  1  0.73217000  0.78897000  0.27205000  1.0
  C  C153  1  0.26783000  0.21103000  0.72796000  1.0
  C  C154  1  0.64848000  0.72070000  0.20974000  1.0
  C  C155  1  0.35152000  0.27931000  0.79027000  1.0
  C  C156  1  0.62396000  0.63230000  0.21361000  1.0
  C  C157  1  0.37604000  0.36770000  0.78639000  1.0
  C  C158  1  0.68241000  0.60977000  0.27978000  1.0
  C  C159  1  0.31760000  0.39023000  0.72023000  1.0
  C  C160  1  0.76780000  0.67674000  0.34005000  1.0
  C  C161  1  0.23220000  0.32326000  0.65995000  1.0
  C  C162  1  0.79197000  0.76531000  0.33632000  1.0
  C  C163  1  0.20804000  0.23469000  0.66368000  1.0
  C  C164  1  0.65670000  0.51544000  0.28348000  1.0
  C  C165  1  0.34331000  0.48456000  0.71652000  1.0
  C  C166  1  0.56229000  0.47999000  0.28078000  1.0
  C  C167  1  0.43771000  0.52001000  0.71922000  1.0
  C  C168  1  0.54122000  0.38687000  0.27829000  1.0
  C  C169  1  0.45879000  0.61314000  0.72171000  1.0
  C  C170  1  0.61177000  0.32825000  0.27817000  1.0
  C  C171  1  0.38823000  0.67175000  0.72183000  1.0
  C  C172  1  0.70496000  0.36245000  0.28023000  1.0
  C  C173  1  0.29504000  0.63755000  0.71977000  1.0
  C  C174  1  0.72731000  0.45560000  0.28432000  1.0
  C  C175  1  0.27269000  0.54440000  0.71568000  1.0
  C  C176  1  0.48176000  0.53822000  0.28481000  1.0
  C  C177  1  0.51825000  0.46178000  0.71519000  1.0
  C  C178  1  0.63378000  0.15208000  0.58263000  1.0
  C  C179  1  0.36622000  0.84793000  0.41737000  1.0
  C  C180  1  0.62007000  0.04683000  0.52281000  1.0
  C  C181  1  0.37993000  0.95317000  0.47719000  1.0
  C  C182  1  0.58137000  0.02097000  0.43368000  1.0
  C  C183  1  0.41863000  0.97903000  0.56633000  1.0
  C  C184  1  0.56516000  0.92488000  0.37161000  1.0
  C  C185  1  0.43484000  0.07513000  0.62839000  1.0
  C  C186  1  0.59057000  0.85425000  0.40043000  1.0
  C  C187  1  0.40943000  0.14576000  0.59957000  1.0
  C  C188  1  0.64180000  0.97166000  0.55247000  1.0
  C  C189  1  0.35820000  0.02834000  0.44753000  1.0
  C  C190  1  0.66020000  0.80233000  0.51655000  1.0
  C  C191  1  0.33980000  0.19767000  0.48345000  1.0
  C  C192  1  0.77097000  0.81736000  0.55346000  1.0
  C  C193  1  0.22903000  0.18263000  0.44654000  1.0
  C  C194  1  0.83406000  0.88327000  0.54359000  1.0
  C  C195  1  0.16594000  0.11672000  0.45641000  1.0
  C  C196  1  0.93543000  0.89085000  0.57366000  1.0
  C  C197  1  0.06457000  0.10914000  0.42634000  1.0
  C  C198  1  0.97722000  0.83415000  0.61632000  1.0
  C  C199  1  0.02277000  0.16585000  0.38368000  1.0
  C  C200  1  0.91389000  0.77024000  0.62868000  1.0
  C  C201  1  0.08611000  0.22975000  0.37131000  1.0
  C  C202  1  0.81229000  0.76163000  0.59723000  1.0
  C  C203  1  0.18771000  0.23836000  0.40276000  1.0
  C  C204  1  0.08525000  0.84501000  0.65063000  1.0
  C  C205  1  0.91475000  0.15498000  0.34937000  1.0
  C  C206  1  0.14657000  0.84804000  0.60080000  1.0
  C  C207  1  0.85342000  0.15196000  0.39920000  1.0
  C  C208  1  0.24899000  0.86530000  0.63834000  1.0
  C  C209  1  0.75101000  0.13470000  0.36166000  1.0
  C  C210  1  0.29190000  0.87910000  0.72458000  1.0
  C  C211  1  0.70810000  0.12089000  0.27542000  1.0
  C  C212  1  0.23203000  0.87451000  0.77401000  1.0
  C  C213  1  0.76797000  0.12548000  0.22599000  1.0
  C  C214  1  0.13006000  0.85782000  0.73718000  1.0
  C  C215  1  0.86993000  0.14218000  0.26282000  1.0
  C  C216  1  0.10787000  0.83009000  0.50632000  1.0
  C  C217  1  0.89213000  0.16991000  0.49368000  1.0
  C  C218  1  0.32424000  0.51314000  0.43670000  1.0
  C  C219  1  0.67577000  0.48686000  0.56330000  1.0
  C  C220  1  0.27271000  0.50786000  0.49072000  1.0
  C  C221  1  0.72729000  0.49213000  0.50927000  1.0
  C  C222  1  0.20995000  0.59854000  0.42364000  1.0
  C  C223  1  0.79005000  0.40146000  0.57636000  1.0
  C  C224  1  0.12327000  0.57752000  0.52142000  1.0
  C  C225  1  0.87673000  0.42248000  0.47858000  1.0
  C  C226  1  0.03976000  0.48955000  0.47846000  1.0
  C  C227  1  0.96024000  0.51045000  0.52154000  1.0
  N  N228  1  0.89970000  0.63380000  0.05408000  1.0
  N  N229  1  0.10030000  0.36620000  0.94592000  1.0
  N  N230  1  0.81052000  0.89078000  0.21430000  1.0
  N  N231  1  0.18947000  0.10922000  0.78570000  1.0
  N  N232  1  0.62822000  0.87730000  0.48692000  1.0
  N  N233  1  0.37177000  0.12271000  0.51308000  1.0
  N  N234  1  0.28404000  0.56973000  0.39515000  1.0
  N  N235  1  0.71597000  0.43027000  0.60486000  1.0
  N  N236  1  0.20061000  0.56277000  0.48157000  1.0
  N  N237  1  0.79940000  0.43723000  0.51843000  1.0
  O  O238  1  0.22256000  0.60812000  0.18953000  1.0
  O  O239  1  0.77743000  0.39188000  0.81047000  1.0
  O  O240  1  0.14444000  0.67757000  0.28426000  1.0
  O  O241  1  0.85556000  0.32242000  0.71574000  1.0
  O  O242  1  0.94397000  0.67576000  0.20078000  1.0
  O  O243  1  0.05603000  0.32424000  0.79922000  1.0
  O  O244  1  0.59240000  0.06683000  0.79856000  1.0
  O  O245  1  0.40759000  0.93317000  0.20144000  1.0
  O  O246  1  0.70199000  0.20604000  0.88316000  1.0
  O  O247  1  0.29801000  0.79396000  0.11683000  1.0
  O  O248  1  0.12073000  0.93336000  0.17156000  1.0
  O  O249  1  0.87927000  0.06664000  0.82844000  1.0
  O  O250  1  0.11733000  0.86779000  0.26468000  1.0
  O  O251  1  0.88266000  0.13221000  0.73532000  1.0
  O  O252  1  0.94686000  0.89334000  0.31845000  1.0
  O  O253  1  0.05314000  0.10666000  0.68155000  1.0
  O  O254  1  0.50357000  0.62891000  0.33771000  1.0
  O  O255  1  0.49643000  0.37109000  0.66229000  1.0
  O  O256  1  0.39431000  0.49374000  0.23921000  1.0
  O  O257  1  0.60569000  0.50626000  0.76078000  1.0
  O  O258  1  0.61691000  0.21174000  0.54793000  1.0
  O  O259  1  0.38310000  0.78826000  0.45208000  1.0
  O  O260  1  0.66049000  0.18257000  0.66628000  1.0
  O  O261  1  0.33951000  0.81743000  0.33372000  1.0
  O  O262  1  0.67125000  0.97830000  0.62949000  1.0
  O  O263  1  0.32875000  0.02170000  0.37051000  1.0
  O  O264  1  0.04540000  0.75209000  0.45190000  1.0
  O  O265  1  0.95461000  0.24791000  0.54810000  1.0
  O  O266  1  0.14309000  0.89104000  0.48285000  1.0
  O  O267  1  0.85691000  0.10896000  0.51715000  1.0
