# generated using pymatgen
data_Li2H6C6S2O9
_symmetry_space_group_name_H-M   'P 1'
_cell_length_a   7.65474000
_cell_length_b   8.52657000
_cell_length_c   9.35398000
_cell_angle_alpha   83.14550000
_cell_angle_beta   67.71430000
_cell_angle_gamma   76.27700000
_symmetry_Int_Tables_number   1
_chemical_formula_structural   Li2H6C6S2O9
_chemical_formula_sum   'Li4 H12 C12 S4 O18'
_cell_volume   548.49908404
_cell_formula_units_Z   2
loop_
 _symmetry_equiv_pos_site_id
 _symmetry_equiv_pos_as_xyz
  1  'x, y, z'
loop_
 _atom_site_type_symbol
 _atom_site_label
 _atom_site_symmetry_multiplicity
 _atom_site_fract_x
 _atom_site_fract_y
 _atom_site_fract_z
 _atom_site_occupancy
  Li  Li0  1  0.29797000  0.86197000  0.94368000  1.0
  Li  Li1  1  0.70203000  0.13803000  0.05632000  1.0
  Li  Li2  1  0.22556000  0.53733000  0.99155000  1.0
  Li  Li3  1  0.77443000  0.46267000  0.00845000  1.0
  H  H4  1  0.37661000  0.72966000  0.19926000  1.0
  H  H5  1  0.62339000  0.27034000  0.80074000  1.0
  H  H6  1  0.54084000  0.81091000  0.07464000  1.0
  H  H7  1  0.45916000  0.18909000  0.92537000  1.0
  H  H8  1  0.18975000  0.81485000  0.70959000  1.0
  H  H9  1  0.81025000  0.18515000  0.29042000  1.0
  H  H10  1  0.36606000  0.98631000  0.19496000  1.0
  H  H11  1  0.63394000  0.01369000  0.80504000  1.0
  H  H12  1  0.27803000  0.88021000  0.44996000  1.0
  H  H13  1  0.72198000  0.11979000  0.55004000  1.0
  H  H14  1  0.25207000  0.42920000  0.60053000  1.0
  H  H15  1  0.74793000  0.57080000  0.39947000  1.0
  C  C16  1  0.20858000  0.18929000  0.68094000  1.0
  C  C17  1  0.79142000  0.81071000  0.31906000  1.0
  C  C18  1  0.21644000  0.03416000  0.63766000  1.0
  C  C19  1  0.78357000  0.96584000  0.36234000  1.0
  C  C20  1  0.26884000  0.00148000  0.48270000  1.0
  C  C21  1  0.73117000  0.99852000  0.51731000  1.0
  C  C22  1  0.31715000  0.12275000  0.36855000  1.0
  C  C23  1  0.68286000  0.87725000  0.63145000  1.0
  C  C24  1  0.30958000  0.27819000  0.41257000  1.0
  C  C25  1  0.69042000  0.72181000  0.58743000  1.0
  C  C26  1  0.25613000  0.31007000  0.56730000  1.0
  C  C27  1  0.74387000  0.68993000  0.43269000  1.0
  S  S28  1  0.13658000  0.23392000  0.87708000  1.0
  S  S29  1  0.86341000  0.76608000  0.12292000  1.0
  S  S30  1  0.36973000  0.42882000  0.26605000  1.0
  S  S31  1  0.63027000  0.57118000  0.73395000  1.0
  O  O32  1  0.24663000  0.10465000  0.94767000  1.0
  O  O33  1  0.75336000  0.89535000  0.05233000  1.0
  O  O34  1  0.39967000  0.81872000  0.11916000  1.0
  O  O35  1  0.60033000  0.18128000  0.88084000  1.0
  O  O36  1  0.18231000  0.39139000  0.87567000  1.0
  O  O37  1  0.81769000  0.60861000  0.12432000  1.0
  O  O38  1  0.92735000  0.24086000  0.94914000  1.0
  O  O39  1  0.07264000  0.75914000  0.05086000  1.0
  O  O40  1  0.17399000  0.91861000  0.75215000  1.0
  O  O41  1  0.82601000  0.08139000  0.24784000  1.0
  O  O42  1  0.34868000  0.57730000  0.34166000  1.0
  O  O43  1  0.65131000  0.42270000  0.65834000  1.0
  O  O44  1  0.23870000  0.44464000  0.18229000  1.0
  O  O45  1  0.76130000  0.55535000  0.81771000  1.0
  O  O46  1  0.57353000  0.36503000  0.16642000  1.0
  O  O47  1  0.42647000  0.63497000  0.83357000  1.0
  O  O48  1  0.37499000  0.09745000  0.21733000  1.0
  O  O49  1  0.62502000  0.90255000  0.78266000  1.0
