# generated using pymatgen
data_Rb2Mo2P2H6C3O11
_symmetry_space_group_name_H-M   'P 1'
_cell_length_a   9.74884000
_cell_length_b   9.97030000
_cell_length_c   13.97000000
_cell_angle_alpha   97.39460000
_cell_angle_beta   90.00000000
_cell_angle_gamma   90.00000000
_symmetry_Int_Tables_number   1
_chemical_formula_structural   Rb2Mo2P2H6C3O11
_chemical_formula_sum   'Rb8 Mo8 P8 H24 C12 O44'
_cell_volume   1346.57508068
_cell_formula_units_Z   4
loop_
 _symmetry_equiv_pos_site_id
 _symmetry_equiv_pos_as_xyz
  1  'x, y, z'
loop_
 _atom_site_type_symbol
 _atom_site_label
 _atom_site_symmetry_multiplicity
 _atom_site_fract_x
 _atom_site_fract_y
 _atom_site_fract_z
 _atom_site_occupancy
  Rb  Rb0  1  0.16635000  0.81224000  0.49959000  1.0
  Rb  Rb1  1  0.66635000  0.68776000  0.50041000  1.0
  Rb  Rb2  1  0.83365000  0.18776000  0.50041000  1.0
  Rb  Rb3  1  0.33365000  0.31224000  0.49959000  1.0
  Rb  Rb4  1  0.00254000  0.45692000  0.26982000  1.0
  Rb  Rb5  1  0.50254000  0.04308000  0.73018000  1.0
  Rb  Rb6  1  0.99746000  0.54308000  0.73018000  1.0
  Rb  Rb7  1  0.49746000  0.95692000  0.26982000  1.0
  Mo  Mo8  1  0.35692000  0.58737000  0.31455000  1.0
  Mo  Mo9  1  0.85692000  0.91262000  0.68545000  1.0
  Mo  Mo10  1  0.64308000  0.41262000  0.68545000  1.0
  Mo  Mo11  1  0.14307000  0.08738000  0.31455000  1.0
  Mo  Mo12  1  0.35422000  0.65829000  0.69204000  1.0
  Mo  Mo13  1  0.85422000  0.84171000  0.30796000  1.0
  Mo  Mo14  1  0.64578000  0.34171000  0.30796000  1.0
  Mo  Mo15  1  0.14578000  0.15829000  0.69204000  1.0
  P  P16  1  0.35345000  0.27433000  0.17972000  1.0
  P  P17  1  0.85345000  0.22567000  0.82028000  1.0
  P  P18  1  0.64655000  0.72567000  0.82028000  1.0
  P  P19  1  0.14655000  0.77433000  0.17972000  1.0
  P  P20  1  0.36173000  0.39053000  0.82614000  1.0
  P  P21  1  0.86173000  0.10947000  0.17386000  1.0
  P  P22  1  0.63827000  0.60947000  0.17386000  1.0
  P  P23  1  0.13827000  0.89053000  0.82614000  1.0
  H  H24  1  0.18948000  0.19718000  0.05979000  1.0
  H  H25  1  0.68948000  0.30282000  0.94020000  1.0
  H  H26  1  0.81052000  0.80282000  0.94021000  1.0
  H  H27  1  0.31052000  0.69718000  0.05979000  1.0
  H  H28  1  0.32332000  0.08243000  0.06889000  1.0
  H  H29  1  0.82332000  0.41757000  0.93111000  1.0
  H  H30  1  0.67668000  0.91757000  0.93111000  1.0
  H  H31  1  0.17668000  0.58243000  0.06889000  1.0
  H  H32  1  0.21107000  0.37829000  0.95601000  1.0
  H  H33  1  0.71106000  0.12171000  0.04399000  1.0
  H  H34  1  0.78893000  0.62171000  0.04399000  1.0
  H  H35  1  0.28893000  0.87829000  0.95601000  1.0
  H  H36  1  0.36837000  0.45432000  0.99824000  1.0
  H  H37  1  0.86837000  0.04568000  0.00176000  1.0
  H  H38  1  0.63163000  0.54568000  0.00176000  1.0
  H  H39  1  0.13163000  0.95432000  0.99824000  1.0
  H  H40  1  0.34510000  0.15480000  0.91387000  1.0
  H  H41  1  0.84510000  0.34520000  0.08613000  1.0
  H  H42  1  0.65490000  0.84520000  0.08613000  1.0
  H  H43  1  0.15490000  0.65480000  0.91387000  1.0
  H  H44  1  0.48296000  0.23247000  0.98387000  1.0
  H  H45  1  0.98296000  0.26753000  0.01613000  1.0
  H  H46  1  0.51704000  0.76753000  0.01613000  1.0
  H  H47  1  0.01704000  0.73247000  0.98387000  1.0
  C  C48  1  0.30189000  0.18964000  0.06373000  1.0
  C  C49  1  0.80189000  0.31036000  0.93627000  1.0
  C  C50  1  0.69811000  0.81036000  0.93627000  1.0
  C  C51  1  0.19811000  0.68964000  0.06373000  1.0
  C  C52  1  0.37096000  0.23229000  0.97445000  1.0
  C  C53  1  0.87096000  0.26771000  0.02555000  1.0
  C  C54  1  0.62904000  0.76771000  0.02555000  1.0
  C  C55  1  0.12904000  0.73229000  0.97445000  1.0
  C  C56  1  0.32354000  0.37025000  0.94970000  1.0
  C  C57  1  0.82354000  0.12975000  0.05030000  1.0
  C  C58  1  0.67646000  0.62975000  0.05030000  1.0
  C  C59  1  0.17646000  0.87025000  0.94970000  1.0
  O  O60  1  0.29477000  0.41799000  0.19950000  1.0
  O  O61  1  0.79477000  0.08201000  0.80050000  1.0
  O  O62  1  0.70523000  0.58201000  0.80050000  1.0
  O  O63  1  0.20523000  0.91799000  0.19950000  1.0
  O  O64  1  0.28886000  0.26735000  0.76574000  1.0
  O  O65  1  0.78886000  0.23265000  0.23426000  1.0
  O  O66  1  0.71114000  0.73265000  0.23426000  1.0
  O  O67  1  0.21114000  0.76735000  0.76574000  1.0
  O  O68  1  0.28895000  0.18341000  0.25169000  1.0
  O  O69  1  0.78895000  0.31658000  0.74830000  1.0
  O  O70  1  0.71105000  0.81659000  0.74831000  1.0
  O  O71  1  0.21105000  0.68341000  0.25169000  1.0
  O  O72  1  0.23909000  0.52958000  0.39274000  1.0
  O  O73  1  0.73909000  0.97042000  0.60726000  1.0
  O  O74  1  0.76091000  0.47043000  0.60726000  1.0
  O  O75  1  0.26091000  0.02957000  0.39275000  1.0
  O  O76  1  0.50001000  0.46758000  0.33957000  1.0
  O  O77  1  0.00001000  0.03242000  0.66043000  1.0
  O  O78  1  0.49999000  0.53242000  0.66043000  1.0
  O  O79  1  0.99999000  0.96758000  0.33957000  1.0
  O  O80  1  0.42258000  0.73185000  0.38153000  1.0
  O  O81  1  0.92258000  0.76815000  0.61847000  1.0
  O  O82  1  0.57742000  0.26815000  0.61847000  1.0
  O  O83  1  0.07742000  0.23185000  0.38153000  1.0
  O  O84  1  0.51692000  0.37388000  0.80990000  1.0
  O  O85  1  0.01692000  0.12612000  0.19010000  1.0
  O  O86  1  0.48308000  0.62612000  0.19010000  1.0
  O  O87  1  0.98308000  0.87388000  0.80990000  1.0
  O  O88  1  0.23654000  0.57434000  0.61275000  1.0
  O  O89  1  0.73654000  0.92566000  0.38725000  1.0
  O  O90  1  0.76346000  0.42566000  0.38725000  1.0
  O  O91  1  0.26346000  0.07434000  0.61275000  1.0
  O  O92  1  0.41329000  0.78444000  0.62796000  1.0
  O  O93  1  0.91329000  0.71556000  0.37204000  1.0
  O  O94  1  0.58671000  0.21556000  0.37204000  1.0
  O  O95  1  0.08671000  0.28444000  0.62796000  1.0
  O  O96  1  0.51026000  0.26422000  0.18640000  1.0
  O  O97  1  0.01026000  0.23578000  0.81360000  1.0
  O  O98  1  0.48974000  0.73578000  0.81360000  1.0
  O  O99  1  0.98974000  0.76422000  0.18640000  1.0
  O  O100  1  0.30003000  0.52276000  0.80141000  1.0
  O  O101  1  0.80003000  0.97724000  0.19859000  1.0
  O  O102  1  0.69996000  0.47725000  0.19859000  1.0
  O  O103  1  0.19997000  0.02276000  0.80141000  1.0
