# generated using pymatgen
data_TbAgH8C14(NO4)2
_symmetry_space_group_name_H-M   'P 1'
_cell_length_a   9.49975000
_cell_length_b   12.00300000
_cell_length_c   16.78800000
_cell_angle_alpha   96.40930000
_cell_angle_beta   90.00000000
_cell_angle_gamma   113.31100000
_symmetry_Int_Tables_number   1
_chemical_formula_structural   TbAgH8C14(NO4)2
_chemical_formula_sum   'Tb4 Ag4 H32 C56 N8 O32'
_cell_volume   1744.96427938
_cell_formula_units_Z   4
loop_
 _symmetry_equiv_pos_site_id
 _symmetry_equiv_pos_as_xyz
  1  'x, y, z'
loop_
 _atom_site_type_symbol
 _atom_site_label
 _atom_site_symmetry_multiplicity
 _atom_site_fract_x
 _atom_site_fract_y
 _atom_site_fract_z
 _atom_site_occupancy
  Tb  Tb0  1  0.29230000  0.99015000  0.56744000  1.0
  Tb  Tb1  1  0.30205000  0.00983000  0.93253000  1.0
  Tb  Tb2  1  0.70770000  0.00985000  0.43256000  1.0
  Tb  Tb3  1  0.69794000  0.99017000  0.06748000  1.0
  Ag  Ag4  1  0.95571000  0.67892000  0.41420000  1.0
  Ag  Ag5  1  0.27698000  0.32112000  0.08580000  1.0
  Ag  Ag6  1  0.04429000  0.32108000  0.58580000  1.0
  Ag  Ag7  1  0.72302000  0.67888000  0.91420000  1.0
  H  H8  1  0.51119000  0.64130000  0.37773000  1.0
  H  H9  1  0.86995000  0.35874000  0.12227000  1.0
  H  H10  1  0.48881000  0.35870000  0.62227000  1.0
  H  H11  1  0.13006000  0.64126000  0.87773000  1.0
  H  H12  1  0.11690000  0.09042000  0.33549000  1.0
  H  H13  1  0.02678000  0.90964000  0.16454000  1.0
  H  H14  1  0.88309000  0.90958000  0.66451000  1.0
  H  H15  1  0.97322000  0.09036000  0.83546000  1.0
  H  H16  1  0.16138000  0.58832000  0.54895000  1.0
  H  H17  1  0.57292000  0.41142000  0.95103000  1.0
  H  H18  1  0.83862000  0.41169000  0.45105000  1.0
  H  H19  1  0.42709000  0.58858000  0.04897000  1.0
  H  H20  1  0.08963000  0.20146000  0.22280000  1.0
  H  H21  1  0.88832000  0.79854000  0.27713000  1.0
  H  H22  1  0.91037000  0.79854000  0.77720000  1.0
  H  H23  1  0.11169000  0.20146000  0.72287000  1.0
  H  H24  1  0.59170000  0.19024000  0.27974000  1.0
  H  H25  1  0.40171000  0.80984000  0.22042000  1.0
  H  H26  1  0.40829000  0.80976000  0.72026000  1.0
  H  H27  1  0.59829000  0.19015000  0.77958000  1.0
  H  H28  1  0.54940000  0.30383000  0.17285000  1.0
  H  H29  1  0.24567000  0.69620000  0.32724000  1.0
  H  H30  1  0.45060000  0.69617000  0.82715000  1.0
  H  H31  1  0.75433000  0.30380000  0.67276000  1.0
  H  H32  1  0.23785000  0.28514000  0.44953000  1.0
  H  H33  1  0.95234000  0.71479000  0.05043000  1.0
  H  H34  1  0.76215000  0.71486000  0.55047000  1.0
  H  H35  1  0.04766000  0.28521000  0.94957000  1.0
  H  H36  1  0.44067000  0.41166000  0.36365000  1.0
  H  H37  1  0.02880000  0.58839000  0.13629000  1.0
  H  H38  1  0.55932000  0.58834000  0.63634000  1.0
  H  H39  1  0.97120000  0.41162000  0.86371000  1.0
  C  C40  1  0.42005000  0.58005000  0.41114000  1.0
  C  C41  1  0.83997000  0.41991000  0.08882000  1.0
  C  C42  1  0.57995000  0.41995000  0.58886000  1.0
  C  C43  1  0.16003000  0.58010000  0.91118000  1.0
  C  C44  1  0.35625000  0.12922000  0.31524000  1.0
  C  C45  1  0.22739000  0.87093000  0.18486000  1.0
  C  C46  1  0.64375000  0.87078000  0.68476000  1.0
  C  C47  1  0.77261000  0.12907000  0.81514000  1.0
  C  C48  1  0.37492000  0.76382000  0.47512000  1.0
  C  C49  1  0.61116000  0.23608000  0.02485000  1.0
  C  C50  1  0.62507000  0.23618000  0.52488000  1.0
  C  C51  1  0.38883000  0.76392000  0.97515000  1.0
  C  C52  1  0.37777000  0.05571000  0.37832000  1.0
  C  C53  1  0.32225000  0.94440000  0.12170000  1.0
  C  C54  1  0.62222000  0.94428000  0.62167000  1.0
  C  C55  1  0.67774000  0.05560000  0.87830000  1.0
  C  C56  1  0.21498000  0.13566000  0.30016000  1.0
  C  C57  1  0.07964000  0.86447000  0.19992000  1.0
  C  C58  1  0.78502000  0.86433000  0.69984000  1.0
  C  C59  1  0.92036000  0.13553000  0.80008000  1.0
  C  C60  1  0.33847000  0.62909000  0.46328000  1.0
  C  C61  1  0.70936000  0.37081000  0.03669000  1.0
  C  C62  1  0.66153000  0.37091000  0.53672000  1.0
  C  C63  1  0.29064000  0.62919000  0.96331000  1.0
  C  C64  1  0.22511000  0.55134000  0.50762000  1.0
  C  C65  1  0.67362000  0.44849000  0.99235000  1.0
  C  C66  1  0.77489000  0.44866000  0.49238000  1.0
  C  C67  1  0.32638000  0.55152000  0.00765000  1.0
  C  C68  1  0.19945000  0.19834000  0.23813000  1.0
  C  C69  1  0.00133000  0.80174000  0.26190000  1.0
  C  C70  1  0.80055000  0.80166000  0.76187000  1.0
  C  C71  1  0.99867000  0.19826000  0.73810000  1.0
  C  C72  1  0.96557000  0.93008000  0.48841000  1.0
  C  C73  1  0.03549000  0.06992000  0.01162000  1.0
  C  C74  1  0.03443000  0.06992000  0.51160000  1.0
  C  C75  1  0.96451000  0.93008000  0.98838000  1.0
  C  C76  1  0.47951000  0.19211000  0.26961000  1.0
  C  C77  1  0.28768000  0.80804000  0.23053000  1.0
  C  C78  1  0.52049000  0.80789000  0.73039000  1.0
  C  C79  1  0.71232000  0.19196000  0.76946000  1.0
  C  C80  1  0.45600000  0.25471000  0.20969000  1.0
  C  C81  1  0.20145000  0.74538000  0.29042000  1.0
  C  C82  1  0.54400000  0.74529000  0.79031000  1.0
  C  C83  1  0.79855000  0.25461000  0.70958000  1.0
  C  C84  1  0.26907000  0.38308000  0.45146000  1.0
  C  C85  1  0.88566000  0.61684000  0.04849000  1.0
  C  C86  1  0.73093000  0.61692000  0.54854000  1.0
  C  C87  1  0.11433000  0.38316000  0.95152000  1.0
  C  C88  1  0.38210000  0.45462000  0.40417000  1.0
  C  C89  1  0.92730000  0.54536000  0.09576000  1.0
  C  C90  1  0.61790000  0.54538000  0.59583000  1.0
  C  C91  1  0.07270000  0.45464000  0.90424000  1.0
  C  C92  1  0.22061000  0.92894000  0.74472000  1.0
  C  C93  1  0.29152000  0.07100000  0.75523000  1.0
  C  C94  1  0.77939000  0.07107000  0.25528000  1.0
  C  C95  1  0.70847000  0.92899000  0.24477000  1.0
  N  N96  1  0.31788000  0.25619000  0.19267000  1.0
  N  N97  1  0.06182000  0.74385000  0.30738000  1.0
  N  N98  1  0.68212000  0.74381000  0.80733000  1.0
  N  N99  1  0.93818000  0.25615000  0.69262000  1.0
  N  N100  1  0.19276000  0.43087000  0.50311000  1.0
  N  N101  1  0.76158000  0.56898000  0.99686000  1.0
  N  N102  1  0.80725000  0.56913000  0.49689000  1.0
  N  N103  1  0.23842000  0.43102000  0.00314000  1.0
  O  O104  1  0.27155000  0.01615000  0.42644000  1.0
  O  O105  1  0.25537000  0.98381000  0.07359000  1.0
  O  O106  1  0.72845000  0.98385000  0.57356000  1.0
  O  O107  1  0.74463000  0.01619000  0.92642000  1.0
  O  O108  1  0.03151000  0.87102000  0.51981000  1.0
  O  O109  1  0.16042000  0.12901000  0.98017000  1.0
  O  O110  1  0.96849000  0.12898000  0.48019000  1.0
  O  O111  1  0.83957000  0.87099000  0.01984000  1.0
  O  O112  1  0.27273000  0.79671000  0.50498000  1.0
  O  O113  1  0.47609000  0.20312000  0.99498000  1.0
  O  O114  1  0.72727000  0.20329000  0.49501000  1.0
  O  O115  1  0.52392000  0.79688000  0.00502000  1.0
  O  O116  1  0.84977000  0.88425000  0.43988000  1.0
  O  O117  1  0.96558000  0.11573000  0.06020000  1.0
  O  O118  1  0.15023000  0.11575000  0.56012000  1.0
  O  O119  1  0.03442000  0.88428000  0.93980000  1.0
  O  O120  1  0.50227000  0.04046000  0.37782000  1.0
  O  O121  1  0.46203000  0.95980000  0.12216000  1.0
  O  O122  1  0.49773000  0.95954000  0.62218000  1.0
  O  O123  1  0.53797000  0.04020000  0.87784000  1.0
  O  O124  1  0.50575000  0.83293000  0.45494000  1.0
  O  O125  1  0.67291000  0.16701000  0.04504000  1.0
  O  O126  1  0.49426000  0.16707000  0.54506000  1.0
  O  O127  1  0.32710000  0.83299000  0.95496000  1.0
  O  O128  1  0.17812000  0.87565000  0.67394000  1.0
  O  O129  1  0.30228000  0.12426000  0.82601000  1.0
  O  O130  1  0.82188000  0.12434000  0.32606000  1.0
  O  O131  1  0.69772000  0.87574000  0.17399000  1.0
  O  O132  1  0.21153000  0.87806000  0.80766000  1.0
  O  O133  1  0.33320000  0.12190000  0.69228000  1.0
  O  O134  1  0.78847000  0.12194000  0.19234000  1.0
  O  O135  1  0.66680000  0.87809000  0.30772000  1.0
