# generated using pymatgen
data_Zn4H24C48N2O17
_symmetry_space_group_name_H-M   'P 1'
_cell_length_a   18.48360000
_cell_length_b   18.48360000
_cell_length_c   28.89913471
_cell_angle_alpha   108.63259742
_cell_angle_beta   108.63159747
_cell_angle_gamma   90.06690000
_symmetry_Int_Tables_number   1
_chemical_formula_structural   Zn4H24C48N2O17
_chemical_formula_sum   'Zn8 H48 C96 N4 O34'
_cell_volume   8806.60875951
_cell_formula_units_Z   2
loop_
 _symmetry_equiv_pos_site_id
 _symmetry_equiv_pos_as_xyz
  1  'x, y, z'
loop_
 _atom_site_type_symbol
 _atom_site_label
 _atom_site_symmetry_multiplicity
 _atom_site_fract_x
 _atom_site_fract_y
 _atom_site_fract_z
 _atom_site_occupancy
  Zn  Zn0  1  0.97806000  0.39196000  0.95591000  1.0
  Zn  Zn1  1  0.39196000  0.97806000  0.95591000  1.0
  Zn  Zn2  1  0.97783000  0.56387000  0.95594000  1.0
  Zn  Zn3  1  0.56387000  0.97783000  0.95594000  1.0
  Zn  Zn4  1  0.93530000  0.52231000  0.04439000  1.0
  Zn  Zn5  1  0.52209000  0.10904000  0.04439000  1.0
  Zn  Zn6  1  0.10904000  0.52209000  0.04439000  1.0
  Zn  Zn7  1  0.52231000  0.93530000  0.04439000  1.0
  H  H8  1  0.41618000  0.31958000  0.10811000  1.0
  H  H9  1  0.31943000  0.69198000  0.10810000  1.0
  H  H10  1  0.69195000  0.78854000  0.10808000  1.0
  H  H11  1  0.78866000  0.41612000  0.10809000  1.0
  H  H12  1  0.69198000  0.31944000  0.10810000  1.0
  H  H13  1  0.78854000  0.69195000  0.10808000  1.0
  H  H14  1  0.41612000  0.78867000  0.10809000  1.0
  H  H15  1  0.31959000  0.41619000  0.10812000  1.0
  H  H16  1  0.43722000  0.34065000  0.05746000  1.0
  H  H17  1  0.34042000  0.62029000  0.05744000  1.0
  H  H18  1  0.62026000  0.71681000  0.05743000  1.0
  H  H19  1  0.71698000  0.43715000  0.05745000  1.0
  H  H20  1  0.62029000  0.34042000  0.05744000  1.0
  H  H21  1  0.71682000  0.62026000  0.05743000  1.0
  H  H22  1  0.43715000  0.71698000  0.05745000  1.0
  H  H23  1  0.34065000  0.43722000  0.05746000  1.0
  H  H24  1  0.89245000  0.29889000  0.45137000  1.0
  H  H25  1  0.15251000  0.55891000  0.45141000  1.0
  H  H26  1  0.55894000  0.15245000  0.45141000  1.0
  H  H27  1  0.29883000  0.89249000  0.45137000  1.0
  H  H28  1  0.84877000  0.46578000  0.69869000  1.0
  H  H29  1  0.23294000  0.84994000  0.69867000  1.0
  H  H30  1  0.84996000  0.23295000  0.69867000  1.0
  H  H31  1  0.46578000  0.84880000  0.69869000  1.0
  H  H32  1  0.89736000  0.51412000  0.79590000  1.0
  H  H33  1  0.28180000  0.89852000  0.79588000  1.0
  H  H34  1  0.89855000  0.28180000  0.79588000  1.0
  H  H35  1  0.51412000  0.89738000  0.79590000  1.0
  H  H36  1  0.65040000  0.26740000  0.30203000  1.0
  H  H37  1  0.03462000  0.65155000  0.30202000  1.0
  H  H38  1  0.65158000  0.03462000  0.30202000  1.0
  H  H39  1  0.26740000  0.65043000  0.30203000  1.0
  H  H40  1  0.60180000  0.21859000  0.20487000  1.0
  H  H41  1  0.98627000  0.60301000  0.20486000  1.0
  H  H42  1  0.60304000  0.98627000  0.20486000  1.0
  H  H43  1  0.21859000  0.60183000  0.20487000  1.0
  H  H44  1  0.11350000  0.20856000  0.94318000  1.0
  H  H45  1  0.20866000  0.82965000  0.94316000  1.0
  H  H46  1  0.82965000  0.73459000  0.94313000  1.0
  H  H47  1  0.73444000  0.11346000  0.94317000  1.0
  H  H48  1  0.82964000  0.20866000  0.94316000  1.0
  H  H49  1  0.73459000  0.82965000  0.94313000  1.0
  H  H50  1  0.11345000  0.73443000  0.94316000  1.0
  H  H51  1  0.20856000  0.11350000  0.94318000  1.0
  H  H52  1  0.94156000  0.34800000  0.54955000  1.0
  H  H53  1  0.20166000  0.60805000  0.54959000  1.0
  H  H54  1  0.60809000  0.20161000  0.54960000  1.0
  H  H55  1  0.34793000  0.94160000  0.54955000  1.0
  C  C56  1  0.07054000  0.57056000  0.14111000  1.0
  C  C57  1  0.57055000  0.07054000  0.14111000  1.0
  C  C58  1  0.73640000  0.23643000  0.47281000  1.0
  C  C59  1  0.23643000  0.73640000  0.47281000  1.0
  C  C60  1  0.85708000  0.28955000  0.47321000  1.0
  C  C61  1  0.18373000  0.61611000  0.47322000  1.0
  C  C62  1  0.61614000  0.18369000  0.47323000  1.0
  C  C63  1  0.28951000  0.85710000  0.47321000  1.0
  C  C64  1  0.88435000  0.31681000  0.52771000  1.0
  C  C65  1  0.21099000  0.64338000  0.52772000  1.0
  C  C66  1  0.64340000  0.21094000  0.52772000  1.0
  C  C67  1  0.31676000  0.88438000  0.52771000  1.0
  C  C68  1  0.83864000  0.30442000  0.55505000  1.0
  C  C69  1  0.25071000  0.71644000  0.55505000  1.0
  C  C70  1  0.71645000  0.25069000  0.55506000  1.0
  C  C71  1  0.30439000  0.83866000  0.55505000  1.0
  C  C72  1  0.76406000  0.26408000  0.52809000  1.0
  C  C73  1  0.26407000  0.76405000  0.52808000  1.0
  C  C74  1  0.86874000  0.33346000  0.61259000  1.0
  C  C75  1  0.27925667  0.74392000  0.61259000  1.0
  C  C76  1  0.74393000  0.27918000  0.61259000  1.0
  C  C77  1  0.33343000  0.86875000  0.61259000  1.0
  C  C78  1  0.85962000  0.42586000  0.72024000  1.0
  C  C79  1  0.29441000  0.86067000  0.72023000  1.0
  C  C80  1  0.86068000  0.29441000  0.72023000  1.0
  C  C81  1  0.42586000  0.85964000  0.72024000  1.0
  C  C82  1  0.88673000  0.45275000  0.77420000  1.0
  C  C83  1  0.32149000  0.88751000  0.77419000  1.0
  C  C84  1  0.88752000  0.32149000  0.77419000  1.0
  C  C85  1  0.45275000  0.88675000  0.77420000  1.0
  C  C86  1  0.90074000  0.40072000  0.80141000  1.0
  C  C87  1  0.40072000  0.90073000  0.80141000  1.0
  C  C88  1  0.84687000  0.34684000  0.69363000  1.0
  C  C89  1  0.34684000  0.84687000  0.69363000  1.0
  C  C90  1  0.92970000  0.42967000  0.85935000  1.0
  C  C91  1  0.42967000  0.92970000  0.85935000  1.0
  C  C92  1  0.63969000  0.20591000  0.28049000  1.0
  C  C93  1  0.07457000  0.64073000  0.28048000  1.0
  C  C94  1  0.64074000  0.07457000  0.28048000  1.0
  C  C95  1  0.20591000  0.63971000  0.28049000  1.0
  C  C96  1  0.61284000  0.17882000  0.22651000  1.0
  C  C97  1  0.04768000  0.61361000  0.22650000  1.0
  C  C98  1  0.61362000  0.04768000  0.22650000  1.0
  C  C99  1  0.17882000  0.61285000  0.22651000  1.0
  C  C100  1  0.59956000  0.09958000  0.19917000  1.0
  C  C101  1  0.09958000  0.59956000  0.19917000  1.0
  C  C102  1  0.65355000  0.15358000  0.30718000  1.0
  C  C103  1  0.15359000  0.65355000  0.30718000  1.0
  C  C104  1  0.86233000  0.36123000  0.99977000  1.0
  C  C105  1  0.36118000  0.13753000  0.99982000  1.0
  C  C106  1  0.13743000  0.63852000  0.99981000  1.0
  C  C107  1  0.63861000  0.86226000  0.99977000  1.0
  C  C108  1  0.13752000  0.36118000  0.99982000  1.0
  C  C109  1  0.63852000  0.13743000  0.99981000  1.0
  C  C110  1  0.86226000  0.63861000  0.99977000  1.0
  C  C111  1  0.36122000  0.86234000  0.99977000  1.0
  C  C112  1  0.27135000  0.32475000  0.03140000  1.0
  C  C113  1  0.32473000  0.76007000  0.03137000  1.0
  C  C114  1  0.76003000  0.70663000  0.03135000  1.0
  C  C115  1  0.70663000  0.27128000  0.03138000  1.0
  C  C116  1  0.76007000  0.32473000  0.03137000  1.0
  C  C117  1  0.70663000  0.76003000  0.03135000  1.0
  C  C118  1  0.27128000  0.70663000  0.03138000  1.0
  C  C119  1  0.32475000  0.27135000  0.03140000  1.0
  C  C120  1  0.19444000  0.30443000  0.00007000  1.0
  C  C121  1  0.30444000  0.80564000  0.00004000  1.0
  C  C122  1  0.80561000  0.69562000  0.00002000  1.0
  C  C123  1  0.69558000  0.19437000  0.00005000  1.0
  C  C124  1  0.80563000  0.30444000  0.00003000  1.0
  C  C125  1  0.69562000  0.80561000  0.00002000  1.0
  C  C126  1  0.19437000  0.69558000  0.00005000  1.0
  C  C127  1  0.30443000  0.19444000  0.00007000  1.0
  C  C128  1  0.17322000  0.22651000  0.96820000  1.0
  C  C129  1  0.22654000  0.79493000  0.96817000  1.0
  C  C130  1  0.79493000  0.74164000  0.96814000  1.0
  C  C131  1  0.74159000  0.17320000  0.96818000  1.0
  C  C132  1  0.79493000  0.22654000  0.96817000  1.0
  C  C133  1  0.74164000  0.79493000  0.96814000  1.0
  C  C134  1  0.17319000  0.74159000  0.96818000  1.0
  C  C135  1  0.22651000  0.17322000  0.96820000  1.0
  C  C136  1  0.39068000  0.33021000  0.07131000  1.0
  C  C137  1  0.33006000  0.68068000  0.07129000  1.0
  C  C138  1  0.68064000  0.74112000  0.07127000  1.0
  C  C139  1  0.74121000  0.39062000  0.07128000  1.0
  C  C140  1  0.68067000  0.33006000  0.07129000  1.0
  C  C141  1  0.74112000  0.68064000  0.07127000  1.0
  C  C142  1  0.39061000  0.74122000  0.07128000  1.0
  C  C143  1  0.33021000  0.39068000  0.07131000  1.0
  C  C144  1  0.63173000  0.16698000  0.38831000  1.0
  C  C145  1  0.22130000  0.75654000  0.38830000  1.0
  C  C146  1  0.75653000  0.22132000  0.38830000  1.0
  C  C147  1  0.16700000  0.63172000  0.38831000  1.0
  C  C148  1  0.78402000  0.24980000  0.44584000  1.0
  C  C149  1  0.19608000  0.66180000  0.44585000  1.0
  C  C150  1  0.66182000  0.19606000  0.44586000  1.0
  C  C151  1  0.24978000  0.78403000  0.44584000  1.0
  N  N152  1  0.68156000  0.18158000  0.36318000  1.0
  N  N153  1  0.18159000  0.68156000  0.36318000  1.0
  N  N154  1  0.81888000  0.31887000  0.63767000  1.0
  N  N155  1  0.31886000  0.81888000  0.63767000  1.0
  O  O156  1  0.00025000  0.50023000  0.00054000  1.0
  O  O157  1  0.50023000  0.00025000  0.00054000  1.0
  O  O158  1  0.12099000  0.55923000  0.11871000  1.0
  O  O159  1  0.55949000  0.99767000  0.11871000  1.0
  O  O160  1  0.99767000  0.55949000  0.11871000  1.0
  O  O161  1  0.55922000  0.12098000  0.11871000  1.0
  O  O162  1  0.94103000  0.37925000  0.88175000  1.0
  O  O163  1  0.37925000  0.94102000  0.88175000  1.0
  O  O164  1  0.94079000  0.50249000  0.88177000  1.0
  O  O165  1  0.50249000  0.94079000  0.88177000  1.0
  O  O166  1  0.86880000  0.42973000  0.03115000  1.0
  O  O167  1  0.42967000  0.16247000  0.03127000  1.0
  O  O168  1  0.16239000  0.60137000  0.03117000  1.0
  O  O169  1  0.60156000  0.86875000  0.03121000  1.0
  O  O170  1  0.16246000  0.42967000  0.03127000  1.0
  O  O171  1  0.60138000  0.16240000  0.03118000  1.0
  O  O172  1  0.86874000  0.60155000  0.03120000  1.0
  O  O173  1  0.42973000  0.86880000  0.03115000  1.0
  O  O174  1  0.06896000  0.63132000  0.96852000  1.0
  O  O175  1  0.63134000  0.89932000  0.96840000  1.0
  O  O176  1  0.89947000  0.33711000  0.96846000  1.0
  O  O177  1  0.33706000  0.06909000  0.96845000  1.0
  O  O178  1  0.89932000  0.63134000  0.96840000  1.0
  O  O179  1  0.33711000  0.89947000  0.96846000  1.0
  O  O180  1  0.06909000  0.33706000  0.96845000  1.0
  O  O181  1  0.63131000  0.06896000  0.96852000  1.0
  O  O182  1  0.56722000  0.13227000  0.36324000  1.0
  O  O183  1  0.23088000  0.79598000  0.36321000  1.0
  O  O184  1  0.79596000  0.23092000  0.36321000  1.0
  O  O185  1  0.13231000  0.56719000  0.36323000  1.0
  O  O186  1  0.93330000  0.36810000  0.63768000  1.0
  O  O187  1  0.26963000  0.70449000  0.63768000  1.0
  O  O188  1  0.70450000  0.26959000  0.63768000  1.0
  O  O189  1  0.36805000  0.93332000  0.63768000  1.0
