# generated using pymatgen
data_YbZnH11C12(N2O5)2
_symmetry_space_group_name_H-M   'P 1'
_cell_length_a   8.96413000
_cell_length_b   12.96708433
_cell_length_c   18.37280000
_cell_angle_alpha   98.16625899
_cell_angle_beta   104.10670000
_cell_angle_gamma   110.21111869
_symmetry_Int_Tables_number   1
_chemical_formula_structural   YbZnH11C12(N2O5)2
_chemical_formula_sum   'Yb4 Zn4 H44 C48 N16 O40'
_cell_volume   1882.67693086
_cell_formula_units_Z   4
loop_
 _symmetry_equiv_pos_site_id
 _symmetry_equiv_pos_as_xyz
  1  'x, y, z'
loop_
 _atom_site_type_symbol
 _atom_site_label
 _atom_site_symmetry_multiplicity
 _atom_site_fract_x
 _atom_site_fract_y
 _atom_site_fract_z
 _atom_site_occupancy
  Yb  Yb0  1  0.74087000  0.58553000  0.50317000  1.0
  Yb  Yb1  1  0.15214000  0.91446000  0.99687000  1.0
  Yb  Yb2  1  0.25914000  0.41447000  0.49684000  1.0
  Yb  Yb3  1  0.84786000  0.08554000  0.00314000  1.0
  Zn  Zn4  1  0.86795000  0.08494000  0.66104000  1.0
  Zn  Zn5  1  0.62187000  0.41507000  0.83882000  1.0
  Zn  Zn6  1  0.13205000  0.91507000  0.33896000  1.0
  Zn  Zn7  1  0.37813000  0.58493000  0.16118000  1.0
  H  H8  1  0.09515000  0.61722000  0.55916000  1.0
  H  H9  1  0.41873000  0.88265000  0.94090000  1.0
  H  H10  1  0.90486000  0.38278000  0.44084000  1.0
  H  H11  1  0.58125000  0.11734000  0.05908000  1.0
  H  H12  1  0.00017000  0.52586000  0.59585000  1.0
  H  H13  1  0.37756000  0.97353000  0.90386000  1.0
  H  H14  1  0.99984000  0.47414000  0.40415000  1.0
  H  H15  1  0.62240000  0.02645000  0.09613000  1.0
  H  H16  1  0.61724000  0.55236000  0.63197000  1.0
  H  H17  1  0.93376000  0.94818000  0.86801000  1.0
  H  H18  1  0.38279000  0.44764000  0.36804000  1.0
  H  H19  1  0.06622000  0.05181000  0.13198000  1.0
  H  H20  1  0.81319000  0.62196000  0.67718000  1.0
  H  H21  1  0.01415000  0.87778000  0.82288000  1.0
  H  H22  1  0.18682000  0.37805000  0.32283000  1.0
  H  H23  1  0.98585000  0.12222000  0.17712000  1.0
  H  H24  1  0.24780000  0.80946000  0.51711000  1.0
  H  H25  1  0.42125000  0.69054000  0.98285000  1.0
  H  H26  1  0.75221000  0.19054000  0.48289000  1.0
  H  H27  1  0.57874000  0.30946000  0.01715000  1.0
  H  H28  1  0.47853000  0.11576000  0.58461000  1.0
  H  H29  1  0.27820000  0.38427000  0.91534000  1.0
  H  H30  1  0.52147000  0.88424000  0.41539000  1.0
  H  H31  1  0.72179000  0.61573000  0.08466000  1.0
  H  H32  1  0.42205000  0.05672000  0.66002000  1.0
  H  H33  1  0.20548000  0.44343000  0.83999000  1.0
  H  H34  1  0.57795000  0.94328000  0.33997000  1.0
  H  H35  1  0.79452000  0.55656000  0.16001000  1.0
  H  H36  1  0.27484000  0.00701000  0.56536000  1.0
  H  H37  1  0.20272000  0.49313000  0.93469000  1.0
  H  H38  1  0.72517000  0.99299000  0.43463000  1.0
  H  H39  1  0.79725000  0.50686000  0.06530000  1.0
  H  H40  1  0.81760000  0.93698000  0.20325000  1.0
  H  H41  1  0.17877000  0.56320000  0.29715000  1.0
  H  H42  1  0.18238000  0.06302000  0.79675000  1.0
  H  H43  1  0.82123000  0.43680000  0.70284000  1.0
  H  H44  1  0.63660000  0.82140000  0.13578000  1.0
  H  H45  1  0.18064000  0.67876000  0.36462000  1.0
  H  H46  1  0.36340000  0.17859000  0.86422000  1.0
  H  H47  1  0.81936000  0.32124000  0.63538000  1.0
  H  H48  1  0.84154000  0.83052000  0.14205000  1.0
  H  H49  1  0.37024000  0.66996000  0.35814000  1.0
  H  H50  1  0.15846000  0.16948000  0.85795000  1.0
  H  H51  1  0.62975000  0.33004000  0.64186000  1.0
  C  C52  1  0.80613000  0.85717000  0.57352000  1.0
  C  C53  1  0.87554000  0.64283000  0.92636000  1.0
  C  C54  1  0.19390000  0.14284000  0.42649000  1.0
  C  C55  1  0.12444000  0.35717000  0.07363000  1.0
  C  C56  1  0.63822000  0.86020000  0.56735000  1.0
  C  C57  1  0.71082000  0.63978000  0.93265000  1.0
  C  C58  1  0.36179000  0.13980000  0.43266000  1.0
  C  C59  1  0.28918000  0.36022000  0.06735000  1.0
  C  C60  1  0.47436000  0.77867000  0.54082000  1.0
  C  C61  1  0.65496000  0.72133000  0.95921000  1.0
  C  C62  1  0.52566000  0.22134000  0.45919000  1.0
  C  C63  1  0.34503000  0.27867000  0.04078000  1.0
  C  C64  1  0.40230000  0.65476000  0.52024000  1.0
  C  C65  1  0.72722000  0.84524000  0.97972000  1.0
  C  C66  1  0.59772000  0.34525000  0.47976000  1.0
  C  C67  1  0.27276000  0.15475000  0.02027000  1.0
  C  C68  1  0.47368000  0.94915000  0.57960000  1.0
  C  C69  1  0.44509000  0.55087000  0.92039000  1.0
  C  C70  1  0.52633000  0.05086000  0.42040000  1.0
  C  C71  1  0.55489000  0.44912000  0.07960000  1.0
  C  C72  1  0.40829000  0.03703000  0.59787000  1.0
  C  C73  1  0.27357000  0.46304000  0.90212000  1.0
  C  C74  1  0.59170000  0.96297000  0.40212000  1.0
  C  C75  1  0.72641000  0.53695000  0.09788000  1.0
  C  C76  1  0.96158000  0.72629000  0.40965000  1.0
  C  C77  1  0.32536000  0.77359000  0.09035000  1.0
  C  C78  1  0.03843000  0.27371000  0.59035000  1.0
  C  C79  1  0.67465000  0.22642000  0.90965000  1.0
  C  C80  1  0.83815000  0.72490000  0.33991000  1.0
  C  C81  1  0.27334000  0.77505000  0.16019000  1.0
  C  C82  1  0.16185000  0.27510000  0.66010000  1.0
  C  C83  1  0.72665000  0.22495000  0.83981000  1.0
  C  C84  1  0.67377000  0.64996000  0.29751000  1.0
  C  C85  1  0.22628000  0.84996000  0.20264000  1.0
  C  C86  1  0.32623000  0.35004000  0.70250000  1.0
  C  C87  1  0.77372000  0.15004000  0.79735000  1.0
  C  C88  1  0.54891000  0.55175000  0.31032000  1.0
  C  C89  1  0.18657000  0.94810000  0.18980000  1.0
  C  C90  1  0.45110000  0.44825000  0.68968000  1.0
  C  C91  1  0.81343000  0.05191000  0.81020000  1.0
  C  C92  1  0.75709000  0.77977000  0.23569000  1.0
  C  C93  1  0.24209000  0.72031000  0.26452000  1.0
  C  C94  1  0.24291000  0.22024000  0.76431000  1.0
  C  C95  1  0.75791000  0.27969000  0.73548000  1.0
  C  C96  1  0.76215000  0.84578000  0.17589000  1.0
  C  C97  1  0.24159000  0.65444000  0.32441000  1.0
  C  C98  1  0.23784000  0.15421000  0.82411000  1.0
  C  C99  1  0.75841000  0.34555000  0.67559000  1.0
  N  N100  1  0.63443000  0.96424000  0.59178000  1.0
  N  N101  1  0.57860000  0.53577000  0.90820000  1.0
  N  N102  1  0.36558000  0.03577000  0.40821000  1.0
  N  N103  1  0.42139000  0.46423000  0.09180000  1.0
  N  N104  1  0.37457000  0.83780000  0.54922000  1.0
  N  N105  1  0.48769000  0.66220000  0.95082000  1.0
  N  N106  1  0.62545000  0.16221000  0.45079000  1.0
  N  N107  1  0.51229000  0.33779000  0.04918000  1.0
  N  N108  1  0.88707000  0.80590000  0.30031000  1.0
  N  N109  1  0.28114000  0.69415000  0.19984000  1.0
  N  N110  1  0.11293000  0.19411000  0.69970000  1.0
  N  N111  1  0.71886000  0.30585000  0.80016000  1.0
  N  N112  1  0.62594000  0.68568000  0.23192000  1.0
  N  N113  1  0.20856000  0.81432000  0.26829000  1.0
  N  N114  1  0.37407000  0.31433000  0.76808000  1.0
  N  N115  1  0.79144000  0.18568000  0.73171000  1.0
  O  O116  1  0.81348000  0.76692000  0.53924000  1.0
  O  O117  1  0.00737000  0.73307000  0.96062000  1.0
  O  O118  1  0.18654000  0.23308000  0.46078000  1.0
  O  O119  1  0.99262000  0.26693000  0.03938000  1.0
  O  O120  1  0.93166000  0.94693000  0.61084000  1.0
  O  O121  1  0.87393000  0.55309000  0.88894000  1.0
  O  O122  1  0.06837000  0.05309000  0.38916000  1.0
  O  O123  1  0.12605000  0.44691000  0.11105000  1.0
  O  O124  1  0.48529000  0.59712000  0.50328000  1.0
  O  O125  1  0.88469000  0.90292000  0.99639000  1.0
  O  O126  1  0.51474000  0.40289000  0.49673000  1.0
  O  O127  1  0.11530000  0.09708000  0.00361000  1.0
  O  O128  1  0.25301000  0.60135000  0.52064000  1.0
  O  O129  1  0.63094000  0.89864000  0.97955000  1.0
  O  O130  1  0.74700000  0.39865000  0.47937000  1.0
  O  O131  1  0.36904000  0.10136000  0.02044000  1.0
  O  O132  1  0.92658000  0.64304000  0.44178000  1.0
  O  O133  1  0.34151000  0.85687000  0.05825000  1.0
  O  O134  1  0.07343000  0.35697000  0.55822000  1.0
  O  O135  1  0.65848000  0.14313000  0.94174000  1.0
  O  O136  1  0.10361000  0.80919000  0.43321000  1.0
  O  O137  1  0.36072000  0.69060000  0.06670000  1.0
  O  O138  1  0.89640000  0.19081000  0.56679000  1.0
  O  O139  1  0.63928000  0.30940000  0.93331000  1.0
  O  O140  1  0.57591000  0.52526000  0.37639000  1.0
  O  O141  1  0.17376000  0.97446000  0.12367000  1.0
  O  O142  1  0.42411000  0.47474000  0.62362000  1.0
  O  O143  1  0.82623000  0.02554000  0.87632000  1.0
  O  O144  1  0.41197000  0.49748000  0.25616000  1.0
  O  O145  1  0.15812000  0.00243000  0.24399000  1.0
  O  O146  1  0.58804000  0.50251000  0.74385000  1.0
  O  O147  1  0.84187000  0.99757000  0.75601000  1.0
  O  O148  1  0.00539000  0.59772000  0.58377000  1.0
  O  O149  1  0.32355000  0.90178000  0.91619000  1.0
  O  O150  1  0.99462000  0.40228000  0.41622000  1.0
  O  O151  1  0.67642000  0.09820000  0.08381000  1.0
  O  O152  1  0.73149000  0.58908000  0.62598000  1.0
  O  O153  1  0.01764000  0.91174000  0.87406000  1.0
  O  O154  1  0.26854000  0.41091000  0.37403000  1.0
  O  O155  1  0.98234000  0.08825000  0.12594000  1.0
