# generated using pymatgen
data_TbH15C24(NO)6
_symmetry_space_group_name_H-M   'P 1'
_cell_length_a   15.05070000
_cell_length_b   22.80950000
_cell_length_c   28.68340000
_cell_angle_alpha   89.99990000
_cell_angle_beta   103.44700000
_cell_angle_gamma   90.00000000
_symmetry_Int_Tables_number   1
_chemical_formula_structural   TbH15C24(NO)6
_chemical_formula_sum   'Tb8 H120 C192 N48 O48'
_cell_volume   9577.03028449
_cell_formula_units_Z   8
loop_
 _symmetry_equiv_pos_site_id
 _symmetry_equiv_pos_as_xyz
  1  'x, y, z'
loop_
 _atom_site_type_symbol
 _atom_site_label
 _atom_site_symmetry_multiplicity
 _atom_site_fract_x
 _atom_site_fract_y
 _atom_site_fract_z
 _atom_site_occupancy
  Tb  Tb0  1  0.67762000  0.75110000  0.76525000  1.0
  Tb  Tb1  1  0.82238000  0.25110000  0.23474000  1.0
  Tb  Tb2  1  0.32238000  0.24890000  0.23474000  1.0
  Tb  Tb3  1  0.17762000  0.74890000  0.76526000  1.0
  Tb  Tb4  1  0.40879000  0.73697000  0.73303000  1.0
  Tb  Tb5  1  0.09121000  0.23697000  0.26697000  1.0
  Tb  Tb6  1  0.59121000  0.26303000  0.26697000  1.0
  Tb  Tb7  1  0.90880000  0.76303000  0.73303000  1.0
  H  H8  1  0.66425000  0.90377000  0.85814000  1.0
  H  H9  1  0.83576000  0.40377000  0.14186000  1.0
  H  H10  1  0.33575000  0.09623000  0.14186000  1.0
  H  H11  1  0.16424000  0.59623000  0.85814000  1.0
  H  H12  1  0.64106000  0.97877000  0.91737000  1.0
  H  H13  1  0.85895000  0.47877000  0.08263000  1.0
  H  H14  1  0.35894000  0.02123000  0.08263000  1.0
  H  H15  1  0.14105000  0.52123000  0.91737000  1.0
  H  H16  1  0.34994000  0.97018000  0.85934000  1.0
  H  H17  1  0.15007000  0.47018000  0.14066000  1.0
  H  H18  1  0.65006000  0.02982000  0.14066000  1.0
  H  H19  1  0.84993000  0.52982000  0.85934000  1.0
  H  H20  1  0.37455000  0.89615000  0.80050000  1.0
  H  H21  1  0.12545000  0.39615000  0.19950000  1.0
  H  H22  1  0.62545000  0.10385000  0.19950000  1.0
  H  H23  1  0.87455000  0.60385000  0.80050000  1.0
  H  H24  1  0.54714000  0.13658000  0.02012000  1.0
  H  H25  1  0.95286000  0.63658000  0.97988000  1.0
  H  H26  1  0.45286000  0.86342000  0.97988000  1.0
  H  H27  1  0.04714000  0.36342000  0.02012000  1.0
  H  H28  1  0.67617000  0.17892000  0.08150000  1.0
  H  H29  1  0.82383000  0.67892000  0.91850000  1.0
  H  H30  1  0.32383000  0.82108000  0.91850000  1.0
  H  H31  1  0.17617000  0.32108000  0.08150000  1.0
  H  H32  1  0.48414000  0.26643000  0.14790000  1.0
  H  H33  1  0.01586000  0.76643000  0.85209000  1.0
  H  H34  1  0.51586000  0.73357000  0.85210000  1.0
  H  H35  1  0.98414000  0.23357000  0.14790000  1.0
  H  H36  1  0.35699000  0.22637000  0.08718000  1.0
  H  H37  1  0.14301000  0.72637000  0.91282000  1.0
  H  H38  1  0.64301000  0.77363000  0.91282000  1.0
  H  H39  1  0.85699000  0.27363000  0.08718000  1.0
  H  H40  1  0.24707000  0.92921000  0.91165000  1.0
  H  H41  1  0.25293000  0.42921000  0.08835000  1.0
  H  H42  1  0.75293000  0.07079000  0.08835000  1.0
  H  H43  1  0.74707000  0.57079000  0.91165000  1.0
  H  H44  1  0.17974000  0.84758000  0.85755000  1.0
  H  H45  1  0.32026000  0.34758000  0.14245000  1.0
  H  H46  1  0.82026000  0.15242000  0.14245000  1.0
  H  H47  1  0.67974000  0.65242000  0.85755000  1.0
  H  H48  1  0.96029000  0.95989000  0.78692000  1.0
  H  H49  1  0.53971000  0.45989000  0.21308000  1.0
  H  H50  1  0.03971000  0.04011000  0.21308000  1.0
  H  H51  1  0.46029000  0.54011000  0.78692000  1.0
  H  H52  1  0.02740000  0.04248000  0.84102000  1.0
  H  H53  1  0.47260000  0.54248000  0.15898000  1.0
  H  H54  1  0.97260000  0.95752000  0.15898000  1.0
  H  H55  1  0.52740000  0.45752000  0.84102000  1.0
  H  H56  1  0.83364000  0.64787000  0.65106000  1.0
  H  H57  1  0.66636000  0.14787000  0.34894000  1.0
  H  H58  1  0.16636000  0.35213000  0.34894000  1.0
  H  H59  1  0.33364000  0.85213000  0.65106000  1.0
  H  H60  1  0.84525000  0.56151000  0.60035000  1.0
  H  H61  1  0.65475000  0.06151000  0.39965000  1.0
  H  H62  1  0.15475000  0.43849000  0.39965000  1.0
  H  H63  1  0.34525000  0.93849000  0.60035000  1.0
  H  H64  1  0.69255000  0.45865000  0.68100000  1.0
  H  H65  1  0.80745000  0.95865000  0.31900000  1.0
  H  H66  1  0.30745000  0.54135000  0.31900000  1.0
  H  H67  1  0.19255000  0.04135000  0.68100000  1.0
  H  H68  1  0.68197000  0.54587000  0.73202000  1.0
  H  H69  1  0.81803000  0.04587000  0.26798000  1.0
  H  H70  1  0.31803000  0.45413000  0.26798000  1.0
  H  H71  1  0.18197000  0.95413000  0.73202000  1.0
  H  H72  1  0.76534000  0.26477000  0.42418000  1.0
  H  H73  1  0.73466000  0.76477000  0.57582000  1.0
  H  H74  1  0.23466000  0.73523000  0.57582000  1.0
  H  H75  1  0.26534000  0.23523000  0.42418000  1.0
  H  H76  1  0.82845000  0.23024000  0.35751000  1.0
  H  H77  1  0.67155000  0.73024000  0.64249000  1.0
  H  H78  1  0.17155000  0.76976000  0.64249000  1.0
  H  H79  1  0.32845000  0.26976000  0.35751000  1.0
  H  H80  1  0.07672000  0.32559000  0.41420000  1.0
  H  H81  1  0.42328000  0.82559000  0.58580000  1.0
  H  H82  1  0.92328000  0.67441000  0.58580000  1.0
  H  H83  1  0.57672000  0.17441000  0.41420000  1.0
  H  H84  1  0.01325000  0.36123000  0.48163000  1.0
  H  H85  1  0.48675000  0.86123000  0.51837000  1.0
  H  H86  1  0.98675000  0.63877000  0.51837000  1.0
  H  H87  1  0.51325000  0.13877000  0.48163000  1.0
  H  H88  1  0.20798000  0.51723000  0.56402000  1.0
  H  H89  1  0.29202000  0.01723000  0.43598000  1.0
  H  H90  1  0.79202000  0.48276000  0.43598000  1.0
  H  H91  1  0.70798000  0.98277000  0.56402000  1.0
  H  H92  1  0.29568000  0.59590000  0.61535000  1.0
  H  H93  1  0.20432000  0.09590000  0.38465000  1.0
  H  H94  1  0.70432000  0.40410000  0.38465000  1.0
  H  H95  1  0.79568000  0.90410000  0.61535000  1.0
  H  H96  1  0.09025000  0.60356000  0.69672000  1.0
  H  H97  1  0.40975000  0.10356000  0.30328000  1.0
  H  H98  1  0.90975000  0.39644000  0.30328000  1.0
  H  H99  1  0.59025000  0.89644000  0.69672000  1.0
  H  H100  1  0.00056000  0.52604000  0.64542000  1.0
  H  H101  1  0.49944000  0.02604000  0.35458000  1.0
  H  H102  1  0.99944000  0.47396000  0.35458000  1.0
  H  H103  1  0.50056000  0.97396000  0.64542000  1.0
  H  H104  1  0.54643000  0.03655000  0.94736000  1.0
  H  H105  1  0.95357000  0.53655000  0.05264000  1.0
  H  H106  1  0.45357000  0.96345000  0.05264000  1.0
  H  H107  1  0.04643000  0.46345000  0.94736000  1.0
  H  H108  1  0.30568000  0.16765000  0.02344000  1.0
  H  H109  1  0.19432000  0.66765000  0.97656000  1.0
  H  H110  1  0.69432000  0.83235000  0.97656000  1.0
  H  H111  1  0.80568000  0.33235000  0.02344000  1.0
  H  H112  1  0.12533000  0.06663000  0.91775000  1.0
  H  H113  1  0.37467000  0.56663000  0.08225000  1.0
  H  H114  1  0.87467000  0.93337000  0.08225000  1.0
  H  H115  1  0.62533000  0.43337000  0.91775000  1.0
  H  H116  1  0.71518000  0.42677000  0.60442000  1.0
  H  H117  1  0.78482000  0.92677000  0.39558000  1.0
  H  H118  1  0.28482000  0.57323000  0.39558000  1.0
  H  H119  1  0.21518000  0.07323000  0.60442000  1.0
  H  H120  1  0.08731000  0.45693000  0.54674000  1.0
  H  H121  1  0.41269000  0.95693000  0.45326000  1.0
  H  H122  1  0.91269000  0.54307000  0.45326000  1.0
  H  H123  1  0.58731000  0.04307000  0.54674000  1.0
  H  H124  1  0.77821000  0.32270000  0.49101000  1.0
  H  H125  1  0.72179000  0.82270000  0.50899000  1.0
  H  H126  1  0.22179000  0.67730000  0.50899000  1.0
  H  H127  1  0.27821000  0.17730000  0.49101000  1.0
  C  C128  1  0.53427000  0.84672000  0.79321000  1.0
  C  C129  1  0.96573000  0.34672000  0.20680000  1.0
  C  C130  1  0.46573000  0.15328000  0.20679000  1.0
  C  C131  1  0.03427000  0.65328000  0.79320000  1.0
  C  C132  1  0.52079000  0.89488000  0.82565000  1.0
  C  C133  1  0.97921000  0.39488000  0.17435000  1.0
  C  C134  1  0.47921000  0.10512000  0.17435000  1.0
  C  C135  1  0.02079000  0.60512000  0.82565000  1.0
  C  C136  1  0.59579000  0.91897000  0.85857000  1.0
  C  C137  1  0.90422000  0.41898000  0.14144000  1.0
  C  C138  1  0.40421000  0.08103000  0.14143000  1.0
  C  C139  1  0.09578000  0.58102000  0.85856000  1.0
  C  C140  1  0.58252000  0.96058000  0.89153000  1.0
  C  C141  1  0.91748000  0.46058000  0.10847000  1.0
  C  C142  1  0.41747000  0.03942000  0.10847000  1.0
  C  C143  1  0.08252000  0.53942000  0.89153000  1.0
  C  C144  1  0.49364000  0.97899000  0.89263000  1.0
  C  C145  1  0.00637000  0.47899000  0.10737000  1.0
  C  C146  1  0.50636000  0.02101000  0.10737000  1.0
  C  C147  1  0.99364000  0.52101000  0.89263000  1.0
  C  C148  1  0.41852000  0.95611000  0.85889000  1.0
  C  C149  1  0.08148000  0.45611000  0.14111000  1.0
  C  C150  1  0.58148000  0.04389000  0.14110000  1.0
  C  C151  1  0.91852000  0.54389000  0.85889000  1.0
  C  C152  1  0.43289000  0.91459000  0.82601000  1.0
  C  C153  1  0.06711000  0.41459000  0.17399000  1.0
  C  C154  1  0.56711000  0.08541000  0.17399000  1.0
  C  C155  1  0.93289000  0.58541000  0.82601000  1.0
  C  C156  1  0.41206000  0.04374000  0.94039000  1.0
  C  C157  1  0.08794000  0.54374000  0.05961000  1.0
  C  C158  1  0.58794000  0.95626000  0.05961000  1.0
  C  C159  1  0.91206000  0.45626000  0.94039000  1.0
  C  C160  1  0.26059000  0.05287000  0.93287000  1.0
  C  C161  1  0.23941000  0.55287000  0.06713000  1.0
  C  C162  1  0.73940000  0.94713000  0.06713000  1.0
  C  C163  1  0.76059000  0.44713000  0.93287000  1.0
  C  C164  1  0.35807000  0.11097000  0.98456000  1.0
  C  C165  1  0.14193000  0.61097000  0.01544000  1.0
  C  C166  1  0.64193000  0.88903000  0.01544000  1.0
  C  C167  1  0.85807000  0.38903000  0.98456000  1.0
  C  C168  1  0.44367000  0.17824000  0.04957000  1.0
  C  C169  1  0.05633000  0.67824000  0.95043000  1.0
  C  C170  1  0.55633000  0.82176000  0.95043000  1.0
  C  C171  1  0.94367000  0.32176000  0.04957000  1.0
  C  C172  1  0.53440000  0.16574000  0.04771000  1.0
  C  C173  1  0.96560000  0.66574000  0.95228000  1.0
  C  C174  1  0.46559000  0.83426000  0.95229000  1.0
  C  C175  1  0.03441000  0.33426000  0.04771000  1.0
  C  C176  1  0.60579000  0.18938000  0.08209000  1.0
  C  C177  1  0.89421000  0.68938000  0.91791000  1.0
  C  C178  1  0.39421000  0.81062000  0.91791000  1.0
  C  C179  1  0.10579000  0.31062000  0.08209000  1.0
  C  C180  1  0.58948000  0.22506000  0.11908000  1.0
  C  C181  1  0.91052000  0.72506000  0.88092000  1.0
  C  C182  1  0.41052000  0.77494000  0.88092000  1.0
  C  C183  1  0.08948000  0.27494000  0.11908000  1.0
  C  C184  1  0.49897000  0.23899000  0.11968000  1.0
  C  C185  1  0.00103000  0.73899000  0.88032000  1.0
  C  C186  1  0.50103000  0.76101000  0.88032000  1.0
  C  C187  1  0.99897000  0.26101000  0.11968000  1.0
  C  C188  1  0.42704000  0.21635000  0.08526000  1.0
  C  C189  1  0.07296000  0.71635000  0.91474000  1.0
  C  C190  1  0.57295000  0.78365000  0.91474000  1.0
  C  C191  1  0.92705000  0.28365000  0.08526000  1.0
  C  C192  1  0.66720000  0.24317000  0.15780000  1.0
  C  C193  1  0.83280000  0.74317000  0.84220000  1.0
  C  C194  1  0.33280000  0.75683000  0.84220000  1.0
  C  C195  1  0.16720000  0.25683000  0.15780000  1.0
  C  C196  1  0.02128000  0.85072000  0.78731000  1.0
  C  C197  1  0.47872000  0.35072000  0.21269000  1.0
  C  C198  1  0.97872000  0.14928000  0.21269000  1.0
  C  C199  1  0.52128000  0.64928000  0.78731000  1.0
  C  C200  1  0.14097000  0.99094000  0.88022000  1.0
  C  C201  1  0.35903000  0.49094000  0.11978000  1.0
  C  C202  1  0.85903000  0.00906000  0.11978000  1.0
  C  C203  1  0.64097000  0.50906000  0.88022000  1.0
  C  C204  1  0.18432000  0.93592000  0.88444000  1.0
  C  C205  1  0.31568000  0.43592000  0.11556000  1.0
  C  C206  1  0.81568000  0.06408000  0.11556000  1.0
  C  C207  1  0.68432000  0.56408000  0.88444000  1.0
  C  C208  1  0.14656000  0.89035000  0.85406000  1.0
  C  C209  1  0.35344000  0.39035000  0.14594000  1.0
  C  C210  1  0.85344000  0.10965000  0.14594000  1.0
  C  C211  1  0.64656000  0.60965000  0.85406000  1.0
  C  C212  1  0.06551000  0.89872000  0.81896000  1.0
  C  C213  1  0.43449000  0.39872000  0.18104000  1.0
  C  C214  1  0.93449000  0.10128000  0.18104000  1.0
  C  C215  1  0.56551000  0.60128000  0.81896000  1.0
  C  C216  1  0.02289000  0.95384000  0.81451000  1.0
  C  C217  1  0.47711000  0.45384000  0.18549000  1.0
  C  C218  1  0.97711000  0.04616000  0.18549000  1.0
  C  C219  1  0.52289000  0.54616000  0.81451000  1.0
  C  C220  1  0.06016000  0.99949000  0.84474000  1.0
  C  C221  1  0.43984000  0.49949000  0.15526000  1.0
  C  C222  1  0.93984000  0.00051000  0.15526000  1.0
  C  C223  1  0.56016000  0.50051000  0.84474000  1.0
  C  C224  1  0.74662000  0.65391000  0.72400000  1.0
  C  C225  1  0.75338000  0.15391000  0.27600000  1.0
  C  C226  1  0.25338000  0.34609000  0.27600000  1.0
  C  C227  1  0.24662000  0.84609000  0.72400000  1.0
  C  C228  1  0.75680000  0.60231000  0.69466000  1.0
  C  C229  1  0.74320000  0.10231000  0.30534000  1.0
  C  C230  1  0.24320000  0.39769000  0.30534000  1.0
  C  C231  1  0.25680000  0.89769000  0.69466000  1.0
  C  C232  1  0.80284000  0.60631000  0.65751000  1.0
  C  C233  1  0.69716000  0.10631000  0.34249000  1.0
  C  C234  1  0.19716000  0.39369000  0.34249000  1.0
  C  C235  1  0.30284000  0.89369000  0.65751000  1.0
  C  C236  1  0.80924000  0.55806000  0.62895000  1.0
  C  C237  1  0.69076000  0.05806000  0.37105000  1.0
  C  C238  1  0.19076000  0.44194000  0.37105000  1.0
  C  C239  1  0.30924000  0.94194000  0.62895000  1.0
  C  C240  1  0.76871000  0.50453000  0.63690000  1.0
  C  C241  1  0.73129000  0.00453000  0.36310000  1.0
  C  C242  1  0.23129000  0.49547000  0.36310000  1.0
  C  C243  1  0.26871000  0.99547000  0.63690000  1.0
  C  C244  1  0.72299000  0.50038000  0.67436000  1.0
  C  C245  1  0.77702000  0.00038000  0.32564000  1.0
  C  C246  1  0.27701000  0.49962000  0.32564000  1.0
  C  C247  1  0.22299000  0.99962000  0.67436000  1.0
  C  C248  1  0.71728000  0.54871000  0.70295000  1.0
  C  C249  1  0.78272000  0.04871000  0.29705000  1.0
  C  C250  1  0.28272000  0.45130000  0.29705000  1.0
  C  C251  1  0.21728000  0.95129000  0.70295000  1.0
  C  C252  1  0.83034000  0.43937000  0.58170000  1.0
  C  C253  1  0.66966000  0.93937000  0.41830000  1.0
  C  C254  1  0.16966000  0.56063000  0.41830000  1.0
  C  C255  1  0.33034000  0.06063000  0.58170000  1.0
  C  C256  1  0.86865000  0.38088000  0.52595000  1.0
  C  C257  1  0.63135000  0.88088000  0.47405000  1.0
  C  C258  1  0.13136000  0.61912000  0.47405000  1.0
  C  C259  1  0.36865000  0.11912000  0.52595000  1.0
  C  C260  1  0.88511000  0.31592000  0.45753000  1.0
  C  C261  1  0.61489000  0.81592000  0.54247000  1.0
  C  C262  1  0.11489000  0.68408000  0.54247000  1.0
  C  C263  1  0.38511000  0.18408000  0.45753000  1.0
  C  C264  1  0.83468000  0.27741000  0.42280000  1.0
  C  C265  1  0.66532000  0.77741000  0.57720000  1.0
  C  C266  1  0.16532000  0.72259000  0.57720000  1.0
  C  C267  1  0.33468000  0.22259000  0.42280000  1.0
  C  C268  1  0.87017000  0.25795000  0.38500000  1.0
  C  C269  1  0.62983000  0.75795000  0.61500000  1.0
  C  C270  1  0.12983000  0.74205000  0.61500000  1.0
  C  C271  1  0.37017000  0.24205000  0.38500000  1.0
  C  C272  1  0.95732000  0.27601000  0.38116000  1.0
  C  C273  1  0.54268000  0.77601000  0.61884000  1.0
  C  C274  1  0.04268000  0.72399000  0.61884000  1.0
  C  C275  1  0.45732000  0.22399000  0.38116000  1.0
  C  C276  1  0.00882000  0.31204000  0.41711000  1.0
  C  C277  1  0.49118000  0.81204000  0.58289000  1.0
  C  C278  1  0.99118000  0.68796000  0.58289000  1.0
  C  C279  1  0.50882000  0.18796000  0.41711000  1.0
  C  C280  1  0.97411000  0.33200000  0.45483000  1.0
  C  C281  1  0.52589000  0.83200000  0.54517000  1.0
  C  C282  1  0.02589000  0.66800000  0.54517000  1.0
  C  C283  1  0.47411000  0.16800000  0.45483000  1.0
  C  C284  1  0.99621000  0.26187000  0.33994000  1.0
  C  C285  1  0.50379000  0.76187000  0.66006000  1.0
  C  C286  1  0.00379000  0.73813000  0.66006000  1.0
  C  C287  1  0.49622000  0.23813000  0.33994000  1.0
  C  C288  1  0.96762000  0.44938000  0.56427000  1.0
  C  C289  1  0.53238000  0.94938000  0.43573000  1.0
  C  C290  1  0.03238000  0.55062000  0.43573000  1.0
  C  C291  1  0.46762000  0.05062000  0.56427000  1.0
  C  C292  1  0.09783000  0.51714000  0.60103000  1.0
  C  C293  1  0.40217000  0.01714000  0.39897000  1.0
  C  C294  1  0.90217000  0.48286000  0.39897000  1.0
  C  C295  1  0.59783000  0.98286000  0.60103000  1.0
  C  C296  1  0.18211000  0.53642000  0.59318000  1.0
  C  C297  1  0.31789000  0.03642000  0.40682000  1.0
  C  C298  1  0.81789000  0.46358000  0.40682000  1.0
  C  C299  1  0.68211000  0.96358000  0.59318000  1.0
  C  C300  1  0.23117000  0.58003000  0.62164000  1.0
  C  C301  1  0.26883000  0.08003000  0.37836000  1.0
  C  C302  1  0.76883000  0.41997000  0.37836000  1.0
  C  C303  1  0.73117000  0.91997000  0.62164000  1.0
  C  C304  1  0.19775000  0.60506000  0.65884000  1.0
  C  C305  1  0.30225000  0.10506000  0.34116000  1.0
  C  C306  1  0.80225000  0.39494000  0.34116000  1.0
  C  C307  1  0.69775000  0.89494000  0.65885000  1.0
  C  C308  1  0.11533000  0.58447000  0.66740000  1.0
  C  C309  1  0.38467000  0.08447000  0.33260000  1.0
  C  C310  1  0.88467000  0.41553000  0.33260000  1.0
  C  C311  1  0.61533000  0.91553000  0.66740000  1.0
  C  C312  1  0.06505000  0.54106000  0.63898000  1.0
  C  C313  1  0.43495000  0.04106000  0.36102000  1.0
  C  C314  1  0.93495000  0.45894000  0.36102000  1.0
  C  C315  1  0.56505000  0.95894000  0.63898000  1.0
  C  C316  1  0.24730000  0.65408000  0.68754000  1.0
  C  C317  1  0.25270000  0.15408000  0.31246000  1.0
  C  C318  1  0.75270000  0.34592000  0.31246000  1.0
  C  C319  1  0.74730000  0.84592000  0.68754000  1.0
  N  N320  1  0.48660000  0.02014000  0.92777000  1.0
  N  N321  1  0.01340000  0.52014000  0.07223000  1.0
  N  N322  1  0.51340000  0.97986000  0.07222000  1.0
  N  N323  1  0.98660000  0.47986000  0.92777000  1.0
  N  N324  1  0.32853000  0.02396000  0.91962000  1.0
  N  N325  1  0.17147000  0.52396000  0.08038000  1.0
  N  N326  1  0.67147000  0.97604000  0.08038000  1.0
  N  N327  1  0.82853000  0.47604000  0.91962000  1.0
  N  N328  1  0.27002000  0.09692000  0.96469000  1.0
  N  N329  1  0.22998000  0.59691000  0.03531000  1.0
  N  N330  1  0.72998000  0.90309000  0.03531000  1.0
  N  N331  1  0.77002000  0.40308000  0.96469000  1.0
  N  N332  1  0.43190000  0.08649000  0.97395000  1.0
  N  N333  1  0.06810000  0.58649000  0.02604000  1.0
  N  N334  1  0.56810000  0.91351000  0.02604000  1.0
  N  N335  1  0.93190000  0.41351000  0.97396000  1.0
  N  N336  1  0.36724000  0.15450000  0.01829000  1.0
  N  N337  1  0.13276000  0.65450000  0.98171000  1.0
  N  N338  1  0.63276000  0.84550000  0.98171000  1.0
  N  N339  1  0.86724000  0.34550000  0.01829000  1.0
  N  N340  1  0.17247000  0.03761000  0.91161000  1.0
  N  N341  1  0.32753000  0.53761000  0.08839000  1.0
  N  N342  1  0.82753000  0.96239000  0.08839000  1.0
  N  N343  1  0.67247000  0.46239000  0.91161000  1.0
  N  N344  1  0.76797000  0.45533000  0.60743000  1.0
  N  N345  1  0.73203000  0.95533000  0.39257000  1.0
  N  N346  1  0.23203000  0.54467000  0.39257000  1.0
  N  N347  1  0.26797000  0.04467000  0.60743000  1.0
  N  N348  1  0.80536000  0.39468000  0.55085000  1.0
  N  N349  1  0.69464000  0.89468000  0.44915000  1.0
  N  N350  1  0.19464000  0.60532000  0.44915000  1.0
  N  N351  1  0.30536000  0.10532000  0.55085000  1.0
  N  N352  1  0.95062000  0.40618000  0.53120000  1.0
  N  N353  1  0.54937000  0.90618000  0.46880000  1.0
  N  N354  1  0.04938000  0.59382000  0.46880000  1.0
  N  N355  1  0.45062000  0.09382000  0.53120000  1.0
  N  N356  1  0.91004000  0.46873000  0.59000000  1.0
  N  N357  1  0.58996000  0.96873000  0.41001000  1.0
  N  N358  1  0.08996000  0.53127000  0.41001000  1.0
  N  N359  1  0.41004000  0.03127000  0.59000000  1.0
  N  N360  1  0.05238000  0.47385000  0.56995000  1.0
  N  N361  1  0.44762000  0.97385000  0.43005000  1.0
  N  N362  1  0.94762000  0.52614000  0.43005000  1.0
  N  N363  1  0.55238000  0.02615000  0.56995000  1.0
  N  N364  1  0.84277000  0.33715000  0.49266000  1.0
  N  N365  1  0.65723000  0.83715000  0.50734000  1.0
  N  N366  1  0.15723000  0.66285000  0.50734000  1.0
  N  N367  1  0.34277000  0.16285000  0.49266000  1.0
  O  O368  1  0.46455000  0.82575000  0.76356000  1.0
  O  O369  1  0.03545000  0.32575000  0.23644000  1.0
  O  O370  1  0.53545000  0.17425000  0.23644000  1.0
  O  O371  1  0.96455000  0.67425000  0.76356000  1.0
  O  O372  1  0.65457000  0.26285000  0.19836000  1.0
  O  O373  1  0.84543000  0.76285000  0.80164000  1.0
  O  O374  1  0.34543000  0.73715000  0.80164000  1.0
  O  O375  1  0.15457000  0.23715000  0.19836000  1.0
  O  O376  1  0.77350000  0.70529000  0.71313000  1.0
  O  O377  1  0.72650000  0.20529000  0.28687000  1.0
  O  O378  1  0.22650000  0.29471000  0.28687000  1.0
  O  O379  1  0.27350000  0.79471000  0.71313000  1.0
  O  O380  1  0.31817000  0.67489000  0.67669000  1.0
  O  O381  1  0.18183000  0.17489000  0.32331000  1.0
  O  O382  1  0.68183000  0.32511000  0.32331000  1.0
  O  O383  1  0.81817000  0.82511000  0.67669000  1.0
  O  O384  1  0.07930000  0.27426000  0.34177000  1.0
  O  O385  1  0.42070000  0.77426000  0.65823000  1.0
  O  O386  1  0.92070000  0.72574000  0.65823000  1.0
  O  O387  1  0.57930000  0.22574000  0.34177000  1.0
  O  O388  1  0.94590000  0.86015000  0.75753000  1.0
  O  O389  1  0.55410000  0.36015000  0.24247000  1.0
  O  O390  1  0.05410000  0.13985000  0.24247000  1.0
  O  O391  1  0.44590000  0.63985000  0.75753000  1.0
  O  O392  1  0.05581000  0.79813000  0.79089000  1.0
  O  O393  1  0.44419000  0.29813000  0.20910000  1.0
  O  O394  1  0.94419000  0.20186000  0.20910000  1.0
  O  O395  1  0.55581000  0.70186000  0.79090000  1.0
  O  O396  1  0.61506000  0.82740000  0.79704000  1.0
  O  O397  1  0.88494000  0.32740000  0.20296000  1.0
  O  O398  1  0.38494000  0.17260000  0.20296000  1.0
  O  O399  1  0.11506000  0.67260000  0.79704000  1.0
  O  O400  1  0.94789000  0.23757000  0.30114000  1.0
  O  O401  1  0.55211000  0.73757000  0.69886000  1.0
  O  O402  1  0.05211000  0.76243000  0.69886000  1.0
  O  O403  1  0.44789000  0.26243000  0.30114000  1.0
  O  O404  1  0.70737000  0.64918000  0.75858000  1.0
  O  O405  1  0.79263000  0.14918000  0.24142000  1.0
  O  O406  1  0.29263000  0.35082000  0.24142000  1.0
  O  O407  1  0.20737000  0.85082000  0.75858000  1.0
  O  O408  1  0.21566000  0.67426000  0.72223000  1.0
  O  O409  1  0.28434000  0.17426000  0.27777000  1.0
  O  O410  1  0.78434000  0.32574000  0.27777000  1.0
  O  O411  1  0.71566000  0.82574000  0.72223000  1.0
  O  O412  1  0.74872000  0.23756000  0.15278000  1.0
  O  O413  1  0.75128000  0.73756000  0.84722000  1.0
  O  O414  1  0.25127000  0.76244000  0.84722000  1.0
  O  O415  1  0.24873000  0.26244000  0.15278000  1.0
