# generated using pymatgen
data_Zn2H5C10O7
_symmetry_space_group_name_H-M   'P 1'
_cell_length_a   13.29940000
_cell_length_b   13.30890000
_cell_length_c   15.90870000
_cell_angle_alpha   80.90720000
_cell_angle_beta   79.88450000
_cell_angle_gamma   89.09190000
_symmetry_Int_Tables_number   1
_chemical_formula_structural   Zn2H5C10O7
_chemical_formula_sum   'Zn4 H10 C20 O14'
_cell_volume   2737.03550271
_cell_formula_units_Z   2
loop_
 _symmetry_equiv_pos_site_id
 _symmetry_equiv_pos_as_xyz
  1  'x, y, z'
loop_
 _atom_site_type_symbol
 _atom_site_label
 _atom_site_symmetry_multiplicity
 _atom_site_fract_x
 _atom_site_fract_y
 _atom_site_fract_z
 _atom_site_occupancy
  Zn  Zn0  1  0.59913000  0.57028000  0.55208000  1.0
  Zn  Zn1  1  0.58574000  0.40789000  0.43157000  1.0
  Zn  Zn2  1  0.43121000  0.60880000  0.43590000  1.0
  Zn  Zn3  1  0.39731000  0.41679000  0.58343000  1.0
  H  H4  1  0.39639000  0.44118000  0.02644000  1.0
  H  H5  1  0.91062000  0.34942000  0.47120000  1.0
  H  H6  1  0.08893000  0.62488000  0.52032000  1.0
  H  H7  1  0.58466000  0.08817000  0.45729000  1.0
  H  H8  1  0.41370000  0.92007000  0.49783000  1.0
  H  H9  1  0.36062000  0.09041000  0.55019000  1.0
  H  H10  1  0.64906000  0.90954000  0.45685000  1.0
  H  H11  1  0.91488000  0.55927000  0.52998000  1.0
  H  H12  1  0.08403000  0.39380000  0.51564000  1.0
  H  H13  1  0.64318000  0.62194000  0.00075000  1.0
  C  C14  1  0.45868000  0.22706000  0.51733000  1.0
  C  C15  1  0.05333000  0.47020000  0.51826000  1.0
  C  C16  1  0.88398000  0.42131000  0.49141000  1.0
  C  C17  1  0.55153000  0.77425000  0.47157000  1.0
  C  C18  1  0.94687000  0.48687000  0.51438000  1.0
  C  C19  1  0.77602000  0.44693000  0.48834000  1.0
  C  C20  1  0.22771000  0.53436000  0.52001000  1.0
  C  C21  1  0.51579000  0.52335000  0.27638000  1.0
  C  C22  1  0.47694000  0.49471000  0.72415000  1.0
  C  C23  1  0.51742000  0.52876000  0.18435000  1.0
  C  C24  1  0.52470000  0.53577000  0.01713000  1.0
  C  C25  1  0.46332000  0.48963000  0.89312000  1.0
  C  C26  1  0.45706000  0.48596000  0.98198000  1.0
  C  C27  1  0.51853000  0.53070000  0.10735000  1.0
  C  C28  1  0.46798000  0.49210000  0.81542000  1.0
  C  C29  1  0.56947000  0.88449000  0.46689000  1.0
  C  C30  1  0.49215000  0.94962000  0.48325000  1.0
  C  C31  1  0.43668000  0.11831000  0.51824000  1.0
  C  C32  1  0.50861000  0.05598000  0.48457000  1.0
  C  C33  1  0.11663000  0.54697000  0.52237000  1.0
  O  O34  1  0.50272000  0.50005000  0.49935000  1.0
  O  O35  1  0.57233000  0.45557000  0.30910000  1.0
  O  O36  1  0.41362000  0.43913000  0.69921000  1.0
  O  O37  1  0.45829000  0.58690000  0.31315000  1.0
  O  O38  1  0.54778000  0.55255000  0.67655000  1.0
  O  O39  1  0.60264000  0.59278000  0.96492000  1.0
  O  O40  1  0.73794000  0.51821000  0.52868000  1.0
  O  O41  1  0.25901000  0.45126000  0.55807000  1.0
  O  O42  1  0.53581000  0.26700000  0.46334000  1.0
  O  O43  1  0.47077000  0.74678000  0.44754000  1.0
  O  O44  1  0.39810000  0.27208000  0.57081000  1.0
  O  O45  1  0.61869000  0.71520000  0.50058000  1.0
  O  O46  1  0.72941000  0.39529000  0.44504000  1.0
  O  O47  1  0.28338000  0.60998000  0.47825000  1.0
