# generated using pymatgen
data_BaCuH16C11SN2O11
_symmetry_space_group_name_H-M   'P 1'
_cell_length_a   8.38466000
_cell_length_b   9.71235000
_cell_length_c   12.46260000
_cell_angle_alpha   111.07900000
_cell_angle_beta   91.38200000
_cell_angle_gamma   112.97300000
_symmetry_Int_Tables_number   1
_chemical_formula_structural   BaCuH16C11SN2O11
_chemical_formula_sum   'Ba2 Cu2 H32 C22 S2 N4 O22'
_cell_volume   855.74062390
_cell_formula_units_Z   2
loop_
 _symmetry_equiv_pos_site_id
 _symmetry_equiv_pos_as_xyz
  1  'x, y, z'
loop_
 _atom_site_type_symbol
 _atom_site_label
 _atom_site_symmetry_multiplicity
 _atom_site_fract_x
 _atom_site_fract_y
 _atom_site_fract_z
 _atom_site_occupancy
  Ba  Ba0  1  0.37407000  0.11371000  0.39871000  1.0
  Ba  Ba1  1  0.62593000  0.88629000  0.60129000  1.0
  Cu  Cu2  1  0.95406000  0.57455000  0.17036000  1.0
  Cu  Cu3  1  0.04594000  0.42544000  0.82964000  1.0
  H  H4  1  0.80629000  0.89325000  0.04840000  1.0
  H  H5  1  0.19371000  0.10676000  0.95160000  1.0
  H  H6  1  0.60135000  0.80952000  0.86714000  1.0
  H  H7  1  0.39865000  0.19049000  0.13287000  1.0
  H  H8  1  0.49156000  0.30655000  0.78220000  1.0
  H  H9  1  0.50845000  0.69345000  0.21780000  1.0
  H  H10  1  0.60560000  0.22394000  0.89826000  1.0
  H  H11  1  0.39440000  0.77606000  0.10174000  1.0
  H  H12  1  0.83475000  0.15072000  0.00287000  1.0
  H  H13  1  0.16523000  0.84927000  0.99714000  1.0
  H  H14  1  0.66120000  0.15242000  0.08170000  1.0
  H  H15  1  0.33879000  0.84758000  0.91831000  1.0
  H  H16  1  0.24080000  0.50470000  0.35522000  1.0
  H  H17  1  0.75920000  0.49530000  0.64478000  1.0
  H  H18  1  0.06588000  0.53336000  0.42221000  1.0
  H  H19  1  0.93413000  0.46664000  0.57779000  1.0
  H  H20  1  0.02518000  0.22396000  0.36917000  1.0
  H  H21  1  0.97482000  0.77603000  0.63083000  1.0
  H  H22  1  0.10413000  0.28290000  0.50740000  1.0
  H  H23  1  0.89587000  0.71709000  0.49260000  1.0
  H  H24  1  0.19887000  0.17621000  0.63305000  1.0
  H  H25  1  0.80113000  0.82379000  0.36695000  1.0
  H  H26  1  0.10420000  0.97986000  0.58254000  1.0
  H  H27  1  0.89580000  0.02013000  0.41746000  1.0
  H  H28  1  0.65138000  0.95915000  0.31844000  1.0
  H  H29  1  0.34862000  0.04084000  0.68155000  1.0
  H  H30  1  0.69951000  0.06585000  0.24733000  1.0
  H  H31  1  0.30050000  0.93416000  0.75267000  1.0
  H  H32  1  0.04558000  0.90289000  0.16578000  1.0
  H  H33  1  0.95441000  0.09711000  0.83422000  1.0
  H  H34  1  0.07410000  0.08278000  0.19608000  1.0
  H  H35  1  0.92591000  0.91722000  0.80392000  1.0
  C  C36  1  0.77537000  0.65011000  0.01678000  1.0
  C  C37  1  0.22463000  0.34990000  0.98323000  1.0
  C  C38  1  0.73880000  0.76506000  0.98856000  1.0
  C  C39  1  0.26120000  0.23494000  0.01144000  1.0
  C  C40  1  0.62261000  0.71800000  0.88830000  1.0
  C  C41  1  0.37739000  0.28200000  0.11170000  1.0
  C  C42  1  0.53480000  0.55255000  0.81175000  1.0
  C  C43  1  0.46520000  0.44745000  0.18825000  1.0
  C  C44  1  0.56144000  0.43578000  0.83929000  1.0
  C  C45  1  0.43856000  0.56423000  0.16072000  1.0
  C  C46  1  0.67955000  0.47981000  0.94108000  1.0
  C  C47  1  0.32045000  0.52020000  0.05892000  1.0
  C  C48  1  0.69256000  0.34757000  0.96271000  1.0
  C  C49  1  0.30744000  0.65243000  0.03729000  1.0
  C  C50  1  0.79472000  0.22921000  0.07468000  1.0
  C  C51  1  0.20526000  0.77079000  0.92532000  1.0
  C  C52  1  0.91968000  0.29100000  0.19017000  1.0
  C  C53  1  0.08032000  0.70900000  0.80983000  1.0
  C  C54  1  0.13405000  0.54181000  0.34835000  1.0
  C  C55  1  0.86596000  0.45820000  0.65165000  1.0
  C  C56  1  0.21809000  0.72152000  0.36663000  1.0
  C  C57  1  0.78190000  0.27848000  0.63336000  1.0
  S  S58  1  0.40352000  0.49829000  0.67656000  1.0
  S  S59  1  0.59648000  0.50171000  0.32345000  1.0
  N  N60  1  0.79442000  0.36650000  0.05175000  1.0
  N  N61  1  0.20557000  0.63350000  0.94826000  1.0
  N  N62  1  0.01368000  0.44898000  0.23744000  1.0
  N  N63  1  0.98631000  0.55102000  0.76256000  1.0
  O  O64  1  0.89534000  0.70631000  0.11025000  1.0
  O  O65  1  0.10465000  0.29369000  0.88976000  1.0
  O  O66  1  0.92212000  0.18759000  0.23127000  1.0
  O  O67  1  0.07788000  0.81240000  0.76873000  1.0
  O  O68  1  0.15414000  0.76360000  0.29434000  1.0
  O  O69  1  0.84585000  0.23640000  0.70566000  1.0
  O  O70  1  0.34435000  0.82464000  0.44987000  1.0
  O  O71  1  0.65566000  0.17536000  0.55012000  1.0
  O  O72  1  0.48304000  0.41957000  0.58420000  1.0
  O  O73  1  0.51696000  0.58043000  0.41581000  1.0
  O  O74  1  0.22124000  0.38005000  0.67066000  1.0
  O  O75  1  0.77877000  0.61995000  0.32934000  1.0
  O  O76  1  0.40721000  0.65102000  0.67738000  1.0
  O  O77  1  0.59280000  0.34898000  0.32261000  1.0
  O  O78  1  0.07133000  0.19519000  0.42868000  1.0
  O  O79  1  0.92867000  0.80481000  0.57132000  1.0
  O  O80  1  0.21685000  0.07636000  0.59377000  1.0
  O  O81  1  0.78315000  0.92364000  0.40623000  1.0
  O  O82  1  0.59534000  0.99468000  0.26843000  1.0
  O  O83  1  0.40466000  0.00532000  0.73156000  1.0
  O  O84  1  0.13960000  0.01658000  0.19194000  1.0
  O  O85  1  0.86040000  0.98342000  0.80805000  1.0
