# generated using pymatgen
data_KH5C8(NO3)2
_symmetry_space_group_name_H-M   'P 1'
_cell_length_a   7.11814000
_cell_length_b   8.06973000
_cell_length_c   17.09160000
_cell_angle_alpha   90.00010000
_cell_angle_beta   90.00000000
_cell_angle_gamma   90.55650000
_symmetry_Int_Tables_number   1
_chemical_formula_structural   KH5C8(NO3)2
_chemical_formula_sum   'K4 H20 C32 N8 O24'
_cell_volume   981.72028438
_cell_formula_units_Z   4
loop_
 _symmetry_equiv_pos_site_id
 _symmetry_equiv_pos_as_xyz
  1  'x, y, z'
loop_
 _atom_site_type_symbol
 _atom_site_label
 _atom_site_symmetry_multiplicity
 _atom_site_fract_x
 _atom_site_fract_y
 _atom_site_fract_z
 _atom_site_occupancy
  K  K0  1  0.54175000  0.31075000  0.70512000  1.0
  K  K1  1  0.95825000  0.68925000  0.20512000  1.0
  K  K2  1  0.45825000  0.68926000  0.29488000  1.0
  K  K3  1  0.04175000  0.31075000  0.79488000  1.0
  H  H4  1  0.78486000  0.11321000  0.97963000  1.0
  H  H5  1  0.71514000  0.88679000  0.47963000  1.0
  H  H6  1  0.21514000  0.88679000  0.02037000  1.0
  H  H7  1  0.28486000  0.11321000  0.52037000  1.0
  H  H8  1  0.09807000  0.32930000  0.97394000  1.0
  H  H9  1  0.40193000  0.67070000  0.47394000  1.0
  H  H10  1  0.90192000  0.67070000  0.02606000  1.0
  H  H11  1  0.59807000  0.32930000  0.52606000  1.0
  H  H12  1  0.26884000  0.46238000  0.93046000  1.0
  H  H13  1  0.23116000  0.53763000  0.43046000  1.0
  H  H14  1  0.73116000  0.53762000  0.06954000  1.0
  H  H15  1  0.76884000  0.46238000  0.56954000  1.0
  H  H16  1  0.17464000  0.50835000  0.02479000  1.0
  H  H17  1  0.32536000  0.49165000  0.52479000  1.0
  H  H18  1  0.82536000  0.49165000  0.97521000  1.0
  H  H19  1  0.67464000  0.50835000  0.47521000  1.0
  H  H20  1  0.52577000  0.18402000  0.20514000  1.0
  H  H21  1  0.97423000  0.81598000  0.70514000  1.0
  H  H22  1  0.47422000  0.81599000  0.79486000  1.0
  H  H23  1  0.02578000  0.18401000  0.29486000  1.0
  C  C24  1  0.52438000  0.24642000  0.97861000  1.0
  C  C25  1  0.97562000  0.75358000  0.47861000  1.0
  C  C26  1  0.47562000  0.75358000  0.02139000  1.0
  C  C27  1  0.02438000  0.24642000  0.52139000  1.0
  C  C28  1  0.54091000  0.26954000  0.89022000  1.0
  C  C29  1  0.95909000  0.73045000  0.39022000  1.0
  C  C30  1  0.45909000  0.73046000  0.10978000  1.0
  C  C31  1  0.04091000  0.26954000  0.60978000  1.0
  C  C32  1  0.37326000  0.31021000  0.02291000  1.0
  C  C33  1  0.12674000  0.68979000  0.52291000  1.0
  C  C34  1  0.62674000  0.68978000  0.97709000  1.0
  C  C35  1  0.87326000  0.31021000  0.47709000  1.0
  C  C36  1  0.66965000  0.16024000  0.01482000  1.0
  C  C37  1  0.83034000  0.83976000  0.51482000  1.0
  C  C38  1  0.33034000  0.83976000  0.98518000  1.0
  C  C39  1  0.16966000  0.16024000  0.48518000  1.0
  C  C40  1  0.38139000  0.28408000  0.10474000  1.0
  C  C41  1  0.11861000  0.71592000  0.60474000  1.0
  C  C42  1  0.61861000  0.71592000  0.89526000  1.0
  C  C43  1  0.88140000  0.28408000  0.39526000  1.0
  C  C44  1  0.66798000  0.13745000  0.09555000  1.0
  C  C45  1  0.83202000  0.86255000  0.59555000  1.0
  C  C46  1  0.33201000  0.86255000  0.90445000  1.0
  C  C47  1  0.16798000  0.13745000  0.40445000  1.0
  C  C48  1  0.22067000  0.40935000  0.98579000  1.0
  C  C49  1  0.27933000  0.59065000  0.48579000  1.0
  C  C50  1  0.77934000  0.59065000  0.01421000  1.0
  C  C51  1  0.72067000  0.40935000  0.51420000  1.0
  C  C52  1  0.52617000  0.20091000  0.14213000  1.0
  C  C53  1  0.97383000  0.79908000  0.64213000  1.0
  C  C54  1  0.47383000  0.79908000  0.85787000  1.0
  C  C55  1  0.02617000  0.20092000  0.35787000  1.0
  N  N56  1  0.81972000  0.04577000  0.13272000  1.0
  N  N57  1  0.68028000  0.95423000  0.63272000  1.0
  N  N58  1  0.18028000  0.95423000  0.86728000  1.0
  N  N59  1  0.31972000  0.04577000  0.36728000  1.0
  N  N60  1  0.23387000  0.34690000  0.15674000  1.0
  N  N61  1  0.26614000  0.65310000  0.65674000  1.0
  N  N62  1  0.76613000  0.65310000  0.84326000  1.0
  N  N63  1  0.73387000  0.34690000  0.34326000  1.0
  O  O64  1  0.39168000  0.26049000  0.84987000  1.0
  O  O65  1  0.10831000  0.73951000  0.34987000  1.0
  O  O66  1  0.60831000  0.73951000  0.15013000  1.0
  O  O67  1  0.89169000  0.26049000  0.65013000  1.0
  O  O68  1  0.28049000  0.39128000  0.22354000  1.0
  O  O69  1  0.21951000  0.60872000  0.72354000  1.0
  O  O70  1  0.71951000  0.60873000  0.77645000  1.0
  O  O71  1  0.78049000  0.39127000  0.27645000  1.0
  O  O72  1  0.70547000  0.29343000  0.86403000  1.0
  O  O73  1  0.79453000  0.70657000  0.36403000  1.0
  O  O74  1  0.29453000  0.70657000  0.13597000  1.0
  O  O75  1  0.20547000  0.29343000  0.63597000  1.0
  O  O76  1  0.06999000  0.35128000  0.13179000  1.0
  O  O77  1  0.43001000  0.64872000  0.63179000  1.0
  O  O78  1  0.93001000  0.64871000  0.86821000  1.0
  O  O79  1  0.56999000  0.35128000  0.36821000  1.0
  O  O80  1  0.82347000  0.03870000  0.20534000  1.0
  O  O81  1  0.67653000  0.96130000  0.70534000  1.0
  O  O82  1  0.17652000  0.96130000  0.79466000  1.0
  O  O83  1  0.32348000  0.03870000  0.29466000  1.0
  O  O84  1  0.93715000  0.97853000  0.08972000  1.0
  O  O85  1  0.56285000  0.02147000  0.58972000  1.0
  O  O86  1  0.06285000  0.02147000  0.91028000  1.0
  O  O87  1  0.43715000  0.97853000  0.41028000  1.0
