# generated using pymatgen
data_Ni2H39C43(N3O5)2
_symmetry_space_group_name_H-M   'P 1'
_cell_length_a   9.15394000
_cell_length_b   10.01180000
_cell_length_c   24.51630000
_cell_angle_alpha   97.46270000
_cell_angle_beta   99.86410000
_cell_angle_gamma   100.86800000
_symmetry_Int_Tables_number   1
_chemical_formula_structural   Ni2H39C43(N3O5)2
_chemical_formula_sum   'Ni4 H78 C86 N12 O20'
_cell_volume   2143.17858805
_cell_formula_units_Z   2
loop_
 _symmetry_equiv_pos_site_id
 _symmetry_equiv_pos_as_xyz
  1  'x, y, z'
loop_
 _atom_site_type_symbol
 _atom_site_label
 _atom_site_symmetry_multiplicity
 _atom_site_fract_x
 _atom_site_fract_y
 _atom_site_fract_z
 _atom_site_occupancy
  Ni  Ni0  1  0.89329000  0.38630000  0.32024000  1.0
  Ni  Ni1  1  0.10671000  0.61370000  0.67976000  1.0
  Ni  Ni2  1  0.72965000  0.12969000  0.20603000  1.0
  Ni  Ni3  1  0.27035000  0.87031000  0.79397000  1.0
  H  H4  1  0.80403000  0.38605000  0.09209000  1.0
  H  H5  1  0.19596000  0.61395000  0.90791000  1.0
  H  H6  1  0.74251000  0.78789000  0.05790000  1.0
  H  H7  1  0.25748000  0.21211000  0.94209000  1.0
  H  H8  1  0.76303000  0.69172000  0.22516000  1.0
  H  H9  1  0.23697000  0.30828000  0.77484000  1.0
  H  H10  1  0.63952000  0.34987000  0.01025000  1.0
  H  H11  1  0.36048000  0.65013000  0.98975000  1.0
  H  H12  1  0.82523000  0.35987000  0.99495000  1.0
  H  H13  1  0.17477000  0.64013000  0.00505000  1.0
  H  H14  1  0.59378000  0.27724000  0.91192000  1.0
  H  H15  1  0.40623000  0.72275000  0.08808000  1.0
  H  H16  1  0.56397000  0.44610000  0.92154000  1.0
  H  H17  1  0.43603000  0.55390000  0.07846000  1.0
  H  H18  1  0.84652000  0.35713000  0.88997000  1.0
  H  H19  1  0.15348000  0.64287000  0.11003000  1.0
  H  H20  1  0.83514000  0.53054000  0.90537000  1.0
  H  H21  1  0.16486000  0.46946000  0.09463000  1.0
  H  H22  1  0.44474000  0.02049000  0.71192000  1.0
  H  H23  1  0.55526000  0.97951000  0.28808000  1.0
  H  H24  1  0.93263000  0.07059000  0.74802000  1.0
  H  H25  1  0.06737000  0.92941000  0.25198000  1.0
  H  H26  1  0.64737000  0.66493000  0.69611000  1.0
  H  H27  1  0.35262000  0.33507000  0.30389000  1.0
  H  H28  1  0.88110000  0.25216000  0.80415000  1.0
  H  H29  1  0.11890000  0.74784000  0.19585000  1.0
  H  H30  1  0.91479000  0.30616000  0.74024000  1.0
  H  H31  1  0.08521000  0.69384000  0.25976000  1.0
  H  H32  1  0.73609000  0.46575000  0.74816000  1.0
  H  H33  1  0.26392000  0.53425000  0.25184000  1.0
  H  H34  1  0.89454000  0.50924000  0.80365000  1.0
  H  H35  1  0.10546000  0.49076000  0.19635000  1.0
  H  H36  1  0.62167000  0.50400000  0.82692000  1.0
  H  H37  1  0.37833000  0.49600000  0.17308000  1.0
  H  H38  1  0.59591000  0.32451000  0.81431000  1.0
  H  H39  1  0.40409000  0.67549000  0.18569000  1.0
  H  H40  1  0.40310000  0.92147000  0.15974000  1.0
  H  H41  1  0.59690000  0.07853000  0.84026000  1.0
  H  H42  1  0.21995000  0.26658000  0.12537000  1.0
  H  H43  1  0.78005000  0.73342000  0.87463000  1.0
  H  H44  1  0.53070000  0.35161000  0.16834000  1.0
  H  H45  1  0.46930000  0.64839000  0.83166000  1.0
  H  H46  1  0.03996000  0.01265000  0.14357000  1.0
  H  H47  1  0.96004000  0.98735000  0.85643000  1.0
  H  H48  1  0.12502000  0.87525000  0.12096000  1.0
  H  H49  1  0.87498000  0.12475000  0.87904000  1.0
  H  H50  1  0.88274000  0.09789000  0.07599000  1.0
  H  H51  1  0.11727000  0.90211000  0.92401000  1.0
  H  H52  1  0.21385000  0.88361000  0.02335000  1.0
  H  H53  1  0.78615000  0.11639000  0.97665000  1.0
  H  H54  1  0.86986000  0.71004000  0.34733000  1.0
  H  H55  1  0.13014000  0.28996000  0.65267000  1.0
  H  H56  1  0.13415000  0.91626000  0.38273000  1.0
  H  H57  1  0.86586000  0.08374000  0.61728000  1.0
  H  H58  1  0.24681000  0.52351000  0.36896000  1.0
  H  H59  1  0.75320000  0.47649000  0.63104000  1.0
  H  H60  1  0.42799000  0.85132000  0.36000000  1.0
  H  H61  1  0.57201000  0.14868000  0.64000000  1.0
  H  H62  1  0.45886000  0.71805000  0.39845000  1.0
  H  H63  1  0.54115000  0.28196000  0.60155000  1.0
  H  H64  1  0.29704000  0.79288000  0.49450000  1.0
  H  H65  1  0.70296000  0.20712000  0.50550000  1.0
  H  H66  1  0.60883000  0.04381000  0.41616000  1.0
  H  H67  1  0.39117000  0.95619000  0.58384000  1.0
  H  H68  1  0.16334000  0.25244000  0.37868000  1.0
  H  H69  1  0.83666000  0.74756000  0.62132000  1.0
  H  H70  1  0.79875000  0.36542000  0.44333000  1.0
  H  H71  1  0.20125000  0.63458000  0.55667000  1.0
  H  H72  1  0.00630000  0.31026000  0.53108000  1.0
  H  H73  1  0.99370000  0.68974000  0.46892000  1.0
  H  H74  1  0.29740000  0.15957000  0.47125000  1.0
  H  H75  1  0.70260000  0.84043000  0.52875000  1.0
  H  H76  1  0.25308000  0.22964000  0.53515000  1.0
  H  H77  1  0.74692000  0.77036000  0.46484000  1.0
  H  H78  1  0.36401000  0.47556000  0.57893000  1.0
  H  H79  1  0.63599000  0.52444000  0.42107000  1.0
  H  H80  1  0.44863000  0.31337000  0.41734000  1.0
  H  H81  1  0.55137000  0.68663000  0.58266000  1.0
  C  C82  1  0.80999000  0.43096000  0.20234000  1.0
  C  C83  1  0.19001000  0.56904000  0.79767000  1.0
  C  C84  1  0.79079000  0.53122000  0.16238000  1.0
  C  C85  1  0.20921000  0.46878000  0.83762000  1.0
  C  C86  1  0.79001000  0.49005000  0.10539000  1.0
  C  C87  1  0.20999000  0.50995000  0.89461000  1.0
  C  C88  1  0.77053000  0.58195000  0.06764000  1.0
  C  C89  1  0.22947000  0.41804000  0.93236000  1.0
  C  C90  1  0.75592000  0.71582000  0.08716000  1.0
  C  C91  1  0.24407000  0.28418000  0.91284000  1.0
  C  C92  1  0.75089000  0.75376000  0.14359000  1.0
  C  C93  1  0.24911000  0.24623000  0.85641000  1.0
  C  C94  1  0.76824000  0.66176000  0.18140000  1.0
  C  C95  1  0.23176000  0.33824000  0.81860000  1.0
  C  C96  1  0.72357000  0.89200000  0.16391000  1.0
  C  C97  1  0.27642000  0.10799000  0.83609000  1.0
  C  C98  1  0.72218000  0.40288000  0.98802000  1.0
  C  C99  1  0.27782000  0.59712000  0.01198000  1.0
  C  C100  1  0.65318000  0.38598000  0.92609000  1.0
  C  C101  1  0.34682000  0.61402000  0.07391000  1.0
  C  C102  1  0.76548000  0.42611000  0.88854000  1.0
  C  C103  1  0.23452000  0.57389000  0.11146000  1.0
  C  C104  1  0.37678000  0.74226000  0.68838000  1.0
  C  C105  1  0.62322000  0.25774000  0.31162000  1.0
  C  C106  1  0.53029000  0.83372000  0.69955000  1.0
  C  C107  1  0.46971000  0.16629000  0.30045000  1.0
  C  C108  1  0.54474000  0.97644000  0.71124000  1.0
  C  C109  1  0.45526000  0.02356000  0.28876000  1.0
  C  C110  1  0.68955000  0.06346000  0.72754000  1.0
  C  C111  1  0.31045000  0.93654000  0.27246000  1.0
  C  C112  1  0.81868000  0.00691000  0.73345000  1.0
  C  C113  1  0.18132000  0.99309000  0.26655000  1.0
  C  C114  1  0.80238000  0.86320000  0.72180000  1.0
  C  C115  1  0.19762000  0.13680000  0.27820000  1.0
  C  C116  1  0.65913000  0.77638000  0.70345000  1.0
  C  C117  1  0.34087000  0.22362000  0.29655000  1.0
  C  C118  1  0.94282000  0.80516000  0.73154000  1.0
  C  C119  1  0.05718000  0.19484000  0.26846000  1.0
  C  C120  1  0.83184000  0.29511000  0.76783000  1.0
  C  C121  1  0.16816000  0.70489000  0.23217000  1.0
  C  C122  1  0.78954000  0.43107000  0.78593000  1.0
  C  C123  1  0.21046000  0.56893000  0.21407000  1.0
  C  C124  1  0.68392000  0.42040000  0.82805000  1.0
  C  C125  1  0.31608000  0.57960000  0.17195000  1.0
  C  C126  1  0.39784000  0.02725000  0.15601000  1.0
  C  C127  1  0.60216000  0.97275000  0.84399000  1.0
  C  C128  1  0.30498000  0.20961000  0.13912000  1.0
  C  C129  1  0.69502000  0.79039000  0.86088000  1.0
  C  C130  1  0.45837000  0.24951000  0.16037000  1.0
  C  C131  1  0.54162000  0.75049000  0.83963000  1.0
  C  C132  1  0.11572000  0.98127000  0.11646000  1.0
  C  C133  1  0.88428000  0.01873000  0.88354000  1.0
  C  C134  1  0.05466000  0.98998000  0.05609000  1.0
  C  C135  1  0.94534000  0.01002000  0.94391000  1.0
  C  C136  1  0.93512000  0.05674000  0.04269000  1.0
  C  C137  1  0.06488000  0.94326000  0.95731000  1.0
  C  C138  1  0.11907000  0.93394000  0.01309000  1.0
  C  C139  1  0.88093000  0.06606000  0.98691000  1.0
  C  C140  1  0.98734000  0.70204000  0.35869000  1.0
  C  C141  1  0.01267000  0.29796000  0.64131000  1.0
  C  C142  1  0.11677000  0.80487000  0.37580000  1.0
  C  C143  1  0.88323000  0.19513000  0.62420000  1.0
  C  C144  1  0.17793000  0.60054000  0.36906000  1.0
  C  C145  1  0.82208000  0.39946000  0.63094000  1.0
  C  C146  1  0.39848000  0.80292000  0.39546000  1.0
  C  C147  1  0.60152000  0.19708000  0.60454000  1.0
  C  C148  1  0.44683000  0.90624000  0.44920000  1.0
  C  C149  1  0.55317000  0.09376000  0.55080000  1.0
  C  C150  1  0.38600000  0.88371000  0.49669000  1.0
  C  C151  1  0.61400000  0.11629000  0.50331000  1.0
  C  C152  1  0.56116000  0.02388000  0.45295000  1.0
  C  C153  1  0.43885000  0.97612000  0.54705000  1.0
  C  C154  1  0.08962000  0.27369000  0.40740000  1.0
  C  C155  1  0.91038000  0.72631000  0.59260000  1.0
  C  C156  1  0.90485000  0.33249000  0.44303000  1.0
  C  C157  1  0.09515000  0.66750000  0.55696000  1.0
  C  C158  1  0.00571000  0.30561000  0.48659000  1.0
  C  C159  1  0.99429000  0.69439000  0.51341000  1.0
  C  C160  1  0.26845000  0.25053000  0.49342000  1.0
  C  C161  1  0.73156000  0.74948000  0.50658000  1.0
  C  C162  1  0.39150000  0.37799000  0.49768000  1.0
  C  C163  1  0.60850000  0.62202000  0.50232000  1.0
  C  C164  1  0.42294000  0.48432000  0.54397000  1.0
  C  C165  1  0.57706000  0.51568000  0.45603000  1.0
  C  C166  1  0.46995000  0.39470000  0.45384000  1.0
  C  C167  1  0.53005000  0.60531000  0.54615000  1.0
  N  N168  1  0.02742000  0.57539000  0.35474000  1.0
  N  N169  1  0.97259000  0.42461000  0.64527000  1.0
  N  N170  1  0.23684000  0.73868000  0.38224000  1.0
  N  N171  1  0.76316000  0.26132000  0.61776000  1.0
  N  N172  1  0.95891000  0.31287000  0.39402000  1.0
  N  N173  1  0.04109000  0.68713000  0.60598000  1.0
  N  N174  1  0.12193000  0.26759000  0.46318000  1.0
  N  N175  1  0.87807000  0.73241000  0.53682000  1.0
  N  N176  1  0.51501000  0.13502000  0.17102000  1.0
  N  N177  1  0.48499000  0.86498000  0.82898000  1.0
  N  N178  1  0.26831000  0.06856000  0.13675000  1.0
  N  N179  1  0.73169000  0.93144000  0.86325000  1.0
  O  O180  1  0.81036000  0.30864000  0.18060000  1.0
  O  O181  1  0.18964000  0.69136000  0.81940000  1.0
  O  O182  1  0.82165000  0.47701000  0.25432000  1.0
  O  O183  1  0.17835000  0.52300000  0.74568000  1.0
  O  O184  1  0.27394000  0.78687000  0.71135000  1.0
  O  O185  1  0.72606000  0.21314000  0.28865000  1.0
  O  O186  1  0.34371000  0.62486000  0.65751000  1.0
  O  O187  1  0.65628000  0.37515000  0.34249000  1.0
  O  O188  1  0.93175000  0.68082000  0.70784000  1.0
  O  O189  1  0.06825000  0.31918000  0.29216000  1.0
  O  O190  1  0.05830000  0.88739000  0.76190000  1.0
  O  O191  1  0.94170000  0.11261000  0.23810000  1.0
  O  O192  1  0.75123000  0.99019000  0.13612000  1.0
  O  O193  1  0.24876000  0.00981000  0.86388000  1.0
  O  O194  1  0.67560000  0.91237000  0.20974000  1.0
  O  O195  1  0.32440000  0.08762000  0.79026000  1.0
  O  O196  1  0.69209000  0.20095000  0.73822000  1.0
  O  O197  1  0.30791000  0.79905000  0.26178000  1.0
  O  O198  1  0.76045000  0.54817000  0.01104000  1.0
  O  O199  1  0.23955000  0.45183000  0.98896000  1.0
