# generated using pymatgen
data_AgH5C5BrN
_symmetry_space_group_name_H-M   'P 1'
_cell_length_a   4.17041000
_cell_length_b   9.10434000
_cell_length_c   16.83180000
_cell_angle_alpha   89.99930000
_cell_angle_beta   89.99990000
_cell_angle_gamma   85.33560000
_symmetry_Int_Tables_number   1
_chemical_formula_structural   AgH5C5BrN
_chemical_formula_sum   'Ag4 H20 C20 Br4 N4'
_cell_volume   636.96718474
_cell_formula_units_Z   4
loop_
 _symmetry_equiv_pos_site_id
 _symmetry_equiv_pos_as_xyz
  1  'x, y, z'
loop_
 _atom_site_type_symbol
 _atom_site_label
 _atom_site_symmetry_multiplicity
 _atom_site_fract_x
 _atom_site_fract_y
 _atom_site_fract_z
 _atom_site_occupancy
  Ag  Ag0  1  0.73806000  0.54201000  0.93924000  1.0
  Ag  Ag1  1  0.76195000  0.95798000  0.43923000  1.0
  Ag  Ag2  1  0.26194000  0.45800000  0.06078000  1.0
  Ag  Ag3  1  0.23807000  0.04201000  0.56077000  1.0
  H  H4  1  0.14906000  0.64578000  0.79634000  1.0
  H  H5  1  0.35092000  0.85422000  0.29634000  1.0
  H  H6  1  0.85095000  0.35421000  0.20366000  1.0
  H  H7  1  0.64907000  0.14578000  0.70366000  1.0
  H  H8  1  0.32232000  0.87545000  0.73272000  1.0
  H  H9  1  0.17765000  0.62455000  0.23272000  1.0
  H  H10  1  0.67769000  0.12455000  0.26729000  1.0
  H  H11  1  0.82232000  0.37544000  0.76728000  1.0
  H  H12  1  0.14813000  0.12021000  0.79572000  1.0
  H  H13  1  0.35186000  0.37979000  0.29572000  1.0
  H  H14  1  0.85188000  0.87979000  0.20428000  1.0
  H  H15  1  0.64813000  0.62022000  0.70428000  1.0
  H  H16  1  0.80114000  0.12434000  0.91685000  1.0
  H  H17  1  0.69884000  0.37566000  0.41685000  1.0
  H  H18  1  0.19885000  0.87566000  0.08315000  1.0
  H  H19  1  0.30115000  0.62434000  0.58315000  1.0
  H  H20  1  0.64893000  0.88296000  0.97280000  1.0
  H  H21  1  0.85104000  0.61703000  0.47280000  1.0
  H  H22  1  0.35108000  0.11704000  0.02720000  1.0
  H  H23  1  0.14895000  0.38297000  0.52720000  1.0
  C  C24  1  0.07506000  0.75438000  0.82063000  1.0
  C  C25  1  0.42492000  0.74561000  0.32062000  1.0
  C  C26  1  0.92496000  0.24561000  0.17937000  1.0
  C  C27  1  0.57507000  0.25438000  0.67937000  1.0
  C  C28  1  0.17179000  0.88231000  0.78577000  1.0
  C  C29  1  0.32819000  0.61769000  0.28577000  1.0
  C  C30  1  0.82824000  0.11769000  0.21423000  1.0
  C  C31  1  0.67179000  0.38231000  0.71423000  1.0
  C  C32  1  0.07391000  0.01761000  0.82047000  1.0
  C  C33  1  0.42608000  0.48239000  0.32047000  1.0
  C  C34  1  0.92610000  0.98238000  0.17953000  1.0
  C  C35  1  0.57391000  0.51761000  0.67953000  1.0
  C  C36  1  0.88258000  0.02027000  0.88852000  1.0
  C  C37  1  0.61740000  0.47972000  0.38852000  1.0
  C  C38  1  0.11742000  0.97972000  0.11148000  1.0
  C  C39  1  0.38258000  0.52028000  0.61148000  1.0
  C  C40  1  0.79608000  0.88723000  0.91938000  1.0
  C  C41  1  0.70390000  0.61277000  0.41938000  1.0
  C  C42  1  0.20393000  0.11277000  0.08062000  1.0
  C  C43  1  0.29609000  0.38724000  0.58062000  1.0
  Br  Br44  1  0.29610000  0.36339000  0.90035000  1.0
  Br  Br45  1  0.20392000  0.13661000  0.40035000  1.0
  Br  Br46  1  0.70392000  0.63664000  0.09965000  1.0
  Br  Br47  1  0.79609000  0.86337000  0.59965000  1.0
  N  N48  1  0.88934000  0.75614000  0.88612000  1.0
  N  N49  1  0.61064000  0.74385000  0.38611000  1.0
  N  N50  1  0.11066000  0.24385000  0.11388000  1.0
  N  N51  1  0.38936000  0.25615000  0.61388000  1.0
