# generated using pymatgen
data_Mg2H8C17N5ClO6
_symmetry_space_group_name_H-M   'P 1'
_cell_length_a   6.71488000
_cell_length_b   28.54550000
_cell_length_c   28.54560000
_cell_angle_alpha   119.40100000
_cell_angle_beta   94.51040000
_cell_angle_gamma   94.46920000
_symmetry_Int_Tables_number   1
_chemical_formula_structural   Mg2H8C17N5ClO6
_chemical_formula_sum   'Mg6 H24 C51 N15 Cl3 O18'
_cell_volume   4709.16378310
_cell_formula_units_Z   3
loop_
 _symmetry_equiv_pos_site_id
 _symmetry_equiv_pos_as_xyz
  1  'x, y, z'
loop_
 _atom_site_type_symbol
 _atom_site_label
 _atom_site_symmetry_multiplicity
 _atom_site_fract_x
 _atom_site_fract_y
 _atom_site_fract_z
 _atom_site_occupancy
  Mg  Mg0  1  0.75030000  0.31879000  0.69500000  1.0
  Mg  Mg1  1  0.43144000  0.37613000  0.68111000  1.0
  Mg  Mg2  1  0.05546000  0.30486000  0.62380000  1.0
  Mg  Mg3  1  0.83463000  0.67561000  0.37404000  1.0
  Mg  Mg4  1  0.15897000  0.69869000  0.32431000  1.0
  Mg  Mg5  1  0.46064000  0.62589000  0.30124000  1.0
  H  H6  1  0.87676000  0.06576000  0.56095000  1.0
  H  H7  1  0.81157000  0.49476000  0.93414000  1.0
  H  H8  1  0.31579000  0.43940000  0.50518000  1.0
  H  H9  1  0.94505000  0.15844000  0.59739000  1.0
  H  H10  1  0.78650000  0.43877000  0.84140000  1.0
  H  H11  1  0.34778000  0.40279000  0.56131000  1.0
  H  H12  1  0.25351000  0.15798000  0.52262000  1.0
  H  H13  1  0.09539000  0.36476000  0.84210000  1.0
  H  H14  1  0.73045000  0.47735000  0.63545000  1.0
  H  H15  1  0.38390000  0.07004000  0.49449000  1.0
  H  H16  1  0.31453000  0.42414000  0.92990000  1.0
  H  H17  1  0.88917000  0.50565000  0.57585000  1.0
  H  H18  1  0.12872000  0.96543000  0.44821000  1.0
  H  H19  1  0.16420000  0.48242000  0.03464000  1.0
  H  H20  1  0.68044000  0.55231000  0.51743000  1.0
  H  H21  1  0.23214000  0.83255000  0.43182000  1.0
  H  H22  1  0.39988000  0.59916000  0.16734000  1.0
  H  H23  1  0.80114000  0.56847000  0.40092000  1.0
  H  H24  1  0.54055000  0.84862000  0.37136000  1.0
  H  H25  1  0.69246000  0.52274000  0.15148000  1.0
  H  H26  1  0.16930000  0.62893000  0.47701000  1.0
  H  H27  1  0.80389000  0.92920000  0.41239000  1.0
  H  H28  1  0.87533000  0.48290000  0.07089000  1.0
  H  H29  1  0.39103000  0.58788000  0.51670000  1.0
  C  C30  1  0.63096000  0.92972000  0.51729000  1.0
  C  C31  1  0.70143000  0.58730000  0.07014000  1.0
  C  C32  1  0.11361000  0.48288000  0.41275000  1.0
  C  C33  1  0.63609000  0.01016000  0.52110000  1.0
  C  C34  1  0.62649000  0.51054000  0.98976000  1.0
  C  C35  1  0.11480000  0.47925000  0.48949000  1.0
  C  C36  1  0.66862000  0.10826000  0.54652000  1.0
  C  C37  1  0.56071000  0.43798000  0.89163000  1.0
  C  C38  1  0.12201000  0.45365000  0.56204000  1.0
  C  C39  1  0.79270000  0.15773000  0.58035000  1.0
  C  C40  1  0.63505000  0.42238000  0.84214000  1.0
  C  C41  1  0.21233000  0.41977000  0.57760000  1.0
  C  C42  1  0.72285000  0.20791000  0.59593000  1.0
  C  C43  1  0.51482000  0.38783000  0.79198000  1.0
  C  C44  1  0.12670000  0.40403000  0.61206000  1.0
  C  C45  1  0.51895000  0.20714000  0.57623000  1.0
  C  C46  1  0.31164000  0.36902000  0.79280000  1.0
  C  C47  1  0.94228000  0.42365000  0.63091000  1.0
  C  C48  1  0.40553000  0.15709000  0.53836000  1.0
  C  C49  1  0.24842000  0.38120000  0.84288000  1.0
  C  C50  1  0.86674000  0.46162000  0.61884000  1.0
  C  C51  1  0.47618000  0.10810000  0.52267000  1.0
  C  C52  1  0.36847000  0.41432000  0.89182000  1.0
  C  C53  1  0.95326000  0.47745000  0.58569000  1.0
  C  C54  1  0.41299000  0.25500000  0.59742000  1.0
  C  C55  1  0.15793000  0.34243000  0.74491000  1.0
  C  C56  1  0.81519000  0.40234000  0.65747000  1.0
  C  C57  1  0.36310000  0.94614000  0.47860000  1.0
  C  C58  1  0.41744000  0.53218000  0.05382000  1.0
  C  C59  1  0.88439000  0.52168000  0.46778000  1.0
  C  C60  1  0.03528000  0.88622000  0.42600000  1.0
  C  C61  1  0.14948000  0.53960000  0.11376000  1.0
  C  C62  1  0.60935000  0.57427000  0.46024000  1.0
  C  C63  1  0.08180000  0.83650000  0.41844000  1.0
  C  C64  1  0.24555000  0.58191000  0.16342000  1.0
  C  C65  1  0.66383000  0.58177000  0.41808000  1.0
  C  C66  1  0.93585000  0.79014000  0.39311000  1.0
  C  C67  1  0.14591000  0.60307000  0.20978000  1.0
  C  C68  1  0.54324000  0.60699000  0.39688000  1.0
  C  C69  1  0.73414000  0.79519000  0.37753000  1.0
  C  C70  1  0.93915000  0.58246000  0.20475000  1.0
  C  C71  1  0.35704000  0.62262000  0.41747000  1.0
  C  C72  1  0.69375000  0.84578000  0.38443000  1.0
  C  C73  1  0.84838000  0.53865000  0.15424000  1.0
  C  C74  1  0.30948000  0.61580000  0.46116000  1.0
  C  C75  1  0.83986000  0.89050000  0.40737000  1.0
  C  C76  1  0.94987000  0.51670000  0.10952000  1.0
  C  C77  1  0.43237000  0.59286000  0.48302000  1.0
  C  C78  1  0.56615000  0.75065000  0.35505000  1.0
  C  C79  1  0.81558000  0.60461000  0.24928000  1.0
  C  C80  1  0.21144000  0.64504000  0.39533000  1.0
  N  N81  1  0.73706000  0.97768000  0.53413000  1.0
  N  N82  1  0.75978000  0.55609000  0.02221000  1.0
  N  N83  1  0.20289000  0.46615000  0.44398000  1.0
  N  N84  1  0.74062000  0.06074000  0.53956000  1.0
  N  N85  1  0.68042000  0.47842000  0.93916000  1.0
  N  N86  1  0.20098000  0.46077000  0.52159000  1.0
  N  N87  1  0.45274000  0.99628000  0.49289000  1.0
  N  N88  1  0.45716000  0.49624000  0.00370000  1.0
  N  N89  1  0.95957000  0.50745000  0.50372000  1.0
  N  N90  1  0.17464000  0.93344000  0.45047000  1.0
  N  N91  1  0.24186000  0.51674000  0.06657000  1.0
  N  N92  1  0.72416000  0.54988000  0.48313000  1.0
  N  N93  1  0.44517000  0.91087000  0.49024000  1.0
  N  N94  1  0.53443000  0.57914000  0.08900000  1.0
  N  N95  1  0.95489000  0.50993000  0.42086000  1.0
  Cl  Cl96  1  0.74711000  0.88606000  0.53254000  1.0
  Cl  Cl97  1  0.86099000  0.64625000  0.11371000  1.0
  Cl  Cl98  1  0.21480000  0.46747000  0.35387000  1.0
  O  O99  1  0.23206000  0.25178000  0.57778000  1.0
  O  O100  1  0.98028000  0.32596000  0.74807000  1.0
  O  O101  1  0.65402000  0.42201000  0.67395000  1.0
  O  O102  1  0.50322000  0.29988000  0.63882000  1.0
  O  O103  1  0.20340000  0.33904000  0.70008000  1.0
  O  O104  1  0.86407000  0.36090000  0.66086000  1.0
  O  O105  1  0.84500000  0.25408000  0.62997000  1.0
  O  O106  1  0.59064000  0.37563000  0.74577000  1.0
  O  O107  1  0.21480000  0.36998000  0.62417000  1.0
  O  O108  1  0.38984000  0.75707000  0.34117000  1.0
  O  O109  1  0.63297000  0.58427000  0.24286000  1.0
  O  O110  1  0.04891000  0.65887000  0.41558000  1.0
  O  O111  1  0.59877000  0.70441000  0.35054000  1.0
  O  O112  1  0.89414000  0.64643000  0.29549000  1.0
  O  O113  1  0.24843000  0.64949000  0.35357000  1.0
  O  O114  1  0.99646000  0.74315000  0.38436000  1.0
  O  O115  1  0.25336000  0.64137000  0.25676000  1.0
  O  O116  1  0.61248000  0.61560000  0.35856000  1.0
