# generated using pymatgen
data_Cu2H5C7N6
_symmetry_space_group_name_H-M   'P 1'
_cell_length_a   7.91670000
_cell_length_b   8.15183000
_cell_length_c   8.15182000
_cell_angle_alpha   100.64400000
_cell_angle_beta   109.23700000
_cell_angle_gamma   109.23700000
_symmetry_Int_Tables_number   1
_chemical_formula_structural   Cu2H5C7N6
_chemical_formula_sum   'Cu4 H10 C14 N12'
_cell_volume   442.87050168
_cell_formula_units_Z   2
loop_
 _symmetry_equiv_pos_site_id
 _symmetry_equiv_pos_as_xyz
  1  'x, y, z'
loop_
 _atom_site_type_symbol
 _atom_site_label
 _atom_site_symmetry_multiplicity
 _atom_site_fract_x
 _atom_site_fract_y
 _atom_site_fract_z
 _atom_site_occupancy
  Cu  Cu0  1  0.01819000  0.45575000  0.21207000  1.0
  Cu  Cu1  1  0.48180000  0.78792000  0.54425000  1.0
  Cu  Cu2  1  0.98181000  0.54424000  0.78793000  1.0
  Cu  Cu3  1  0.51820000  0.21208000  0.45575000  1.0
  H  H4  1  0.25000000  0.33979000  0.66022000  1.0
  H  H5  1  0.75000000  0.66022000  0.33978000  1.0
  H  H6  1  0.56103000  0.40323000  0.92388000  1.0
  H  H7  1  0.93897000  0.07613000  0.59678000  1.0
  H  H8  1  0.43897000  0.59677000  0.07613000  1.0
  H  H9  1  0.06103000  0.92388000  0.40323000  1.0
  H  H10  1  0.56021000  0.21123000  0.12590000  1.0
  H  H11  1  0.93979000  0.87410000  0.78877000  1.0
  H  H12  1  0.43979000  0.78876000  0.87409000  1.0
  H  H13  1  0.06020000  0.12591000  0.21123000  1.0
  C  C14  1  0.25000000  0.25292000  0.74709000  1.0
  C  C15  1  0.75000000  0.74709000  0.25291000  1.0
  C  C16  1  0.42413000  0.28941000  0.89588000  1.0
  C  C17  1  0.07587000  0.10412000  0.71059000  1.0
  C  C18  1  0.57588000  0.71059000  0.10412000  1.0
  C  C19  1  0.92413000  0.89588000  0.28942000  1.0
  C  C20  1  0.42399000  0.18125000  0.00945000  1.0
  C  C21  1  0.07602000  0.99055000  0.81876000  1.0
  C  C22  1  0.57602000  0.81875000  0.99055000  1.0
  C  C23  1  0.92399000  0.00946000  0.18125000  1.0
  C  C24  1  0.25000000  0.02916000  0.97084000  1.0
  C  C25  1  0.74999000  0.97084000  0.02916000  1.0
  C  C26  1  0.25000000  0.91343000  0.08657000  1.0
  C  C27  1  0.75000000  0.08657000  0.91344000  1.0
  N  N28  1  0.01881000  0.48113000  0.43776000  1.0
  N  N29  1  0.48120000  0.56222000  0.51886000  1.0
  N  N30  1  0.98119000  0.51886000  0.56224000  1.0
  N  N31  1  0.51880000  0.43777000  0.48114000  1.0
  N  N32  1  0.17780000  0.67675000  0.17887000  1.0
  N  N33  1  0.32220000  0.82112000  0.32324000  1.0
  N  N34  1  0.82220000  0.32325000  0.82112000  1.0
  N  N35  1  0.67780000  0.17888000  0.67675000  1.0
  N  N36  1  0.13410000  0.73117000  0.02795000  1.0
  N  N37  1  0.36590000  0.97204000  0.26882000  1.0
  N  N38  1  0.86590000  0.26883000  0.97205000  1.0
  N  N39  1  0.63410000  0.02795000  0.73118000  1.0
