# generated using pymatgen
data_Zn4H57C96N20F3
_symmetry_space_group_name_H-M   'P 1'
_cell_length_a   19.78690000
_cell_length_b   20.11720000
_cell_length_c   20.14590000
_cell_angle_alpha   111.61100000
_cell_angle_beta   107.62400000
_cell_angle_gamma   105.70300000
_symmetry_Int_Tables_number   1
_chemical_formula_structural   Zn4H57C96N20F3
_chemical_formula_sum   'Zn4 H57 C96 N20 F3'
_cell_volume   6410.71498931
_cell_formula_units_Z   1
loop_
 _symmetry_equiv_pos_site_id
 _symmetry_equiv_pos_as_xyz
  1  'x, y, z'
loop_
 _atom_site_type_symbol
 _atom_site_label
 _atom_site_symmetry_multiplicity
 _atom_site_fract_x
 _atom_site_fract_y
 _atom_site_fract_z
 _atom_site_occupancy
  Zn  Zn0  1  0.48674000  0.10744000  0.11672000  1.0
  Zn  Zn1  1  0.52563000  0.92960000  0.90402000  1.0
  Zn  Zn2  1  0.38382000  0.02222000  0.91913000  1.0
  Zn  Zn3  1  0.60499000  0.00491000  0.10482000  1.0
  H  H4  1  0.32766000  0.09808000  0.16263000  1.0
  H  H5  1  0.36084000  0.78990000  0.43054000  1.0
  H  H6  1  0.32126000  0.98036000  0.45775000  1.0
  H  H7  1  0.52974000  0.75233000  0.85158000  1.0
  H  H8  1  0.44490000  0.03699000  0.41998000  1.0
  H  H9  1  0.54102000  0.99967000  0.52418000  1.0
  H  H10  1  0.48434000  0.84617000  0.39286000  1.0
  H  H11  1  0.46424000  0.41837000  0.93305000  1.0
  H  H12  1  0.67002000  0.55500000  0.13201000  1.0
  H  H13  1  0.66742000  0.46154000  0.91716000  1.0
  H  H14  1  0.53093000  0.48138000  0.85011000  1.0
  H  H15  1  0.53128000  0.91552000  0.74263000  1.0
  H  H16  1  0.16738000  0.80512000  0.62458000  1.0
  H  H17  1  0.24855000  0.89899000  0.73920000  1.0
  H  H18  1  0.86212000  0.52669000  0.39977000  1.0
  H  H19  1  0.74062000  0.39983000  0.32107000  1.0
  H  H20  1  0.98664000  0.40632000  0.30083000  1.0
  H  H21  1  0.20453000  0.57019000  0.48197000  1.0
  H  H22  1  0.89735000  0.99208000  0.10436000  1.0
  H  H23  1  0.96562000  0.90479000  0.09037000  1.0
  H  H24  1  0.10081000  0.85371000  0.12734000  1.0
  H  H25  1  0.22358000  0.95557000  0.15223000  1.0
  H  H26  1  0.41555000  0.18592000  0.89646000  1.0
  H  H27  1  0.70847000  0.82179000  0.86892000  1.0
  H  H28  1  0.77498000  0.73207000  0.85681000  1.0
  H  H29  1  0.10419000  0.92658000  0.91877000  1.0
  H  H30  1  0.38410000  0.76731000  0.77368000  1.0
  H  H31  1  0.36424000  0.97129000  0.12609000  1.0
  H  H32  1  0.56636000  0.83547000  0.09673000  1.0
  H  H33  1  0.23136000  0.91682000  0.91624000  1.0
  H  H34  1  0.63917000  0.28522000  0.27261000  1.0
  H  H35  1  0.06354000  0.68174000  0.37100000  1.0
  H  H36  1  0.96304000  0.72144000  0.31167000  1.0
  H  H37  1  0.76921000  0.98027000  0.12729000  1.0
  H  H38  1  0.89383000  0.77544000  0.38708000  1.0
  H  H39  1  0.92665000  0.78955000  0.52287000  1.0
  H  H40  1  0.02679000  0.74925000  0.58166000  1.0
  H  H41  1  0.28837000  0.57220000  0.62414000  1.0
  H  H42  1  0.41839000  0.57042000  0.67799000  1.0
  H  H43  1  0.53890000  0.67760000  0.70462000  1.0
  H  H44  1  0.52811000  0.78524000  0.67502000  1.0
  H  H45  1  0.39816000  0.78788000  0.62319000  1.0
  H  H46  1  0.50040000  0.82206000  0.21665000  1.0
  H  H47  1  0.60062000  0.78523000  0.28196000  1.0
  H  H48  1  0.68204000  0.95652000  0.89115000  1.0
  H  H49  1  0.74326000  0.87288000  0.34107000  1.0
  H  H50  1  0.78468000  0.99809000  0.33473000  1.0
  H  H51  1  0.68450000  0.03602000  0.27132000  1.0
  H  H52  1  0.94369000  0.69796000  0.84128000  1.0
  H  H53  1  0.83532000  0.63945000  0.70615000  1.0
  H  H54  1  0.79360000  0.72665000  0.65867000  1.0
  H  H55  1  0.86185000  0.87336000  0.74800000  1.0
  H  H56  1  0.97027000  0.93161000  0.88351000  1.0
  H  H57  1  0.61077000  0.25542000  0.11713000  1.0
  H  H58  1  0.74472000  0.15834000  0.14478000  1.0
  H  H59  1  0.42368000  0.07729000  0.78928000  1.0
  H  H60  1  0.26495000  0.82697000  0.32683000  1.0
  C  C61  1  0.31533000  0.06028000  0.10157000  1.0
  C  C62  1  0.55578000  0.22620000  0.06333000  1.0
  C  C63  1  0.70802000  0.17818000  0.16986000  1.0
  C  C64  1  0.53676000  0.78396000  0.91185000  1.0
  C  C65  1  0.45339000  0.03948000  0.79189000  1.0
  C  C66  1  0.72390000  0.25457000  0.22647000  1.0
  C  C67  1  0.46751000  0.99095000  0.73110000  1.0
  C  C68  1  0.53157000  0.25118000  0.00705000  1.0
  C  C69  1  0.75000000  0.95528000  0.00276000  1.0
  C  C70  1  0.37960000  0.84468000  0.42753000  1.0
  C  C71  1  0.32637000  0.86569000  0.37102000  1.0
  C  C72  1  0.55523000  0.76552000  0.97410000  1.0
  C  C73  1  0.41544000  0.90496000  0.23061000  1.0
  C  C74  1  0.44397000  0.97352000  0.65117000  1.0
  C  C75  1  0.44847000  0.87634000  0.40827000  1.0
  C  C76  1  0.28887000  0.87566000  0.76005000  1.0
  C  C77  1  0.39537000  0.89752000  0.35041000  1.0
  C  C78  1  0.47983000  0.96130000  0.47925000  1.0
  C  C79  1  0.41126000  0.93033000  0.50072000  1.0
  C  C80  1  0.42652000  0.98274000  0.42392000  1.0
  C  C81  1  0.35750000  0.95062000  0.44258000  1.0
  C  C82  1  0.39709000  0.89091000  0.27839000  1.0
  C  C83  1  0.29566000  0.80631000  0.71831000  1.0
  C  C84  1  0.42431000  0.95094000  0.58016000  1.0
  C  C85  1  0.52403000  0.46305000  0.95803000  1.0
  C  C86  1  0.56308000  0.54762000  0.03098000  1.0
  C  C87  1  0.57260000  0.70246000  0.97506000  1.0
  C  C88  1  0.52650000  0.95150000  0.19766000  1.0
  C  C89  1  0.56832000  0.32174000  0.00716000  1.0
  C  C90  1  0.56128000  0.49667000  0.91253000  1.0
  C  C91  1  0.59828000  0.58418000  0.98462000  1.0
  C  C92  1  0.63690000  0.48607000  0.94942000  1.0
  C  C93  1  0.59988000  0.45143000  0.99611000  1.0
  C  C94  1  0.44872000  0.93425000  0.18884000  1.0
  C  C95  1  0.67370000  0.57120000  0.02212000  1.0
  C  C96  1  0.63864000  0.53859000  0.06940000  1.0
  C  C97  1  0.58977000  0.64967000  0.97904000  1.0
  C  C98  1  0.59056000  0.38160000  0.00186000  1.0
  C  C99  1  0.79373000  0.32923000  0.26715000  1.0
  C  C100  1  0.35885000  0.80945000  0.77815000  1.0
  C  C101  1  0.86473000  0.33567000  0.26219000  1.0
  C  C102  1  0.93283000  0.40532000  0.30507000  1.0
  C  C103  1  0.93190000  0.47459000  0.35664000  1.0
  C  C104  1  0.86136000  0.47186000  0.36013000  1.0
  C  C105  1  0.65433000  0.24287000  0.23556000  1.0
  C  C106  1  0.79429000  0.40084000  0.31640000  1.0
  C  C107  1  0.11693000  0.69527000  0.51834000  1.0
  C  C108  1  0.17566000  0.75273000  0.59450000  1.0
  C  C109  1  0.12543000  0.62479000  0.48076000  1.0
  C  C110  1  0.24426000  0.74708000  0.63426000  1.0
  C  C111  1  0.25789000  0.68326000  0.58971000  1.0
  C  C112  1  0.42088000  0.96956000  0.14478000  1.0
  C  C113  1  0.19752000  0.62270000  0.51470000  1.0
  C  C114  1  0.17283000  0.94798000  0.03642000  1.0
  C  C115  1  0.10315000  0.91237000  0.96587000  1.0
  C  C116  1  0.50843000  0.95684000  0.76727000  1.0
  C  C117  1  0.03276000  0.85590000  0.95091000  1.0
  C  C118  1  0.03311000  0.83442000  0.01057000  1.0
  C  C119  1  0.10189000  0.87200000  0.08284000  1.0
  C  C120  1  0.17036000  0.92919000  0.09664000  1.0
  C  C121  1  0.90995000  0.88723000  0.04142000  1.0
  C  C122  1  0.87141000  0.93595000  0.04916000  1.0
  C  C123  1  0.87425000  0.81275000  0.97240000  1.0
  C  C124  1  0.55487000  0.82688000  0.03728000  1.0
  C  C125  1  0.79794000  0.91298000  0.98793000  1.0
  C  C126  1  0.76577000  0.84077000  0.91664000  1.0
  C  C127  1  0.45574000  0.19110000  0.95053000  1.0
  C  C128  1  0.80214000  0.79025000  0.90973000  1.0
  C  C129  1  0.26619000  0.96821000  0.97565000  1.0
  C  C130  1  0.24681000  0.99265000  0.03948000  1.0
  C  C131  1  0.05215000  0.71268000  0.48046000  1.0
  C  C132  1  0.03314000  0.70500000  0.40407000  1.0
  C  C133  1  0.97666000  0.72739000  0.37082000  1.0
  C  C134  1  0.93796000  0.75790000  0.41320000  1.0
  C  C135  1  0.95649000  0.76595000  0.48921000  1.0
  C  C136  1  0.01331000  0.74383000  0.52268000  1.0
  C  C137  1  0.33464000  0.68014000  0.62028000  1.0
  C  C138  1  0.74007000  0.98107000  0.07260000  1.0
  C  C139  1  0.34106000  0.61874000  0.63519000  1.0
  C  C140  1  0.41422000  0.61803000  0.66575000  1.0
  C  C141  1  0.48181000  0.67826000  0.68095000  1.0
  C  C142  1  0.47573000  0.73895000  0.66488000  1.0
  C  C143  1  0.40284000  0.74010000  0.63500000  1.0
  C  C144  1  0.58544000  0.93086000  0.23820000  1.0
  C  C145  1  0.56270000  0.86074000  0.24286000  1.0
  C  C146  1  0.61922000  0.84022000  0.27963000  1.0
  C  C147  1  0.69919000  0.88913000  0.31242000  1.0
  C  C148  1  0.72241000  0.95912000  0.30847000  1.0
  C  C149  1  0.69411000  0.96708000  0.95141000  1.0
  C  C150  1  0.66614000  0.98006000  0.27199000  1.0
  C  C151  1  0.96460000  0.81891000  0.87167000  1.0
  C  C152  1  0.92564000  0.73641000  0.82098000  1.0
  C  C153  1  0.86457000  0.70362000  0.74493000  1.0
  C  C154  1  0.84126000  0.75250000  0.71824000  1.0
  C  C155  1  0.87961000  0.83462000  0.76816000  1.0
  C  C156  1  0.94082000  0.86750000  0.84416000  1.0
  N  N157  1  0.37055000  0.07516000  0.07593000  1.0
  N  N158  1  0.06391000  0.55210000  0.41628000  1.0
  N  N159  1  0.97125000  0.76574000  0.99453000  1.0
  N  N160  1  0.52735000  0.85107000  0.93755000  1.0
  N  N161  1  0.90041000  0.75315000  0.96959000  1.0
  N  N162  1  0.34379000  0.91553000  0.83653000  1.0
  N  N163  1  0.54188000  0.99539000  0.16242000  1.0
  N  N164  1  0.38817000  0.87557000  0.84872000  1.0
  N  N165  1  0.47727000  0.00662000  0.12966000  1.0
  N  N166  1  0.53867000  0.87832000  0.01487000  1.0
  N  N167  1  0.33999000  0.01733000  0.99805000  1.0
  N  N168  1  0.51596000  0.98284000  0.84221000  1.0
  N  N169  1  0.60226000  0.16634000  0.18857000  1.0
  N  N170  1  0.43655000  0.13642000  0.97273000  1.0
  N  N171  1  0.68222000  0.00474000  0.06222000  1.0
  N  N172  1  0.65314000  0.99666000  0.98734000  1.0
  N  N173  1  0.49831000  0.15758000  0.04263000  1.0
  N  N174  1  0.63542000  0.12618000  0.14755000  1.0
  N  N175  1  0.48187000  0.03374000  0.85816000  1.0
  N  N176  1  0.99708000  0.54752000  0.41176000  1.0
  F  F177  1  0.52622000  0.57963000  0.07274000  1.0
  F  F178  1  0.74976000  0.62582000  0.05507000  1.0
  F  F179  1  0.86724000  0.26854000  0.21353000  1.0
