# generated using pymatgen
data_CuH15C16(N3O)4
_symmetry_space_group_name_H-M   'P 1'
_cell_length_a   8.20763000
_cell_length_b   10.86180000
_cell_length_c   12.16920000
_cell_angle_alpha   80.60320000
_cell_angle_beta   80.11910000
_cell_angle_gamma   87.36600000
_symmetry_Int_Tables_number   1
_chemical_formula_structural   CuH15C16(N3O)4
_chemical_formula_sum   'Cu2 H30 C32 N24 O8'
_cell_volume   1054.26591581
_cell_formula_units_Z   2
loop_
 _symmetry_equiv_pos_site_id
 _symmetry_equiv_pos_as_xyz
  1  'x, y, z'
loop_
 _atom_site_type_symbol
 _atom_site_label
 _atom_site_symmetry_multiplicity
 _atom_site_fract_x
 _atom_site_fract_y
 _atom_site_fract_z
 _atom_site_occupancy
  Cu  Cu0  1  0.28499000  0.52451000  0.08394000  1.0
  Cu  Cu1  1  0.71501000  0.47549000  0.91607000  1.0
  H  H2  1  0.10212000  0.31552000  0.27788000  1.0
  H  H3  1  0.89788000  0.68447000  0.72212000  1.0
  H  H4  1  0.84366000  0.19116000  0.28624000  1.0
  H  H5  1  0.15633000  0.80882000  0.71376000  1.0
  H  H6  1  0.66843000  0.25580000  0.13505000  1.0
  H  H7  1  0.33155000  0.74420000  0.86495000  1.0
  H  H8  1  0.52801000  0.16897000  0.35586000  1.0
  H  H9  1  0.47199000  0.83103000  0.64413000  1.0
  H  H10  1  0.46418000  0.09166000  0.49760000  1.0
  H  H11  1  0.53583000  0.90835000  0.50240000  1.0
  H  H12  1  0.64989000  0.17871000  0.46450000  1.0
  H  H13  1  0.35012000  0.82129000  0.53549000  1.0
  H  H14  1  0.15939000  0.35053000  0.77207000  1.0
  H  H15  1  0.84062000  0.64947000  0.22792000  1.0
  H  H16  1  0.21675000  0.51138000  0.73467000  1.0
  H  H17  1  0.78326000  0.48861000  0.26533000  1.0
  H  H18  1  0.36852000  0.39332000  0.76771000  1.0
  H  H19  1  0.63149000  0.60668000  0.23229000  1.0
  H  H20  1  0.17051000  0.94757000  0.94621000  1.0
  H  H21  1  0.82949000  0.05242000  0.05379000  1.0
  H  H22  1  0.12595000  0.07804000  0.84357000  1.0
  H  H23  1  0.87405000  0.92196000  0.15644000  1.0
  H  H24  1  0.10915000  0.09579000  0.98792000  1.0
  H  H25  1  0.89085000  0.90421000  0.01208000  1.0
  H  H26  1  0.87806000  0.02319000  0.76261000  1.0
  H  H27  1  0.12194000  0.97682000  0.23739000  1.0
  H  H28  1  0.73451000  0.00197000  0.67161000  1.0
  H  H29  1  0.26549000  0.99804000  0.32839000  1.0
  H  H30  1  0.74472000  0.88963000  0.79519000  1.0
  H  H31  1  0.25529000  0.11038000  0.20480000  1.0
  C  C32  1  0.02329000  0.33422000  0.21337000  1.0
  C  C33  1  0.97671000  0.66576000  0.78663000  1.0
  C  C34  1  0.88114000  0.26695000  0.21758000  1.0
  C  C35  1  0.11887000  0.73305000  0.78242000  1.0
  C  C36  1  0.78404000  0.30185000  0.13376000  1.0
  C  C37  1  0.21595000  0.69815000  0.86624000  1.0
  C  C38  1  0.97290000  0.45149000  0.04790000  1.0
  C  C39  1  0.02710000  0.54850000  0.95210000  1.0
  C  C40  1  0.38005000  0.37485000  0.39101000  1.0
  C  C41  1  0.61994000  0.62515000  0.60899000  1.0
  C  C42  1  0.52440000  0.17415000  0.44528000  1.0
  C  C43  1  0.47561000  0.82586000  0.55471000  1.0
  C  C44  1  0.38447000  0.29753000  0.58488000  1.0
  C  C45  1  0.61554000  0.70247000  0.41511000  1.0
  C  C46  1  0.25761000  0.41543000  0.72926000  1.0
  C  C47  1  0.74240000  0.58457000  0.27074000  1.0
  C  C48  1  0.24482000  0.50646000  0.53118000  1.0
  C  C49  1  0.75517000  0.49354000  0.46883000  1.0
  C  C50  1  0.29092000  0.48270000  0.41669000  1.0
  C  C51  1  0.70909000  0.51730000  0.58331000  1.0
  C  C52  1  0.39108000  0.19363000  0.93690000  1.0
  C  C53  1  0.60892000  0.80638000  0.06310000  1.0
  C  C54  1  0.17832000  0.04874000  0.92110000  1.0
  C  C55  1  0.82167000  0.95125000  0.07890000  1.0
  C  C56  1  0.47063000  0.02078000  0.84184000  1.0
  C  C57  1  0.52938000  0.97922000  0.15816000  1.0
  C  C58  1  0.75602000  0.98885000  0.75945000  1.0
  C  C59  1  0.24398000  0.01116000  0.24054000  1.0
  C  C60  1  0.68907000  0.16881000  0.86053000  1.0
  C  C61  1  0.31093000  0.83120000  0.13947000  1.0
  C  C62  1  0.55179000  0.23707000  0.91410000  1.0
  C  C63  1  0.44821000  0.76293000  0.08590000  1.0
  N  N64  1  0.06805000  0.42728000  0.12783000  1.0
  N  N65  1  0.93194000  0.57271000  0.87217000  1.0
  N  N66  1  0.83187000  0.39489000  0.04834000  1.0
  N  N67  1  0.16813000  0.60512000  0.95165000  1.0
  N  N68  1  0.25932000  0.54973000  0.31782000  1.0
  N  N69  1  0.74067000  0.45026000  0.68218000  1.0
  N  N70  1  0.32777000  0.48359000  0.23972000  1.0
  N  N71  1  0.67222000  0.51641000  0.76029000  1.0
  N  N72  1  0.40393000  0.37519000  0.27882000  1.0
  N  N73  1  0.59607000  0.62481000  0.72118000  1.0
  N  N74  1  0.42928000  0.28496000  0.47223000  1.0
  N  N75  1  0.57073000  0.71504000  0.52777000  1.0
  N  N76  1  0.29678000  0.40658000  0.60926000  1.0
  N  N77  1  0.70323000  0.59342000  0.39074000  1.0
  N  N78  1  0.54436000  0.34662000  0.95527000  1.0
  N  N79  1  0.45564000  0.65338000  0.04473000  1.0
  N  N80  1  0.38797000  0.36693000  0.00048000  1.0
  N  N81  1  0.61202000  0.63306000  0.99953000  1.0
  N  N82  1  0.29029000  0.27371000  0.99169000  1.0
  N  N83  1  0.70969000  0.72628000  0.00831000  1.0
  N  N84  1  0.35026000  0.08540000  0.90527000  1.0
  N  N85  1  0.64974000  0.91460000  0.09473000  1.0
  N  N86  1  0.63407000  0.06208000  0.82516000  1.0
  N  N87  1  0.36593000  0.93792000  0.17485000  1.0
  O  O88  1  0.42048000  0.21609000  0.66084000  1.0
  O  O89  1  0.57953000  0.78392000  0.33916000  1.0
  O  O90  1  0.17077000  0.59937000  0.56329000  1.0
  O  O91  1  0.82923000  0.40063000  0.43671000  1.0
  O  O92  1  0.43675000  0.92758000  0.80442000  1.0
  O  O93  1  0.56325000  0.07242000  0.19558000  1.0
  O  O94  1  0.83703000  0.19393000  0.84824000  1.0
  O  O95  1  0.16296000  0.80607000  0.15176000  1.0
