# generated using pymatgen
data_CuH8C12(NO2)2
_symmetry_space_group_name_H-M   'P 1'
_cell_length_a   9.32094000
_cell_length_b   11.81570000
_cell_length_c   11.87684945
_cell_angle_alpha   90.00000000
_cell_angle_beta   111.82215557
_cell_angle_gamma   90.00000000
_symmetry_Int_Tables_number   1
_chemical_formula_structural   CuH8C12(NO2)2
_chemical_formula_sum   'Cu4 H32 C48 N8 O16'
_cell_volume   1214.30697839
_cell_formula_units_Z   4
loop_
 _symmetry_equiv_pos_site_id
 _symmetry_equiv_pos_as_xyz
  1  'x, y, z'
loop_
 _atom_site_type_symbol
 _atom_site_label
 _atom_site_symmetry_multiplicity
 _atom_site_fract_x
 _atom_site_fract_y
 _atom_site_fract_z
 _atom_site_occupancy
  Cu  Cu0  1  0.36238000  0.64184000  0.01547000  1.0
  Cu  Cu1  1  0.13761000  0.14184000  0.48452000  1.0
  Cu  Cu2  1  0.63760000  0.35816000  0.98452000  1.0
  Cu  Cu3  1  0.86239000  0.85816000  0.51548000  1.0
  H  H4  1  0.98618000  0.08002000  0.23757000  1.0
  H  H5  1  0.51381000  0.58003000  0.26243000  1.0
  H  H6  1  0.01381000  0.91997000  0.76243000  1.0
  H  H7  1  0.48618000  0.41998000  0.73757000  1.0
  H  H8  1  0.01172000  0.93689000  0.08893000  1.0
  H  H9  1  0.48827000  0.43690000  0.41107000  1.0
  H  H10  1  0.98827000  0.06310000  0.91107000  1.0
  H  H11  1  0.51172000  0.56310000  0.58893000  1.0
  H  H12  1  0.42570000  0.81618000  0.37347000  1.0
  H  H13  1  0.07428000  0.31619000  0.12653000  1.0
  H  H14  1  0.57429000  0.18382000  0.62653000  1.0
  H  H15  1  0.92570000  0.68382000  0.87347000  1.0
  H  H16  1  0.37497000  0.95524000  0.51212000  1.0
  H  H17  1  0.12501000  0.45525000  0.98788000  1.0
  H  H18  1  0.62501000  0.04476000  0.48787000  1.0
  H  H19  1  0.87499000  0.54476000  0.01213000  1.0
  H  H20  1  0.70678000  0.72700000  0.28949000  1.0
  H  H21  1  0.79322000  0.22701000  0.21051000  1.0
  H  H22  1  0.29323000  0.27300000  0.71051000  1.0
  H  H23  1  0.20677000  0.77300000  0.78949000  1.0
  H  H24  1  0.01702000  0.45415000  0.29576000  1.0
  H  H25  1  0.48299000  0.95416000  0.20424000  1.0
  H  H26  1  0.98299000  0.54584000  0.70425000  1.0
  H  H27  1  0.51701000  0.04584000  0.79575000  1.0
  H  H28  1  0.21639000  0.54656000  0.48019000  1.0
  H  H29  1  0.28362000  0.04657000  0.01981000  1.0
  H  H30  1  0.78362000  0.45343000  0.51981000  1.0
  H  H31  1  0.71639000  0.95343000  0.98019000  1.0
  H  H32  1  0.13965000  0.72207000  0.56383000  1.0
  H  H33  1  0.36036000  0.22207000  0.93617000  1.0
  H  H34  1  0.86036000  0.27793000  0.43618000  1.0
  H  H35  1  0.63965000  0.77793000  0.06382000  1.0
  C  C36  1  0.07831000  0.01752000  0.26418000  1.0
  C  C37  1  0.42167000  0.51753000  0.23581000  1.0
  C  C38  1  0.92168000  0.98247000  0.73582000  1.0
  C  C39  1  0.57833000  0.48248000  0.76419000  1.0
  C  C40  1  0.09447000  0.94005000  0.18210000  1.0
  C  C41  1  0.40552000  0.44005000  0.31790000  1.0
  C  C42  1  0.90552000  0.05995000  0.81790000  1.0
  C  C43  1  0.59449000  0.55995000  0.68211000  1.0
  C  C44  1  0.22077000  0.86640000  0.21917000  1.0
  C  C45  1  0.27923000  0.36640000  0.28083000  1.0
  C  C46  1  0.77922000  0.13360000  0.78083000  1.0
  C  C47  1  0.72077000  0.63360000  0.71917000  1.0
  C  C48  1  0.32471000  0.87117000  0.33963000  1.0
  C  C49  1  0.17528000  0.37118000  0.16037000  1.0
  C  C50  1  0.67527000  0.12883000  0.66036000  1.0
  C  C51  1  0.82473000  0.62883000  0.83964000  1.0
  C  C52  1  0.29761000  0.94903000  0.41749000  1.0
  C  C53  1  0.20238000  0.44904000  0.08251000  1.0
  C  C54  1  0.70239000  0.05097000  0.58251000  1.0
  C  C55  1  0.79761000  0.55097000  0.91749000  1.0
  C  C56  1  0.24217000  0.78782000  0.12668000  1.0
  C  C57  1  0.25783000  0.28783000  0.37331000  1.0
  C  C58  1  0.75782000  0.21217000  0.87331000  1.0
  C  C59  1  0.74218000  0.71217000  0.62669000  1.0
  C  C60  1  0.81736000  0.68335000  0.32952000  1.0
  C  C61  1  0.68265000  0.18336000  0.17049000  1.0
  C  C62  1  0.18266000  0.31665000  0.67049000  1.0
  C  C63  1  0.31736000  0.81665000  0.82952000  1.0
  C  C64  1  0.84878000  0.58430000  0.27833000  1.0
  C  C65  1  0.65122000  0.08431000  0.22167000  1.0
  C  C66  1  0.15123000  0.41570000  0.72167000  1.0
  C  C67  1  0.34878000  0.91569000  0.77833000  1.0
  C  C68  1  0.99319000  0.53282000  0.33324000  1.0
  C  C69  1  0.50681000  0.03283000  0.16675000  1.0
  C  C70  1  0.00682000  0.46718000  0.66676000  1.0
  C  C71  1  0.49318000  0.96718000  0.83324000  1.0
  C  C72  1  0.10187000  0.58309000  0.43531000  1.0
  C  C73  1  0.39813000  0.08309000  0.06469000  1.0
  C  C74  1  0.89814000  0.41691000  0.56469000  1.0
  C  C75  1  0.60186000  0.91691000  0.93530000  1.0
  C  C76  1  0.06126000  0.68011000  0.48272000  1.0
  C  C77  1  0.43874000  0.18011000  0.01728000  1.0
  C  C78  1  0.93875000  0.31989000  0.51728000  1.0
  C  C79  1  0.56126000  0.81989000  0.98272000  1.0
  C  C80  1  0.72972000  0.53687000  0.16420000  1.0
  C  C81  1  0.77030000  0.03688000  0.33581000  1.0
  C  C82  1  0.27030000  0.46312000  0.83581000  1.0
  C  C83  1  0.22970000  0.96311000  0.66419000  1.0
  N  N84  1  0.17758000  0.02138000  0.38054000  1.0
  N  N85  1  0.32241000  0.52139000  0.11946000  1.0
  N  N86  1  0.82242000  0.97862000  0.61946000  1.0
  N  N87  1  0.67758000  0.47862000  0.88054000  1.0
  N  N88  1  0.92105000  0.72880000  0.43071000  1.0
  N  N89  1  0.57895000  0.22880000  0.06930000  1.0
  N  N90  1  0.07896000  0.27120000  0.56930000  1.0
  N  N91  1  0.42104000  0.77120000  0.93070000  1.0
  O  O92  1  0.12899000  0.76573000  0.03172000  1.0
  O  O93  1  0.37102000  0.26574000  0.46828000  1.0
  O  O94  1  0.87101000  0.23427000  0.96828000  1.0
  O  O95  1  0.62899000  0.73427000  0.53172000  1.0
  O  O96  1  0.38131000  0.75042000  0.15309000  1.0
  O  O97  1  0.11870000  0.25042000  0.34691000  1.0
  O  O98  1  0.61869000  0.24958000  0.84691000  1.0
  O  O99  1  0.88131000  0.74958000  0.65309000  1.0
  O  O100  1  0.62424000  0.60112000  0.09966000  1.0
  O  O101  1  0.87576000  0.10112000  0.40034000  1.0
  O  O102  1  0.37576000  0.39889000  0.90034000  1.0
  O  O103  1  0.12425000  0.89888000  0.59966000  1.0
  O  O104  1  0.75079000  0.43301000  0.14175000  1.0
  O  O105  1  0.74922000  0.93301000  0.35825000  1.0
  O  O106  1  0.24922000  0.56699000  0.85825000  1.0
  O  O107  1  0.25078000  0.06699000  0.64175000  1.0
