# generated using pymatgen
data_SmH14C15(NO4)2
_symmetry_space_group_name_H-M   'P 1'
_cell_length_a   8.64977000
_cell_length_b   10.11590000
_cell_length_c   11.02910000
_cell_angle_alpha   65.80370000
_cell_angle_beta   68.88570000
_cell_angle_gamma   77.82650000
_symmetry_Int_Tables_number   1
_chemical_formula_structural   SmH14C15(NO4)2
_chemical_formula_sum   'Sm2 H28 C30 N4 O16'
_cell_volume   818.89779445
_cell_formula_units_Z   2
loop_
 _symmetry_equiv_pos_site_id
 _symmetry_equiv_pos_as_xyz
  1  'x, y, z'
loop_
 _atom_site_type_symbol
 _atom_site_label
 _atom_site_symmetry_multiplicity
 _atom_site_fract_x
 _atom_site_fract_y
 _atom_site_fract_z
 _atom_site_occupancy
  Sm  Sm0  1  0.65539000  0.43634000  0.13475000  1.0
  Sm  Sm1  1  0.34461000  0.56366000  0.86526000  1.0
  H  H2  1  0.92251000  0.60379000  0.86638000  1.0
  H  H3  1  0.07749000  0.39620000  0.13362000  1.0
  H  H4  1  0.76314000  0.58919000  0.82933000  1.0
  H  H5  1  0.23687000  0.41081000  0.17067000  1.0
  H  H6  1  0.22103000  0.64383000  0.47035000  1.0
  H  H7  1  0.77897000  0.35617000  0.52965000  1.0
  H  H8  1  0.07257000  0.31603000  0.38995000  1.0
  H  H9  1  0.92743000  0.68397000  0.61005000  1.0
  H  H10  1  0.70218000  0.79263000  0.96897000  1.0
  H  H11  1  0.29782000  0.20738000  0.03102000  1.0
  H  H12  1  0.20377000  0.99394000  0.02601000  1.0
  H  H13  1  0.79623000  0.00607000  0.97398000  1.0
  H  H14  1  0.16093000  0.13086000  0.25389000  1.0
  H  H15  1  0.83907000  0.86914000  0.74611000  1.0
  H  H16  1  0.69389000  0.05448000  0.58055000  1.0
  H  H17  1  0.30611000  0.94552000  0.41945000  1.0
  H  H18  1  0.68321000  0.81899000  0.43980000  1.0
  H  H19  1  0.31679000  0.18102000  0.56020000  1.0
  H  H20  1  0.62182000  0.93285000  0.28926000  1.0
  H  H21  1  0.37819000  0.06715000  0.71074000  1.0
  H  H22  1  0.90387000  0.97941000  0.17556000  1.0
  H  H23  1  0.09613000  0.02059000  0.82444000  1.0
  H  H24  1  0.97144000  0.82576000  0.30555000  1.0
  H  H25  1  0.02857000  0.17423000  0.69445000  1.0
  H  H26  1  0.56701000  0.66557000  0.34896000  1.0
  H  H27  1  0.43299000  0.33444000  0.65104000  1.0
  H  H28  1  0.03438000  0.75969000  0.08814000  1.0
  H  H29  1  0.96562000  0.24031000  0.91186000  1.0
  C  C30  1  0.33654000  0.45685000  0.33297000  1.0
  C  C31  1  0.66347000  0.54316000  0.66702000  1.0
  C  C32  1  0.16342000  0.47873000  0.42033000  1.0
  C  C33  1  0.83658000  0.52127000  0.57967000  1.0
  C  C34  1  0.12359000  0.58168000  0.48353000  1.0
  C  C35  1  0.87641000  0.41832000  0.51647000  1.0
  C  C36  1  0.03926000  0.39727000  0.43764000  1.0
  C  C37  1  0.96074000  0.60273000  0.56237000  1.0
  C  C38  1  0.39352000  0.75698000  0.98567000  1.0
  C  C39  1  0.60648000  0.24303000  0.01433000  1.0
  C  C40  1  0.44727000  0.88026000  0.99752000  1.0
  C  C41  1  0.55272000  0.11975000  0.00248000  1.0
  C  C42  1  0.61436000  0.88384000  0.98242000  1.0
  C  C43  1  0.38564000  0.11617000  0.01758000  1.0
  C  C44  1  0.33315000  0.99673000  0.01534000  1.0
  C  C45  1  0.66685000  0.00328000  0.98466000  1.0
  C  C46  1  0.83173000  0.21763000  0.31099000  1.0
  C  C47  1  0.16826000  0.78237000  0.68902000  1.0
  C  C48  1  0.91879000  0.10384000  0.40770000  1.0
  C  C49  1  0.08121000  0.89616000  0.59230000  1.0
  C  C50  1  0.09124000  0.07299000  0.36178000  1.0
  C  C51  1  0.90877000  0.92700000  0.63822000  1.0
  C  C52  1  0.82787000  0.02989000  0.54661000  1.0
  C  C53  1  0.17213000  0.97012000  0.45339000  1.0
  C  C54  1  0.80005000  0.68420000  0.20469000  1.0
  C  C55  1  0.19995000  0.31580000  0.79531000  1.0
  C  C56  1  0.70444000  0.83856000  0.32974000  1.0
  C  C57  1  0.29557000  0.16144000  0.67026000  1.0
  C  C58  1  0.88863000  0.86385000  0.24008000  1.0
  C  C59  1  0.11138000  0.13615000  0.75992000  1.0
  N  N60  1  0.67734000  0.71079000  0.31198000  1.0
  N  N61  1  0.32267000  0.28921000  0.68802000  1.0
  N  N62  1  0.92105000  0.77618000  0.15475000  1.0
  N  N63  1  0.07896000  0.22382000  0.84525000  1.0
  O  O64  1  0.36574000  0.36970000  0.26721000  1.0
  O  O65  1  0.63426000  0.63031000  0.73278000  1.0
  O  O66  1  0.82452000  0.54700000  0.89957000  1.0
  O  O67  1  0.17548000  0.45299000  0.10043000  1.0
  O  O68  1  0.45243000  0.52527000  0.32034000  1.0
  O  O69  1  0.54757000  0.47473000  0.67966000  1.0
  O  O70  1  0.47666000  0.63326000  0.01207000  1.0
  O  O71  1  0.52334000  0.36675000  0.98793000  1.0
  O  O72  1  0.26943000  0.77832000  0.94166000  1.0
  O  O73  1  0.73057000  0.22168000  0.05834000  1.0
  O  O74  1  0.67376000  0.23719000  0.35276000  1.0
  O  O75  1  0.32623000  0.76280000  0.64724000  1.0
  O  O76  1  0.91672000  0.29461000  0.18768000  1.0
  O  O77  1  0.08328000  0.70540000  0.81232000  1.0
  O  O78  1  0.80245000  0.59028000  0.15611000  1.0
  O  O79  1  0.19755000  0.40971000  0.84389000  1.0
