# generated using pymatgen
data_CdH16C19N2(ClO2)2
_symmetry_space_group_name_H-M   'P 1'
_cell_length_a   7.88504000
_cell_length_b   10.67430000
_cell_length_c   13.03110000
_cell_angle_alpha   111.53000000
_cell_angle_beta   93.20260000
_cell_angle_gamma   97.85700000
_symmetry_Int_Tables_number   1
_chemical_formula_structural   CdH16C19N2(ClO2)2
_chemical_formula_sum   'Cd2 H32 C38 N4 Cl4 O8'
_cell_volume   1003.97289893
_cell_formula_units_Z   2
loop_
 _symmetry_equiv_pos_site_id
 _symmetry_equiv_pos_as_xyz
  1  'x, y, z'
loop_
 _atom_site_type_symbol
 _atom_site_label
 _atom_site_symmetry_multiplicity
 _atom_site_fract_x
 _atom_site_fract_y
 _atom_site_fract_z
 _atom_site_occupancy
  Cd  Cd0  1  0.26410000  0.98935000  0.99994000  1.0
  Cd  Cd1  1  0.73589000  0.01065000  0.00006000  1.0
  H  H2  1  0.33800000  0.49790000  0.97162000  1.0
  H  H3  1  0.66200000  0.50209000  0.02839000  1.0
  H  H4  1  0.18425000  0.86021000  0.70546000  1.0
  H  H5  1  0.81575000  0.13979000  0.29454000  1.0
  H  H6  1  0.64883000  0.83727000  0.73288000  1.0
  H  H7  1  0.35115000  0.16272000  0.26712000  1.0
  H  H8  1  0.93230000  0.20620000  0.75365000  1.0
  H  H9  1  0.06770000  0.79381000  0.24636000  1.0
  H  H10  1  0.34239000  0.49884000  0.77547000  1.0
  H  H11  1  0.65760000  0.50115000  0.22452000  1.0
  H  H12  1  0.60531000  0.25854000  0.92169000  1.0
  H  H13  1  0.39469000  0.74146000  0.07831000  1.0
  H  H14  1  0.47573000  0.27864000  0.81479000  1.0
  H  H15  1  0.52428000  0.72137000  0.18522000  1.0
  H  H16  1  0.44699000  0.12088000  0.83459000  1.0
  H  H17  1  0.55302000  0.87912000  0.16541000  1.0
  H  H18  1  0.94351000  0.46539000  0.13771000  1.0
  H  H19  1  0.05650000  0.53461000  0.86229000  1.0
  H  H20  1  0.07425000  0.59302000  0.10493000  1.0
  H  H21  1  0.92576000  0.40698000  0.89507000  1.0
  H  H22  1  0.13753000  0.55817000  0.22363000  1.0
  H  H23  1  0.86248000  0.44183000  0.77638000  1.0
  H  H24  1  0.49989000  0.33686000  0.63886000  1.0
  H  H25  1  0.50011000  0.66313000  0.36112000  1.0
  H  H26  1  0.80779000  0.67693000  0.59696000  1.0
  H  H27  1  0.19220000  0.32308000  0.40303000  1.0
  H  H28  1  0.33198000  0.90292000  0.55352000  1.0
  H  H29  1  0.66802000  0.09709000  0.44649000  1.0
  H  H30  1  0.08405000  0.25377000  0.60482000  1.0
  H  H31  1  0.91595000  0.74624000  0.39519000  1.0
  H  H32  1  0.07822000  0.23524000  0.11070000  1.0
  H  H33  1  0.92178000  0.76475000  0.88929000  1.0
  C  C34  1  0.04998000  0.03126000  0.73893000  1.0
  C  C35  1  0.95003000  0.96875000  0.26107000  1.0
  C  C36  1  0.48708000  0.67814000  0.76317000  1.0
  C  C37  1  0.51291000  0.32185000  0.23683000  1.0
  C  C38  1  0.34565000  0.28268000  0.95524000  1.0
  C  C39  1  0.65435000  0.71732000  0.04476000  1.0
  C  C40  1  0.29409000  0.41186000  0.99433000  1.0
  C  C41  1  0.70591000  0.58814000  0.00567000  1.0
  C  C42  1  0.39832000  0.77504000  0.84794000  1.0
  C  C43  1  0.60168000  0.22495000  0.15206000  1.0
  C  C44  1  0.96128000  0.00455000  0.82866000  1.0
  C  C45  1  0.03872000  0.99545000  0.17135000  1.0
  C  C46  1  0.17351000  0.40732000  0.06793000  1.0
  C  C47  1  0.82649000  0.59268000  0.93207000  1.0
  C  C48  1  0.66351000  0.49862000  0.61196000  1.0
  C  C49  1  0.33648000  0.50139000  0.38804000  1.0
  C  C50  1  0.16244000  0.94564000  0.68261000  1.0
  C  C51  1  0.83756000  0.05437000  0.31740000  1.0
  C  C52  1  0.61717000  0.72750000  0.71191000  1.0
  C  C53  1  0.38282000  0.27250000  0.28809000  1.0
  C  C54  1  0.02177000  0.14167000  0.71025000  1.0
  C  C55  1  0.97823000  0.85833000  0.28975000  1.0
  C  C56  1  0.44457000  0.53698000  0.73614000  1.0
  C  C57  1  0.55543000  0.46302000  0.26385000  1.0
  C  C58  1  0.47470000  0.23228000  0.87726000  1.0
  C  C59  1  0.52531000  0.76772000  0.12275000  1.0
  C  C60  1  0.07654000  0.51172000  0.13712000  1.0
  C  C61  1  0.92347000  0.48828000  0.86288000  1.0
  C  C62  1  0.53232000  0.44662000  0.66063000  1.0
  C  C63  1  0.46767000  0.55338000  0.33936000  1.0
  C  C64  1  0.70626000  0.63852000  0.63641000  1.0
  C  C65  1  0.29373000  0.36148000  0.36359000  1.0
  C  C66  1  0.21690000  0.08071000  0.57201000  1.0
  C  C67  1  0.78310000  0.91929000  0.42799000  1.0
  C  C68  1  0.24558000  0.96942000  0.59845000  1.0
  C  C69  1  0.75443000  0.03059000  0.40155000  1.0
  C  C70  1  0.10590000  0.16810000  0.62743000  1.0
  C  C71  1  0.89410000  0.83191000  0.37257000  1.0
  N  N72  1  0.15682000  0.28047000  0.06936000  1.0
  N  N73  1  0.84319000  0.71953000  0.93063000  1.0
  N  N74  1  0.25946000  0.20328000  0.00214000  1.0
  N  N75  1  0.74054000  0.79672000  0.99786000  1.0
  Cl  Cl76  1  0.32029000  0.10912000  0.46679000  1.0
  Cl  Cl77  1  0.67970000  0.89089000  0.53321000  1.0
  Cl  Cl78  1  0.77682000  0.38769000  0.51982000  1.0
  Cl  Cl79  1  0.22318000  0.61232000  0.48017000  1.0
  O  O80  1  0.45769000  0.90534000  0.87871000  1.0
  O  O81  1  0.54231000  0.09465000  0.12130000  1.0
  O  O82  1  0.01132000  0.91838000  0.86575000  1.0
  O  O83  1  0.98868000  0.08162000  0.13425000  1.0
  O  O84  1  0.27159000  0.73240000  0.88782000  1.0
  O  O85  1  0.72840000  0.26759000  0.11217000  1.0
  O  O86  1  0.83776000  0.06868000  0.86420000  1.0
  O  O87  1  0.16225000  0.93132000  0.13581000  1.0
