# generated using pymatgen
data_UH8(CO)6
_symmetry_space_group_name_H-M   'P 1'
_cell_length_a   5.52293000
_cell_length_b   8.46872000
_cell_length_c   10.46600000
_cell_angle_alpha   95.79910000
_cell_angle_beta   98.64380000
_cell_angle_gamma   100.13970000
_symmetry_Int_Tables_number   1
_chemical_formula_structural   UH8(CO)6
_chemical_formula_sum   'U2 H16 C12 O12'
_cell_volume   472.29246159
_cell_formula_units_Z   2
loop_
 _symmetry_equiv_pos_site_id
 _symmetry_equiv_pos_as_xyz
  1  'x, y, z'
loop_
 _atom_site_type_symbol
 _atom_site_label
 _atom_site_symmetry_multiplicity
 _atom_site_fract_x
 _atom_site_fract_y
 _atom_site_fract_z
 _atom_site_occupancy
  U  U0  1  0.49147000  0.02033000  0.25582000  1.0
  U  U1  1  0.50854000  0.97966000  0.74420000  1.0
  H  H2  1  0.15797000  0.33561000  0.65698000  1.0
  H  H3  1  0.84201000  0.66437000  0.34303000  1.0
  H  H4  1  0.91170000  0.23181000  0.53896000  1.0
  H  H5  1  0.08827000  0.76818000  0.46104000  1.0
  H  H6  1  0.28441000  0.53491000  0.50678000  1.0
  H  H7  1  0.71564000  0.46508000  0.49325000  1.0
  H  H8  1  0.06531000  0.41683000  0.37551000  1.0
  H  H9  1  0.93474000  0.58317000  0.62449000  1.0
  H  H10  1  0.99260000  0.67574000  0.05424000  1.0
  H  H11  1  0.00738000  0.32426000  0.94573000  1.0
  H  H12  1  0.82690000  0.62683000  0.89159000  1.0
  H  H13  1  0.17308000  0.37319000  0.10839000  1.0
  H  H14  1  0.71296000  0.40763000  0.03224000  1.0
  H  H15  1  0.28703000  0.59236000  0.96775000  1.0
  H  H16  1  0.62580000  0.54888000  0.14319000  1.0
  H  H17  1  0.37417000  0.45114000  0.85677000  1.0
  C  C18  1  0.25622000  0.18673000  0.50636000  1.0
  C  C19  1  0.74379000  0.81327000  0.49365000  1.0
  C  C20  1  0.10188000  0.30459000  0.55070000  1.0
  C  C21  1  0.89811000  0.69539000  0.44930000  1.0
  C  C22  1  0.10005000  0.45407000  0.48134000  1.0
  C  C23  1  0.89995000  0.54591000  0.51867000  1.0
  C  C24  1  0.71677000  0.81161000  0.01076000  1.0
  C  C25  1  0.28322000  0.18840000  0.98924000  1.0
  C  C26  1  0.80563000  0.65393000  0.99379000  1.0
  C  C27  1  0.19435000  0.34607000  0.00619000  1.0
  C  C28  1  0.63225000  0.51721000  0.03934000  1.0
  C  C29  1  0.36776000  0.48280000  0.96064000  1.0
  O  O30  1  0.22855000  0.85948000  0.25630000  1.0
  O  O31  1  0.77145000  0.14052000  0.74375000  1.0
  O  O32  1  0.75048000  0.18159000  0.25026000  1.0
  O  O33  1  0.24953000  0.81842000  0.74975000  1.0
  O  O34  1  0.28776000  0.07328000  0.57633000  1.0
  O  O35  1  0.71228000  0.92674000  0.42369000  1.0
  O  O36  1  0.34589000  0.19673000  0.40182000  1.0
  O  O37  1  0.65410000  0.80326000  0.59819000  1.0
  O  O38  1  0.63277000  0.84665000  0.11428000  1.0
  O  O39  1  0.36713000  0.15333000  0.88569000  1.0
  O  O40  1  0.72751000  0.90473000  0.92231000  1.0
  O  O41  1  0.27259000  0.09531000  0.07769000  1.0
