# generated using pymatgen
data_AlH9C14N2O7
_symmetry_space_group_name_H-M   'P 1'
_cell_length_a   6.78415000
_cell_length_b   17.01350000
_cell_length_c   17.01360000
_cell_angle_alpha   86.48890000
_cell_angle_beta   81.74240000
_cell_angle_gamma   81.74250000
_symmetry_Int_Tables_number   1
_chemical_formula_structural   AlH9C14N2O7
_chemical_formula_sum   'Al2 H18 C28 N4 O14'
_cell_volume   1921.58428787
_cell_formula_units_Z   2
loop_
 _symmetry_equiv_pos_site_id
 _symmetry_equiv_pos_as_xyz
  1  'x, y, z'
loop_
 _atom_site_type_symbol
 _atom_site_label
 _atom_site_symmetry_multiplicity
 _atom_site_fract_x
 _atom_site_fract_y
 _atom_site_fract_z
 _atom_site_occupancy
  Al  Al0  1  0.49999000  0.50000000  0.50000000  1.0
  Al  Al1  1  0.99999000  0.50000000  0.50000000  1.0
  H  H2  1  0.75000000  0.42330000  0.57670000  1.0
  H  H3  1  0.25000000  0.57669000  0.42330000  1.0
  H  H4  1  0.34763000  0.74092000  0.50176000  1.0
  H  H5  1  0.29014000  0.88899000  0.49915000  1.0
  H  H6  1  0.92431000  0.89192000  0.49863000  1.0
  H  H7  1  0.07569000  0.10808000  0.50137000  1.0
  H  H8  1  0.70986000  0.11101000  0.50084000  1.0
  H  H9  1  0.65236000  0.25908000  0.49824000  1.0
  H  H10  1  0.84764000  0.50176000  0.74092000  1.0
  H  H11  1  0.79014000  0.49916000  0.88899000  1.0
  H  H12  1  0.42431000  0.49863000  0.89192000  1.0
  H  H13  1  0.57569000  0.50137000  0.10808000  1.0
  H  H14  1  0.20986000  0.50084000  0.11101000  1.0
  H  H15  1  0.15236000  0.49824000  0.25908000  1.0
  H  H16  1  0.01275000  0.68028000  0.50459000  1.0
  H  H17  1  0.98725000  0.31972000  0.49541000  1.0
  H  H18  1  0.51275000  0.50459000  0.68028000  1.0
  H  H19  1  0.48725000  0.49541000  0.31972000  1.0
  C  C20  1  0.19532000  0.50294000  0.64468000  1.0
  C  C21  1  0.30468000  0.35532000  0.49706000  1.0
  C  C22  1  0.80468000  0.49706000  0.35532000  1.0
  C  C23  1  0.69532000  0.64468000  0.50294000  1.0
  C  C24  1  0.66744000  0.73191000  0.50204000  1.0
  C  C25  1  0.47296000  0.77427000  0.50112000  1.0
  C  C26  1  0.43974000  0.85615000  0.49967000  1.0
  C  C27  1  0.60453000  0.89840000  0.49906000  1.0
  C  C28  1  0.79903000  0.85826000  0.49926000  1.0
  C  C29  1  0.83264000  0.77502000  0.50098000  1.0
  C  C30  1  0.20097000  0.14173000  0.50074000  1.0
  C  C31  1  0.39546000  0.10160000  0.50093000  1.0
  C  C32  1  0.56026000  0.14385000  0.50033000  1.0
  C  C33  1  0.52704000  0.22573000  0.49887000  1.0
  C  C34  1  0.33256000  0.26809000  0.49796000  1.0
  C  C35  1  0.16736000  0.22498000  0.49901000  1.0
  C  C36  1  0.16744000  0.50204000  0.73191000  1.0
  C  C37  1  0.97296000  0.50112000  0.77427000  1.0
  C  C38  1  0.93974000  0.49967000  0.85615000  1.0
  C  C39  1  0.10453000  0.49906000  0.89840000  1.0
  C  C40  1  0.29903000  0.49926000  0.85826000  1.0
  C  C41  1  0.33264000  0.50098000  0.77502000  1.0
  C  C42  1  0.70097000  0.50074000  0.14173000  1.0
  C  C43  1  0.89546000  0.50094000  0.10160000  1.0
  C  C44  1  0.06026000  0.50033000  0.14385000  1.0
  C  C45  1  0.02704000  0.49887000  0.22573000  1.0
  C  C46  1  0.83256000  0.49796000  0.26809000  1.0
  C  C47  1  0.66736000  0.49901000  0.22498000  1.0
  N  N48  1  0.58911000  0.98227000  0.49847000  1.0
  N  N49  1  0.41089000  0.01774000  0.50153000  1.0
  N  N50  1  0.08911000  0.49847000  0.98226000  1.0
  N  N51  1  0.91089000  0.50153000  0.01774000  1.0
  O  O52  1  0.37753000  0.50406000  0.60867000  1.0
  O  O53  1  0.12248000  0.39133000  0.49594000  1.0
  O  O54  1  0.95561000  0.49830000  0.39155000  1.0
  O  O55  1  0.54439000  0.60845000  0.50169000  1.0
  O  O56  1  0.62248000  0.49594000  0.39133000  1.0
  O  O57  1  0.87752000  0.60866000  0.50406000  1.0
  O  O58  1  0.04439000  0.50169000  0.60845000  1.0
  O  O59  1  0.45561000  0.39155000  0.49830000  1.0
  O  O60  1  0.75000000  0.46488000  0.53512000  1.0
  O  O61  1  0.25000000  0.53512000  0.46488000  1.0
  O  O62  1  0.02283000  0.73860000  0.50158000  1.0
  O  O63  1  0.97717000  0.26140000  0.49842000  1.0
  O  O64  1  0.52283000  0.50158000  0.73860000  1.0
  O  O65  1  0.47717000  0.49842000  0.26140000  1.0
