# generated using pymatgen
data_ZnH10C12(NO)4
_symmetry_space_group_name_H-M   'P 1'
_cell_length_a   17.21237802
_cell_length_b   17.21230000
_cell_length_c   17.21240000
_cell_angle_alpha   115.30100000
_cell_angle_beta   98.35221194
_cell_angle_gamma   115.30095365
_symmetry_Int_Tables_number   1
_chemical_formula_structural   ZnH10C12(NO)4
_chemical_formula_sum   'Zn8 H80 C96 N32 O32'
_cell_volume   3817.90729103
_cell_formula_units_Z   8
loop_
 _symmetry_equiv_pos_site_id
 _symmetry_equiv_pos_as_xyz
  1  'x, y, z'
loop_
 _atom_site_type_symbol
 _atom_site_label
 _atom_site_symmetry_multiplicity
 _atom_site_fract_x
 _atom_site_fract_y
 _atom_site_fract_z
 _atom_site_occupancy
  Zn  Zn0  1  0.15358000  0.93958000  0.53700000  1.0
  Zn  Zn1  1  0.03700000  0.88342000  0.09743000  1.0
  Zn  Zn2  1  0.21400000  0.61658000  0.65358000  1.0
  Zn  Zn3  1  0.59742000  0.56042000  0.71400000  1.0
  Zn  Zn4  1  0.84642000  0.06042000  0.46300000  1.0
  Zn  Zn5  1  0.96300000  0.11658000  0.90258000  1.0
  Zn  Zn6  1  0.78600000  0.38342000  0.34643000  1.0
  Zn  Zn7  1  0.40258000  0.43958000  0.28600000  1.0
  H  H8  1  0.02855000  0.91533000  0.35922000  1.0
  H  H9  1  0.85922000  0.83067000  0.94389000  1.0
  H  H10  1  0.11322000  0.66933000  0.52855000  1.0
  H  H11  1  0.44389000  0.58467000  0.61322000  1.0
  H  H12  1  0.97145000  0.08467000  0.64078000  1.0
  H  H13  1  0.14078000  0.16933000  0.05611000  1.0
  H  H14  1  0.88678000  0.33067000  0.47145000  1.0
  H  H15  1  0.55611000  0.41533000  0.38678000  1.0
  H  H16  1  0.31492000  0.12531000  0.53849000  1.0
  H  H17  1  0.03850000  0.72358000  0.91319000  1.0
  H  H18  1  0.18961000  0.77642000  0.81492000  1.0
  H  H19  1  0.41319000  0.37470000  0.68962000  1.0
  H  H20  1  0.68508000  0.87469000  0.46151000  1.0
  H  H21  1  0.96151000  0.27643000  0.08682000  1.0
  H  H22  1  0.81039000  0.22358000  0.18508000  1.0
  H  H23  1  0.58681000  0.62530000  0.31038000  1.0
  H  H24  1  0.36451000  0.24456000  0.46005000  1.0
  H  H25  1  0.96005000  0.59554000  0.71549000  1.0
  H  H26  1  0.11995000  0.90447000  0.86451000  1.0
  H  H27  1  0.21549000  0.25544000  0.61995000  1.0
  H  H28  1  0.63549000  0.75544000  0.53995000  1.0
  H  H29  1  0.03995000  0.40446000  0.28451000  1.0
  H  H30  1  0.88005000  0.09554000  0.13549000  1.0
  H  H31  1  0.78452000  0.74456000  0.38006000  1.0
  H  H32  1  0.19374000  0.18064000  0.30375000  1.0
  H  H33  1  0.80375000  0.61001000  0.62311000  1.0
  H  H34  1  0.01310000  0.88999000  0.69374000  1.0
  H  H35  1  0.12311000  0.31936000  0.51310000  1.0
  H  H36  1  0.80626000  0.81936000  0.69625000  1.0
  H  H37  1  0.19625000  0.38999000  0.37689000  1.0
  H  H38  1  0.98690000  0.11001000  0.30626000  1.0
  H  H39  1  0.87689000  0.68064000  0.48690000  1.0
  H  H40  1  0.11732000  0.11701000  0.64840000  1.0
  H  H41  1  0.14840000  0.03107000  0.03139000  1.0
  H  H42  1  0.00031000  0.46892000  0.61732000  1.0
  H  H43  1  0.53139000  0.38299000  0.50031000  1.0
  H  H44  1  0.88267000  0.88298000  0.35159000  1.0
  H  H45  1  0.85160000  0.96893000  0.96861000  1.0
  H  H46  1  0.99969000  0.53108000  0.38268000  1.0
  H  H47  1  0.46861000  0.61701000  0.49969000  1.0
  H  H48  1  0.28970000  0.03742000  0.75118000  1.0
  H  H49  1  0.25118000  0.96148000  0.21377000  1.0
  H  H50  1  0.25229000  0.53852000  0.78970000  1.0
  H  H51  1  0.71377000  0.46259000  0.75229000  1.0
  H  H52  1  0.71030000  0.96258000  0.24882000  1.0
  H  H53  1  0.74882000  0.03852000  0.78623000  1.0
  H  H54  1  0.74771000  0.46148000  0.21030000  1.0
  H  H55  1  0.28623000  0.53741000  0.24771000  1.0
  H  H56  1  0.33426000  0.16236000  0.94641000  1.0
  H  H57  1  0.44641000  0.11215000  0.28406000  1.0
  H  H58  1  0.17190000  0.38785000  0.83425000  1.0
  H  H59  1  0.78405000  0.33765000  0.67190000  1.0
  H  H60  1  0.66574000  0.83764000  0.05359000  1.0
  H  H61  1  0.55359000  0.88785000  0.71594000  1.0
  H  H62  1  0.82810000  0.61215000  0.16575000  1.0
  H  H63  1  0.21595000  0.66235000  0.32810000  1.0
  H  H64  1  0.25903000  0.30295000  0.98104000  1.0
  H  H65  1  0.48104000  0.22201000  0.17809000  1.0
  H  H66  1  0.95608000  0.27799000  0.75903000  1.0
  H  H67  1  0.67809000  0.19705000  0.45608000  1.0
  H  H68  1  0.74097000  0.69705000  0.01896000  1.0
  H  H69  1  0.51896000  0.77799000  0.82191000  1.0
  H  H70  1  0.04392000  0.72201000  0.24097000  1.0
  H  H71  1  0.32191000  0.80295000  0.54392000  1.0
  H  H72  1  0.09516000  0.03438000  0.30297000  1.0
  H  H73  1  0.80297000  0.70781000  0.76859000  1.0
  H  H74  1  0.06078000  0.79219000  0.59516000  1.0
  H  H75  1  0.26859000  0.46562000  0.56078000  1.0
  H  H76  1  0.90484000  0.96562000  0.69703000  1.0
  H  H77  1  0.19703000  0.29219000  0.23141000  1.0
  H  H78  1  0.93922000  0.20781000  0.40484000  1.0
  H  H79  1  0.73141000  0.53438000  0.43922000  1.0
  H  H80  1  0.16626000  0.21234000  0.82633000  1.0
  H  H81  1  0.32633000  0.16007000  0.11399000  1.0
  H  H82  1  0.95392000  0.33992000  0.66626000  1.0
  H  H83  1  0.61400000  0.28767000  0.45393000  1.0
  H  H84  1  0.83374000  0.78766000  0.17367000  1.0
  H  H85  1  0.67367000  0.83993000  0.88601000  1.0
  H  H86  1  0.04608000  0.66008000  0.33374000  1.0
  H  H87  1  0.38600000  0.71233000  0.54607000  1.0
  C  C88  1  0.10058000  0.97901000  0.39025000  1.0
  C  C89  1  0.89026000  0.78968000  0.91124000  1.0
  C  C90  1  0.12157000  0.71033000  0.60059000  1.0
  C  C91  1  0.41124000  0.52098000  0.62157000  1.0
  C  C92  1  0.89942000  0.02098000  0.60975000  1.0
  C  C93  1  0.10974000  0.21032000  0.08876000  1.0
  C  C94  1  0.87843000  0.28967000  0.39941000  1.0
  C  C95  1  0.58876000  0.47902000  0.37843000  1.0
  C  C96  1  0.24887000  0.08871000  0.48205000  1.0
  C  C97  1  0.98205000  0.73318000  0.89334000  1.0
  C  C98  1  0.16016000  0.76682000  0.74887000  1.0
  C  C99  1  0.39334000  0.41129000  0.66016000  1.0
  C  C100  1  0.75113000  0.91129000  0.51795000  1.0
  C  C101  1  0.01795000  0.26682000  0.10666000  1.0
  C  C102  1  0.83984000  0.23318000  0.25113000  1.0
  C  C103  1  0.60666000  0.58871000  0.33984000  1.0
  C  C104  1  0.22978000  0.11490000  0.41901000  1.0
  C  C105  1  0.91900000  0.68922000  0.80410000  1.0
  C  C106  1  0.11488000  0.81077000  0.72978000  1.0
  C  C107  1  0.30411000  0.38511000  0.61488000  1.0
  C  C108  1  0.77022000  0.88510000  0.58099000  1.0
  C  C109  1  0.08100000  0.31078000  0.19590000  1.0
  C  C110  1  0.88512000  0.18923000  0.27022000  1.0
  C  C111  1  0.69589000  0.61489000  0.38511000  1.0
  C  C112  1  0.29074000  0.19776000  0.41225000  1.0
  C  C113  1  0.91225000  0.62151000  0.71449000  1.0
  C  C114  1  0.09298000  0.87849000  0.79074000  1.0
  C  C115  1  0.21449000  0.30224000  0.59298000  1.0
  C  C116  1  0.70926000  0.80224000  0.58775000  1.0
  C  C117  1  0.08775000  0.37849000  0.28551000  1.0
  C  C118  1  0.90702000  0.12151000  0.20927000  1.0
  C  C119  1  0.78551000  0.69776000  0.40702000  1.0
  C  C120  1  0.26599000  0.22354000  0.35347000  1.0
  C  C121  1  0.85348000  0.58749000  0.62994000  1.0
  C  C122  1  0.04245000  0.91251000  0.76599000  1.0
  C  C123  1  0.12994000  0.27646000  0.54246000  1.0
  C  C124  1  0.73401000  0.77646000  0.64653000  1.0
  C  C125  1  0.14652000  0.41251000  0.37006000  1.0
  C  C126  1  0.95755000  0.08749000  0.23401000  1.0
  C  C127  1  0.87006000  0.72353000  0.45754000  1.0
  C  C128  1  0.33733000  0.31014000  0.35299000  1.0
  C  C129  1  0.85298000  0.51566000  0.54285000  1.0
  C  C130  1  0.02719000  0.98434000  0.83732000  1.0
  C  C131  1  0.04285000  0.18987000  0.52719000  1.0
  C  C132  1  0.66268000  0.68987000  0.64702000  1.0
  C  C133  1  0.14702000  0.48434000  0.45715000  1.0
  C  C134  1  0.97281000  0.01566000  0.16268000  1.0
  C  C135  1  0.95715000  0.81013000  0.47281000  1.0
  C  C136  1  0.16258000  0.11359000  0.69643000  1.0
  C  C137  1  0.19643000  0.03385000  0.08284000  1.0
  C  C138  1  0.04899000  0.46615000  0.66257000  1.0
  C  C139  1  0.58284000  0.38641000  0.54899000  1.0
  C  C140  1  0.83742000  0.88641000  0.30357000  1.0
  C  C141  1  0.80357000  0.96615000  0.91716000  1.0
  C  C142  1  0.95101000  0.53385000  0.33743000  1.0
  C  C143  1  0.41716000  0.61359000  0.45101000  1.0
  C  C144  1  0.25274000  0.07524000  0.75227000  1.0
  C  C145  1  0.25226000  0.99952000  0.17702000  1.0
  C  C146  1  0.17750000  0.50048000  0.75274000  1.0
  C  C147  1  0.67702000  0.42476000  0.67749000  1.0
  C  C148  1  0.74726000  0.92476000  0.24773000  1.0
  C  C149  1  0.74774000  0.00047000  0.82298000  1.0
  C  C150  1  0.82250000  0.49953000  0.24726000  1.0
  C  C151  1  0.32298000  0.57524000  0.32251000  1.0
  C  C152  1  0.25008000  0.14695000  0.82854000  1.0
  C  C153  1  0.32855000  0.07847000  0.18160000  1.0
  C  C154  1  0.10313000  0.42153000  0.75008000  1.0
  C  C155  1  0.68160000  0.35305000  0.60314000  1.0
  C  C156  1  0.74992000  0.85305000  0.17146000  1.0
  C  C157  1  0.67145000  0.92153000  0.81840000  1.0
  C  C158  1  0.89687000  0.57847000  0.24992000  1.0
  C  C159  1  0.31840000  0.64695000  0.39686000  1.0
  C  C160  1  0.29556000  0.19237000  0.92717000  1.0
  C  C161  1  0.42717000  0.13161000  0.23481000  1.0
  C  C162  1  0.10320000  0.36840000  0.79556000  1.0
  C  C163  1  0.73480000  0.30763000  0.60319000  1.0
  C  C164  1  0.70444000  0.80763000  0.07283000  1.0
  C  C165  1  0.57283000  0.86839000  0.76519000  1.0
  C  C166  1  0.89680000  0.63160000  0.20444000  1.0
  C  C167  1  0.26520000  0.69237000  0.39681000  1.0
  C  C168  1  0.29505000  0.26893000  0.99621000  1.0
  C  C169  1  0.49621000  0.20116000  0.22729000  1.0
  C  C170  1  0.02612000  0.29884000  0.79504000  1.0
  C  C171  1  0.72728000  0.23107000  0.52612000  1.0
  C  C172  1  0.70495000  0.73107000  0.00379000  1.0
  C  C173  1  0.50379000  0.79884000  0.77271000  1.0
  C  C174  1  0.97388000  0.70116000  0.20496000  1.0
  C  C175  1  0.27271000  0.76892000  0.47387000  1.0
  C  C176  1  0.34370000  0.31236000  0.09642000  1.0
  C  C177  1  0.59642000  0.25273000  0.28406000  1.0
  C  C178  1  0.03133000  0.24728000  0.84369000  1.0
  C  C179  1  0.78405000  0.18764000  0.53133000  1.0
  C  C180  1  0.65630000  0.68764000  0.90358000  1.0
  C  C181  1  0.40358000  0.74727000  0.71594000  1.0
  C  C182  1  0.96866000  0.75271000  0.15630000  1.0
  C  C183  1  0.21595000  0.81237000  0.46867000  1.0
  N  N184  1  0.16794000  0.00472000  0.46360000  1.0
  N  N185  1  0.96359000  0.79565000  0.95887000  1.0
  N  N186  1  0.16322000  0.70435000  0.66794000  1.0
  N  N187  1  0.45887000  0.49528000  0.66322000  1.0
  N  N188  1  0.83206000  0.99528000  0.53640000  1.0
  N  N189  1  0.03641000  0.20435000  0.04113000  1.0
  N  N190  1  0.83678000  0.29565000  0.33206000  1.0
  N  N191  1  0.54113000  0.50472000  0.33678000  1.0
  N  N192  1  0.13489000  0.04349000  0.36209000  1.0
  N  N193  1  0.86209000  0.72720000  0.81860000  1.0
  N  N194  1  0.09140000  0.77280000  0.63489000  1.0
  N  N195  1  0.31860000  0.45651000  0.59140000  1.0
  N  N196  1  0.86511000  0.95651000  0.63791000  1.0
  N  N197  1  0.13791000  0.27280000  0.18140000  1.0
  N  N198  1  0.90860000  0.22720000  0.36511000  1.0
  N  N199  1  0.68140000  0.54349000  0.40860000  1.0
  N  N200  1  0.19849000  0.05560000  0.67103000  1.0
  N  N201  1  0.17103000  0.97254000  0.11544000  1.0
  N  N202  1  0.14289000  0.52745000  0.69848000  1.0
  N  N203  1  0.61544000  0.44441000  0.64290000  1.0
  N  N204  1  0.80151000  0.94440000  0.32897000  1.0
  N  N205  1  0.82897000  0.02746000  0.88456000  1.0
  N  N206  1  0.85711000  0.47255000  0.30152000  1.0
  N  N207  1  0.38456000  0.55559000  0.35710000  1.0
  N  N208  1  0.19243000  0.16955000  0.79034000  1.0
  N  N209  1  0.29034000  0.09791000  0.12079000  1.0
  N  N210  1  0.02288000  0.40209000  0.69243000  1.0
  N  N211  1  0.62079000  0.33045000  0.52288000  1.0
  N  N212  1  0.80757000  0.83045000  0.20966000  1.0
  N  N213  1  0.70966000  0.90209000  0.87921000  1.0
  N  N214  1  0.97712000  0.59791000  0.30757000  1.0
  N  N215  1  0.37921000  0.66955000  0.47712000  1.0
  O  O216  1  0.30495000  0.32913000  0.29385000  1.0
  O  O217  1  0.79385000  0.48890000  0.46472000  1.0
  O  O218  1  0.97582000  0.01110000  0.80495000  1.0
  O  O219  1  0.96472000  0.17087000  0.47582000  1.0
  O  O220  1  0.69505000  0.67087000  0.70615000  1.0
  O  O221  1  0.20615000  0.51110000  0.53528000  1.0
  O  O222  1  0.02418000  0.98890000  0.19505000  1.0
  O  O223  1  0.03528000  0.82913000  0.52418000  1.0
  O  O224  1  0.42229000  0.36115000  0.40469000  1.0
  O  O225  1  0.90469000  0.48240000  0.54354000  1.0
  O  O226  1  0.06115000  0.01761000  0.92229000  1.0
  O  O227  1  0.04354000  0.13885000  0.56114000  1.0
  O  O228  1  0.57771000  0.63885000  0.59531000  1.0
  O  O229  1  0.09531000  0.51760000  0.45646000  1.0
  O  O230  1  0.93885000  0.98239000  0.07771000  1.0
  O  O231  1  0.95646000  0.86115000  0.43886000  1.0
  O  O232  1  0.34717000  0.39408000  0.15399000  1.0
  O  O233  1  0.65399000  0.30683000  0.25991000  1.0
  O  O234  1  0.95309000  0.19318000  0.84717000  1.0
  O  O235  1  0.75991000  0.10592000  0.45309000  1.0
  O  O236  1  0.65283000  0.60592000  0.84601000  1.0
  O  O237  1  0.34601000  0.69317000  0.74009000  1.0
  O  O238  1  0.04691000  0.80682000  0.15283000  1.0
  O  O239  1  0.24009000  0.89408000  0.54691000  1.0
  O  O240  1  0.37851000  0.27198000  0.12323000  1.0
  O  O241  1  0.62323000  0.24473000  0.35126000  1.0
  O  O242  1  0.10653000  0.25528000  0.87851000  1.0
  O  O243  1  0.85126000  0.22803000  0.60653000  1.0
  O  O244  1  0.62150000  0.72803000  0.87678000  1.0
  O  O245  1  0.37677000  0.75527000  0.64874000  1.0
  O  O246  1  0.89347000  0.74472000  0.12150000  1.0
  O  O247  1  0.14874000  0.77197000  0.39347000  1.0
