# generated using pymatgen
data_Al2H6C16S2ClO10F
_symmetry_space_group_name_H-M   'P 1'
_cell_length_a   6.64220000
_cell_length_b   11.10070000
_cell_length_c   12.74660403
_cell_angle_alpha   90.69500794
_cell_angle_beta   105.01503197
_cell_angle_gamma   106.89920000
_symmetry_Int_Tables_number   1
_chemical_formula_structural   Al2H6C16S2ClO10F
_chemical_formula_sum   'Al2 H6 C16 S2 Cl1 O10 F1'
_cell_volume   864.66229229
_cell_formula_units_Z   1
loop_
 _symmetry_equiv_pos_site_id
 _symmetry_equiv_pos_as_xyz
  1  'x, y, z'
loop_
 _atom_site_type_symbol
 _atom_site_label
 _atom_site_symmetry_multiplicity
 _atom_site_fract_x
 _atom_site_fract_y
 _atom_site_fract_z
 _atom_site_occupancy
  Al  Al0  1  0.00478000  0.50189000  0.50452000  1.0
  Al  Al1  1  0.50015000  0.49652000  0.49969000  1.0
  H  H2  1  0.36894000  0.65166000  0.56806000  1.0
  H  H3  1  0.65889000  0.42219000  0.37045000  1.0
  H  H4  1  0.34493000  0.11415000  0.46076000  1.0
  H  H5  1  0.76942000  0.12619000  0.55137000  1.0
  H  H6  1  0.22391000  0.87773000  0.45955000  1.0
  H  H7  1  0.24743000  0.57425000  0.85586000  1.0
  C  C8  1  0.83484000  0.49399000  0.69536000  1.0
  C  C9  1  0.86876000  0.72773000  0.50309000  1.0
  C  C10  1  0.15782000  0.49676000  0.30500000  1.0
  C  C11  1  0.13301000  0.27482000  0.50549000  1.0
  C  C12  1  0.93069000  0.86841000  0.50410000  1.0
  C  C13  1  0.06447000  0.13417000  0.50546000  1.0
  C  C14  1  0.80600000  0.94164000  0.52969000  1.0
  C  C15  1  0.19319000  0.06426000  0.47972000  1.0
  C  C16  1  0.86959000  0.07233000  0.53077000  1.0
  C  C17  1  0.12591000  0.93355000  0.47910000  1.0
  C  C18  1  0.88087000  0.44885000  0.11346000  1.0
  C  C19  1  0.10335000  0.53566000  0.88477000  1.0
  C  C20  1  0.08891000  0.49544000  0.18577000  1.0
  C  C21  1  0.89478000  0.49185000  0.81455000  1.0
  C  C22  1  0.09783000  0.52205000  0.99409000  1.0
  C  C23  1  0.88503000  0.46544000  0.00409000  1.0
  S  S24  1  0.28939000  0.55664000  0.11932000  1.0
  S  S25  1  0.69093000  0.43265000  0.87973000  1.0
  Cl  Cl26  1  0.64466000  0.37242000  0.14613000  1.0
  O  O27  1  0.99140000  0.52400000  0.65085000  1.0
  O  O28  1  0.68500000  0.67015000  0.51914000  1.0
  O  O29  1  0.36264000  0.51758000  0.34918000  1.0
  O  O30  1  0.00631000  0.33207000  0.52724000  1.0
  O  O31  1  0.00913000  0.47688000  0.35446000  1.0
  O  O32  1  0.31159000  0.32675000  0.48194000  1.0
  O  O33  1  0.63178000  0.46769000  0.64630000  1.0
  O  O34  1  0.00760000  0.67567000  0.48719000  1.0
  O  O35  1  0.30857000  0.56079000  0.54989000  1.0
  O  O36  1  0.70043000  0.44268000  0.44895000  1.0
  F  F37  1  0.61530000  0.88678000  0.55557000  1.0
