# generated using pymatgen
data_Lu2CoH28(C8O9)2
_symmetry_space_group_name_H-M   'P 1'
_cell_length_a   8.81850000
_cell_length_b   9.08517000
_cell_length_c   10.51340000
_cell_angle_alpha   80.53650000
_cell_angle_beta   74.28120000
_cell_angle_gamma   76.92390000
_symmetry_Int_Tables_number   1
_chemical_formula_structural   Lu2CoH28(C8O9)2
_chemical_formula_sum   'Lu2 Co1 H28 C16 O18'
_cell_volume   784.99294606
_cell_formula_units_Z   1
loop_
 _symmetry_equiv_pos_site_id
 _symmetry_equiv_pos_as_xyz
  1  'x, y, z'
loop_
 _atom_site_type_symbol
 _atom_site_label
 _atom_site_symmetry_multiplicity
 _atom_site_fract_x
 _atom_site_fract_y
 _atom_site_fract_z
 _atom_site_occupancy
  Lu  Lu0  1  0.90041000  0.06709000  0.69646000  1.0
  Lu  Lu1  1  0.09958000  0.93290000  0.30354000  1.0
  Co  Co2  1  0.00000000  0.00000000  0.00000000  1.0
  H  H3  1  0.83858000  0.35550000  0.04652000  1.0
  H  H4  1  0.16143000  0.64451000  0.95347000  1.0
  H  H5  1  0.63532000  0.39678000  0.02904000  1.0
  H  H6  1  0.36469000  0.60324000  0.97095000  1.0
  H  H7  1  0.77546000  0.50567000  0.92787000  1.0
  H  H8  1  0.22456000  0.49433000  0.07211000  1.0
  H  H9  1  0.73995000  0.73303000  0.09317000  1.0
  H  H10  1  0.26008000  0.26697000  0.90685000  1.0
  H  H11  1  0.60382000  0.72516000  0.99521000  1.0
  H  H12  1  0.39619000  0.27482000  0.00481000  1.0
  H  H13  1  0.56221000  0.87697000  0.09081000  1.0
  H  H14  1  0.43780000  0.12303000  0.90920000  1.0
  H  H15  1  0.46910000  0.88189000  0.58332000  1.0
  H  H16  1  0.53089000  0.11812000  0.41668000  1.0
  H  H17  1  0.46545000  0.74678000  0.72794000  1.0
  H  H18  1  0.53454000  0.25322000  0.27206000  1.0
  H  H19  1  0.51387000  0.92460000  0.72892000  1.0
  H  H20  1  0.48611000  0.07540000  0.27108000  1.0
  H  H21  1  0.20298000  0.33886000  0.26322000  1.0
  H  H22  1  0.79703000  0.66116000  0.73678000  1.0
  H  H23  1  0.26717000  0.37538000  0.40014000  1.0
  H  H24  1  0.73281000  0.62462000  0.59987000  1.0
  H  H25  1  0.08300000  0.47917000  0.37177000  1.0
  H  H26  1  0.91699000  0.52084000  0.62824000  1.0
  H  H27  1  0.76362000  0.11399000  0.46856000  1.0
  H  H28  1  0.23636000  0.88601000  0.53145000  1.0
  H  H29  1  0.69247000  0.26199000  0.54837000  1.0
  H  H30  1  0.30752000  0.73801000  0.45163000  1.0
  C  C31  1  0.26375000  0.92929000  0.75067000  1.0
  C  C32  1  0.73624000  0.07072000  0.24933000  1.0
  C  C33  1  0.76193000  0.39115000  0.97642000  1.0
  C  C34  1  0.23807000  0.60885000  0.02358000  1.0
  C  C35  1  0.66089000  0.79998000  0.03168000  1.0
  C  C36  1  0.33915000  0.20002000  0.96832000  1.0
  C  C37  1  0.80634000  0.28487000  0.87136000  1.0
  C  C38  1  0.19366000  0.71513000  0.12864000  1.0
  C  C39  1  0.75090000  0.89126000  0.91625000  1.0
  C  C40  1  0.24910000  0.10872000  0.08376000  1.0
  C  C41  1  0.43880000  0.86840000  0.69218000  1.0
  C  C42  1  0.56120000  0.13159000  0.30780000  1.0
  C  C43  1  0.16266000  0.36715000  0.36576000  1.0
  C  C44  1  0.83733000  0.63286000  0.63424000  1.0
  C  C45  1  0.08004000  0.24717000  0.45563000  1.0
  C  C46  1  0.91995000  0.75283000  0.54436000  1.0
  O  O47  1  0.16695000  0.96060000  0.67289000  1.0
  O  O48  1  0.83304000  0.03940000  0.32711000  1.0
  O  O49  1  0.01444000  0.26753000  0.57646000  1.0
  O  O50  1  0.98555000  0.73245000  0.42353000  1.0
  O  O51  1  0.90511000  0.87956000  0.89457000  1.0
  O  O52  1  0.09488000  0.12043000  0.10543000  1.0
  O  O53  1  0.93565000  0.17937000  0.86431000  1.0
  O  O54  1  0.06434000  0.82062000  0.13569000  1.0
  O  O55  1  0.67867000  0.98082000  0.83573000  1.0
  O  O56  1  0.32134000  0.01915000  0.16429000  1.0
  O  O57  1  0.72504000  0.29528000  0.78737000  1.0
  O  O58  1  0.27496000  0.70472000  0.21264000  1.0
  O  O59  1  0.07641000  0.12654000  0.40955000  1.0
  O  O60  1  0.92358000  0.87346000  0.59042000  1.0
  O  O61  1  0.72669000  0.15228000  0.55933000  1.0
  O  O62  1  0.27330000  0.84773000  0.44068000  1.0
  O  O63  1  0.22224000  0.94370000  0.87346000  1.0
  O  O64  1  0.77776000  0.05631000  0.12654000  1.0
