# generated using pymatgen
data_NaCaP2H17(C4O7)3
_symmetry_space_group_name_H-M   'P 1'
_cell_length_a   7.91641000
_cell_length_b   11.79540000
_cell_length_c   13.23290000
_cell_angle_alpha   106.89300000
_cell_angle_beta   90.00000000
_cell_angle_gamma   109.60700000
_symmetry_Int_Tables_number   1
_chemical_formula_structural   NaCaP2H17(C4O7)3
_chemical_formula_sum   'Na2 Ca2 P4 H34 C24 O42'
_cell_volume   1107.23967837
_cell_formula_units_Z   2
loop_
 _symmetry_equiv_pos_site_id
 _symmetry_equiv_pos_as_xyz
  1  'x, y, z'
loop_
 _atom_site_type_symbol
 _atom_site_label
 _atom_site_symmetry_multiplicity
 _atom_site_fract_x
 _atom_site_fract_y
 _atom_site_fract_z
 _atom_site_occupancy
  Na  Na0  1  0.00000000  0.00000000  0.50000000  1.0
  Na  Na1  1  0.00000000  0.00000000  0.00000000  1.0
  Ca  Ca2  1  0.37387000  0.00000000  0.25010000  1.0
  Ca  Ca3  1  0.62612000  0.00000000  0.74991000  1.0
  P  P4  1  0.24383000  0.82462000  0.40620000  1.0
  P  P5  1  0.58070000  0.82474000  0.90615000  1.0
  P  P6  1  0.75617000  0.17539000  0.59381000  1.0
  P  P7  1  0.41930000  0.17526000  0.09385000  1.0
  H  H8  1  0.46316000  0.69122000  0.33996000  1.0
  H  H9  1  0.22787000  0.69154000  0.83994000  1.0
  H  H10  1  0.53684000  0.30878000  0.66004000  1.0
  H  H11  1  0.77213000  0.30846000  0.16006000  1.0
  H  H12  1  0.35194000  0.63718000  0.96975000  1.0
  H  H13  1  0.28454000  0.63705000  0.46976000  1.0
  H  H14  1  0.64806000  0.36282000  0.03025000  1.0
  H  H15  1  0.71546000  0.36296000  0.53024000  1.0
  H  H16  1  0.75005000  0.77689000  0.05362000  1.0
  H  H17  1  0.02684000  0.77673000  0.55370000  1.0
  H  H18  1  0.24995000  0.22310000  0.94638000  1.0
  H  H19  1  0.97316000  0.22327000  0.44630000  1.0
  H  H20  1  0.50000000  0.00000000  0.50000000  1.0
  H  H21  1  0.50000000  0.00000000  0.00000000  1.0
  H  H22  1  0.72578000  0.96287000  0.29270000  1.0
  H  H23  1  0.23705000  0.96271000  0.79291000  1.0
  H  H24  1  0.27421000  0.03713000  0.70730000  1.0
  H  H25  1  0.76294000  0.03729000  0.20709000  1.0
  H  H26  1  0.76739000  0.56764000  0.21463000  1.0
  H  H27  1  0.79993000  0.56758000  0.71472000  1.0
  H  H28  1  0.23261000  0.43237000  0.78537000  1.0
  H  H29  1  0.20007000  0.43243000  0.28528000  1.0
  H  H30  1  0.89897000  0.63246000  0.33857000  1.0
  H  H31  1  0.73317000  0.63256000  0.83863000  1.0
  H  H32  1  0.10103000  0.36754000  0.66143000  1.0
  H  H33  1  0.26684000  0.36744000  0.16137000  1.0
  H  H34  1  0.12833000  0.58574000  0.20765000  1.0
  H  H35  1  0.45695000  0.58579000  0.70758000  1.0
  H  H36  1  0.87167000  0.41426000  0.79235000  1.0
  H  H37  1  0.54305000  0.41421000  0.29242000  1.0
  H  H38  1  0.97783000  0.55525000  0.09674000  1.0
  H  H39  1  0.57699000  0.55522000  0.59672000  1.0
  H  H40  1  0.02217000  0.44475000  0.90326000  1.0
  H  H41  1  0.42302000  0.44478000  0.40328000  1.0
  C  C42  1  0.72285000  0.72876000  0.31727000  1.0
  C  C43  1  0.00547000  0.72885000  0.81727000  1.0
  C  C44  1  0.27715000  0.27125000  0.68273000  1.0
  C  C45  1  0.99452000  0.27115000  0.18273000  1.0
  C  C46  1  0.84741000  0.65720000  0.27373000  1.0
  C  C47  1  0.80941000  0.65719000  0.77373000  1.0
  C  C48  1  0.15259000  0.34280000  0.72627000  1.0
  C  C49  1  0.19059000  0.34281000  0.22627000  1.0
  C  C50  1  0.00763000  0.72759000  0.22316000  1.0
  C  C51  1  0.71965000  0.72753000  0.72308000  1.0
  C  C52  1  0.99237000  0.27241000  0.77684000  1.0
  C  C53  1  0.28035000  0.27247000  0.27692000  1.0
  C  C54  1  0.08517000  0.63041000  0.15526000  1.0
  C  C55  1  0.54488000  0.63043000  0.65522000  1.0
  C  C56  1  0.91483000  0.36959000  0.84474000  1.0
  C  C57  1  0.45512000  0.36957000  0.34479000  1.0
  C  C58  1  0.24300000  0.68314000  0.09797000  1.0
  C  C59  1  0.43985000  0.68321000  0.59787000  1.0
  C  C60  1  0.75701000  0.31686000  0.90203000  1.0
  C  C61  1  0.56014000  0.31679000  0.40213000  1.0
  C  C62  1  0.94906000  0.79352000  0.15152000  1.0
  C  C63  1  0.84426000  0.79327000  0.65138000  1.0
  C  C64  1  0.05094000  0.20648000  0.84848000  1.0
  C  C65  1  0.15574000  0.20673000  0.34862000  1.0
  O  O66  1  0.77317000  0.84484000  0.35722000  1.0
  O  O67  1  0.07106000  0.84497000  0.85731000  1.0
  O  O68  1  0.22683000  0.15516000  0.64278000  1.0
  O  O69  1  0.92894000  0.15503000  0.14269000  1.0
  O  O70  1  0.55432000  0.65033000  0.30808000  1.0
  O  O71  1  0.09582000  0.65056000  0.80801000  1.0
  O  O72  1  0.44569000  0.34967000  0.69191000  1.0
  O  O73  1  0.90418000  0.34944000  0.19199000  1.0
  O  O74  1  0.34234000  0.79512000  0.12177000  1.0
  O  O75  1  0.45294000  0.79523000  0.62143000  1.0
  O  O76  1  0.65765000  0.20487000  0.87823000  1.0
  O  O77  1  0.54706000  0.20478000  0.37857000  1.0
  O  O78  1  0.26480000  0.59406000  0.01615000  1.0
  O  O79  1  0.32852000  0.59400000  0.51628000  1.0
  O  O80  1  0.73520000  0.40594000  0.98385000  1.0
  O  O81  1  0.67148000  0.40600000  0.48372000  1.0
  O  O82  1  0.05103000  0.89498000  0.14203000  1.0
  O  O83  1  0.84352000  0.89457000  0.64160000  1.0
  O  O84  1  0.94897000  0.10502000  0.85797000  1.0
  O  O85  1  0.15648000  0.10543000  0.35840000  1.0
  O  O86  1  0.78731000  0.72797000  0.10180000  1.0
  O  O87  1  0.94075000  0.72780000  0.60191000  1.0
  O  O88  1  0.21269000  0.27203000  0.89820000  1.0
  O  O89  1  0.05925000  0.27220000  0.39809000  1.0
  O  O90  1  0.14539000  0.82876000  0.29943000  1.0
  O  O91  1  0.68318000  0.82878000  0.79933000  1.0
  O  O92  1  0.85461000  0.17124000  0.70057000  1.0
  O  O93  1  0.31682000  0.17122000  0.20067000  1.0
  O  O94  1  0.41578000  0.94016000  0.41427000  1.0
  O  O95  1  0.52452000  0.94039000  0.91423000  1.0
  O  O96  1  0.58422000  0.05984000  0.58573000  1.0
  O  O97  1  0.47548000  0.05961000  0.08576000  1.0
  O  O98  1  0.27534000  0.69913000  0.38171000  1.0
  O  O99  1  0.42348000  0.69938000  0.88175000  1.0
  O  O100  1  0.72466000  0.30087000  0.61829000  1.0
  O  O101  1  0.57652000  0.30061000  0.11825000  1.0
  O  O102  1  0.12762000  0.84892000  0.49484000  1.0
  O  O103  1  0.72119000  0.84898000  0.99479000  1.0
  O  O104  1  0.87239000  0.15108000  0.50516000  1.0
  O  O105  1  0.27881000  0.15102000  0.00521000  1.0
  O  O106  1  0.67297000  0.00019000  0.24998000  1.0
  O  O107  1  0.32703000  0.99982000  0.75002000  1.0
