# generated using pymatgen
data_CdH12C15S(BrN)2
_symmetry_space_group_name_H-M   'P 1'
_cell_length_a   8.42260000
_cell_length_b   9.93804000
_cell_length_c   10.61066725
_cell_angle_alpha   90.54990619
_cell_angle_beta   113.14357018
_cell_angle_gamma   105.50150000
_symmetry_Int_Tables_number   1
_chemical_formula_structural   CdH12C15S(BrN)2
_chemical_formula_sum   'Cd2 H24 C30 S2 Br4 N4'
_cell_volume   780.35779989
_cell_formula_units_Z   2
loop_
 _symmetry_equiv_pos_site_id
 _symmetry_equiv_pos_as_xyz
  1  'x, y, z'
loop_
 _atom_site_type_symbol
 _atom_site_label
 _atom_site_symmetry_multiplicity
 _atom_site_fract_x
 _atom_site_fract_y
 _atom_site_fract_z
 _atom_site_occupancy
  Cd  Cd0  1  0.83818000  0.35210000  0.33097000  1.0
  Cd  Cd1  1  0.16183000  0.64791000  0.66904000  1.0
  H  H2  1  0.09753000  0.05273000  0.73956000  1.0
  H  H3  1  0.90247000  0.94727000  0.26044000  1.0
  H  H4  1  0.54677000  0.28709000  0.89702000  1.0
  H  H5  1  0.45323000  0.71291000  0.10298000  1.0
  H  H6  1  0.84869000  0.82795000  0.64767000  1.0
  H  H7  1  0.15131000  0.17205000  0.35233000  1.0
  H  H8  1  0.11997000  0.27726000  0.03002000  1.0
  H  H9  1  0.88003000  0.72274000  0.96998000  1.0
  H  H10  1  0.07102000  0.26065000  0.60624000  1.0
  H  H11  1  0.92899000  0.73936000  0.39376000  1.0
  H  H12  1  0.26282000  0.69770000  0.27255000  1.0
  H  H13  1  0.73718000  0.30230000  0.72745000  1.0
  H  H14  1  0.23475000  0.91710000  0.17045000  1.0
  H  H15  1  0.76525000  0.08290000  0.82955000  1.0
  H  H16  1  0.45190000  0.47087000  0.74872000  1.0
  H  H17  1  0.54810000  0.52913000  0.25128000  1.0
  H  H18  1  0.05184000  0.46732000  0.88364000  1.0
  H  H19  1  0.94816000  0.53268000  0.11636000  1.0
  H  H20  1  0.54363000  0.69682000  0.47235000  1.0
  H  H21  1  0.45638000  0.30318000  0.52765000  1.0
  H  H22  1  0.48950000  0.11549000  0.03552000  1.0
  H  H23  1  0.51050000  0.88451000  0.96448000  1.0
  H  H24  1  0.26327000  0.05590000  0.02408000  1.0
  H  H25  1  0.73673000  0.94410000  0.97592000  1.0
  C  C26  1  0.97559000  0.04641000  0.64785000  1.0
  C  C27  1  0.02442000  0.95359000  0.35215000  1.0
  C  C28  1  0.33912000  0.26508000  0.97345000  1.0
  C  C29  1  0.66088000  0.73492000  0.02655000  1.0
  C  C30  1  0.66925000  0.04316000  0.41531000  1.0
  C  C31  1  0.33075000  0.95685000  0.58469000  1.0
  C  C32  1  0.43443000  0.32294000  0.89495000  1.0
  C  C33  1  0.56557000  0.67706000  0.10505000  1.0
  C  C34  1  0.83787000  0.92210000  0.59684000  1.0
  C  C35  1  0.16213000  0.07790000  0.40316000  1.0
  C  C36  1  0.19864000  0.31728000  0.97012000  1.0
  C  C37  1  0.80136000  0.68272000  0.02988000  1.0
  C  C38  1  0.95963000  0.16327000  0.57507000  1.0
  C  C39  1  0.04037000  0.83673000  0.42493000  1.0
  C  C40  1  0.37740000  0.79289000  0.31215000  1.0
  C  C41  1  0.62260000  0.20712000  0.68785000  1.0
  C  C42  1  0.36203000  0.91803000  0.25414000  1.0
  C  C43  1  0.63797000  0.08197000  0.74586000  1.0
  C  C44  1  0.67998000  0.91639000  0.47771000  1.0
  C  C45  1  0.32002000  0.08362000  0.52229000  1.0
  C  C46  1  0.38391000  0.42628000  0.81421000  1.0
  C  C47  1  0.61609000  0.57372000  0.18579000  1.0
  C  C48  1  0.50359000  0.04205000  0.30359000  1.0
  C  C49  1  0.49641000  0.95795000  0.69641000  1.0
  C  C50  1  0.15853000  0.42226000  0.88815000  1.0
  C  C51  1  0.84147000  0.57774000  0.11185000  1.0
  C  C52  1  0.53294000  0.79193000  0.42336000  1.0
  C  C53  1  0.46706000  0.20808000  0.57664000  1.0
  C  C54  1  0.38419000  0.14708000  0.05359000  1.0
  C  C55  1  0.61581000  0.85292000  0.94641000  1.0
  S  S56  1  0.47080000  0.20098000  0.23962000  1.0
  S  S57  1  0.52920000  0.79902000  0.76038000  1.0
  Br  Br58  1  0.20017000  0.48285000  0.45988000  1.0
  Br  Br59  1  0.79983000  0.51715000  0.54012000  1.0
  Br  Br60  1  0.85905000  0.21282000  0.11787000  1.0
  Br  Br61  1  0.14095000  0.78718000  0.88213000  1.0
  N  N62  1  0.24811000  0.47506000  0.81042000  1.0
  N  N63  1  0.75189000  0.52494000  0.18958000  1.0
  N  N64  1  0.81351000  0.16219000  0.46350000  1.0
  N  N65  1  0.18650000  0.83781000  0.53650000  1.0
