# generated using pymatgen
data_CuH20C18(NO)4
_symmetry_space_group_name_H-M   'P 1'
_cell_length_a   8.29458000
_cell_length_b   10.20280000
_cell_length_c   10.81650000
_cell_angle_alpha   85.29130000
_cell_angle_beta   89.94290000
_cell_angle_gamma   85.91270000
_symmetry_Int_Tables_number   1
_chemical_formula_structural   CuH20C18(NO)4
_chemical_formula_sum   'Cu2 H40 C36 N8 O8'
_cell_volume   909.95750058
_cell_formula_units_Z   2
loop_
 _symmetry_equiv_pos_site_id
 _symmetry_equiv_pos_as_xyz
  1  'x, y, z'
loop_
 _atom_site_type_symbol
 _atom_site_label
 _atom_site_symmetry_multiplicity
 _atom_site_fract_x
 _atom_site_fract_y
 _atom_site_fract_z
 _atom_site_occupancy
  Cu  Cu0  1  0.03428000  0.50902000  0.99875000  1.0
  Cu  Cu1  1  0.53277000  0.00694000  0.49938000  1.0
  H  H2  1  0.81557000  0.07401000  0.07912000  1.0
  H  H3  1  0.83479000  0.12599000  0.91716000  1.0
  H  H4  1  0.67013000  0.18922000  0.00041000  1.0
  H  H5  1  0.28928000  0.86623000  0.07895000  1.0
  H  H6  1  0.18630000  0.95693000  0.94902000  1.0
  H  H7  1  0.37057000  0.86453000  0.92685000  1.0
  H  H8  1  0.38836000  0.56095000  0.89848000  1.0
  H  H9  1  0.41756000  0.17983000  0.76984000  1.0
  H  H10  1  0.12338000  0.22392000  0.89068000  1.0
  H  H11  1  0.67042000  0.30710000  0.75876000  1.0
  H  H12  1  0.66338000  0.46942000  0.80608000  1.0
  H  H13  1  0.57649000  0.66071000  0.66034000  1.0
  H  H14  1  0.51696000  0.74900000  0.44505000  1.0
  H  H15  1  0.49051000  0.35329000  0.33733000  1.0
  H  H16  1  0.54897000  0.26505000  0.55280000  1.0
  H  H17  1  0.40626000  0.54429000  0.19088000  1.0
  H  H18  1  0.39645000  0.70645000  0.23877000  1.0
  H  H19  1  0.68101000  0.45551000  0.09894000  1.0
  H  H20  1  0.94451000  0.79302000  0.11027000  1.0
  H  H21  1  0.64968000  0.83512000  0.23050000  1.0
  H  H22  1  0.63321000  0.77413000  0.86475000  1.0
  H  H23  1  0.68018000  0.92037000  0.93465000  1.0
  H  H24  1  0.82838000  0.83322000  0.84811000  1.0
  H  H25  1  0.36575000  0.09358000  0.06622000  1.0
  H  H26  1  0.43641000  0.23565000  0.13061000  1.0
  H  H27  1  0.23638000  0.19070000  0.15914000  1.0
  H  H28  1  0.82300000  0.78375000  0.54046000  1.0
  H  H29  1  0.08121000  0.00388000  0.26781000  1.0
  H  H30  1  0.77702000  0.13102000  0.29845000  1.0
  H  H31  1  0.19475000  0.77366000  0.33524000  1.0
  H  H32  1  0.21232000  0.80414000  0.49293000  1.0
  H  H33  1  0.06174000  0.57953000  0.27527000  1.0
  H  H34  1  0.97136000  0.35794000  0.33619000  1.0
  H  H35  1  0.00430000  0.43484000  0.72167000  1.0
  H  H36  1  0.09450000  0.65650000  0.66074000  1.0
  H  H37  1  0.87037000  0.24104000  0.66139000  1.0
  H  H38  1  0.85334000  0.21038000  0.50371000  1.0
  H  H39  1  0.24472000  0.23148000  0.45894000  1.0
  H  H40  1  0.28584000  0.88237000  0.69863000  1.0
  H  H41  1  0.98122000  0.00970000  0.72682000  1.0
  C  C42  1  0.89453000  0.27080000  0.04262000  1.0
  C  C43  1  0.79927000  0.15724000  0.00865000  1.0
  C  C44  1  0.16687000  0.74770000  0.95265000  1.0
  C  C45  1  0.25796000  0.86586000  0.98057000  1.0
  C  C46  1  0.35415000  0.46375000  0.88115000  1.0
  C  C47  1  0.36450000  0.26417000  0.81403000  1.0
  C  C48  1  0.22125000  0.28762000  0.87461000  1.0
  C  C49  1  0.59843000  0.40171000  0.75405000  1.0
  C  C50  1  0.56676000  0.45609000  0.62162000  1.0
  C  C51  1  0.55772000  0.59215000  0.59034000  1.0
  C  C52  1  0.52464000  0.64264000  0.46865000  1.0
  C  C53  1  0.50025000  0.55793000  0.37609000  1.0
  C  C54  1  0.50907000  0.42184000  0.40737000  1.0
  C  C55  1  0.54181000  0.37139000  0.52915000  1.0
  C  C56  1  0.46961000  0.61245000  0.24354000  1.0
  C  C57  1  0.71486000  0.55255000  0.11707000  1.0
  C  C58  1  0.84688000  0.72889000  0.12540000  1.0
  C  C59  1  0.70329000  0.75134000  0.18581000  1.0
  C  C60  1  0.64809000  0.94841000  0.73640000  1.0
  C  C61  1  0.69863000  0.86401000  0.85332000  1.0
  C  C62  1  0.41633000  0.06544000  0.26227000  1.0
  C  C63  1  0.36213000  0.15129000  0.14716000  1.0
  C  C64  1  0.84999000  0.86171000  0.47133000  1.0
  C  C65  1  0.98126000  0.97833000  0.32737000  1.0
  C  C66  1  0.83117000  0.04024000  0.34412000  1.0
  C  C67  1  0.13158000  0.76964000  0.42418000  1.0
  C  C68  1  0.08344000  0.63316000  0.46307000  1.0
  C  C69  1  0.04863000  0.54788000  0.37326000  1.0
  C  C70  1  0.99762000  0.42292000  0.40792000  1.0
  C  C71  1  0.98212000  0.38142000  0.53380000  1.0
  C  C72  1  0.01714000  0.46660000  0.62363000  1.0
  C  C73  1  0.06811000  0.59158000  0.58900000  1.0
  C  C74  1  0.93384000  0.24499000  0.57258000  1.0
  C  C75  1  0.21631000  0.15312000  0.52719000  1.0
  C  C76  1  0.23276000  0.97362000  0.65315000  1.0
  C  C77  1  0.08257000  0.03568000  0.66896000  1.0
  N  N78  1  0.21599000  0.41240000  0.91651000  1.0
  N  N79  1  0.44703000  0.37644000  0.81952000  1.0
  N  N80  1  0.62136000  0.63897000  0.17917000  1.0
  N  N81  1  0.85291000  0.60453000  0.08249000  1.0
  N  N82  1  0.75080000  0.96651000  0.43442000  1.0
  N  N83  1  0.99035000  0.86560000  0.40791000  1.0
  N  N84  1  0.07495000  0.14901000  0.58925000  1.0
  N  N85  1  0.31467000  0.04780000  0.56418000  1.0
  O  O86  1  0.89005000  0.37036000  0.95867000  1.0
  O  O87  1  0.96943000  0.26647000  0.14333000  1.0
  O  O88  1  0.17790000  0.64921000  0.03762000  1.0
  O  O89  1  0.08920000  0.74795000  0.85347000  1.0
  O  O90  1  0.58305000  0.88667000  0.65104000  1.0
  O  O91  1  0.67235000  0.06886000  0.72447000  1.0
  O  O92  1  0.48127000  0.12692000  0.34786000  1.0
  O  O93  1  0.39484000  0.94442000  0.27293000  1.0
