# generated using pymatgen
data_ZnH9C12NO3
_symmetry_space_group_name_H-M   'P 1'
_cell_length_a   5.11028000
_cell_length_b   9.31247000
_cell_length_c   21.30200000
_cell_angle_alpha   90.00000000
_cell_angle_beta   90.00000000
_cell_angle_gamma   90.00000000
_symmetry_Int_Tables_number   1
_chemical_formula_structural   ZnH9C12NO3
_chemical_formula_sum   'Zn4 H36 C48 N4 O12'
_cell_volume   1013.74789044
_cell_formula_units_Z   4
loop_
 _symmetry_equiv_pos_site_id
 _symmetry_equiv_pos_as_xyz
  1  'x, y, z'
loop_
 _atom_site_type_symbol
 _atom_site_label
 _atom_site_symmetry_multiplicity
 _atom_site_fract_x
 _atom_site_fract_y
 _atom_site_fract_z
 _atom_site_occupancy
  Zn  Zn0  1  0.76287000  0.15338000  0.47558000  1.0
  Zn  Zn1  1  0.73714000  0.84662000  0.97558000  1.0
  Zn  Zn2  1  0.23714000  0.65337000  0.02442000  1.0
  Zn  Zn3  1  0.26287000  0.34662000  0.52442000  1.0
  H  H4  1  0.74332000  0.33344000  0.56095000  1.0
  H  H5  1  0.75670000  0.66656000  0.06095000  1.0
  H  H6  1  0.25670000  0.83343000  0.93905000  1.0
  H  H7  1  0.24332000  0.16657000  0.43905000  1.0
  H  H8  1  0.08336000  0.92650000  0.08507000  1.0
  H  H9  1  0.41666000  0.07350000  0.58507000  1.0
  H  H10  1  0.91666000  0.42650000  0.41492000  1.0
  H  H11  1  0.58336000  0.57349000  0.91493000  1.0
  H  H12  1  0.76400000  0.32330000  0.15791000  1.0
  H  H13  1  0.73600000  0.67670000  0.65791000  1.0
  H  H14  1  0.23596000  0.82331000  0.34209000  1.0
  H  H15  1  0.26401000  0.17670000  0.84209000  1.0
  H  H16  1  0.44798000  0.32068000  0.07047000  1.0
  H  H17  1  0.05202000  0.67932000  0.57047000  1.0
  H  H18  1  0.55199000  0.82069000  0.42952000  1.0
  H  H19  1  0.94799000  0.17932000  0.92952000  1.0
  H  H20  1  0.46678000  0.11769000  0.99159000  1.0
  H  H21  1  0.03323000  0.88230000  0.49159000  1.0
  H  H22  1  0.53323000  0.61770000  0.50840000  1.0
  H  H23  1  0.96677000  0.38231000  0.00841000  1.0
  H  H24  1  0.38138000  0.94720000  0.15008000  1.0
  H  H25  1  0.11863000  0.05280000  0.65007000  1.0
  H  H26  1  0.61860000  0.44721000  0.34993000  1.0
  H  H27  1  0.88139000  0.55279000  0.84993000  1.0
  H  H28  1  0.65003000  0.93102000  0.24591000  1.0
  H  H29  1  0.84998000  0.06898000  0.74590000  1.0
  H  H30  1  0.34994000  0.43101000  0.25410000  1.0
  H  H31  1  0.15005000  0.56898000  0.75410000  1.0
  H  H32  1  0.17426000  0.25012000  0.33543000  1.0
  H  H33  1  0.32574000  0.74988000  0.83543000  1.0
  H  H34  1  0.82569000  0.75012000  0.16457000  1.0
  H  H35  1  0.67430000  0.24989000  0.66457000  1.0
  H  H36  1  0.89903000  0.26724000  0.24165000  1.0
  H  H37  1  0.60097000  0.73277000  0.74165000  1.0
  H  H38  1  0.10094000  0.76724000  0.25835000  1.0
  H  H39  1  0.39904000  0.23276000  0.75834000  1.0
  C  C40  1  0.94804000  0.01694000  0.08420000  1.0
  C  C41  1  0.55197000  0.98305000  0.58420000  1.0
  C  C42  1  0.05196000  0.51694000  0.41579000  1.0
  C  C43  1  0.44804000  0.48305000  0.91580000  1.0
  C  C44  1  0.94821000  0.12204000  0.13154000  1.0
  C  C45  1  0.55178000  0.87796000  0.63154000  1.0
  C  C46  1  0.05176000  0.62204000  0.36846000  1.0
  C  C47  1  0.44822000  0.37795000  0.86846000  1.0
  C  C48  1  0.76860000  0.23530000  0.12436000  1.0
  C  C49  1  0.73140000  0.76470000  0.62436000  1.0
  C  C50  1  0.23137000  0.73531000  0.37564000  1.0
  C  C51  1  0.26861000  0.26470000  0.87564000  1.0
  C  C52  1  0.59370000  0.23591000  0.07435000  1.0
  C  C53  1  0.90630000  0.76409000  0.57435000  1.0
  C  C54  1  0.40629000  0.73591000  0.42564000  1.0
  C  C55  1  0.09371000  0.26408000  0.92564000  1.0
  C  C56  1  0.60299000  0.12501000  0.03081000  1.0
  C  C57  1  0.89703000  0.87498000  0.53082000  1.0
  C  C58  1  0.39702000  0.62502000  0.46918000  1.0
  C  C59  1  0.10299000  0.37498000  0.96918000  1.0
  C  C60  1  0.11826000  0.11040000  0.18752000  1.0
  C  C61  1  0.38173000  0.88961000  0.68752000  1.0
  C  C62  1  0.88170000  0.61040000  0.31248000  1.0
  C  C63  1  0.61828000  0.38960000  0.81248000  1.0
  C  C64  1  0.33131000  0.01453000  0.19023000  1.0
  C  C65  1  0.16869000  0.98547000  0.69023000  1.0
  C  C66  1  0.66868000  0.51453000  0.30977000  1.0
  C  C67  1  0.83132000  0.48547000  0.80977000  1.0
  C  C68  1  0.48489000  0.00458000  0.24405000  1.0
  C  C69  1  0.01510000  0.99543000  0.74405000  1.0
  C  C70  1  0.51507000  0.50458000  0.25595000  1.0
  C  C71  1  0.98492000  0.49543000  0.75595000  1.0
  C  C72  1  0.43255000  0.08962000  0.29683000  1.0
  C  C73  1  0.06745000  0.91038000  0.79683000  1.0
  C  C74  1  0.56742000  0.58961000  0.20317000  1.0
  C  C75  1  0.93257000  0.41039000  0.70317000  1.0
  C  C76  1  0.21942000  0.18414000  0.29461000  1.0
  C  C77  1  0.28057000  0.81586000  0.79461000  1.0
  C  C78  1  0.78054000  0.68414000  0.20539000  1.0
  C  C79  1  0.71945000  0.31586000  0.70539000  1.0
  C  C80  1  0.06497000  0.19393000  0.24109000  1.0
  C  C81  1  0.43504000  0.80607000  0.74109000  1.0
  C  C82  1  0.93500000  0.69393000  0.25891000  1.0
  C  C83  1  0.56500000  0.30606000  0.75891000  1.0
  C  C84  1  0.60145000  0.07678000  0.35422000  1.0
  C  C85  1  0.89855000  0.92322000  0.85422000  1.0
  C  C86  1  0.39854000  0.57676000  0.14578000  1.0
  C  C87  1  0.10147000  0.42324000  0.64578000  1.0
  N  N88  1  0.78094000  0.01853000  0.03537000  1.0
  N  N89  1  0.71908000  0.98146000  0.53537000  1.0
  N  N90  1  0.21907000  0.51853000  0.46462000  1.0
  N  N91  1  0.28094000  0.48146000  0.96463000  1.0
  O  O92  1  0.64110000  0.32513000  0.52213000  1.0
  O  O93  1  0.85891000  0.67486000  0.02213000  1.0
  O  O94  1  0.35891000  0.82513000  0.97787000  1.0
  O  O95  1  0.14110000  0.17487000  0.47787000  1.0
  O  O96  1  0.55937000  0.17513000  0.39728000  1.0
  O  O97  1  0.94064000  0.82488000  0.89727000  1.0
  O  O98  1  0.44062000  0.67511000  0.10273000  1.0
  O  O99  1  0.05938000  0.32489000  0.60272000  1.0
  O  O100  1  0.76574000  0.97885000  0.35986000  1.0
  O  O101  1  0.73423000  0.02115000  0.85986000  1.0
  O  O102  1  0.23423000  0.47883000  0.14014000  1.0
  O  O103  1  0.26577000  0.52117000  0.64014000  1.0
