# generated using pymatgen
data_H8PbC12(NCl)2
_symmetry_space_group_name_H-M   'P 1'
_cell_length_a   8.18409000
_cell_length_b   9.25018000
_cell_length_c   9.25019000
_cell_angle_alpha   67.57650000
_cell_angle_beta   77.36820000
_cell_angle_gamma   77.36840000
_symmetry_Int_Tables_number   1
_chemical_formula_structural   H8PbC12(NCl)2
_chemical_formula_sum   'H16 Pb2 C24 N4 Cl4'
_cell_volume   624.51997976
_cell_formula_units_Z   2
loop_
 _symmetry_equiv_pos_site_id
 _symmetry_equiv_pos_as_xyz
  1  'x, y, z'
loop_
 _atom_site_type_symbol
 _atom_site_label
 _atom_site_symmetry_multiplicity
 _atom_site_fract_x
 _atom_site_fract_y
 _atom_site_fract_z
 _atom_site_occupancy
  H  H0  1  0.92127000  0.33195000  0.00302000  1.0
  H  H1  1  0.57873000  0.99697000  0.66804000  1.0
  H  H2  1  0.07873000  0.66805000  0.99697000  1.0
  H  H3  1  0.42127000  0.00302000  0.33195000  1.0
  H  H4  1  0.79232000  0.61586000  0.87703000  1.0
  H  H5  1  0.70767000  0.12298000  0.38413000  1.0
  H  H6  1  0.20767000  0.38413000  0.12297000  1.0
  H  H7  1  0.29232000  0.87702000  0.61586000  1.0
  H  H8  1  0.92026000  0.77064000  0.60356000  1.0
  H  H9  1  0.57975000  0.39645000  0.22936000  1.0
  H  H10  1  0.07975000  0.22936000  0.39644000  1.0
  H  H11  1  0.42025000  0.60356000  0.77064000  1.0
  H  H12  1  0.12786000  0.77449000  0.36241000  1.0
  H  H13  1  0.37213000  0.63759000  0.22551000  1.0
  H  H14  1  0.87214000  0.22550000  0.63759000  1.0
  H  H15  1  0.62787000  0.36241000  0.77449000  1.0
  Pb  Pb16  1  0.25000000  0.05167000  0.94833000  1.0
  Pb  Pb17  1  0.75000000  0.94833000  0.05167000  1.0
  C  C18  1  0.97357000  0.40438000  0.88454000  1.0
  C  C19  1  0.52643000  0.11546000  0.59562000  1.0
  C  C20  1  0.02643000  0.59562000  0.11546000  1.0
  C  C21  1  0.47357000  0.88454000  0.40438000  1.0
  C  C22  1  0.90187000  0.56236000  0.81353000  1.0
  C  C23  1  0.59813000  0.18647000  0.43763000  1.0
  C  C24  1  0.09813000  0.43763000  0.18646000  1.0
  C  C25  1  0.40187000  0.81353000  0.56236000  1.0
  C  C26  1  0.97157000  0.64731000  0.66231000  1.0
  C  C27  1  0.52843000  0.33769000  0.35268000  1.0
  C  C28  1  0.02843000  0.35269000  0.33769000  1.0
  C  C29  1  0.47157000  0.66231000  0.64731000  1.0
  C  C30  1  0.11071000  0.57350000  0.58171000  1.0
  C  C31  1  0.38929000  0.41830000  0.42650000  1.0
  C  C32  1  0.88929000  0.42650000  0.41829000  1.0
  C  C33  1  0.61071000  0.58170000  0.57350000  1.0
  C  C34  1  0.17761000  0.41404000  0.66388000  1.0
  C  C35  1  0.32239000  0.33612000  0.58596000  1.0
  C  C36  1  0.82239000  0.58596000  0.33612000  1.0
  C  C37  1  0.67761000  0.66388000  0.41404000  1.0
  C  C38  1  0.18364000  0.65289000  0.42251000  1.0
  C  C39  1  0.31636000  0.57750000  0.34711000  1.0
  C  C40  1  0.81636000  0.34711000  0.57750000  1.0
  C  C41  1  0.68364000  0.42250000  0.65289000  1.0
  N  N42  1  0.10810000  0.33333333  0.81327000  1.0
  N  N43  1  0.39191000  0.18673000  0.66666667  1.0
  N  N44  1  0.89190000  0.66666667  0.18673000  1.0
  N  N45  1  0.60810000  0.81327000  0.33333333  1.0
  Cl  Cl46  1  0.45726000  0.21047000  0.03939000  1.0
  Cl  Cl47  1  0.04274000  0.96061000  0.78953000  1.0
  Cl  Cl48  1  0.54274000  0.78953000  0.96061000  1.0
  Cl  Cl49  1  0.95726000  0.03939000  0.21047000  1.0
