# generated using pymatgen
data_Ag2H4C4O5
_symmetry_space_group_name_H-M   'P 1'
_cell_length_a   5.58145000
_cell_length_b   10.16090000
_cell_length_c   11.02580000
_cell_angle_alpha   88.01080000
_cell_angle_beta   89.99980000
_cell_angle_gamma   89.99940000
_symmetry_Int_Tables_number   1
_chemical_formula_structural   Ag2H4C4O5
_chemical_formula_sum   'Ag8 H16 C16 O20'
_cell_volume   624.92447797
_cell_formula_units_Z   4
loop_
 _symmetry_equiv_pos_site_id
 _symmetry_equiv_pos_as_xyz
  1  'x, y, z'
loop_
 _atom_site_type_symbol
 _atom_site_label
 _atom_site_symmetry_multiplicity
 _atom_site_fract_x
 _atom_site_fract_y
 _atom_site_fract_z
 _atom_site_occupancy
  Ag  Ag0  1  0.50600000  0.94529000  0.87873000  1.0
  Ag  Ag1  1  0.00600000  0.05471000  0.62127000  1.0
  Ag  Ag2  1  0.49400000  0.05471000  0.12127000  1.0
  Ag  Ag3  1  0.99399000  0.94529000  0.37873000  1.0
  Ag  Ag4  1  0.29951000  0.42505000  0.02939000  1.0
  Ag  Ag5  1  0.79951000  0.57495000  0.47061000  1.0
  Ag  Ag6  1  0.70048000  0.57495000  0.97062000  1.0
  Ag  Ag7  1  0.20048000  0.42505000  0.52939000  1.0
  H  H8  1  0.48789000  0.33110000  0.82278000  1.0
  H  H9  1  0.98787000  0.66891000  0.67722000  1.0
  H  H10  1  0.51213000  0.66890000  0.17723000  1.0
  H  H11  1  0.01212000  0.33110000  0.32278000  1.0
  H  H12  1  0.44816000  0.22407000  0.69912000  1.0
  H  H13  1  0.94816000  0.77592000  0.80089000  1.0
  H  H14  1  0.55184000  0.77592000  0.30089000  1.0
  H  H15  1  0.05186000  0.22408000  0.19911000  1.0
  H  H16  1  0.77186000  0.21971000  0.99013000  1.0
  H  H17  1  0.27185000  0.78030000  0.50987000  1.0
  H  H18  1  0.22814000  0.78030000  0.00987000  1.0
  H  H19  1  0.72813000  0.21970000  0.49012000  1.0
  H  H20  1  0.92980000  0.32220000  0.88174000  1.0
  H  H21  1  0.42980000  0.67781000  0.61826000  1.0
  H  H22  1  0.07020000  0.67781000  0.11826000  1.0
  H  H23  1  0.57020000  0.32219000  0.38173000  1.0
  C  C24  1  0.58295000  0.27247000  0.75497000  1.0
  C  C25  1  0.08295000  0.72752000  0.74504000  1.0
  C  C26  1  0.41705000  0.72753000  0.24503000  1.0
  C  C27  1  0.91707000  0.27247000  0.25497000  1.0
  C  C28  1  0.87332000  0.22036000  0.90425000  1.0
  C  C29  1  0.37331000  0.77965000  0.59576000  1.0
  C  C30  1  0.12669000  0.77964000  0.09576000  1.0
  C  C31  1  0.62669000  0.22035000  0.40424000  1.0
  C  C32  1  0.09912000  0.13959000  0.92442000  1.0
  C  C33  1  0.59909000  0.86041000  0.57558000  1.0
  C  C34  1  0.90089000  0.86041000  0.07558000  1.0
  C  C35  1  0.40088000  0.13958000  0.42441000  1.0
  C  C36  1  0.72984000  0.36443000  0.67177000  1.0
  C  C37  1  0.22981000  0.63556000  0.82823000  1.0
  C  C38  1  0.27017000  0.63556000  0.32822000  1.0
  C  C39  1  0.77018000  0.36443000  0.17178000  1.0
  O  O40  1  0.72509000  0.17155000  0.81088000  1.0
  O  O41  1  0.22507000  0.82845000  0.68914000  1.0
  O  O42  1  0.27493000  0.82845000  0.18913000  1.0
  O  O43  1  0.77494000  0.17155000  0.31087000  1.0
  O  O44  1  0.22139000  0.17420000  0.01619000  1.0
  O  O45  1  0.72140000  0.82580000  0.48382000  1.0
  O  O46  1  0.77860000  0.82580000  0.98382000  1.0
  O  O47  1  0.27859000  0.17420000  0.51617000  1.0
  O  O48  1  0.95026000  0.33842000  0.66088000  1.0
  O  O49  1  0.45026000  0.66157000  0.83911000  1.0
  O  O50  1  0.04974000  0.66156000  0.33911000  1.0
  O  O51  1  0.54978000  0.33844000  0.16090000  1.0
  O  O52  1  0.61500000  0.45751000  0.61679000  1.0
  O  O53  1  0.11500000  0.54247000  0.88321000  1.0
  O  O54  1  0.38500000  0.54249000  0.38321000  1.0
  O  O55  1  0.88501000  0.45752000  0.11678000  1.0
  O  O56  1  0.15089000  0.04945000  0.85276000  1.0
  O  O57  1  0.65088000  0.95057000  0.64724000  1.0
  O  O58  1  0.84910000  0.95056000  0.14724000  1.0
  O  O59  1  0.34911000  0.04944000  0.35276000  1.0
