# generated using pymatgen
data_CdH14C10(N2Cl)2
_symmetry_space_group_name_H-M   'P 1'
_cell_length_a   8.58205000
_cell_length_b   8.73043000
_cell_length_c   8.73044000
_cell_angle_alpha   73.23450000
_cell_angle_beta   88.50280000
_cell_angle_gamma   88.50290000
_symmetry_Int_Tables_number   1
_chemical_formula_structural   CdH14C10(N2Cl)2
_chemical_formula_sum   'Cd2 H28 C20 N8 Cl4'
_cell_volume   625.99139662
_cell_formula_units_Z   2
loop_
 _symmetry_equiv_pos_site_id
 _symmetry_equiv_pos_as_xyz
  1  'x, y, z'
loop_
 _atom_site_type_symbol
 _atom_site_label
 _atom_site_symmetry_multiplicity
 _atom_site_fract_x
 _atom_site_fract_y
 _atom_site_fract_z
 _atom_site_occupancy
  Cd  Cd0  1  0.75000000  0.97794000  0.02206000  1.0
  Cd  Cd1  1  0.25000000  0.02206000  0.97794000  1.0
  H  H2  1  0.87250000  0.93638000  0.41845000  1.0
  H  H3  1  0.62751000  0.58154000  0.06362000  1.0
  H  H4  1  0.12750000  0.06362000  0.58155000  1.0
  H  H5  1  0.37249000  0.41845000  0.93638000  1.0
  H  H6  1  0.71038000  0.09717000  0.61162000  1.0
  H  H7  1  0.78963000  0.38838000  0.90284000  1.0
  H  H8  1  0.28962000  0.90284000  0.38838000  1.0
  H  H9  1  0.21038000  0.61162000  0.09716000  1.0
  H  H10  1  0.64356000  0.39686000  0.56435000  1.0
  H  H11  1  0.85644000  0.43565000  0.60315000  1.0
  H  H12  1  0.35644000  0.60315000  0.43565000  1.0
  H  H13  1  0.14356000  0.56435000  0.39686000  1.0
  H  H14  1  0.61846000  0.51410000  0.36216000  1.0
  H  H15  1  0.88154000  0.63784000  0.48591000  1.0
  H  H16  1  0.38154000  0.48591000  0.63784000  1.0
  H  H17  1  0.11846000  0.36216000  0.51410000  1.0
  H  H18  1  0.52343000  0.23214000  0.14598000  1.0
  H  H19  1  0.97657000  0.85402000  0.76786000  1.0
  H  H20  1  0.47657000  0.76786000  0.85402000  1.0
  H  H21  1  0.02342000  0.14598000  0.23213000  1.0
  H  H22  1  0.41391000  0.23612000  0.54959000  1.0
  H  H23  1  0.08609000  0.45041000  0.76388000  1.0
  H  H24  1  0.58609000  0.76388000  0.45041000  1.0
  H  H25  1  0.91391000  0.54959000  0.23612000  1.0
  H  H26  1  0.39069000  0.34532000  0.34421000  1.0
  H  H27  1  0.10931000  0.65579000  0.65468000  1.0
  H  H28  1  0.60931000  0.65468000  0.65579000  1.0
  H  H29  1  0.89069000  0.34421000  0.34532000  1.0
  C  C30  1  0.77617000  0.02224000  0.39131000  1.0
  C  C31  1  0.72383000  0.60869000  0.97776000  1.0
  C  C32  1  0.22383000  0.97775000  0.60868000  1.0
  C  C33  1  0.27617000  0.39131000  0.02224000  1.0
  C  C34  1  0.69752000  0.09990000  0.48751000  1.0
  C  C35  1  0.80248000  0.51249000  0.90010000  1.0
  C  C36  1  0.30248000  0.90010000  0.51249000  1.0
  C  C37  1  0.19752000  0.48751000  0.09990000  1.0
  C  C38  1  0.55701000  0.44528000  0.47163000  1.0
  C  C39  1  0.94299000  0.52837000  0.55472000  1.0
  C  C40  1  0.44299000  0.55472000  0.52837000  1.0
  C  C41  1  0.05701000  0.47162000  0.44528000  1.0
  C  C42  1  0.59872000  0.17472000  0.24470000  1.0
  C  C43  1  0.90128000  0.75530000  0.82528000  1.0
  C  C44  1  0.40128000  0.82528000  0.75530000  1.0
  C  C45  1  0.09871000  0.24470000  0.17472000  1.0
  C  C46  1  0.47522000  0.30477000  0.44043000  1.0
  C  C47  1  0.02478000  0.55957000  0.69523000  1.0
  C  C48  1  0.52478000  0.69523000  0.55957000  1.0
  C  C49  1  0.97522000  0.44043000  0.30477000  1.0
  N  N50  1  0.58541000  0.19573000  0.39231000  1.0
  N  N51  1  0.91459000  0.60769000  0.80427000  1.0
  N  N52  1  0.41459000  0.80427000  0.60769000  1.0
  N  N53  1  0.08541000  0.39231000  0.19573000  1.0
  N  N54  1  0.71353000  0.07038000  0.24004000  1.0
  N  N55  1  0.78647000  0.75996000  0.92962000  1.0
  N  N56  1  0.28647000  0.92962000  0.75996000  1.0
  N  N57  1  0.21353000  0.24004000  0.07038000  1.0
  Cl  Cl58  1  0.95959000  0.14451000  0.81780000  1.0
  Cl  Cl59  1  0.54040000  0.18220000  0.85549000  1.0
  Cl  Cl60  1  0.04040000  0.85549000  0.18219000  1.0
  Cl  Cl61  1  0.45960000  0.81781000  0.14451000  1.0
