# generated using pymatgen
data_CoH14C13(NCl)2
_symmetry_space_group_name_H-M   'P 1'
_cell_length_a   4.34225000
_cell_length_b   8.84053162
_cell_length_c   8.84050222
_cell_angle_alpha   81.27017129
_cell_angle_beta   75.86232008
_cell_angle_gamma   75.86196807
_symmetry_Int_Tables_number   1
_chemical_formula_structural   CoH14C13(NCl)2
_chemical_formula_sum   'Co1 H14 C13 N2 Cl2'
_cell_volume   317.58563861
_cell_formula_units_Z   1
loop_
 _symmetry_equiv_pos_site_id
 _symmetry_equiv_pos_as_xyz
  1  'x, y, z'
loop_
 _atom_site_type_symbol
 _atom_site_label
 _atom_site_symmetry_multiplicity
 _atom_site_fract_x
 _atom_site_fract_y
 _atom_site_fract_z
 _atom_site_occupancy
  Co  Co0  1  0.21213000  0.99996000  0.99996000  1.0
  H  H1  1  0.68531000  0.20116000  0.05795000  1.0
  H  H2  1  0.68531000  0.05796000  0.20116000  1.0
  H  H3  1  0.94572000  0.94131000  0.79810000  1.0
  H  H4  1  0.94573000  0.79810000  0.94130000  1.0
  H  H5  1  0.93422000  0.04891000  0.42305000  1.0
  H  H6  1  0.93423000  0.42304000  0.04891000  1.0
  H  H7  1  0.40699000  0.57702000  0.95104000  1.0
  H  H8  1  0.40698000  0.95104000  0.57702000  1.0
  H  H9  1  0.12053000  0.20653000  0.57922000  1.0
  H  H10  1  0.12054000  0.57922000  0.20653000  1.0
  H  H11  1  0.90724000  0.42129000  0.79380000  1.0
  H  H12  1  0.90724000  0.79380000  0.42129000  1.0
  H  H13  1  0.38814000  0.57750000  0.42348000  1.0
  H  H14  1  0.38814000  0.42348000  0.57750000  1.0
  C  C15  1  0.13883000  0.40244000  0.40244000  1.0
  C  C16  1  0.94336000  0.59785000  0.59785000  1.0
  C  C17  1  0.92122000  0.22621000  0.22622000  1.0
  C  C18  1  0.37444000  0.77358000  0.77358000  1.0
  C  C19  1  0.97614000  0.16506000  0.37512000  1.0
  C  C20  1  0.97616000  0.37512000  0.16505000  1.0
  C  C21  1  0.51688000  0.62485000  0.83491000  1.0
  C  C22  1  0.51687000  0.83492000  0.62485000  1.0
  C  C23  1  0.08283000  0.25315000  0.46196000  1.0
  C  C24  1  0.08282000  0.46196000  0.25316000  1.0
  C  C25  1  0.79809000  0.53819000  0.74705000  1.0
  C  C26  1  0.79807000  0.74706000  0.53819000  1.0
  C  C27  1  0.23941000  0.50027000  0.50028000  1.0
  N  N28  1  0.82171000  0.13431000  0.13431000  1.0
  N  N29  1  0.09117000  0.86527000  0.86527000  1.0
  Cl  Cl30  1  0.48012000  0.83355000  0.16590000  1.0
  Cl  Cl31  1  0.48012000  0.16589000  0.83355000  1.0
