# generated using pymatgen
data_CoH8(C3O2)2
_symmetry_space_group_name_H-M   'P 1'
_cell_length_a   4.83138000
_cell_length_b   9.36486000
_cell_length_c   15.89580000
_cell_angle_alpha   90.47470000
_cell_angle_beta   89.99900000
_cell_angle_gamma   89.99900000
_symmetry_Int_Tables_number   1
_chemical_formula_structural   CoH8(C3O2)2
_chemical_formula_sum   'Co4 H32 C24 O16'
_cell_volume   719.18392313
_cell_formula_units_Z   4
loop_
 _symmetry_equiv_pos_site_id
 _symmetry_equiv_pos_as_xyz
  1  'x, y, z'
loop_
 _atom_site_type_symbol
 _atom_site_label
 _atom_site_symmetry_multiplicity
 _atom_site_fract_x
 _atom_site_fract_y
 _atom_site_fract_z
 _atom_site_occupancy
  Co  Co0  1  0.95885000  0.78407000  0.75402000  1.0
  Co  Co1  1  0.95883000  0.71594000  0.24598000  1.0
  Co  Co2  1  0.04117000  0.21594000  0.24598000  1.0
  Co  Co3  1  0.04117000  0.28406000  0.75401000  1.0
  H  H4  1  0.26708000  0.47194000  0.93579000  1.0
  H  H5  1  0.26708000  0.02807000  0.06421000  1.0
  H  H6  1  0.73293000  0.52806000  0.06421000  1.0
  H  H7  1  0.73292000  0.97194000  0.93578000  1.0
  H  H8  1  0.28518000  0.62120000  0.00295000  1.0
  H  H9  1  0.28518000  0.87881000  0.99706000  1.0
  H  H10  1  0.71482000  0.37880000  0.99706000  1.0
  H  H11  1  0.71482000  0.12121000  0.00293000  1.0
  H  H12  1  0.73428000  0.11107000  0.49805000  1.0
  H  H13  1  0.73429000  0.38893000  0.50195000  1.0
  H  H14  1  0.26573000  0.88893000  0.50195000  1.0
  H  H15  1  0.26571000  0.61106000  0.49806000  1.0
  H  H16  1  0.43301000  0.12628000  0.55921000  1.0
  H  H17  1  0.43303000  0.37372000  0.44079000  1.0
  H  H18  1  0.56700000  0.87373000  0.44078000  1.0
  H  H19  1  0.56697000  0.62627000  0.55922000  1.0
  H  H20  1  0.55396000  0.90374000  0.63740000  1.0
  H  H21  1  0.55395000  0.59627000  0.36261000  1.0
  H  H22  1  0.44603000  0.09627000  0.36260000  1.0
  H  H23  1  0.44604000  0.40372000  0.63740000  1.0
  H  H24  1  0.84879000  0.87822000  0.57482000  1.0
  H  H25  1  0.84879000  0.62178000  0.42518000  1.0
  H  H26  1  0.15119000  0.12179000  0.42518000  1.0
  H  H27  1  0.15119000  0.37820000  0.57483000  1.0
  H  H28  1  0.71788000  0.54162000  0.86751000  1.0
  H  H29  1  0.71788000  0.95838000  0.13249000  1.0
  H  H30  1  0.28213000  0.45838000  0.13249000  1.0
  H  H31  1  0.28212000  0.04162000  0.86751000  1.0
  H  H32  1  0.75075000  0.68674000  0.93578000  1.0
  H  H33  1  0.75076000  0.81326000  0.06422000  1.0
  H  H34  1  0.24926000  0.31325000  0.06423000  1.0
  H  H35  1  0.24924000  0.18675000  0.93578000  1.0
  C  C36  1  0.44122000  0.70962000  0.84236000  1.0
  C  C37  1  0.44121000  0.79040000  0.15764000  1.0
  C  C38  1  0.55879000  0.29039000  0.15764000  1.0
  C  C39  1  0.55879000  0.20961000  0.84235000  1.0
  C  C40  1  0.41372000  0.54289000  0.96885000  1.0
  C  C41  1  0.41373000  0.95712000  0.03115000  1.0
  C  C42  1  0.58629000  0.45711000  0.03115000  1.0
  C  C43  1  0.58628000  0.04290000  0.96885000  1.0
  C  C44  1  0.57677000  0.04802000  0.53120000  1.0
  C  C45  1  0.57677000  0.45198000  0.46880000  1.0
  C  C46  1  0.42323000  0.95199000  0.46879000  1.0
  C  C47  1  0.42323000  0.54800000  0.53121000  1.0
  C  C48  1  0.87984000  0.04747000  0.66315000  1.0
  C  C49  1  0.87984000  0.45253000  0.33684000  1.0
  C  C50  1  0.12016000  0.95254000  0.33684000  1.0
  C  C51  1  0.12014000  0.54745000  0.66316000  1.0
  C  C52  1  0.71183000  0.96178000  0.60090000  1.0
  C  C53  1  0.71183000  0.53822000  0.39910000  1.0
  C  C54  1  0.28816000  0.03823000  0.39909000  1.0
  C  C55  1  0.28816000  0.46176000  0.60091000  1.0
  C  C56  1  0.59474000  0.61863000  0.90466000  1.0
  C  C57  1  0.59474000  0.88138000  0.09534000  1.0
  C  C58  1  0.40527000  0.38137000  0.09535000  1.0
  C  C59  1  0.40526000  0.11863000  0.90465000  1.0
  O  O60  1  0.56931000  0.76986000  0.78176000  1.0
  O  O61  1  0.56929000  0.73015000  0.21825000  1.0
  O  O62  1  0.43071000  0.23015000  0.21825000  1.0
  O  O63  1  0.43071000  0.26985000  0.78174000  1.0
  O  O64  1  0.99626000  0.98601000  0.72565000  1.0
  O  O65  1  0.99624000  0.51399000  0.27434000  1.0
  O  O66  1  0.00375000  0.01400000  0.27434000  1.0
  O  O67  1  0.00373000  0.48599000  0.72566000  1.0
  O  O68  1  0.90298000  0.18227000  0.65370000  1.0
  O  O69  1  0.90300000  0.31773000  0.34629000  1.0
  O  O70  1  0.09699000  0.81774000  0.34629000  1.0
  O  O71  1  0.09700000  0.68225000  0.65371000  1.0
  O  O72  1  0.17959000  0.72441000  0.85056000  1.0
  O  O73  1  0.17958000  0.77560000  0.14944000  1.0
  O  O74  1  0.82043000  0.27560000  0.14945000  1.0
  O  O75  1  0.82042000  0.22440000  0.85055000  1.0
