# generated using pymatgen
data_H3PbC7NO4
_symmetry_space_group_name_H-M   'P 1'
_cell_length_a   5.52312000
_cell_length_b   9.85521000
_cell_length_c   14.56080000
_cell_angle_alpha   105.52100000
_cell_angle_beta   89.99540000
_cell_angle_gamma   89.98490000
_symmetry_Int_Tables_number   1
_chemical_formula_structural   H3PbC7NO4
_chemical_formula_sum   'H12 Pb4 C28 N4 O16'
_cell_volume   763.66329941
_cell_formula_units_Z   4
loop_
 _symmetry_equiv_pos_site_id
 _symmetry_equiv_pos_as_xyz
  1  'x, y, z'
loop_
 _atom_site_type_symbol
 _atom_site_label
 _atom_site_symmetry_multiplicity
 _atom_site_fract_x
 _atom_site_fract_y
 _atom_site_fract_z
 _atom_site_occupancy
  H  H0  1  0.76455000  0.20124000  0.21335000  1.0
  H  H1  1  0.26452000  0.29884000  0.28673000  1.0
  H  H2  1  0.23547000  0.79873000  0.78669000  1.0
  H  H3  1  0.73530000  0.70125000  0.71334000  1.0
  H  H4  1  0.14270000  0.22528000  0.12510000  1.0
  H  H5  1  0.64255000  0.27467000  0.37499000  1.0
  H  H6  1  0.85737000  0.77471000  0.87496000  1.0
  H  H7  1  0.35730000  0.72534000  0.62504000  1.0
  H  H8  1  0.37765000  0.00655000  0.04603000  1.0
  H  H9  1  0.87773000  0.49328000  0.45392000  1.0
  H  H10  1  0.62233000  0.99343000  0.95398000  1.0
  H  H11  1  0.12233000  0.50668000  0.54605000  1.0
  Pb  Pb12  1  0.74278000  0.61357000  0.11498000  1.0
  Pb  Pb13  1  0.24291000  0.88646000  0.38502000  1.0
  Pb  Pb14  1  0.25713000  0.38642000  0.88502000  1.0
  Pb  Pb15  1  0.75721000  0.11358000  0.61502000  1.0
  C  C16  1  0.79079000  0.97454000  0.17814000  1.0
  C  C17  1  0.29100000  0.52552000  0.32180000  1.0
  C  C18  1  0.20915000  0.02543000  0.82183000  1.0
  C  C19  1  0.70904000  0.47456000  0.67822000  1.0
  C  C20  1  0.86775000  0.10885000  0.17631000  1.0
  C  C21  1  0.36780000  0.39119000  0.32371000  1.0
  C  C22  1  0.13224000  0.89113000  0.82370000  1.0
  C  C23  1  0.63213000  0.60887000  0.67632000  1.0
  C  C24  1  0.07945000  0.12145000  0.12707000  1.0
  C  C25  1  0.57944000  0.37852000  0.37295000  1.0
  C  C26  1  0.92056000  0.87853000  0.87295000  1.0
  C  C27  1  0.42049000  0.62151000  0.62706000  1.0
  C  C28  1  0.20830000  0.00058000  0.08252000  1.0
  C  C29  1  0.70841000  0.49932000  0.41743000  1.0
  C  C30  1  0.79166000  0.99938000  0.91748000  1.0
  C  C31  1  0.29163000  0.50067000  0.58255000  1.0
  C  C32  1  0.11642000  0.86946000  0.08447000  1.0
  C  C33  1  0.61665000  0.63047000  0.41542000  1.0
  C  C34  1  0.88349000  0.13051000  0.91549000  1.0
  C  C35  1  0.38348000  0.36954000  0.58457000  1.0
  C  C36  1  0.57819000  0.95397000  0.23836000  1.0
  C  C37  1  0.07842000  0.54615000  0.26159000  1.0
  C  C38  1  0.42175000  0.04601000  0.76162000  1.0
  C  C39  1  0.92162000  0.45395000  0.73842000  1.0
  C  C40  1  0.24951000  0.73412000  0.03821000  1.0
  C  C41  1  0.74980000  0.76574000  0.46165000  1.0
  C  C42  1  0.75036000  0.26583000  0.96175000  1.0
  C  C43  1  0.25042000  0.23423000  0.53834000  1.0
  N  N44  1  0.91058000  0.85826000  0.13062000  1.0
  N  N45  1  0.41087000  0.64175000  0.36926000  1.0
  N  N46  1  0.08931000  0.14171000  0.86933000  1.0
  N  N47  1  0.58926000  0.35830000  0.63074000  1.0
  O  O48  1  0.51058000  0.82685000  0.23210000  1.0
  O  O49  1  0.01085000  0.67328000  0.26783000  1.0
  O  O50  1  0.48931000  0.17313000  0.76787000  1.0
  O  O51  1  0.98921000  0.32681000  0.73218000  1.0
  O  O52  1  0.48288000  0.06056000  0.29415000  1.0
  O  O53  1  0.98308000  0.43957000  0.20584000  1.0
  O  O54  1  0.51712000  0.93942000  0.70585000  1.0
  O  O55  1  0.01696000  0.56051000  0.79419000  1.0
  O  O56  1  0.14920000  0.61828000  0.04347000  1.0
  O  O57  1  0.64949000  0.88164000  0.45643000  1.0
  O  O58  1  0.85063000  0.38168000  0.95649000  1.0
  O  O59  1  0.35078000  0.11836000  0.54358000  1.0
  O  O60  1  0.45209000  0.74142000  0.00040000  1.0
  O  O61  1  0.95241000  0.75833000  0.49940000  1.0
  O  O62  1  0.54778000  0.25850000  0.99955000  1.0
  O  O63  1  0.04784000  0.24160000  0.50056000  1.0
