# generated using pymatgen
data_AlH5C14N2O9F
_symmetry_space_group_name_H-M   'P 1'
_cell_length_a   6.64326000
_cell_length_b   11.12303730
_cell_length_c   17.51570000
_cell_angle_alpha   92.34371831
_cell_angle_beta   96.67200000
_cell_angle_gamma   106.71022330
_symmetry_Int_Tables_number   1
_chemical_formula_structural   AlH5C14N2O9F
_chemical_formula_sum   'Al2 H10 C28 N4 O18 F2'
_cell_volume   1227.47850779
_cell_formula_units_Z   2
loop_
 _symmetry_equiv_pos_site_id
 _symmetry_equiv_pos_as_xyz
  1  'x, y, z'
loop_
 _atom_site_type_symbol
 _atom_site_label
 _atom_site_symmetry_multiplicity
 _atom_site_fract_x
 _atom_site_fract_y
 _atom_site_fract_z
 _atom_site_occupancy
  Al  Al0  1  0.00605000  0.50139000  0.49973000  1.0
  Al  Al1  1  0.50299000  0.49799000  0.49894000  1.0
  H  H2  1  0.34903000  0.64574000  0.55612000  1.0
  H  H3  1  0.68779000  0.42335000  0.40757000  1.0
  H  H4  1  0.83634000  0.42781000  0.27415000  1.0
  H  H5  1  0.74989000  0.42804000  0.13262000  1.0
  H  H6  1  0.42145000  0.56022000  0.11455000  1.0
  H  H7  1  0.62238000  0.52270000  0.88876000  1.0
  H  H8  1  0.13304000  0.46946000  0.71378000  1.0
  H  H9  1  0.22170000  0.46132000  0.85498000  1.0
  H  H10  1  0.56668000  0.76443000  0.39069000  1.0
  H  H11  1  0.78047000  0.23322000  0.42227000  1.0
  C  C12  1  0.86641000  0.72517000  0.48959000  1.0
  C  C13  1  0.79135000  0.50391000  0.63630000  1.0
  C  C14  1  0.13770000  0.27609000  0.50830000  1.0
  C  C15  1  0.21286000  0.48961000  0.35997000  1.0
  C  C16  1  0.17357000  0.49157000  0.27503000  1.0
  C  C17  1  0.96277000  0.45597000  0.23840000  1.0
  C  C18  1  0.91438000  0.45618000  0.15948000  1.0
  C  C19  1  0.07859000  0.49262000  0.11302000  1.0
  C  C20  1  0.29089000  0.52963000  0.14839000  1.0
  C  C21  1  0.33413000  0.52890000  0.22766000  1.0
  C  C22  1  0.02933000  0.49222000  0.03227000  1.0
  C  C23  1  0.98070000  0.49071000  0.96277000  1.0
  C  C24  1  0.92874000  0.49095000  0.88214000  1.0
  C  C25  1  0.73491000  0.50886000  0.85127000  1.0
  C  C26  1  0.68986000  0.51215000  0.77223000  1.0
  C  C27  1  0.83046000  0.49816000  0.72102000  1.0
  C  C28  1  0.02258000  0.47980000  0.75298000  1.0
  C  C29  1  0.07196000  0.47567000  0.83162000  1.0
  C  C30  1  0.93464000  0.86649000  0.48918000  1.0
  C  C31  1  0.80644000  0.93200000  0.44800000  1.0
  C  C32  1  0.12199000  0.93543000  0.53352000  1.0
  C  C33  1  0.61690000  0.86675000  0.39887000  1.0
  C  C34  1  0.49598000  0.93244000  0.36058000  1.0
  C  C35  1  0.06211000  0.13436000  0.50324000  1.0
  C  C36  1  0.18349000  0.06781000  0.54157000  1.0
  C  C37  1  0.87123000  0.06711000  0.45515000  1.0
  C  C38  1  0.74142000  0.13146000  0.41464000  1.0
  C  C39  1  0.55693000  0.06559000  0.36956000  1.0
  N  N40  1  0.37600000  0.13658000  0.59506000  1.0
  N  N41  1  0.24937000  0.86859000  0.58116000  1.0
  N  N42  1  0.31230000  0.86204000  0.30451000  1.0
  N  N43  1  0.41457000  0.13737000  0.33917000  1.0
  O  O44  1  0.00809000  0.67205000  0.48101000  1.0
  O  O45  1  0.60308000  0.48638000  0.60336000  1.0
  O  O46  1  0.32643000  0.32460000  0.49491000  1.0
  O  O47  1  0.04996000  0.46820000  0.39566000  1.0
  O  O48  1  0.00417000  0.33251000  0.52178000  1.0
  O  O49  1  0.40216000  0.50700000  0.39235000  1.0
  O  O50  1  0.67680000  0.67397000  0.50076000  1.0
  O  O51  1  0.95529000  0.52699000  0.60153000  1.0
  O  O52  1  0.29513000  0.56107000  0.53079000  1.0
  O  O53  1  0.71568000  0.44097000  0.46328000  1.0
  O  O54  1  0.35182000  0.20753000  0.64687000  1.0
  O  O55  1  0.54380000  0.11599000  0.58368000  1.0
  O  O56  1  0.39651000  0.84335000  0.55372000  1.0
  O  O57  1  0.19435000  0.84335000  0.64496000  1.0
  O  O58  1  0.19037000  0.76631000  0.32531000  1.0
  O  O59  1  0.29895000  0.90329000  0.24016000  1.0
  O  O60  1  0.49546000  0.24226000  0.31669000  1.0
  O  O61  1  0.22267000  0.08892000  0.34147000  1.0
  F  F62  1  0.54200000  0.56919000  0.25849000  1.0
  F  F63  1  0.50487000  0.53434000  0.74559000  1.0
