# generated using pymatgen
data_ZnH13C10N3O5
_symmetry_space_group_name_H-M   'P 1'
_cell_length_a   8.64403000
_cell_length_b   9.14061000
_cell_length_c   16.18600000
_cell_angle_alpha   90.00000000
_cell_angle_beta   90.00000000
_cell_angle_gamma   96.13130000
_symmetry_Int_Tables_number   1
_chemical_formula_structural   ZnH13C10N3O5
_chemical_formula_sum   'Zn4 H52 C40 N12 O20'
_cell_volume   1271.56795073
_cell_formula_units_Z   4
loop_
 _symmetry_equiv_pos_site_id
 _symmetry_equiv_pos_as_xyz
  1  'x, y, z'
loop_
 _atom_site_type_symbol
 _atom_site_label
 _atom_site_symmetry_multiplicity
 _atom_site_fract_x
 _atom_site_fract_y
 _atom_site_fract_z
 _atom_site_occupancy
  Zn  Zn0  1  0.29656000  0.69246000  0.17128000  1.0
  Zn  Zn1  1  0.20344000  0.30754000  0.67128000  1.0
  Zn  Zn2  1  0.70344000  0.30754000  0.82872000  1.0
  Zn  Zn3  1  0.79656000  0.69246000  0.32872000  1.0
  H  H4  1  0.08979000  0.87067000  0.44480000  1.0
  H  H5  1  0.41021000  0.12933000  0.94480000  1.0
  H  H6  1  0.91021000  0.12933000  0.55520000  1.0
  H  H7  1  0.58979000  0.87067000  0.05520000  1.0
  H  H8  1  0.29442000  0.84839000  0.44200000  1.0
  H  H9  1  0.20558000  0.15162000  0.94199000  1.0
  H  H10  1  0.70558000  0.15161000  0.55801000  1.0
  H  H11  1  0.79442000  0.84839000  0.05801000  1.0
  H  H12  1  0.15314000  0.69874000  0.46875000  1.0
  H  H13  1  0.34686000  0.30126000  0.96875000  1.0
  H  H14  1  0.84686000  0.30126000  0.53125000  1.0
  H  H15  1  0.65314000  0.69874000  0.03125000  1.0
  H  H16  1  0.37237000  0.74872000  0.86928000  1.0
  H  H17  1  0.12763000  0.25128000  0.36928000  1.0
  H  H18  1  0.62763000  0.25128000  0.13072000  1.0
  H  H19  1  0.87237000  0.74872000  0.63072000  1.0
  H  H20  1  0.26105000  0.57705000  0.85284000  1.0
  H  H21  1  0.23895000  0.42295000  0.35284000  1.0
  H  H22  1  0.73895000  0.42295000  0.14716000  1.0
  H  H23  1  0.76105000  0.57705000  0.64716000  1.0
  H  H24  1  0.44618000  0.58443000  0.90335000  1.0
  H  H25  1  0.05383000  0.41557000  0.40335000  1.0
  H  H26  1  0.55382000  0.41557000  0.09665000  1.0
  H  H27  1  0.94617000  0.58443000  0.59665000  1.0
  H  H28  1  0.07431000  0.88925000  0.07707000  1.0
  H  H29  1  0.42569000  0.11075000  0.57707000  1.0
  H  H30  1  0.92569000  0.11075000  0.92293000  1.0
  H  H31  1  0.57431000  0.88925000  0.42293000  1.0
  H  H32  1  0.02235000  0.15362000  0.07925000  1.0
  H  H33  1  0.47765000  0.84638000  0.57925000  1.0
  H  H34  1  0.97765000  0.84638000  0.92075000  1.0
  H  H35  1  0.52235000  0.15362000  0.42075000  1.0
  H  H36  1  0.41221000  0.23740000  0.24555000  1.0
  H  H37  1  0.08779000  0.76261000  0.74555000  1.0
  H  H38  1  0.58779000  0.76260000  0.75445000  1.0
  H  H39  1  0.91221000  0.23739000  0.25446000  1.0
  H  H40  1  0.44234000  0.96471000  0.23952000  1.0
  H  H41  1  0.05766000  0.03529000  0.73952000  1.0
  H  H42  1  0.55766000  0.03529000  0.76048000  1.0
  H  H43  1  0.94234000  0.96471000  0.26048000  1.0
  H  H44  1  0.99515000  0.37092000  0.09946000  1.0
  H  H45  1  0.50485000  0.62909000  0.59946000  1.0
  H  H46  1  0.00485000  0.62908000  0.90054000  1.0
  H  H47  1  0.49515000  0.37091000  0.40054000  1.0
  H  H48  1  0.98422000  0.60855000  0.18350000  1.0
  H  H49  1  0.51578000  0.39145000  0.68350000  1.0
  H  H50  1  0.01578000  0.39145000  0.81650000  1.0
  H  H51  1  0.48421000  0.60855000  0.31650000  1.0
  H  H52  1  0.04730000  0.62072000  0.08393000  1.0
  H  H53  1  0.45270000  0.37928000  0.58393000  1.0
  H  H54  1  0.95270000  0.37928000  0.91607000  1.0
  H  H55  1  0.54730000  0.62072000  0.41607000  1.0
  C  C56  1  0.16326000  0.74896000  0.33969000  1.0
  C  C57  1  0.33675000  0.25104000  0.83969000  1.0
  C  C58  1  0.83674000  0.25104000  0.66031000  1.0
  C  C59  1  0.66325000  0.74896000  0.16031000  1.0
  C  C60  1  0.17685000  0.79629000  0.42921000  1.0
  C  C61  1  0.32315000  0.20371000  0.92921000  1.0
  C  C62  1  0.82315000  0.20370000  0.57079000  1.0
  C  C63  1  0.67684000  0.79629000  0.07079000  1.0
  C  C64  1  0.26349000  0.65996000  0.97887000  1.0
  C  C65  1  0.23652000  0.34004000  0.47887000  1.0
  C  C66  1  0.73652000  0.34003000  0.02113000  1.0
  C  C67  1  0.76348000  0.65996000  0.52113000  1.0
  C  C68  1  0.34033000  0.63913000  0.89627000  1.0
  C  C69  1  0.15968000  0.36087000  0.39627000  1.0
  C  C70  1  0.65968000  0.36087000  0.10373000  1.0
  C  C71  1  0.84032000  0.63913000  0.60373000  1.0
  C  C72  1  0.14471000  0.97000000  0.11468000  1.0
  C  C73  1  0.35529000  0.03001000  0.61468000  1.0
  C  C74  1  0.85529000  0.03000000  0.88532000  1.0
  C  C75  1  0.64471000  0.96999000  0.38532000  1.0
  C  C76  1  0.11764000  0.11761000  0.11560000  1.0
  C  C77  1  0.38236000  0.88239000  0.61560000  1.0
  C  C78  1  0.88236000  0.88239000  0.88440000  1.0
  C  C79  1  0.61764000  0.11761000  0.38440000  1.0
  C  C80  1  0.21585000  0.21647000  0.16296000  1.0
  C  C81  1  0.28415000  0.78353000  0.66296000  1.0
  C  C82  1  0.78415000  0.78353000  0.83704000  1.0
  C  C83  1  0.71585000  0.21647000  0.33704000  1.0
  C  C84  1  0.33496000  0.16201000  0.20843000  1.0
  C  C85  1  0.16504000  0.83799000  0.70843000  1.0
  C  C86  1  0.66504000  0.83799000  0.79157000  1.0
  C  C87  1  0.83496000  0.16201000  0.29157000  1.0
  C  C88  1  0.35238000  0.01309000  0.20494000  1.0
  C  C89  1  0.14762000  0.98691000  0.70494000  1.0
  C  C90  1  0.64762000  0.98691000  0.79506000  1.0
  C  C91  1  0.85238000  0.01309000  0.29506000  1.0
  C  C92  1  0.20605000  0.37874000  0.16763000  1.0
  C  C93  1  0.29395000  0.62126000  0.66763000  1.0
  C  C94  1  0.79395000  0.62126000  0.83237000  1.0
  C  C95  1  0.70605000  0.37874000  0.33237000  1.0
  N  N96  1  0.25931000  0.91847000  0.15847000  1.0
  N  N97  1  0.24069000  0.08153000  0.65847000  1.0
  N  N98  1  0.74069000  0.08153000  0.84153000  1.0
  N  N99  1  0.75931000  0.91847000  0.34153000  1.0
  N  N100  1  0.07665000  0.43044000  0.13876000  1.0
  N  N101  1  0.42335000  0.56956000  0.63876000  1.0
  N  N102  1  0.92335000  0.56956000  0.86124000  1.0
  N  N103  1  0.57665000  0.43044000  0.36124000  1.0
  N  N104  1  0.06906000  0.58353000  0.14286000  1.0
  N  N105  1  0.43094000  0.41647000  0.64286000  1.0
  N  N106  1  0.93094000  0.41647000  0.85714000  1.0
  N  N107  1  0.56906000  0.58353000  0.35714000  1.0
  O  O108  1  0.28856000  0.72505000  0.30282000  1.0
  O  O109  1  0.21144000  0.27496000  0.80282000  1.0
  O  O110  1  0.71144000  0.27495000  0.69718000  1.0
  O  O111  1  0.78856000  0.72504000  0.19718000  1.0
  O  O112  1  0.03196000  0.73627000  0.30356000  1.0
  O  O113  1  0.46804000  0.26373000  0.80356000  1.0
  O  O114  1  0.96804000  0.26373000  0.69644000  1.0
  O  O115  1  0.53196000  0.73627000  0.19644000  1.0
  O  O116  1  0.34637000  0.65296000  0.04310000  1.0
  O  O117  1  0.15364000  0.34703000  0.54310000  1.0
  O  O118  1  0.65364000  0.34703000  0.95690000  1.0
  O  O119  1  0.84636000  0.65297000  0.45690000  1.0
  O  O120  1  0.12004000  0.68626000  0.97922000  1.0
  O  O121  1  0.37996000  0.31374000  0.47922000  1.0
  O  O122  1  0.87996000  0.31374000  0.02078000  1.0
  O  O123  1  0.62003000  0.68626000  0.52078000  1.0
  O  O124  1  0.31669000  0.45934000  0.19970000  1.0
  O  O125  1  0.18330000  0.54066000  0.69971000  1.0
  O  O126  1  0.68331000  0.54066000  0.80030000  1.0
  O  O127  1  0.81669000  0.45934000  0.30029000  1.0
