# generated using pymatgen
data_Ni2H28C38N2O11
_symmetry_space_group_name_H-M   'P 1'
_cell_length_a   10.38600000
_cell_length_b   11.24127192
_cell_length_c   21.82300000
_cell_angle_alpha   86.13827829
_cell_angle_beta   89.99320000
_cell_angle_gamma   62.49595316
_symmetry_Int_Tables_number   1
_chemical_formula_structural   Ni2H28C38N2O11
_chemical_formula_sum   'Ni4 H56 C76 N4 O22'
_cell_volume   2253.39668089
_cell_formula_units_Z   2
loop_
 _symmetry_equiv_pos_site_id
 _symmetry_equiv_pos_as_xyz
  1  'x, y, z'
loop_
 _atom_site_type_symbol
 _atom_site_label
 _atom_site_symmetry_multiplicity
 _atom_site_fract_x
 _atom_site_fract_y
 _atom_site_fract_z
 _atom_site_occupancy
  Ni  Ni0  1  0.25431000  0.02014000  0.67213000  1.0
  Ni  Ni1  1  0.27471000  0.97961000  0.82796000  1.0
  Ni  Ni2  1  0.74569000  0.97987000  0.32788000  1.0
  Ni  Ni3  1  0.72526000  0.02041000  0.17204000  1.0
  H  H4  1  0.26496000  0.92399000  0.57670000  1.0
  H  H5  1  0.18899000  0.07591000  0.92326000  1.0
  H  H6  1  0.73504000  0.07600000  0.42330000  1.0
  H  H7  1  0.81100000  0.92409000  0.07674000  1.0
  H  H8  1  0.13070000  0.92607000  0.60787000  1.0
  H  H9  1  0.05699000  0.07365000  0.89204000  1.0
  H  H10  1  0.86931000  0.07393000  0.39213000  1.0
  H  H11  1  0.94300000  0.92635000  0.10796000  1.0
  H  H12  1  0.39540000  0.07964000  0.76422000  1.0
  H  H13  1  0.47509000  0.92055000  0.73573000  1.0
  H  H14  1  0.60461000  0.92036000  0.23578000  1.0
  H  H15  1  0.52491000  0.07944000  0.26428000  1.0
  H  H16  1  0.99161000  0.79827000  0.82405000  1.0
  H  H17  1  0.78997000  0.20175000  0.67599000  1.0
  H  H18  1  0.00836000  0.20175000  0.17594000  1.0
  H  H19  1  0.21002000  0.79826000  0.32401000  1.0
  H  H20  1  0.89741000  0.62920000  0.82391000  1.0
  H  H21  1  0.52687000  0.37106000  0.67617000  1.0
  H  H22  1  0.10256000  0.37081000  0.17608000  1.0
  H  H23  1  0.47312000  0.62895000  0.32382000  1.0
  H  H24  1  0.98534000  0.45704000  0.74811000  1.0
  H  H25  1  0.44287000  0.54299000  0.75204000  1.0
  H  H26  1  0.01465000  0.54296000  0.25188000  1.0
  H  H27  1  0.55712000  0.45702000  0.24796000  1.0
  H  H28  1  0.24353000  0.63274000  0.66704000  1.0
  H  H29  1  0.87670000  0.36674000  0.83313000  1.0
  H  H30  1  0.75648000  0.36726000  0.33297000  1.0
  H  H31  1  0.12331000  0.63326000  0.16686000  1.0
  H  H32  1  0.19227000  0.26990000  0.72495000  1.0
  H  H33  1  0.46256000  0.73000000  0.77516000  1.0
  H  H34  1  0.80774000  0.73010000  0.27505000  1.0
  H  H35  1  0.53744000  0.26999000  0.22484000  1.0
  H  H36  1  0.28751000  0.14212000  0.54971000  1.0
  H  H37  1  0.43033000  0.85759000  0.95040000  1.0
  H  H38  1  0.71250000  0.85787000  0.45030000  1.0
  H  H39  1  0.56965000  0.14241000  0.04960000  1.0
  H  H40  1  0.17272000  0.55512000  0.57884000  1.0
  H  H41  1  0.72824000  0.44460000  0.92119000  1.0
  H  H42  1  0.82729000  0.44487000  0.42116000  1.0
  H  H43  1  0.27178000  0.55541000  0.07881000  1.0
  H  H44  1  0.07735000  0.58471000  0.48504000  1.0
  H  H45  1  0.66191000  0.41520000  0.01503000  1.0
  H  H46  1  0.92266000  0.41529000  0.51496000  1.0
  H  H47  1  0.33807000  0.58483000  0.98497000  1.0
  H  H48  1  0.08635000  0.62682000  0.37300000  1.0
  H  H49  1  0.71272000  0.37309000  0.12711000  1.0
  H  H50  1  0.91366000  0.37317000  0.62700000  1.0
  H  H51  1  0.28728000  0.62691000  0.87288000  1.0
  H  H52  1  0.25105000  0.43921000  0.31065000  1.0
  H  H53  1  0.68996000  0.56072000  0.18945000  1.0
  H  H54  1  0.74896000  0.56078000  0.68935000  1.0
  H  H55  1  0.31004000  0.43927000  0.81054000  1.0
  H  H56  1  0.41952000  0.17826000  0.47499000  1.0
  H  H57  1  0.59846000  0.82146000  0.02512000  1.0
  H  H58  1  0.58049000  0.82173000  0.52501000  1.0
  H  H59  1  0.40152000  0.17856000  0.97488000  1.0
  C  C60  1  0.18241000  0.82297000  0.74666000  1.0
  C  C61  1  0.00558000  0.17658000  0.75352000  1.0
  C  C62  1  0.81758000  0.17703000  0.25334000  1.0
  C  C63  1  0.99440000  0.82343000  0.24648000  1.0
  C  C64  1  0.02497000  0.72438000  0.78977000  1.0
  C  C65  1  0.74962000  0.27546000  0.71034000  1.0
  C  C66  1  0.97501000  0.27563000  0.21023000  1.0
  C  C67  1  0.25036000  0.72455000  0.28966000  1.0
  C  C68  1  0.97467000  0.62897000  0.78999000  1.0
  C  C69  1  0.60399000  0.37100000  0.71014000  1.0
  C  C70  1  0.02532000  0.37104000  0.21000000  1.0
  C  C71  1  0.39600000  0.62901000  0.28987000  1.0
  C  C72  1  0.02380000  0.53232000  0.74711000  1.0
  C  C73  1  0.55657000  0.46764000  0.75303000  1.0
  C  C74  1  0.97619000  0.46769000  0.25288000  1.0
  C  C75  1  0.44342000  0.53237000  0.24698000  1.0
  C  C76  1  0.12077000  0.53200000  0.70205000  1.0
  C  C77  1  0.65326000  0.46786000  0.79806000  1.0
  C  C78  1  0.87924000  0.46800000  0.29795000  1.0
  C  C79  1  0.34672000  0.53216000  0.20194000  1.0
  C  C80  1  0.16696000  0.63106000  0.70086000  1.0
  C  C81  1  0.79838000  0.36857000  0.79928000  1.0
  C  C82  1  0.83306000  0.36893000  0.29914000  1.0
  C  C83  1  0.20161000  0.63144000  0.20072000  1.0
  C  C84  1  0.12157000  0.72547000  0.74512000  1.0
  C  C85  1  0.84733000  0.27416000  0.75503000  1.0
  C  C86  1  0.87843000  0.27453000  0.25489000  1.0
  C  C87  1  0.15266000  0.72584000  0.24497000  1.0
  C  C88  1  0.17327000  0.42785000  0.65756000  1.0
  C  C89  1  0.60181000  0.57203000  0.84251000  1.0
  C  C90  1  0.82674000  0.57214000  0.34244000  1.0
  C  C91  1  0.39819000  0.42797000  0.15749000  1.0
  C  C92  1  0.20148000  0.29670000  0.67693000  1.0
  C  C93  1  0.49876000  0.70316000  0.82316000  1.0
  C  C94  1  0.79853000  0.70329000  0.32307000  1.0
  C  C95  1  0.50124000  0.29683000  0.17684000  1.0
  C  C96  1  0.25910000  0.22469000  0.57906000  1.0
  C  C97  1  0.48442000  0.77503000  0.92105000  1.0
  C  C98  1  0.74092000  0.77530000  0.42094000  1.0
  C  C99  1  0.51555000  0.22498000  0.07895000  1.0
  C  C100  1  0.23629000  0.35215000  0.55501000  1.0
  C  C101  1  0.58903000  0.64758000  0.94507000  1.0
  C  C102  1  0.76373000  0.64784000  0.44499000  1.0
  C  C103  1  0.41097000  0.35243000  0.05493000  1.0
  C  C104  1  0.19379000  0.45400000  0.59575000  1.0
  C  C105  1  0.64837000  0.54580000  0.90431000  1.0
  C  C106  1  0.80623000  0.54598000  0.40425000  1.0
  C  C107  1  0.35163000  0.45422000  0.09569000  1.0
  C  C108  1  0.24651000  0.37803000  0.48845000  1.0
  C  C109  1  0.62491000  0.62171000  0.01164000  1.0
  C  C110  1  0.75352000  0.62195000  0.51155000  1.0
  C  C111  1  0.37508000  0.37831000  0.98836000  1.0
  C  C112  1  0.15487000  0.50469000  0.45866000  1.0
  C  C113  1  0.65950000  0.49514000  0.04143000  1.0
  C  C114  1  0.84515000  0.49529000  0.54134000  1.0
  C  C115  1  0.34049000  0.50487000  0.95856000  1.0
  C  C116  1  0.15770000  0.52778000  0.39523000  1.0
  C  C117  1  0.68523000  0.47209000  0.10486000  1.0
  C  C118  1  0.84232000  0.47220000  0.60477000  1.0
  C  C119  1  0.31477000  0.52791000  0.89513000  1.0
  C  C120  1  0.24966000  0.42396000  0.36035000  1.0
  C  C121  1  0.67352000  0.57589000  0.13973000  1.0
  C  C122  1  0.75036000  0.57603000  0.63964000  1.0
  C  C123  1  0.32647000  0.42411000  0.86026000  1.0
  C  C124  1  0.34387000  0.29802000  0.38939000  1.0
  C  C125  1  0.64210000  0.70176000  0.11070000  1.0
  C  C126  1  0.65613000  0.70197000  0.61062000  1.0
  C  C127  1  0.35790000  0.29824000  0.88930000  1.0
  C  C128  1  0.34320000  0.27615000  0.45318000  1.0
  C  C129  1  0.61985000  0.72358000  0.04689000  1.0
  C  C130  1  0.65681000  0.72384000  0.54682000  1.0
  C  C131  1  0.38015000  0.27643000  0.95311000  1.0
  C  C132  1  0.44566000  0.18797000  0.35177000  1.0
  C  C133  1  0.63382000  0.81180000  0.14832000  1.0
  C  C134  1  0.55435000  0.81201000  0.64823000  1.0
  C  C135  1  0.36619000  0.18820000  0.85168000  1.0
  N  N136  1  0.24284000  0.19800000  0.63859000  1.0
  N  N137  1  0.44135000  0.80179000  0.86153000  1.0
  N  N138  1  0.75719000  0.80199000  0.36141000  1.0
  N  N139  1  0.55864000  0.19821000  0.13847000  1.0
  O  O140  1  0.24263000  0.84120000  0.69834000  1.0
  O  O141  1  0.08398000  0.15839000  0.80185000  1.0
  O  O142  1  0.75737000  0.15880000  0.30166000  1.0
  O  O143  1  0.91603000  0.84161000  0.19815000  1.0
  O  O144  1  0.17277000  0.87605000  0.79725000  1.0
  O  O145  1  0.04908000  0.12339000  0.70298000  1.0
  O  O146  1  0.82721000  0.12397000  0.20275000  1.0
  O  O147  1  0.95091000  0.87663000  0.29701000  1.0
  O  O148  1  0.41101000  0.19230000  0.29567000  1.0
  O  O149  1  0.60387000  0.80719000  0.20447000  1.0
  O  O150  1  0.58900000  0.80768000  0.70433000  1.0
  O  O151  1  0.39615000  0.19280000  0.79553000  1.0
  O  O152  1  0.56256000  0.09612000  0.37911000  1.0
  O  O153  1  0.65842000  0.90393000  0.12098000  1.0
  O  O154  1  0.43746000  0.90387000  0.62090000  1.0
  O  O155  1  0.34156000  0.09608000  0.87903000  1.0
  O  O156  1  0.16292000  0.98483000  0.58499000  1.0
  O  O157  1  0.14791000  0.01497000  0.91498000  1.0
  O  O158  1  0.83710000  0.01516000  0.41502000  1.0
  O  O159  1  0.85208000  0.98504000  0.08503000  1.0
  O  O160  1  0.37931000  0.00001000  0.75000000  1.0
  O  O161  1  0.62070000  0.99999000  0.25000000  1.0
