# generated using pymatgen
data_Cu3H30C30(N14O)2
_symmetry_space_group_name_H-M   'P 1'
_cell_length_a   13.13570000
_cell_length_b   14.53330000
_cell_length_c   15.38560000
_cell_angle_alpha   89.99960000
_cell_angle_beta   89.93600000
_cell_angle_gamma   89.99990000
_symmetry_Int_Tables_number   1
_chemical_formula_structural   Cu3H30C30(N14O)2
_chemical_formula_sum   'Cu6 H60 C60 N56 O4'
_cell_volume   2937.18719422
_cell_formula_units_Z   2
loop_
 _symmetry_equiv_pos_site_id
 _symmetry_equiv_pos_as_xyz
  1  'x, y, z'
loop_
 _atom_site_type_symbol
 _atom_site_label
 _atom_site_symmetry_multiplicity
 _atom_site_fract_x
 _atom_site_fract_y
 _atom_site_fract_z
 _atom_site_occupancy
  Cu  Cu0  1  0.50781000  0.28586000  0.90598000  1.0
  Cu  Cu1  1  0.99219000  0.78586000  0.59402000  1.0
  Cu  Cu2  1  0.49220000  0.71414000  0.09403000  1.0
  Cu  Cu3  1  0.00784000  0.21410000  0.40595000  1.0
  Cu  Cu4  1  0.50000000  0.50000000  0.00000000  1.0
  Cu  Cu5  1  0.00002000  0.99999000  0.50000000  1.0
  H  H6  1  0.79042000  0.15565000  0.13827000  1.0
  H  H7  1  0.76515000  0.42794000  0.24800000  1.0
  H  H8  1  0.22694000  0.31451000  0.15401000  1.0
  H  H9  1  0.10720000  0.21548000  0.23870000  1.0
  H  H10  1  0.13033000  0.38174000  0.45643000  1.0
  H  H11  1  0.25647000  0.48604000  0.38219000  1.0
  H  H12  1  0.88953000  0.37775000  0.36392000  1.0
  H  H13  1  0.91429000  0.11767000  0.25825000  1.0
  H  H14  1  0.52120000  0.01863000  0.08567000  1.0
  H  H15  1  0.49106000  0.99900000  0.19775000  1.0
  H  H16  1  0.60029000  0.06589000  0.16950000  1.0
  H  H17  1  0.39513000  0.23716000  0.22545000  1.0
  H  H18  1  0.50467000  0.18402000  0.27248000  1.0
  H  H19  1  0.38493000  0.12530000  0.27292000  1.0
  H  H20  1  0.38368000  0.23439000  0.08717000  1.0
  H  H21  1  0.70958000  0.65566000  0.36174000  1.0
  H  H22  1  0.73485000  0.92796000  0.25201000  1.0
  H  H23  1  0.27307000  0.81449000  0.34597000  1.0
  H  H24  1  0.39281000  0.71547000  0.26129000  1.0
  H  H25  1  0.36968000  0.88173000  0.04355000  1.0
  H  H26  1  0.24352000  0.98602000  0.11779000  1.0
  H  H27  1  0.61049000  0.87777000  0.13608000  1.0
  H  H28  1  0.58572000  0.61768000  0.24176000  1.0
  H  H29  1  0.97879000  0.51862000  0.41434000  1.0
  H  H30  1  0.00893000  0.49899000  0.30225000  1.0
  H  H31  1  0.89969000  0.56588000  0.33051000  1.0
  H  H32  1  0.10482000  0.73716000  0.27456000  1.0
  H  H33  1  0.99529000  0.68402000  0.22753000  1.0
  H  H34  1  0.11503000  0.62531000  0.22708000  1.0
  H  H35  1  0.11628000  0.73439000  0.41283000  1.0
  H  H36  1  0.20956000  0.84434000  0.86174000  1.0
  H  H37  1  0.23485000  0.57205000  0.75201000  1.0
  H  H38  1  0.77307000  0.68551000  0.84598000  1.0
  H  H39  1  0.89282000  0.78453000  0.76129000  1.0
  H  H40  1  0.86966000  0.61827000  0.54356000  1.0
  H  H41  1  0.74351000  0.51399000  0.61779000  1.0
  H  H42  1  0.11050000  0.62224000  0.63608000  1.0
  H  H43  1  0.08571000  0.88232000  0.74175000  1.0
  H  H44  1  0.47875000  0.98137000  0.91436000  1.0
  H  H45  1  0.50890000  0.00102000  0.80228000  1.0
  H  H46  1  0.39966000  0.93413000  0.83052000  1.0
  H  H47  1  0.60483000  0.76287000  0.77455000  1.0
  H  H48  1  0.49528000  0.81600000  0.72753000  1.0
  H  H49  1  0.61501000  0.87473000  0.72708000  1.0
  H  H50  1  0.61629000  0.76562000  0.91282000  1.0
  H  H51  1  0.29042000  0.34435000  0.63828000  1.0
  H  H52  1  0.26512000  0.07206000  0.74800000  1.0
  H  H53  1  0.72694000  0.18552000  0.65402000  1.0
  H  H54  1  0.60718000  0.28452000  0.73871000  1.0
  H  H55  1  0.63033000  0.11826000  0.95644000  1.0
  H  H56  1  0.75649000  0.01398000  0.88220000  1.0
  H  H57  1  0.38949000  0.12224000  0.86393000  1.0
  H  H58  1  0.41429000  0.38232000  0.75826000  1.0
  H  H59  1  0.02121000  0.48137000  0.58564000  1.0
  H  H60  1  0.99106000  0.50101000  0.69773000  1.0
  H  H61  1  0.10031000  0.43412000  0.66948000  1.0
  H  H62  1  0.89515000  0.26285000  0.72544000  1.0
  H  H63  1  0.00469000  0.31600000  0.77247000  1.0
  H  H64  1  0.88494000  0.37471000  0.77290000  1.0
  H  H65  1  0.88370000  0.26561000  0.58717000  1.0
  C  C66  1  0.69592000  0.32164000  0.11697000  1.0
  C  C67  1  0.76846000  0.29541000  0.18383000  1.0
  C  C68  1  0.81091000  0.20684000  0.18691000  1.0
  C  C69  1  0.79713000  0.35883000  0.24808000  1.0
  C  C70  1  0.32670000  0.46221000  0.21439000  1.0
  C  C71  1  0.25347000  0.40705000  0.26253000  1.0
  C  C72  1  0.20922000  0.33038000  0.22164000  1.0
  C  C73  1  0.14109000  0.27654000  0.26770000  1.0
  C  C74  1  0.15520000  0.36958000  0.38990000  1.0
  C  C75  1  0.22473000  0.42680000  0.34837000  1.0
  C  C76  1  0.86626000  0.33232000  0.31128000  1.0
  C  C77  1  0.87968000  0.18555000  0.25229000  1.0
  C  C78  1  0.52150000  0.04895000  0.15085000  1.0
  C  C79  1  0.43456000  0.17153000  0.23521000  1.0
  C  C80  1  0.42807000  0.17065000  0.07649000  1.0
  C  C81  1  0.80408000  0.82165000  0.38304000  1.0
  C  C82  1  0.73154000  0.79542000  0.31618000  1.0
  C  C83  1  0.68909000  0.70686000  0.31310000  1.0
  C  C84  1  0.70288000  0.85884000  0.25194000  1.0
  C  C85  1  0.17331000  0.96219000  0.28560000  1.0
  C  C86  1  0.24653000  0.90703000  0.23745000  1.0
  C  C87  1  0.29078000  0.83037000  0.27835000  1.0
  C  C88  1  0.35892000  0.77654000  0.23229000  1.0
  C  C89  1  0.34480000  0.86958000  0.11008000  1.0
  C  C90  1  0.27526000  0.92678000  0.15162000  1.0
  C  C91  1  0.63376000  0.83233000  0.18872000  1.0
  C  C92  1  0.62034000  0.68556000  0.24771000  1.0
  C  C93  1  0.97848000  0.54894000  0.34916000  1.0
  C  C94  1  0.06539000  0.67153000  0.26480000  1.0
  C  C95  1  0.07192000  0.67065000  0.42351000  1.0
  C  C96  1  0.30407000  0.67835000  0.88305000  1.0
  C  C97  1  0.23153000  0.70458000  0.81619000  1.0
  C  C98  1  0.18908000  0.79315000  0.81311000  1.0
  C  C99  1  0.20288000  0.64116000  0.75194000  1.0
  C  C100  1  0.67328000  0.53781000  0.78560000  1.0
  C  C101  1  0.74652000  0.59297000  0.73746000  1.0
  C  C102  1  0.79077000  0.66963000  0.77835000  1.0
  C  C103  1  0.85892000  0.72346000  0.73229000  1.0
  C  C104  1  0.84479000  0.63042000  0.61009000  1.0
  C  C105  1  0.77525000  0.57322000  0.65162000  1.0
  C  C106  1  0.13376000  0.66767000  0.68872000  1.0
  C  C107  1  0.12033000  0.81444000  0.74771000  1.0
  C  C108  1  0.47845000  0.95107000  0.84918000  1.0
  C  C109  1  0.56539000  0.82850000  0.76479000  1.0
  C  C110  1  0.57192000  0.82935000  0.92350000  1.0
  C  C111  1  0.19592000  0.17836000  0.61697000  1.0
  C  C112  1  0.26845000  0.20459000  0.68384000  1.0
  C  C113  1  0.31090000  0.29316000  0.68691000  1.0
  C  C114  1  0.29710000  0.14117000  0.74809000  1.0
  C  C115  1  0.82672000  0.03782000  0.71440000  1.0
  C  C116  1  0.75349000  0.09297000  0.76253000  1.0
  C  C117  1  0.70923000  0.16963000  0.72165000  1.0
  C  C118  1  0.64108000  0.22346000  0.76771000  1.0
  C  C119  1  0.65520000  0.13042000  0.88991000  1.0
  C  C120  1  0.72474000  0.07321000  0.84837000  1.0
  C  C121  1  0.36623000  0.16767000  0.81130000  1.0
  C  C122  1  0.37966000  0.31445000  0.75231000  1.0
  C  C123  1  0.02151000  0.45106000  0.65082000  1.0
  C  C124  1  0.93458000  0.32848000  0.73520000  1.0
  C  C125  1  0.92808000  0.32934000  0.57648000  1.0
  N  N126  1  0.59403000  0.40178000  0.04371000  1.0
  N  N127  1  0.59647000  0.31738000  0.00933000  1.0
  N  N128  1  0.66026000  0.26518000  0.05411000  1.0
  N  N129  1  0.65521000  0.40691000  0.11121000  1.0
  N  N130  1  0.40305000  0.37333000  0.95077000  1.0
  N  N131  1  0.31748000  0.34883000  0.96778000  1.0
  N  N132  1  0.23425000  0.32743000  0.98535000  1.0
  N  N133  1  0.42863000  0.50044000  0.11544000  1.0
  N  N134  1  0.37200000  0.43049000  0.14159000  1.0
  N  N135  1  0.41959000  0.57241000  0.16895000  1.0
  N  N136  1  0.35563000  0.54955000  0.23269000  1.0
  N  N137  1  0.11440000  0.29549000  0.35047000  1.0
  N  N138  1  0.90753000  0.24757000  0.31278000  1.0
  N  N139  1  0.45894000  0.13122000  0.15123000  1.0
  N  N140  1  0.90599000  0.90177000  0.45630000  1.0
  N  N141  1  0.90354000  0.81738000  0.49068000  1.0
  N  N142  1  0.83974000  0.76519000  0.44590000  1.0
  N  N143  1  0.84480000  0.90692000  0.38879000  1.0
  N  N144  1  0.09696000  0.87332000  0.54922000  1.0
  N  N145  1  0.18253000  0.84881000  0.53221000  1.0
  N  N146  1  0.26576000  0.82740000  0.51464000  1.0
  N  N147  1  0.07140000  0.00043000  0.38456000  1.0
  N  N148  1  0.12801000  0.93048000  0.35840000  1.0
  N  N149  1  0.08045000  0.07241000  0.33105000  1.0
  N  N150  1  0.14439000  0.04955000  0.26731000  1.0
  N  N151  1  0.38561000  0.79549000  0.14952000  1.0
  N  N152  1  0.59249000  0.74758000  0.18722000  1.0
  N  N153  1  0.04104000  0.63122000  0.34878000  1.0
  N  N154  1  0.40597000  0.59822000  0.95630000  1.0
  N  N155  1  0.40353000  0.68262000  0.99068000  1.0
  N  N156  1  0.33973000  0.73481000  0.94591000  1.0
  N  N157  1  0.34479000  0.59308000  0.88880000  1.0
  N  N158  1  0.59696000  0.62668000  0.04923000  1.0
  N  N159  1  0.68253000  0.65119000  0.03222000  1.0
  N  N160  1  0.76576000  0.67260000  0.01466000  1.0
  N  N161  1  0.57138000  0.49957000  0.88456000  1.0
  N  N162  1  0.62800000  0.56953000  0.85841000  1.0
  N  N163  1  0.58042000  0.42760000  0.83105000  1.0
  N  N164  1  0.64436000  0.45046000  0.76731000  1.0
  N  N165  1  0.88561000  0.70451000  0.64952000  1.0
  N  N166  1  0.09249000  0.75242000  0.68722000  1.0
  N  N167  1  0.54103000  0.86878000  0.84877000  1.0
  N  N168  1  0.09406000  0.09820000  0.54371000  1.0
  N  N169  1  0.09651000  0.18260000  0.50930000  1.0
  N  N170  1  0.16028000  0.23480000  0.55408000  1.0
  N  N171  1  0.15521000  0.09309000  0.61122000  1.0
  N  N172  1  0.90309000  0.12661000  0.45070000  1.0
  N  N173  1  0.81754000  0.15111000  0.46775000  1.0
  N  N174  1  0.73432000  0.17251000  0.48535000  1.0
  N  N175  1  0.92864000  0.99957000  0.61545000  1.0
  N  N176  1  0.87203000  0.06953000  0.64160000  1.0
  N  N177  1  0.91960000  0.92759000  0.66896000  1.0
  N  N178  1  0.85564000  0.95046000  0.73269000  1.0
  N  N179  1  0.61438000  0.20450000  0.85047000  1.0
  N  N180  1  0.40751000  0.25242000  0.81280000  1.0
  N  N181  1  0.95895000  0.36877000  0.65122000  1.0
  O  O182  1  0.44724000  0.14080000  0.00228000  1.0
  O  O183  1  0.05275000  0.64079000  0.49772000  1.0
  O  O184  1  0.55275000  0.85918000  0.99772000  1.0
  O  O185  1  0.94725000  0.35918000  0.50227000  1.0
