# generated using pymatgen
data_NiH20C24(NO3)2
_symmetry_space_group_name_H-M   'P 1'
_cell_length_a   9.25650000
_cell_length_b   9.36873000
_cell_length_c   11.86570000
_cell_angle_alpha   81.51700000
_cell_angle_beta   87.58490000
_cell_angle_gamma   89.74390000
_symmetry_Int_Tables_number   1
_chemical_formula_structural   NiH20C24(NO3)2
_chemical_formula_sum   'Ni2 H40 C48 N4 O12'
_cell_volume   1016.84973710
_cell_formula_units_Z   2
loop_
 _symmetry_equiv_pos_site_id
 _symmetry_equiv_pos_as_xyz
  1  'x, y, z'
loop_
 _atom_site_type_symbol
 _atom_site_label
 _atom_site_symmetry_multiplicity
 _atom_site_fract_x
 _atom_site_fract_y
 _atom_site_fract_z
 _atom_site_occupancy
  Ni  Ni0  1  0.00000000  0.00000000  0.50000000  1.0
  Ni  Ni1  1  0.50000000  0.00000000  0.00000000  1.0
  H  H2  1  0.03246000  0.99137000  0.70785000  1.0
  H  H3  1  0.52977000  0.00544000  0.77069000  1.0
  H  H4  1  0.96753000  0.00864000  0.29215000  1.0
  H  H5  1  0.47023000  0.99457000  0.22931000  1.0
  H  H6  1  0.86304000  0.05244000  0.70994000  1.0
  H  H7  1  0.36324000  0.95646000  0.75720000  1.0
  H  H8  1  0.13695000  0.94756000  0.29006000  1.0
  H  H9  1  0.63677000  0.04354000  0.24280000  1.0
  H  H10  1  0.67917000  0.28701000  0.14584000  1.0
  H  H11  1  0.17549000  0.70996000  0.35623000  1.0
  H  H12  1  0.32081000  0.71299000  0.85416000  1.0
  H  H13  1  0.82452000  0.29004000  0.64378000  1.0
  H  H14  1  0.80507000  0.42239000  0.45725000  1.0
  H  H15  1  0.30259000  0.58900000  0.03086000  1.0
  H  H16  1  0.19493000  0.57761000  0.54274000  1.0
  H  H17  1  0.69742000  0.41100000  0.96915000  1.0
  H  H18  1  0.55694000  0.52550000  0.09181000  1.0
  H  H19  1  0.06632000  0.46539000  0.41583000  1.0
  H  H20  1  0.44304000  0.47450000  0.90818000  1.0
  H  H21  1  0.93368000  0.53461000  0.58417000  1.0
  H  H22  1  0.91305000  0.74241000  0.39537000  1.0
  H  H23  1  0.41895000  0.24706000  0.10603000  1.0
  H  H24  1  0.08695000  0.25759000  0.60464000  1.0
  H  H25  1  0.58104000  0.75294000  0.89398000  1.0
  H  H26  1  0.56305000  0.71111000  0.21945000  1.0
  H  H27  1  0.08118000  0.28298000  0.28594000  1.0
  H  H28  1  0.43694000  0.28889000  0.78055000  1.0
  H  H29  1  0.91883000  0.71702000  0.71407000  1.0
  H  H30  1  0.69947000  0.99451000  0.60760000  1.0
  H  H31  1  0.21916000  0.99549000  0.89801000  1.0
  H  H32  1  0.30053000  0.00549000  0.39240000  1.0
  H  H33  1  0.78084000  0.00451000  0.10198000  1.0
  H  H34  1  0.46786000  0.86514000  0.59808000  1.0
  H  H35  1  0.99097000  0.13792000  0.90269000  1.0
  H  H36  1  0.53213000  0.13486000  0.40192000  1.0
  H  H37  1  0.00902000  0.86209000  0.09730000  1.0
  H  H38  1  0.45612000  0.67427000  0.46974000  1.0
  H  H39  1  0.97459000  0.33741000  0.02280000  1.0
  H  H40  1  0.54388000  0.32572000  0.53027000  1.0
  H  H41  1  0.02541000  0.66259000  0.97720000  1.0
  C  C42  1  0.75013000  0.34133000  0.30464000  1.0
  C  C43  1  0.24553000  0.66418000  0.18945000  1.0
  C  C44  1  0.24987000  0.65867000  0.69535000  1.0
  C  C45  1  0.75446000  0.33582000  0.81055000  1.0
  C  C46  1  0.68438000  0.57999000  0.34712000  1.0
  C  C47  1  0.19157000  0.42329000  0.14881000  1.0
  C  C48  1  0.31562000  0.42001000  0.65288000  1.0
  C  C49  1  0.80843000  0.57672000  0.85119000  1.0
  C  C50  1  0.82467000  0.19967000  0.33812000  1.0
  C  C51  1  0.31594000  0.80904000  0.15641000  1.0
  C  C52  1  0.17533000  0.80034000  0.66187000  1.0
  C  C53  1  0.68406000  0.19096000  0.84359000  1.0
  C  C54  1  0.68071000  0.36999000  0.20108000  1.0
  C  C55  1  0.17902000  0.62981000  0.29838000  1.0
  C  C56  1  0.31929000  0.63001000  0.79893000  1.0
  C  C57  1  0.82097000  0.37019000  0.70163000  1.0
  C  C58  1  0.81156000  0.76552000  0.43877000  1.0
  C  C59  1  0.32170000  0.22875000  0.06157000  1.0
  C  C60  1  0.18843000  0.23448000  0.56123000  1.0
  C  C61  1  0.67831000  0.77125000  0.93843000  1.0
  C  C62  1  0.75176000  0.44683000  0.37671000  1.0
  C  C63  1  0.25104000  0.56068000  0.11517000  1.0
  C  C64  1  0.24824000  0.55317000  0.62328000  1.0
  C  C65  1  0.74896000  0.43932000  0.88483000  1.0
  C  C66  1  0.61407000  0.60687000  0.24383000  1.0
  C  C67  1  0.12558000  0.39037000  0.25802000  1.0
  C  C68  1  0.38592000  0.39314000  0.75617000  1.0
  C  C69  1  0.87443000  0.60963000  0.74198000  1.0
  C  C70  1  0.61236000  0.50227000  0.17166000  1.0
  C  C71  1  0.11880000  0.49346000  0.33163000  1.0
  C  C72  1  0.38763000  0.49773000  0.82834000  1.0
  C  C73  1  0.88121000  0.50654000  0.66838000  1.0
  C  C74  1  0.68453000  0.69188000  0.42329000  1.0
  C  C75  1  0.19639000  0.31019000  0.07278000  1.0
  C  C76  1  0.31547000  0.30811000  0.57671000  1.0
  C  C77  1  0.80361000  0.68981000  0.92722000  1.0
  C  C78  1  0.56270000  0.83601000  0.54945000  1.0
  C  C79  1  0.08269000  0.16532000  0.94986000  1.0
  C  C80  1  0.43730000  0.16399000  0.45056000  1.0
  C  C81  1  0.91732000  0.83469000  0.05014000  1.0
  C  C82  1  0.69282000  0.90686000  0.55729000  1.0
  C  C83  1  0.20982000  0.08638000  0.94534000  1.0
  C  C84  1  0.30718000  0.09314000  0.44271000  1.0
  C  C85  1  0.79018000  0.91362000  0.05465000  1.0
  C  C86  1  0.55722000  0.72947000  0.47964000  1.0
  C  C87  1  0.07457000  0.27683000  0.01554000  1.0
  C  C88  1  0.44278000  0.27052000  0.52037000  1.0
  C  C89  1  0.92542000  0.72318000  0.98445000  1.0
  N  N90  1  0.81546000  0.87321000  0.50220000  1.0
  N  N91  1  0.32725000  0.11802000  0.00064000  1.0
  N  N92  1  0.18454000  0.12679000  0.49780000  1.0
  N  N93  1  0.67275000  0.88198000  0.99936000  1.0
  O  O94  1  0.82794000  0.10868000  0.26760000  1.0
  O  O95  1  0.30451000  0.90180000  0.22396000  1.0
  O  O96  1  0.17208000  0.89133000  0.73239000  1.0
  O  O97  1  0.69549000  0.09821000  0.77604000  1.0
  O  O98  1  0.88288000  0.18098000  0.43494000  1.0
  O  O99  1  0.38906000  0.82703000  0.06023000  1.0
  O  O100  1  0.11712000  0.81902000  0.56505000  1.0
  O  O101  1  0.61095000  0.17297000  0.93978000  1.0
  O  O102  1  0.95568000  0.05156000  0.66537000  1.0
  O  O103  1  0.45350000  0.93330000  0.79619000  1.0
  O  O104  1  0.04432000  0.94845000  0.33463000  1.0
  O  O105  1  0.54651000  0.06670000  0.20380000  1.0
