# generated using pymatgen
data_Co2H12(C3O2)5
_symmetry_space_group_name_H-M   'P 1'
_cell_length_a   7.58661000
_cell_length_b   10.68620000
_cell_length_c   10.91347319
_cell_angle_alpha   75.54947606
_cell_angle_beta   71.04938822
_cell_angle_gamma   82.58390000
_symmetry_Int_Tables_number   1
_chemical_formula_structural   Co2H12(C3O2)5
_chemical_formula_sum   'Co4 H24 C30 O20'
_cell_volume   809.23215255
_cell_formula_units_Z   2
loop_
 _symmetry_equiv_pos_site_id
 _symmetry_equiv_pos_as_xyz
  1  'x, y, z'
loop_
 _atom_site_type_symbol
 _atom_site_label
 _atom_site_symmetry_multiplicity
 _atom_site_fract_x
 _atom_site_fract_y
 _atom_site_fract_z
 _atom_site_occupancy
  Co  Co0  1  0.48771000  0.36280000  0.97148000  1.0
  Co  Co1  1  0.51219000  0.63639000  0.02847000  1.0
  Co  Co2  1  0.94020000  0.48028000  0.87562000  1.0
  Co  Co3  1  0.06103000  0.51841000  0.12508000  1.0
  H  H4  1  0.72076000  0.98237000  0.95103000  1.0
  H  H5  1  0.27909000  0.01769000  0.04900000  1.0
  H  H6  1  0.25036000  0.77766000  0.81716000  1.0
  H  H7  1  0.74898000  0.22209000  0.18237000  1.0
  H  H8  1  0.21576000  0.19443000  0.74902000  1.0
  H  H9  1  0.78472000  0.80514000  0.25084000  1.0
  H  H10  1  0.78718000  0.01192000  0.68935000  1.0
  H  H11  1  0.21256000  0.98719000  0.31017000  1.0
  H  H12  1  0.98344000  0.18504000  0.52195000  1.0
  H  H13  1  0.01652000  0.81413000  0.47784000  1.0
  H  H14  1  0.51611000  0.33584000  0.37687000  1.0
  H  H15  1  0.48377000  0.66456000  0.62341000  1.0
  H  H16  1  0.32566000  0.16148000  0.53702000  1.0
  H  H17  1  0.67406000  0.83865000  0.46284000  1.0
  H  H18  1  0.44033000  0.19274000  0.21388000  1.0
  H  H19  1  0.56079000  0.80786000  0.78618000  1.0
  H  H20  1  0.29597000  0.31131000  0.23891000  1.0
  H  H21  1  0.70556000  0.68948000  0.76065000  1.0
  H  H22  1  0.41852000  0.46788000  0.73649000  1.0
  H  H23  1  0.57999000  0.53334000  0.26446000  1.0
  H  H24  1  0.61337000  0.38711000  0.70325000  1.0
  H  H25  1  0.38365000  0.61217000  0.29733000  1.0
  H  H26  1  0.30620000  0.57276000  0.91637000  1.0
  H  H27  1  0.69414000  0.43119000  0.08409000  1.0
  C  C28  1  0.84966000  0.22576000  0.85949000  1.0
  C  C29  1  0.15112000  0.77440000  0.13949000  1.0
  C  C30  1  0.95746000  0.10033000  0.84514000  1.0
  C  C31  1  0.04272000  0.89959000  0.15468000  1.0
  C  C32  1  0.86986000  0.98326000  0.89926000  1.0
  C  C33  1  0.12997000  0.01675000  0.10067000  1.0
  C  C34  1  0.97595000  0.86660000  0.89053000  1.0
  C  C35  1  0.02357000  0.13328000  0.10946000  1.0
  C  C36  1  0.88551000  0.74144000  0.95823000  1.0
  C  C37  1  0.11409000  0.25828000  0.04296000  1.0
  C  C38  1  0.16766000  0.86793000  0.82380000  1.0
  C  C39  1  0.83178000  0.13184000  0.17582000  1.0
  C  C40  1  0.25341000  0.98555000  0.77154000  1.0
  C  C41  1  0.74635000  0.01411000  0.22807000  1.0
  C  C42  1  0.15065000  0.10201000  0.78309000  1.0
  C  C43  1  0.84953000  0.89769000  0.21676000  1.0
  C  C44  1  0.54392000  0.07860000  0.62573000  1.0
  C  C45  1  0.45581000  0.92103000  0.37394000  1.0
  C  C46  1  0.72997000  0.08357000  0.61997000  1.0
  C  C47  1  0.26983000  0.91580000  0.37970000  1.0
  C  C48  1  0.83838000  0.18072000  0.52730000  1.0
  C  C49  1  0.16150000  0.81868000  0.47257000  1.0
  C  C50  1  0.76187000  0.27459000  0.44055000  1.0
  C  C51  1  0.23804000  0.72514000  0.55956000  1.0
  C  C52  1  0.57570000  0.26684000  0.44665000  1.0
  C  C53  1  0.42413000  0.73320000  0.55344000  1.0
  C  C54  1  0.46752000  0.16842000  0.53682000  1.0
  C  C55  1  0.53226000  0.83153000  0.46302000  1.0
  C  C56  1  0.87829000  0.37384000  0.33557000  1.0
  C  C57  1  0.12192000  0.62581000  0.66467000  1.0
  O  O58  1  0.67839000  0.22116000  0.92821000  1.0
  O  O59  1  0.32127000  0.77984000  0.06841000  1.0
  O  O60  1  0.93768000  0.32949000  0.80251000  1.0
  O  O61  1  0.06412000  0.67047000  0.19776000  1.0
  O  O62  1  0.71264000  0.74552000  0.01924000  1.0
  O  O63  1  0.28745000  0.25435000  0.98310000  1.0
  O  O64  1  0.98941000  0.63547000  0.95211000  1.0
  O  O65  1  0.01070000  0.36445000  0.04851000  1.0
  O  O66  1  0.44733000  0.97756000  0.71924000  1.0
  O  O67  1  0.55238000  0.02201000  0.28021000  1.0
  O  O68  1  0.05593000  0.36568000  0.30661000  1.0
  O  O69  1  0.94437000  0.63312000  0.69340000  1.0
  O  O70  1  0.80094000  0.46687000  0.26618000  1.0
  O  O71  1  0.19966000  0.53339000  0.73438000  1.0
  O  O72  1  0.32251000  0.52827000  0.00225000  1.0
  O  O73  1  0.67815000  0.47377000  0.99763000  1.0
  O  O74  1  0.42431000  0.28713000  0.18842000  1.0
  O  O75  1  0.57722000  0.71349000  0.81129000  1.0
  O  O76  1  0.53752000  0.44444000  0.75914000  1.0
  O  O77  1  0.46104000  0.55504000  0.24176000  1.0
