# generated using pymatgen
data_AlH2C8Br2O5F
_symmetry_space_group_name_H-M   'P 1'
_cell_length_a   6.61588000
_cell_length_b   8.83272000
_cell_length_c   11.12210000
_cell_angle_alpha   85.55470000
_cell_angle_beta   72.74230000
_cell_angle_gamma   76.06670000
_symmetry_Int_Tables_number   1
_chemical_formula_structural   AlH2C8Br2O5F
_chemical_formula_sum   'Al2 H4 C16 Br4 O10 F2'
_cell_volume   602.39829693
_cell_formula_units_Z   2
loop_
 _symmetry_equiv_pos_site_id
 _symmetry_equiv_pos_as_xyz
  1  'x, y, z'
loop_
 _atom_site_type_symbol
 _atom_site_label
 _atom_site_symmetry_multiplicity
 _atom_site_fract_x
 _atom_site_fract_y
 _atom_site_fract_z
 _atom_site_occupancy
  Al  Al0  1  0.49804000  0.50230000  0.50360000  1.0
  Al  Al1  1  0.99740000  0.50077000  0.50493000  1.0
  H  H2  1  0.79127000  0.59558000  0.35612000  1.0
  H  H3  1  0.27100000  0.31858000  0.57733000  1.0
  H  H4  1  0.22774000  0.26551000  0.23129000  1.0
  H  H5  1  0.40460000  0.31389000  0.76517000  1.0
  C  C6  1  0.37586000  0.48964000  0.27675000  1.0
  C  C7  1  0.14617000  0.77791000  0.50896000  1.0
  C  C8  1  0.61852000  0.52330000  0.72873000  1.0
  C  C9  1  0.84750000  0.22025000  0.50414000  1.0
  C  C10  1  0.89807000  0.04664000  0.50817000  1.0
  C  C11  1  0.09361000  0.95152000  0.50685000  1.0
  C  C12  1  0.44124000  0.49740000  0.13558000  1.0
  C  C13  1  0.37899000  0.39423000  0.06778000  1.0
  C  C14  1  0.55129000  0.60856000  0.07202000  1.0
  C  C15  1  0.26712000  0.27852000  0.12943000  1.0
  C  C16  1  0.20393000  0.18253000  0.06235000  1.0
  C  C17  1  0.54918000  0.52063000  0.87025000  1.0
  C  C18  1  0.60442000  0.62097000  0.93858000  1.0
  C  C19  1  0.43232000  0.40682000  0.93340000  1.0
  C  C20  1  0.36812000  0.30483000  0.86692000  1.0
  C  C21  1  0.25399000  0.19657000  0.92927000  1.0
  Br  Br22  1  0.74079000  0.78043000  0.85443000  1.0
  Br  Br23  1  0.62177000  0.75234000  0.16283000  1.0
  Br  Br24  1  0.04829000  0.03432000  0.15130000  1.0
  Br  Br25  1  0.16667000  0.07003000  0.83297000  1.0
  O  O26  1  0.52609000  0.46020000  0.33008000  1.0
  O  O27  1  0.98867000  0.71228000  0.52957000  1.0
  O  O28  1  0.82161000  0.48941000  0.67494000  1.0
  O  O29  1  0.64772000  0.28744000  0.52524000  1.0
  O  O30  1  0.47009000  0.54968000  0.67408000  1.0
  O  O31  1  0.00714000  0.28465000  0.48191000  1.0
  O  O32  1  0.17238000  0.51507000  0.33119000  1.0
  O  O33  1  0.34586000  0.71232000  0.48747000  1.0
  O  O34  1  0.75812000  0.56305000  0.44399000  1.0
  O  O35  1  0.24439000  0.42983000  0.55895000  1.0
  F  F36  1  0.72771000  0.98551000  0.51519000  1.0
  F  F37  1  0.26438000  0.01304000  0.49912000  1.0
