# generated using pymatgen
data_CuH8C6IN2
_symmetry_space_group_name_H-M   'P 1'
_cell_length_a   7.59733000
_cell_length_b   7.69021000
_cell_length_c   14.22660000
_cell_angle_alpha   89.99960000
_cell_angle_beta   89.99830000
_cell_angle_gamma   104.16960000
_symmetry_Int_Tables_number   1
_chemical_formula_structural   CuH8C6IN2
_chemical_formula_sum   'Cu4 H32 C24 I4 N8'
_cell_volume   805.90135338
_cell_formula_units_Z   4
loop_
 _symmetry_equiv_pos_site_id
 _symmetry_equiv_pos_as_xyz
  1  'x, y, z'
loop_
 _atom_site_type_symbol
 _atom_site_label
 _atom_site_symmetry_multiplicity
 _atom_site_fract_x
 _atom_site_fract_y
 _atom_site_fract_z
 _atom_site_occupancy
  Cu  Cu0  1  0.82896000  0.94064000  0.02095000  1.0
  Cu  Cu1  1  0.67104000  0.55935000  0.52093000  1.0
  Cu  Cu2  1  0.17080000  0.05907000  0.97908000  1.0
  Cu  Cu3  1  0.32918000  0.44092000  0.47908000  1.0
  H  H4  1  0.23650000  0.43639000  0.04739000  1.0
  H  H5  1  0.26347000  0.06359000  0.54739000  1.0
  H  H6  1  0.76318000  0.56324000  0.95259000  1.0
  H  H7  1  0.73682000  0.93674000  0.45259000  1.0
  H  H8  1  0.47795000  0.64562000  0.13737000  1.0
  H  H9  1  0.02203000  0.85434000  0.63737000  1.0
  H  H10  1  0.52180000  0.35416000  0.86256000  1.0
  H  H11  1  0.97819000  0.14589000  0.36257000  1.0
  H  H12  1  0.74163000  0.53598000  0.20128000  1.0
  H  H13  1  0.75836000  0.96397000  0.70128000  1.0
  H  H14  1  0.25821000  0.46379000  0.79865000  1.0
  H  H15  1  0.24181000  0.03627000  0.29867000  1.0
  H  H16  1  0.48878000  0.02001000  0.08107000  1.0
  H  H17  1  0.01120000  0.47998000  0.58107000  1.0
  H  H18  1  0.51102000  0.97977000  0.91901000  1.0
  H  H19  1  0.98900000  0.52023000  0.41900000  1.0
  H  H20  1  0.91936000  0.28025000  0.14815000  1.0
  H  H21  1  0.58064000  0.21975000  0.64816000  1.0
  H  H22  1  0.08042000  0.71955000  0.85183000  1.0
  H  H23  1  0.41957000  0.78047000  0.35182000  1.0
  H  H24  1  0.80340000  0.22673000  0.25798000  1.0
  H  H25  1  0.69658000  0.27322000  0.75798000  1.0
  H  H26  1  0.19649000  0.77310000  0.74199000  1.0
  H  H27  1  0.30354000  0.72697000  0.24199000  1.0
  H  H28  1  0.88300000  0.97032000  0.19307000  1.0
  H  H29  1  0.61700000  0.52966000  0.69306000  1.0
  H  H30  1  0.11683000  0.02948000  0.80695000  1.0
  H  H31  1  0.38322000  0.47057000  0.30695000  1.0
  H  H32  1  0.66256000  0.93417000  0.18862000  1.0
  H  H33  1  0.83745000  0.56579000  0.68861000  1.0
  H  H34  1  0.33726000  0.06560000  0.81142000  1.0
  H  H35  1  0.16274000  0.43445000  0.31141000  1.0
  C  C36  1  0.49389000  0.16038000  0.09555000  1.0
  C  C37  1  0.00609000  0.33962000  0.59554000  1.0
  C  C38  1  0.50587000  0.83937000  0.90449000  1.0
  C  C39  1  0.99414000  0.66064000  0.40449000  1.0
  C  C40  1  0.63693000  0.26828000  0.14567000  1.0
  C  C41  1  0.86305000  0.23169000  0.64567000  1.0
  C  C42  1  0.36285000  0.73151000  0.85431000  1.0
  C  C43  1  0.13718000  0.76853000  0.35432000  1.0
  C  C44  1  0.63157000  0.44646000  0.16291000  1.0
  C  C45  1  0.86841000  0.05350000  0.66291000  1.0
  C  C46  1  0.36819000  0.55330000  0.83706000  1.0
  C  C47  1  0.13183000  0.94674000  0.33708000  1.0
  C  C48  1  0.48611000  0.50718000  0.12831000  1.0
  C  C49  1  0.01387000  0.99277000  0.62831000  1.0
  C  C50  1  0.51365000  0.49258000  0.87167000  1.0
  C  C51  1  0.98637000  0.00746000  0.37169000  1.0
  C  C52  1  0.35002000  0.39129000  0.07737000  1.0
  C  C53  1  0.14996000  0.10870000  0.57737000  1.0
  C  C54  1  0.64971000  0.60843000  0.92265000  1.0
  C  C55  1  0.85029000  0.89159000  0.42265000  1.0
  C  C56  1  0.79419000  0.20115000  0.18145000  1.0
  C  C57  1  0.70582000  0.29883000  0.68145000  1.0
  C  C58  1  0.20567000  0.79864000  0.81854000  1.0
  C  C59  1  0.29434000  0.70140000  0.31854000  1.0
  I  I60  1  0.07508000  0.75725000  0.07531000  1.0
  I  I61  1  0.42491000  0.74272000  0.57531000  1.0
  I  I62  1  0.92468000  0.24241000  0.92469000  1.0
  I  I63  1  0.57532000  0.25759000  0.42470000  1.0
  N  N64  1  0.35313000  0.21952000  0.06070000  1.0
  N  N65  1  0.14686000  0.28045000  0.56069000  1.0
  N  N66  1  0.64660000  0.78018000  0.93934000  1.0
  N  N67  1  0.85338000  0.71982000  0.43933000  1.0
  N  N68  1  0.77988000  0.01065000  0.15998000  1.0
  N  N69  1  0.72012000  0.48933000  0.65997000  1.0
  N  N70  1  0.21994000  0.98915000  0.84005000  1.0
  N  N71  1  0.28007000  0.51089000  0.34004000  1.0
