# generated using pymatgen
data_Bi2H3C7NO6
_symmetry_space_group_name_H-M   'P 1'
_cell_length_a   3.98141000
_cell_length_b   11.91100000
_cell_length_c   20.81185769
_cell_angle_alpha   89.08777649
_cell_angle_beta   84.49872741
_cell_angle_gamma   80.40020000
_symmetry_Int_Tables_number   1
_chemical_formula_structural   Bi2H3C7NO6
_chemical_formula_sum   'Bi8 H12 C28 N4 O24'
_cell_volume   968.64903202
_cell_formula_units_Z   4
loop_
 _symmetry_equiv_pos_site_id
 _symmetry_equiv_pos_as_xyz
  1  'x, y, z'
loop_
 _atom_site_type_symbol
 _atom_site_label
 _atom_site_symmetry_multiplicity
 _atom_site_fract_x
 _atom_site_fract_y
 _atom_site_fract_z
 _atom_site_occupancy
  Bi  Bi0  1  0.90446000  0.27380000  0.90864000  1.0
  Bi  Bi1  1  0.08710000  0.72612000  0.09149000  1.0
  Bi  Bi2  1  0.56180000  0.77391000  0.59136000  1.0
  Bi  Bi3  1  0.92800000  0.22627000  0.40851000  1.0
  Bi  Bi4  1  0.28658000  0.53125000  0.92644000  1.0
  Bi  Bi5  1  0.74198000  0.46886000  0.07347000  1.0
  Bi  Bi6  1  0.96154000  0.03149000  0.57351000  1.0
  Bi  Bi7  1  0.56399000  0.96887000  0.42654000  1.0
  H  H8  1  0.74452000  0.97846000  0.04858000  1.0
  H  H9  1  0.76959000  0.02159000  0.95154000  1.0
  H  H10  1  0.54311000  0.47833000  0.45142000  1.0
  H  H11  1  0.47139000  0.52175000  0.54843000  1.0
  H  H12  1  0.18391000  0.22792000  0.18363000  1.0
  H  H13  1  0.59953000  0.77180000  0.81610000  1.0
  H  H14  1  0.11855000  0.72795000  0.31638000  1.0
  H  H15  1  0.16495000  0.27196000  0.68382000  1.0
  H  H16  1  0.41808000  0.87079000  0.23086000  1.0
  H  H17  1  0.52314000  0.12897000  0.76893000  1.0
  H  H18  1  0.39889000  0.37081000  0.26913000  1.0
  H  H19  1  0.04240000  0.62906000  0.73109000  1.0
  C  C20  1  0.60587000  0.00165000  0.09550000  1.0
  C  C21  1  0.70370000  0.99827000  0.90445000  1.0
  C  C22  1  0.45166000  0.50160000  0.40450000  1.0
  C  C23  1  0.35842000  0.49839000  0.59553000  1.0
  C  C24  1  0.46366000  0.11495000  0.10946000  1.0
  C  C25  1  0.69036000  0.88486000  0.89040000  1.0
  C  C26  1  0.32370000  0.61494000  0.39056000  1.0
  C  C27  1  0.33065000  0.38500000  0.60955000  1.0
  C  C28  1  0.29436000  0.14033000  0.17063000  1.0
  C  C29  1  0.60858000  0.85942000  0.82919000  1.0
  C  C30  1  0.21579000  0.64036000  0.32939000  1.0
  C  C31  1  0.18730000  0.35957000  0.67075000  1.0
  C  C32  1  0.27866000  0.05238000  0.21562000  1.0
  C  C33  1  0.54883000  0.94741000  0.78426000  1.0
  C  C34  1  0.24490000  0.55244000  0.28438000  1.0
  C  C35  1  0.08304000  0.44752000  0.71571000  1.0
  C  C36  1  0.42636000  0.94124000  0.19696000  1.0
  C  C37  1  0.56702000  0.05856000  0.80288000  1.0
  C  C38  1  0.37346000  0.44128000  0.30303000  1.0
  C  C39  1  0.12010000  0.55867000  0.69712000  1.0
  C  C40  1  0.51691000  0.20636000  0.06074000  1.0
  C  C41  1  0.78423000  0.79364000  0.93933000  1.0
  C  C42  1  0.32774000  0.70629000  0.43935000  1.0
  C  C43  1  0.47324000  0.29377000  0.56062000  1.0
  C  C44  1  0.12638000  0.07698000  0.28389000  1.0
  C  C45  1  0.48780000  0.92295000  0.71606000  1.0
  C  C46  1  0.16071000  0.57704000  0.21613000  1.0
  C  C47  1  0.95413000  0.42302000  0.78393000  1.0
  N  N48  1  0.58515000  0.91604000  0.13769000  1.0
  N  N49  1  0.64057000  0.08380000  0.86219000  1.0
  N  N50  1  0.47285000  0.41603000  0.36230000  1.0
  N  N51  1  0.25299000  0.58390000  0.63781000  1.0
  O  O52  1  0.74228000  0.17746000  0.01356000  1.0
  O  O53  1  0.93356000  0.82250000  0.98652000  1.0
  O  O54  1  0.50607000  0.67737000  0.48650000  1.0
  O  O55  1  0.67026000  0.32255000  0.51347000  1.0
  O  O56  1  0.34867000  0.30575000  0.07086000  1.0
  O  O57  1  0.72323000  0.69440000  0.92944000  1.0
  O  O58  1  0.16889000  0.80560000  0.42935000  1.0
  O  O59  1  0.40166000  0.19461000  0.57046000  1.0
  O  O60  1  0.02110000  0.18269000  0.29727000  1.0
  O  O61  1  0.50219000  0.81725000  0.70257000  1.0
  O  O62  1  0.06849000  0.68273000  0.20278000  1.0
  O  O63  1  0.95558000  0.31730000  0.79742000  1.0
  O  O64  1  0.12120000  0.99493000  0.32315000  1.0
  O  O65  1  0.43749000  0.00517000  0.67696000  1.0
  O  O66  1  0.19474000  0.49497000  0.17686000  1.0
  O  O67  1  0.86458000  0.50521000  0.82305000  1.0
  O  O68  1  0.38763000  0.35341000  0.89904000  1.0
  O  O69  1  0.63964000  0.64660000  0.10117000  1.0
  O  O70  1  0.03572000  0.85360000  0.60088000  1.0
  O  O71  1  0.49042000  0.14661000  0.39893000  1.0
  O  O72  1  0.81123000  0.44956000  0.96398000  1.0
  O  O73  1  0.22491000  0.55066000  0.03593000  1.0
  O  O74  1  0.52456000  0.94977000  0.53601000  1.0
  O  O75  1  0.00996000  0.05067000  0.46407000  1.0
