# generated using pymatgen
data_CaH15C17S2N4ClO8
_symmetry_space_group_name_H-M   'P 1'
_cell_length_a   5.59819000
_cell_length_b   10.63310000
_cell_length_c   18.40070000
_cell_angle_alpha   73.26600000
_cell_angle_beta   84.98460000
_cell_angle_gamma   76.34670000
_symmetry_Int_Tables_number   1
_chemical_formula_structural   CaH15C17S2N4ClO8
_chemical_formula_sum   'Ca2 H30 C34 S4 N8 Cl2 O16'
_cell_volume   1019.07334375
_cell_formula_units_Z   2
loop_
 _symmetry_equiv_pos_site_id
 _symmetry_equiv_pos_as_xyz
  1  'x, y, z'
loop_
 _atom_site_type_symbol
 _atom_site_label
 _atom_site_symmetry_multiplicity
 _atom_site_fract_x
 _atom_site_fract_y
 _atom_site_fract_z
 _atom_site_occupancy
  Ca  Ca0  1  0.99999000  0.00000000  0.50000000  1.0
  Ca  Ca1  1  0.49999000  0.50000000  0.50000000  1.0
  H  H2  1  0.00383000  0.72768000  0.24613000  1.0
  H  H3  1  0.99616000  0.27232000  0.75388000  1.0
  H  H4  1  0.76258000  0.69157000  0.94836000  1.0
  H  H5  1  0.23743000  0.30843000  0.05164000  1.0
  H  H6  1  0.07598000  0.66725000  0.97327000  1.0
  H  H7  1  0.92404000  0.33275000  0.02673000  1.0
  H  H8  1  0.86660000  0.82203000  0.97054000  1.0
  H  H9  1  0.13341000  0.17798000  0.02946000  1.0
  H  H10  1  0.36364000  0.89501000  0.08587000  1.0
  H  H11  1  0.63638000  0.10498000  0.91413000  1.0
  H  H12  1  0.64948000  0.42173000  0.31381000  1.0
  H  H13  1  0.35052000  0.57828000  0.68619000  1.0
  H  H14  1  0.30933000  0.46510000  0.10423000  1.0
  H  H15  1  0.69069000  0.53489000  0.89576000  1.0
  H  H16  1  0.48335000  0.96229000  0.33445000  1.0
  H  H17  1  0.51665000  0.03770000  0.66555000  1.0
  H  H18  1  0.05085000  0.30469000  0.17390000  1.0
  H  H19  1  0.94917000  0.69531000  0.82610000  1.0
  H  H20  1  0.09169000  0.20215000  0.31389000  1.0
  H  H21  1  0.90831000  0.79786000  0.68610000  1.0
  H  H22  1  0.97507000  0.57003000  0.56295000  1.0
  H  H23  1  0.02493000  0.42997000  0.43704000  1.0
  H  H24  1  0.13650000  0.44768000  0.62202000  1.0
  H  H25  1  0.86349000  0.55233000  0.37799000  1.0
  H  H26  1  0.77698000  0.09086000  0.28267000  1.0
  H  H27  1  0.22301000  0.90913000  0.71734000  1.0
  H  H28  1  0.67810000  0.20361000  0.19296000  1.0
  H  H29  1  0.32189000  0.79639000  0.80705000  1.0
  H  H30  1  0.93600000  0.06926000  0.19742000  1.0
  H  H31  1  0.06400000  0.93075000  0.80259000  1.0
  C  C32  1  0.89770000  0.68498000  0.13084000  1.0
  C  C33  1  0.10230000  0.31503000  0.86916000  1.0
  C  C34  1  0.77443000  0.60960000  0.19660000  1.0
  C  C35  1  0.22555000  0.39041000  0.80341000  1.0
  C  C36  1  0.81401000  0.65926000  0.06563000  1.0
  C  C37  1  0.18599000  0.34075000  0.93437000  1.0
  C  C38  1  0.88357000  0.71274000  0.98481000  1.0
  C  C39  1  0.11644000  0.28726000  0.01519000  1.0
  C  C40  1  0.26315000  0.84775000  0.20474000  1.0
  C  C41  1  0.73685000  0.15225000  0.79526000  1.0
  C  C42  1  0.48983000  0.45634000  0.20473000  1.0
  C  C43  1  0.51018000  0.54366000  0.79526000  1.0
  C  C44  1  0.29894000  0.86770000  0.27538000  1.0
  C  C45  1  0.70106000  0.13230000  0.72463000  1.0
  C  C46  1  0.39058000  0.90955000  0.14041000  1.0
  C  C47  1  0.60944000  0.09044000  0.85959000  1.0
  C  C48  1  0.51683000  0.39778000  0.28308000  1.0
  C  C49  1  0.48317000  0.60222000  0.71692000  1.0
  C  C50  1  0.32281000  0.42125000  0.16534000  1.0
  C  C51  1  0.67719000  0.57875000  0.83465000  1.0
  C  C52  1  0.45839000  0.94809000  0.27954000  1.0
  C  C53  1  0.54162000  0.05191000  0.72046000  1.0
  C  C54  1  0.54810000  0.98893000  0.14695000  1.0
  C  C55  1  0.45191000  0.01106000  0.85306000  1.0
  C  C56  1  0.37394000  0.30644000  0.32047000  1.0
  C  C57  1  0.62605000  0.69357000  0.67953000  1.0
  C  C58  1  0.18050000  0.33097000  0.20474000  1.0
  C  C59  1  0.81951000  0.66902000  0.79525000  1.0
  C  C60  1  0.58715000  0.01094000  0.21637000  1.0
  C  C61  1  0.41286000  0.98905000  0.78364000  1.0
  C  C62  1  0.20231000  0.27285000  0.28299000  1.0
  C  C63  1  0.79769000  0.72715000  0.71701000  1.0
  C  C64  1  0.75412000  0.09785000  0.22304000  1.0
  C  C65  1  0.24588000  0.90214000  0.77697000  1.0
  S  S66  1  0.14973000  0.79647000  0.36214000  1.0
  S  S67  1  0.85026000  0.20353000  0.63786000  1.0
  S  S68  1  0.42389000  0.23234000  0.41917000  1.0
  S  S69  1  0.57610000  0.76766000  0.58083000  1.0
  N  N70  1  0.05717000  0.75860000  0.13151000  1.0
  N  N71  1  0.94282000  0.24141000  0.86849000  1.0
  N  N72  1  0.10091000  0.77027000  0.19794000  1.0
  N  N73  1  0.89910000  0.22973000  0.80206000  1.0
  N  N74  1  0.63510000  0.54646000  0.16560000  1.0
  N  N75  1  0.36489000  0.45354000  0.83439000  1.0
  N  N76  1  0.65881000  0.57888000  0.08620000  1.0
  N  N77  1  0.34119000  0.42112000  0.91380000  1.0
  Cl  Cl78  1  0.70381000  0.06221000  0.06614000  1.0
  Cl  Cl79  1  0.29621000  0.93778000  0.93387000  1.0
  O  O80  1  0.79094000  0.60301000  0.26465000  1.0
  O  O81  1  0.20906000  0.39699000  0.73535000  1.0
  O  O82  1  0.33117000  0.67743000  0.40215000  1.0
  O  O83  1  0.66880000  0.32255000  0.59785000  1.0
  O  O84  1  0.92968000  0.76320000  0.34306000  1.0
  O  O85  1  0.07030000  0.23681000  0.65694000  1.0
  O  O86  1  0.09698000  0.90237000  0.40175000  1.0
  O  O87  1  0.90303000  0.09762000  0.59825000  1.0
  O  O88  1  0.34323000  0.34448000  0.45472000  1.0
  O  O89  1  0.65676000  0.65552000  0.54528000  1.0
  O  O90  1  0.27247000  0.13232000  0.44424000  1.0
  O  O91  1  0.72752000  0.86768000  0.55575000  1.0
  O  O92  1  0.68811000  0.17327000  0.42765000  1.0
  O  O93  1  0.31188000  0.82673000  0.57235000  1.0
  O  O94  1  0.14535000  0.52083000  0.57580000  1.0
  O  O95  1  0.85464000  0.47918000  0.42420000  1.0
