# generated using pymatgen
data_Zn2H20C32N3O10
_symmetry_space_group_name_H-M   'P 1'
_cell_length_a   10.97680000
_cell_length_b   15.13560000
_cell_length_c   16.66270000
_cell_angle_alpha   90.00000000
_cell_angle_beta   95.78870000
_cell_angle_gamma   89.99990000
_symmetry_Int_Tables_number   1
_chemical_formula_structural   Zn2H20C32N3O10
_chemical_formula_sum   'Zn8 H80 C128 N12 O40'
_cell_volume   2754.23168307
_cell_formula_units_Z   4
loop_
 _symmetry_equiv_pos_site_id
 _symmetry_equiv_pos_as_xyz
  1  'x, y, z'
loop_
 _atom_site_type_symbol
 _atom_site_label
 _atom_site_symmetry_multiplicity
 _atom_site_fract_x
 _atom_site_fract_y
 _atom_site_fract_z
 _atom_site_occupancy
  Zn  Zn0  1  0.77794000  0.11891000  0.03499000  1.0
  Zn  Zn1  1  0.72206000  0.61892000  0.46501000  1.0
  Zn  Zn2  1  0.22206000  0.88108000  0.96501000  1.0
  Zn  Zn3  1  0.27794000  0.38108000  0.53499000  1.0
  Zn  Zn4  1  0.38066000  0.13543000  0.86307000  1.0
  Zn  Zn5  1  0.11934000  0.63542000  0.63693000  1.0
  Zn  Zn6  1  0.61935000  0.86458000  0.13693000  1.0
  Zn  Zn7  1  0.88066000  0.36457000  0.36307000  1.0
  H  H8  1  0.46732000  0.47078000  0.32212000  1.0
  H  H9  1  0.03269000  0.97078000  0.17787000  1.0
  H  H10  1  0.53269000  0.52922000  0.67788000  1.0
  H  H11  1  0.96731000  0.02922000  0.82212000  1.0
  H  H12  1  0.36951000  0.42533000  0.06847000  1.0
  H  H13  1  0.13049000  0.92532000  0.43152000  1.0
  H  H14  1  0.63049000  0.57467000  0.93153000  1.0
  H  H15  1  0.86950000  0.07467000  0.56847000  1.0
  H  H16  1  0.45982000  0.57058000  0.03780000  1.0
  H  H17  1  0.04017000  0.07056000  0.46220000  1.0
  H  H18  1  0.54018000  0.42943000  0.96220000  1.0
  H  H19  1  0.95983000  0.92943000  0.53780000  1.0
  H  H20  1  0.51354000  0.28665000  0.13081000  1.0
  H  H21  1  0.98646000  0.78664000  0.36918000  1.0
  H  H22  1  0.48647000  0.71335000  0.86918000  1.0
  H  H23  1  0.01354000  0.21335000  0.63082000  1.0
  H  H24  1  0.14600000  0.25446000  0.19506000  1.0
  H  H25  1  0.35400000  0.75446000  0.30494000  1.0
  H  H26  1  0.85400000  0.74554000  0.80495000  1.0
  H  H27  1  0.64600000  0.24554000  0.69506000  1.0
  H  H28  1  0.11675000  0.12678000  0.10007000  1.0
  H  H29  1  0.38325000  0.62678000  0.39993000  1.0
  H  H30  1  0.88325000  0.87322000  0.89993000  1.0
  H  H31  1  0.61675000  0.37321000  0.60007000  1.0
  H  H32  1  0.62940000  0.07002000  0.82836000  1.0
  H  H33  1  0.87059000  0.57001000  0.67164000  1.0
  H  H34  1  0.37060000  0.92998000  0.17163000  1.0
  H  H35  1  0.12941000  0.42999000  0.32837000  1.0
  H  H36  1  0.71148000  0.95552000  0.74455000  1.0
  H  H37  1  0.78851000  0.45552000  0.75545000  1.0
  H  H38  1  0.28852000  0.04448000  0.25545000  1.0
  H  H39  1  0.21148000  0.54448000  0.24455000  1.0
  H  H40  1  0.27541000  0.97529000  0.78063000  1.0
  H  H41  1  0.22459000  0.47529000  0.71937000  1.0
  H  H42  1  0.72459000  0.02471000  0.21937000  1.0
  H  H43  1  0.77541000  0.52471000  0.28063000  1.0
  H  H44  1  0.34039000  0.85618000  0.69372000  1.0
  H  H45  1  0.15961000  0.35618000  0.80628000  1.0
  H  H46  1  0.65961000  0.14382000  0.30627000  1.0
  H  H47  1  0.84039000  0.64382000  0.19372000  1.0
  H  H48  1  0.40505000  0.75420000  0.63161000  1.0
  H  H49  1  0.09495000  0.25419000  0.86839000  1.0
  H  H50  1  0.59495000  0.24581000  0.36839000  1.0
  H  H51  1  0.90505000  0.74581000  0.13161000  1.0
  H  H52  1  0.48601000  0.65161000  0.53553000  1.0
  H  H53  1  0.01398000  0.15160000  0.96448000  1.0
  H  H54  1  0.51399000  0.34839000  0.46448000  1.0
  H  H55  1  0.98601000  0.84840000  0.03552000  1.0
  H  H56  1  0.75962000  0.88394000  0.65230000  1.0
  H  H57  1  0.74037000  0.38394000  0.84770000  1.0
  H  H58  1  0.24038000  0.11606000  0.34770000  1.0
  H  H59  1  0.25962000  0.61607000  0.15230000  1.0
  H  H60  1  0.82560000  0.77401000  0.55672000  1.0
  H  H61  1  0.67440000  0.27401000  0.94328000  1.0
  H  H62  1  0.17440000  0.22598000  0.44328000  1.0
  H  H63  1  0.32560000  0.72599000  0.05672000  1.0
  H  H64  1  0.26581000  0.23216000  0.75250000  1.0
  H  H65  1  0.23419000  0.73215000  0.74750000  1.0
  H  H66  1  0.73419000  0.76784000  0.24750000  1.0
  H  H67  1  0.76581000  0.26784000  0.25250000  1.0
  H  H68  1  0.24289000  0.13876000  0.71673000  1.0
  H  H69  1  0.25711000  0.63876000  0.78327000  1.0
  H  H70  1  0.75711000  0.86124000  0.28327000  1.0
  H  H71  1  0.74289000  0.36124000  0.21673000  1.0
  H  H72  1  0.92116000  0.30354000  0.14983000  1.0
  H  H73  1  0.57884000  0.80354000  0.35017000  1.0
  H  H74  1  0.07884000  0.69646000  0.85017000  1.0
  H  H75  1  0.42115000  0.19646000  0.64983000  1.0
  H  H76  1  0.07040000  0.36531000  0.06342000  1.0
  H  H77  1  0.42960000  0.86531000  0.43658000  1.0
  H  H78  1  0.92959000  0.63469000  0.93658000  1.0
  H  H79  1  0.57040000  0.13469000  0.56342000  1.0
  H  H80  1  0.81485000  0.58069000  0.00798000  1.0
  H  H81  1  0.68514000  0.08069000  0.49202000  1.0
  H  H82  1  0.18513000  0.41930000  0.99202000  1.0
  H  H83  1  0.31485000  0.91931000  0.50798000  1.0
  H  H84  1  0.67812000  0.50856000  0.09437000  1.0
  H  H85  1  0.82188000  0.00856000  0.40564000  1.0
  H  H86  1  0.32188000  0.49144000  0.90564000  1.0
  H  H87  1  0.17811000  0.99144000  0.59436000  1.0
  C  C88  1  0.59679000  0.62008000  0.30998000  1.0
  C  C89  1  0.90321000  0.12008000  0.19002000  1.0
  C  C90  1  0.40321000  0.37992000  0.69002000  1.0
  C  C91  1  0.09679000  0.87992000  0.80998000  1.0
  C  C92  1  0.52303000  0.57171000  0.24275000  1.0
  C  C93  1  0.97698000  0.07171000  0.25725000  1.0
  C  C94  1  0.47698000  0.42829000  0.75725000  1.0
  C  C95  1  0.02302000  0.92829000  0.74275000  1.0
  C  C96  1  0.46604000  0.49237000  0.25970000  1.0
  C  C97  1  0.03397000  0.99237000  0.24029000  1.0
  C  C98  1  0.53397000  0.50763000  0.74029000  1.0
  C  C99  1  0.96603000  0.00762000  0.75970000  1.0
  C  C100  1  0.41017000  0.43921000  0.19772000  1.0
  C  C101  1  0.08983000  0.93921000  0.30227000  1.0
  C  C102  1  0.58983000  0.56079000  0.80227000  1.0
  C  C103  1  0.91017000  0.06079000  0.69773000  1.0
  C  C104  1  0.41117000  0.46665000  0.11733000  1.0
  C  C105  1  0.08883000  0.96664000  0.38267000  1.0
  C  C106  1  0.58883000  0.53336000  0.88267000  1.0
  C  C107  1  0.91117000  0.03336000  0.61733000  1.0
  C  C108  1  0.46260000  0.54782000  0.10013000  1.0
  C  C109  1  0.03740000  0.04781000  0.39987000  1.0
  C  C110  1  0.53740000  0.45219000  0.89987000  1.0
  C  C111  1  0.96260000  0.95219000  0.60013000  1.0
  C  C112  1  0.51887000  0.60111000  0.16199000  1.0
  C  C113  1  0.98113000  0.10110000  0.33801000  1.0
  C  C114  1  0.48113000  0.39890000  0.83801000  1.0
  C  C115  1  0.01887000  0.89889000  0.66199000  1.0
  C  C116  1  0.57485000  0.68733000  0.13898000  1.0
  C  C117  1  0.92515000  0.18733000  0.36102000  1.0
  C  C118  1  0.42515000  0.31267000  0.86101000  1.0
  C  C119  1  0.07486000  0.81267000  0.63898000  1.0
  C  C120  1  0.34112000  0.35971000  0.21996000  1.0
  C  C121  1  0.15888000  0.85970000  0.28003000  1.0
  C  C122  1  0.65889000  0.64030000  0.78003000  1.0
  C  C123  1  0.84112000  0.14030000  0.71997000  1.0
  C  C124  1  0.52168000  0.14913000  0.03222000  1.0
  C  C125  1  0.97832000  0.64913000  0.46778000  1.0
  C  C126  1  0.47833000  0.85087000  0.96778000  1.0
  C  C127  1  0.02168000  0.35087000  0.53222000  1.0
  C  C128  1  0.41110000  0.18096000  0.07036000  1.0
  C  C129  1  0.08891000  0.68096000  0.42963000  1.0
  C  C130  1  0.58891000  0.81904000  0.92963000  1.0
  C  C131  1  0.91109000  0.31904000  0.57037000  1.0
  C  C132  1  0.42457000  0.25410000  0.12205000  1.0
  C  C133  1  0.07542000  0.75410000  0.37795000  1.0
  C  C134  1  0.57543000  0.74590000  0.87794000  1.0
  C  C135  1  0.92457000  0.24590000  0.62205000  1.0
  C  C136  1  0.32809000  0.28289000  0.16419000  1.0
  C  C137  1  0.17191000  0.78288000  0.33581000  1.0
  C  C138  1  0.67191000  0.71711000  0.83581000  1.0
  C  C139  1  0.82809000  0.21711000  0.66419000  1.0
  C  C140  1  0.21794000  0.23499000  0.15788000  1.0
  C  C141  1  0.28206000  0.73499000  0.34212000  1.0
  C  C142  1  0.78206000  0.76501000  0.84212000  1.0
  C  C143  1  0.71795000  0.26500000  0.65788000  1.0
  C  C144  1  0.20254000  0.16375000  0.10538000  1.0
  C  C145  1  0.29747000  0.66375000  0.39462000  1.0
  C  C146  1  0.79747000  0.83625000  0.89462000  1.0
  C  C147  1  0.70253000  0.33625000  0.60538000  1.0
  C  C148  1  0.29687000  0.13771000  0.05928000  1.0
  C  C149  1  0.20313000  0.63771000  0.44072000  1.0
  C  C150  1  0.70313000  0.86229000  0.94072000  1.0
  C  C151  1  0.79687000  0.36229000  0.55928000  1.0
  C  C152  1  0.26626000  0.06200000  0.00198000  1.0
  C  C153  1  0.23374000  0.56199000  0.49802000  1.0
  C  C154  1  0.73374000  0.93800000  0.99802000  1.0
  C  C155  1  0.76626000  0.43800000  0.50198000  1.0
  C  C156  1  0.56850000  0.02171000  0.79711000  1.0
  C  C157  1  0.93150000  0.52170000  0.70289000  1.0
  C  C158  1  0.43150000  0.97829000  0.20289000  1.0
  C  C159  1  0.06850000  0.47830000  0.29711000  1.0
  C  C160  1  0.61345000  0.95666000  0.74935000  1.0
  C  C161  1  0.88655000  0.45665000  0.75065000  1.0
  C  C162  1  0.38655000  0.04334000  0.25065000  1.0
  C  C163  1  0.11345000  0.54334000  0.24935000  1.0
  C  C164  1  0.37125000  0.96790000  0.77067000  1.0
  C  C165  1  0.12875000  0.46790000  0.72933000  1.0
  C  C166  1  0.62875000  0.03210000  0.22932000  1.0
  C  C167  1  0.87125000  0.53210000  0.27067000  1.0
  C  C168  1  0.40920000  0.90081000  0.72240000  1.0
  C  C169  1  0.09080000  0.40081000  0.77761000  1.0
  C  C170  1  0.59080000  0.09919000  0.27761000  1.0
  C  C171  1  0.90920000  0.59919000  0.22239000  1.0
  C  C172  1  0.53298000  0.89549000  0.70868000  1.0
  C  C173  1  0.96702000  0.39549000  0.79133000  1.0
  C  C174  1  0.46702000  0.10451000  0.29132000  1.0
  C  C175  1  0.03298000  0.60451000  0.20867000  1.0
  C  C176  1  0.57543000  0.83027000  0.65148000  1.0
  C  C177  1  0.92456000  0.33027000  0.84852000  1.0
  C  C178  1  0.42457000  0.16973000  0.34852000  1.0
  C  C179  1  0.07543000  0.66973000  0.15148000  1.0
  C  C180  1  0.49862000  0.76311000  0.61671000  1.0
  C  C181  1  0.00138000  0.26311000  0.88330000  1.0
  C  C182  1  0.50138000  0.23689000  0.38329000  1.0
  C  C183  1  0.99862000  0.73689000  0.11670000  1.0
  C  C184  1  0.54328000  0.70472000  0.56254000  1.0
  C  C185  1  0.95671000  0.20472000  0.93747000  1.0
  C  C186  1  0.45671000  0.29528000  0.43747000  1.0
  C  C187  1  0.04329000  0.79528000  0.06253000  1.0
  C  C188  1  0.69469000  0.83403000  0.62842000  1.0
  C  C189  1  0.80531000  0.33403000  0.87158000  1.0
  C  C190  1  0.30531000  0.16597000  0.37158000  1.0
  C  C191  1  0.19469000  0.66597000  0.12842000  1.0
  C  C192  1  0.73258000  0.77321000  0.57399000  1.0
  C  C193  1  0.76741000  0.27321000  0.92602000  1.0
  C  C194  1  0.26742000  0.22679000  0.42602000  1.0
  C  C195  1  0.23258000  0.72679000  0.07398000  1.0
  C  C196  1  0.90096000  0.36440000  0.11590000  1.0
  C  C197  1  0.59904000  0.86440000  0.38410000  1.0
  C  C198  1  0.09904000  0.63560000  0.88410000  1.0
  C  C199  1  0.40096000  0.13560000  0.61590000  1.0
  C  C200  1  0.98426000  0.39992000  0.06727000  1.0
  C  C201  1  0.51574000  0.89992000  0.43272000  1.0
  C  C202  1  0.01573000  0.60008000  0.93272000  1.0
  C  C203  1  0.48426000  0.10008000  0.56728000  1.0
  C  C204  1  0.95654000  0.47921000  0.02543000  1.0
  C  C205  1  0.54345000  0.97921000  0.47457000  1.0
  C  C206  1  0.04345000  0.52079000  0.97457000  1.0
  C  C207  1  0.45654000  0.02079000  0.52543000  1.0
  C  C208  1  0.84286000  0.51772000  0.03537000  1.0
  C  C209  1  0.65713000  0.01772000  0.46463000  1.0
  C  C210  1  0.15713000  0.48228000  0.96463000  1.0
  C  C211  1  0.34286000  0.98228000  0.53537000  1.0
  C  C212  1  0.76479000  0.47727000  0.08483000  1.0
  C  C213  1  0.73521000  0.97727000  0.41517000  1.0
  C  C214  1  0.23521000  0.52273000  0.91517000  1.0
  C  C215  1  0.26478000  0.02273000  0.58483000  1.0
  N  N216  1  0.44825000  0.02868000  0.80587000  1.0
  N  N217  1  0.05174000  0.52867000  0.69413000  1.0
  N  N218  1  0.55175000  0.97133000  0.19413000  1.0
  N  N219  1  0.94826000  0.47133000  0.30587000  1.0
  N  N220  1  0.65821000  0.70950000  0.54093000  1.0
  N  N221  1  0.84178000  0.20949000  0.95908000  1.0
  N  N222  1  0.34179000  0.29050000  0.45908000  1.0
  N  N223  1  0.15821000  0.79050000  0.04092000  1.0
  N  N224  1  0.79221000  0.40203000  0.12526000  1.0
  N  N225  1  0.70779000  0.90203000  0.37475000  1.0
  N  N226  1  0.20779000  0.59797000  0.87475000  1.0
  N  N227  1  0.29220000  0.09797000  0.62526000  1.0
  O  O228  1  0.58365000  0.59296000  0.38230000  1.0
  O  O229  1  0.91635000  0.09295000  0.11770000  1.0
  O  O230  1  0.41635000  0.40705000  0.61770000  1.0
  O  O231  1  0.08365000  0.90705000  0.88230000  1.0
  O  O232  1  0.67022000  0.67923000  0.29397000  1.0
  O  O233  1  0.82980000  0.17924000  0.20603000  1.0
  O  O234  1  0.32979000  0.32077000  0.70603000  1.0
  O  O235  1  0.17021000  0.82076000  0.79397000  1.0
  O  O236  1  0.51967000  0.75750000  0.15992000  1.0
  O  O237  1  0.98033000  0.25749000  0.34008000  1.0
  O  O238  1  0.48033000  0.24250000  0.84008000  1.0
  O  O239  1  0.01968000  0.74250000  0.65992000  1.0
  O  O240  1  0.66569000  0.68559000  0.09896000  1.0
  O  O241  1  0.83431000  0.18559000  0.40104000  1.0
  O  O242  1  0.33431000  0.31442000  0.90104000  1.0
  O  O243  1  0.16570000  0.81442000  0.59896000  1.0
  O  O244  1  0.29148000  0.35936000  0.28333000  1.0
  O  O245  1  0.20851000  0.85935000  0.21666000  1.0
  O  O246  1  0.70853000  0.64064000  0.71666000  1.0
  O  O247  1  0.79148000  0.14065000  0.78334000  1.0
  O  O248  1  0.62530000  0.16389000  0.07350000  1.0
  O  O249  1  0.87470000  0.66390000  0.42650000  1.0
  O  O250  1  0.37470000  0.83611000  0.92650000  1.0
  O  O251  1  0.12530000  0.33611000  0.57350000  1.0
  O  O252  1  0.51098000  0.11032000  0.96509000  1.0
  O  O253  1  0.98902000  0.61032000  0.53491000  1.0
  O  O254  1  0.48903000  0.88968000  0.03490000  1.0
  O  O255  1  0.01098000  0.38968000  0.46510000  1.0
  O  O256  1  0.25816000  0.07426000  0.92621000  1.0
  O  O257  1  0.24183000  0.57425000  0.57379000  1.0
  O  O258  1  0.74184000  0.92574000  0.07379000  1.0
  O  O259  1  0.75817000  0.42575000  0.42621000  1.0
  O  O260  1  0.23955000  0.98934000  0.03448000  1.0
  O  O261  1  0.26046000  0.48934000  0.46552000  1.0
  O  O262  1  0.76046000  0.01066000  0.96552000  1.0
  O  O263  1  0.73954000  0.51066000  0.53448000  1.0
  O  O264  1  0.24001000  0.17249000  0.76866000  1.0
  O  O265  1  0.25999000  0.67249000  0.73134000  1.0
  O  O266  1  0.75999000  0.82751000  0.23134000  1.0
  O  O267  1  0.74001000  0.32751000  0.26866000  1.0
