# generated using pymatgen
data_HgH22C28S2(NO)4
_symmetry_space_group_name_H-M   'P 1'
_cell_length_a   8.49039000
_cell_length_b   12.22960000
_cell_length_c   12.81490000
_cell_angle_alpha   89.99990000
_cell_angle_beta   81.96180000
_cell_angle_gamma   89.99990000
_symmetry_Int_Tables_number   1
_chemical_formula_structural   HgH22C28S2(NO)4
_chemical_formula_sum   'Hg2 H44 C56 S4 N8 O8'
_cell_volume   1317.54997495
_cell_formula_units_Z   2
loop_
 _symmetry_equiv_pos_site_id
 _symmetry_equiv_pos_as_xyz
  1  'x, y, z'
loop_
 _atom_site_type_symbol
 _atom_site_label
 _atom_site_symmetry_multiplicity
 _atom_site_fract_x
 _atom_site_fract_y
 _atom_site_fract_z
 _atom_site_occupancy
  Hg  Hg0  1  0.50000000  0.50000000  1.00000000  1.0
  Hg  Hg1  1  0.50000000  0.00000000  0.50000000  1.0
  H  H2  1  0.50205000  0.23838000  0.76200000  1.0
  H  H3  1  0.49795000  0.73837000  0.73800000  1.0
  H  H4  1  0.49795000  0.76162000  0.23800000  1.0
  H  H5  1  0.50205000  0.26162000  0.26200000  1.0
  H  H6  1  0.45782000  0.40873000  0.66683000  1.0
  H  H7  1  0.54217000  0.90873000  0.83317000  1.0
  H  H8  1  0.54217000  0.59127000  0.33317000  1.0
  H  H9  1  0.45783000  0.09127000  0.16683000  1.0
  H  H10  1  0.26055000  0.54654000  0.74964000  1.0
  H  H11  1  0.73945000  0.04654000  0.75036000  1.0
  H  H12  1  0.73945000  0.45346000  0.25036000  1.0
  H  H13  1  0.26055000  0.95346000  0.24964000  1.0
  H  H14  1  0.11502000  0.51296000  0.92844000  1.0
  H  H15  1  0.88499000  0.01296000  0.57156000  1.0
  H  H16  1  0.88499000  0.48704000  0.07156000  1.0
  H  H17  1  0.11501000  0.98704000  0.42844000  1.0
  H  H18  1  0.00765000  0.19121000  0.18070000  1.0
  H  H19  1  0.99235000  0.69120000  0.31930000  1.0
  H  H20  1  0.99235000  0.80879000  0.81930000  1.0
  H  H21  1  0.00765000  0.30879000  0.68070000  1.0
  H  H22  1  0.82874000  0.14666000  0.34820000  1.0
  H  H23  1  0.17125000  0.64665000  0.15180000  1.0
  H  H24  1  0.17125000  0.85335000  0.65180000  1.0
  H  H25  1  0.82875000  0.35335000  0.84820000  1.0
  H  H26  1  0.91060000  0.46743000  0.46658000  1.0
  H  H27  1  0.08940000  0.96743000  0.03342000  1.0
  H  H28  1  0.08940000  0.53257000  0.53342000  1.0
  H  H29  1  0.91060000  0.03257000  0.96658000  1.0
  H  H30  1  0.10123000  0.50823000  0.30461000  1.0
  H  H31  1  0.89877000  0.00823000  0.19539000  1.0
  H  H32  1  0.89877000  0.49177000  0.69539000  1.0
  H  H33  1  0.10123000  0.99177000  0.80461000  1.0
  H  H34  1  0.41540000  0.19557000  0.03205000  1.0
  H  H35  1  0.58460000  0.69557000  0.46795000  1.0
  H  H36  1  0.58460000  0.80443000  0.96795000  1.0
  H  H37  1  0.41540000  0.30443000  0.53205000  1.0
  H  H38  1  0.44988000  0.12108000  0.91105000  1.0
  H  H39  1  0.55012000  0.62107000  0.58895000  1.0
  H  H40  1  0.55012000  0.87892000  0.08894000  1.0
  H  H41  1  0.44988000  0.37892000  0.41105000  1.0
  H  H42  1  0.25565000  0.13036000  0.98355000  1.0
  H  H43  1  0.74435000  0.63036000  0.51645000  1.0
  H  H44  1  0.74435000  0.86964000  0.01645000  1.0
  H  H45  1  0.25565000  0.36964000  0.48355000  1.0
  C  C46  1  0.22682000  0.35663000  0.94681000  1.0
  C  C47  1  0.77318000  0.85663000  0.55319000  1.0
  C  C48  1  0.77318000  0.64337000  0.05319000  1.0
  C  C49  1  0.22682000  0.14337000  0.44681000  1.0
  C  C50  1  0.33632000  0.27732000  0.89977000  1.0
  C  C51  1  0.66368000  0.77732000  0.60023000  1.0
  C  C52  1  0.66368000  0.72268000  0.10023000  1.0
  C  C53  1  0.33632000  0.22268000  0.39977000  1.0
  C  C54  1  0.41615000  0.29815000  0.79858000  1.0
  C  C55  1  0.58385000  0.79815000  0.70142000  1.0
  C  C56  1  0.58385000  0.70185000  0.20142000  1.0
  C  C57  1  0.41615000  0.20185000  0.29858000  1.0
  C  C58  1  0.38957000  0.39372000  0.74392000  1.0
  C  C59  1  0.61043000  0.89372000  0.75608000  1.0
  C  C60  1  0.61043000  0.60628000  0.25608000  1.0
  C  C61  1  0.38957000  0.10628000  0.24392000  1.0
  C  C62  1  0.28043000  0.47066000  0.79030000  1.0
  C  C63  1  0.71957000  0.97066000  0.70969000  1.0
  C  C64  1  0.71957000  0.52934000  0.20970000  1.0
  C  C65  1  0.28043000  0.02934000  0.29030000  1.0
  C  C66  1  0.19889000  0.45243000  0.89115000  1.0
  C  C67  1  0.80111000  0.95243000  0.60885000  1.0
  C  C68  1  0.80111000  0.54757000  0.10885000  1.0
  C  C69  1  0.19889000  0.04757000  0.39115000  1.0
  C  C70  1  0.17609000  0.37584000  0.13311000  1.0
  C  C71  1  0.82391000  0.87584000  0.36689000  1.0
  C  C72  1  0.82390000  0.62416000  0.86688000  1.0
  C  C73  1  0.17609000  0.12416000  0.63311000  1.0
  C  C74  1  0.06691000  0.35152000  0.23225000  1.0
  C  C75  1  0.93309000  0.85152000  0.26775000  1.0
  C  C76  1  0.93309000  0.64847000  0.76775000  1.0
  C  C77  1  0.06691000  0.14848000  0.73225000  1.0
  C  C78  1  0.98751000  0.25063000  0.24433000  1.0
  C  C79  1  0.01249000  0.75063000  0.25567000  1.0
  C  C80  1  0.01249000  0.74937000  0.75567000  1.0
  C  C81  1  0.98751000  0.24937000  0.74433000  1.0
  C  C82  1  0.88797000  0.22568000  0.33696000  1.0
  C  C83  1  0.11203000  0.72568000  0.16304000  1.0
  C  C84  1  0.11203000  0.77432000  0.66304000  1.0
  C  C85  1  0.88797000  0.27432000  0.83696000  1.0
  C  C86  1  0.86529000  0.30482000  0.41622000  1.0
  C  C87  1  0.13471000  0.80482000  0.08378000  1.0
  C  C88  1  0.13471000  0.69518000  0.58378000  1.0
  C  C89  1  0.86529000  0.19518000  0.91622000  1.0
  C  C90  1  0.93775000  0.40715000  0.40447000  1.0
  C  C91  1  0.06225000  0.90715000  0.09553000  1.0
  C  C92  1  0.06225000  0.59285000  0.59553000  1.0
  C  C93  1  0.93775000  0.09285000  0.90447000  1.0
  C  C94  1  0.04109000  0.42950000  0.31336000  1.0
  C  C95  1  0.95891000  0.92950000  0.18665000  1.0
  C  C96  1  0.95891000  0.57049000  0.68665000  1.0
  C  C97  1  0.04109000  0.07050000  0.81336000  1.0
  C  C98  1  0.36670000  0.17559000  0.95928000  1.0
  C  C99  1  0.63330000  0.67558000  0.54071000  1.0
  C  C100  1  0.63330000  0.82442000  0.04071000  1.0
  C  C101  1  0.36670000  0.32441000  0.45928000  1.0
  S  S102  1  0.34073000  0.45382000  0.16096000  1.0
  S  S103  1  0.65928000  0.95382000  0.33904000  1.0
  S  S104  1  0.65927000  0.54618000  0.83904000  1.0
  S  S105  1  0.34072000  0.04617000  0.66096000  1.0
  N  N106  1  0.14002000  0.33732000  0.04614000  1.0
  N  N107  1  0.85998000  0.83731000  0.45386000  1.0
  N  N108  1  0.85998000  0.66269000  0.95386000  1.0
  N  N109  1  0.14002000  0.16268000  0.54614000  1.0
  N  N110  1  0.76519000  0.28128000  0.51601000  1.0
  N  N111  1  0.23481000  0.78128000  0.98400000  1.0
  N  N112  1  0.23481000  0.71871000  0.48399000  1.0
  N  N113  1  0.76519000  0.21872000  0.01601000  1.0
  O  O114  1  0.74269000  0.35574000  0.58274000  1.0
  O  O115  1  0.25731000  0.85574000  0.91726000  1.0
  O  O116  1  0.25730000  0.64426000  0.41726000  1.0
  O  O117  1  0.74269000  0.14426000  0.08274000  1.0
  O  O118  1  0.70806000  0.18809000  0.53002000  1.0
  O  O119  1  0.29194000  0.68808000  0.96998000  1.0
  O  O120  1  0.29194000  0.81191000  0.46998000  1.0
  O  O121  1  0.70806000  0.31191000  0.03002000  1.0
