# generated using pymatgen
data_Zn2H18C24N3O8
_symmetry_space_group_name_H-M   'P 1'
_cell_length_a   9.67344000
_cell_length_b   10.89690000
_cell_length_c   12.07700000
_cell_angle_alpha   83.79200000
_cell_angle_beta   79.09160000
_cell_angle_gamma   72.65110000
_symmetry_Int_Tables_number   1
_chemical_formula_structural   Zn2H18C24N3O8
_chemical_formula_sum   'Zn4 H36 C48 N6 O16'
_cell_volume   1191.35431462
_cell_formula_units_Z   2
loop_
 _symmetry_equiv_pos_site_id
 _symmetry_equiv_pos_as_xyz
  1  'x, y, z'
loop_
 _atom_site_type_symbol
 _atom_site_label
 _atom_site_symmetry_multiplicity
 _atom_site_fract_x
 _atom_site_fract_y
 _atom_site_fract_z
 _atom_site_occupancy
  Zn  Zn0  1  0.09716000  0.13176000  0.37556000  1.0
  Zn  Zn1  1  0.90284000  0.86824000  0.62444000  1.0
  Zn  Zn2  1  0.39195000  0.06618000  0.16429000  1.0
  Zn  Zn3  1  0.60805000  0.93382000  0.83570000  1.0
  H  H4  1  0.22266000  0.92152000  0.58817000  1.0
  H  H5  1  0.77734000  0.07848000  0.41183000  1.0
  H  H6  1  0.61968000  0.84872000  0.35270000  1.0
  H  H7  1  0.38032000  0.15128000  0.64730000  1.0
  H  H8  1  0.46644000  0.76214000  0.65583000  1.0
  H  H9  1  0.53356000  0.23786000  0.34417000  1.0
  H  H10  1  0.63252000  0.74320000  0.55814000  1.0
  H  H11  1  0.36748000  0.25680000  0.44186000  1.0
  H  H12  1  0.72774000  0.56832000  0.43809000  1.0
  H  H13  1  0.27226000  0.43168000  0.56191000  1.0
  H  H14  1  0.28649000  0.63775000  0.62261000  1.0
  H  H15  1  0.71351000  0.36225000  0.37739000  1.0
  H  H16  1  0.44530000  0.43395000  0.15371000  1.0
  H  H17  1  0.55470000  0.56605000  0.84629000  1.0
  H  H18  1  0.26694000  0.78221000  0.33264000  1.0
  H  H19  1  0.73306000  0.21779000  0.66736000  1.0
  H  H20  1  0.02291000  0.50538000  0.36696000  1.0
  H  H21  1  0.97709000  0.49462000  0.63304000  1.0
  H  H22  1  0.59372000  0.61773000  0.22710000  1.0
  H  H23  1  0.40628000  0.38227000  0.77290000  1.0
  H  H24  1  0.47729000  0.76518000  0.17827000  1.0
  H  H25  1  0.52271000  0.23482000  0.82173000  1.0
  H  H26  1  0.54141000  0.63161000  0.09246000  1.0
  H  H27  1  0.45859000  0.36839000  0.90754000  1.0
  H  H28  1  0.26231000  0.80021000  0.04495000  1.0
  H  H29  1  0.73769000  0.19979000  0.95505000  1.0
  H  H30  1  0.89052000  0.72856000  0.94365000  1.0
  H  H31  1  0.10948000  0.27144000  0.05635000  1.0
  H  H32  1  0.82414000  0.00149000  0.19356000  1.0
  H  H33  1  0.17586000  0.99851000  0.80644000  1.0
  H  H34  1  0.23663000  0.55863000  0.95704000  1.0
  H  H35  1  0.76337000  0.44137000  0.04296000  1.0
  H  H36  1  0.28558000  0.68236000  0.86517000  1.0
  H  H37  1  0.71442000  0.31763000  0.13483000  1.0
  H  H38  1  0.13504000  0.62809000  0.84644000  1.0
  H  H39  1  0.86496000  0.37191000  0.15356000  1.0
  C  C40  1  0.30316000  0.92626000  0.51300000  1.0
  C  C41  1  0.69684000  0.07374000  0.48700000  1.0
  C  C42  1  0.50628000  0.88973000  0.39114000  1.0
  C  C43  1  0.49372000  0.11027000  0.60886000  1.0
  C  C44  1  0.51769000  0.74257000  0.56808000  1.0
  C  C45  1  0.48231000  0.25743000  0.43192000  1.0
  C  C46  1  0.50835000  0.61622000  0.53417000  1.0
  C  C47  1  0.49165000  0.38378000  0.46583000  1.0
  C  C48  1  0.62767000  0.53840000  0.46446000  1.0
  C  C49  1  0.37233000  0.46160000  0.53554000  1.0
  C  C50  1  0.38079000  0.57716000  0.56940000  1.0
  C  C51  1  0.61921000  0.42284000  0.43060000  1.0
  C  C52  1  0.23583000  0.32135000  0.24808000  1.0
  C  C53  1  0.76417000  0.67865000  0.75192000  1.0
  C  C54  1  0.23490000  0.45627000  0.25940000  1.0
  C  C55  1  0.76510000  0.54373000  0.74060000  1.0
  C  C56  1  0.35769000  0.49764000  0.20960000  1.0
  C  C57  1  0.64231000  0.50235000  0.79040000  1.0
  C  C58  1  0.37011000  0.61648000  0.23276000  1.0
  C  C59  1  0.62989000  0.38352000  0.76724000  1.0
  C  C60  1  0.25782000  0.69151000  0.30950000  1.0
  C  C61  1  0.74218000  0.30849000  0.69050000  1.0
  C  C62  1  0.13148000  0.65419000  0.35590000  1.0
  C  C63  1  0.86852000  0.34581000  0.64410000  1.0
  C  C64  1  0.11892000  0.53684000  0.32926000  1.0
  C  C65  1  0.88108000  0.46316000  0.67075000  1.0
  C  C66  1  0.50221000  0.66026000  0.17987000  1.0
  C  C67  1  0.49779000  0.33974000  0.82013000  1.0
  C  C68  1  0.01324000  0.73436000  0.43932000  1.0
  C  C69  1  0.98676000  0.26564000  0.56068000  1.0
  C  C70  1  0.10955000  0.97774000  0.19571000  1.0
  C  C71  1  0.89045000  0.02226000  0.80429000  1.0
  C  C72  1  0.04968000  0.90488000  0.12853000  1.0
  C  C73  1  0.95033000  0.09512000  0.87147000  1.0
  C  C74  1  0.14434000  0.81561000  0.05282000  1.0
  C  C75  1  0.85566000  0.18439000  0.94718000  1.0
  C  C76  1  0.08935000  0.74817000  0.98762000  1.0
  C  C77  1  0.91065000  0.25183000  0.01238000  1.0
  C  C78  1  0.93685000  0.77602000  0.99624000  1.0
  C  C79  1  0.06315000  0.22398000  0.00377000  1.0
  C  C80  1  0.84161000  0.86752000  0.06946000  1.0
  C  C81  1  0.15839000  0.13248000  0.93054000  1.0
  C  C82  1  0.89836000  0.92977000  0.13744000  1.0
  C  C83  1  0.10164000  0.07023000  0.86256000  1.0
  C  C84  1  0.67985000  0.90678000  0.07133000  1.0
  C  C85  1  0.32015000  0.09322000  0.92867000  1.0
  C  C86  1  0.19171000  0.64936000  0.90944000  1.0
  C  C87  1  0.80829000  0.35064000  0.09056000  1.0
  N  N88  1  0.27980000  0.00560000  0.42299000  1.0
  N  N89  1  0.72020000  0.99440000  0.57701000  1.0
  N  N90  1  0.40732000  0.98289000  0.34624000  1.0
  N  N91  1  0.59268000  0.01711000  0.65375000  1.0
  N  N92  1  0.44506000  0.85186000  0.49577000  1.0
  N  N93  1  0.55494000  0.14814000  0.50423000  1.0
  O  O94  1  0.11704000  0.28976000  0.28267000  1.0
  O  O95  1  0.88296000  0.71024000  0.71733000  1.0
  O  O96  1  0.35889000  0.24397000  0.20865000  1.0
  O  O97  1  0.64111000  0.75603000  0.79135000  1.0
  O  O98  1  0.05764000  0.80592000  0.49737000  1.0
  O  O99  1  0.94236000  0.19408000  0.50263000  1.0
  O  O100  1  0.88391000  0.72812000  0.45314000  1.0
  O  O101  1  0.11609000  0.27188000  0.54686000  1.0
  O  O102  1  0.24548000  0.96973000  0.16900000  1.0
  O  O103  1  0.75452000  0.03027000  0.83100000  1.0
  O  O104  1  0.02121000  0.04216000  0.27644000  1.0
  O  O105  1  0.97879000  0.95784000  0.72356000  1.0
  O  O106  1  0.60368000  0.98195000  0.14937000  1.0
  O  O107  1  0.39632000  0.01805000  0.85063000  1.0
  O  O108  1  0.62555000  0.86600000  0.00016000  1.0
  O  O109  1  0.37445000  0.13400000  0.99984000  1.0
