# generated using pymatgen
data_VH4(CO3)2
_symmetry_space_group_name_H-M   'P 1'
_cell_length_a   7.06256000
_cell_length_b   8.12902000
_cell_length_c   8.89020000
_cell_angle_alpha   89.99960000
_cell_angle_beta   90.00100000
_cell_angle_gamma   89.99920000
_symmetry_Int_Tables_number   1
_chemical_formula_structural   VH4(CO3)2
_chemical_formula_sum   'V4 H16 C8 O24'
_cell_volume   510.40141956
_cell_formula_units_Z   4
loop_
 _symmetry_equiv_pos_site_id
 _symmetry_equiv_pos_as_xyz
  1  'x, y, z'
loop_
 _atom_site_type_symbol
 _atom_site_label
 _atom_site_symmetry_multiplicity
 _atom_site_fract_x
 _atom_site_fract_y
 _atom_site_fract_z
 _atom_site_occupancy
  V  V0  1  0.22494000  0.00000000  0.25000000  1.0
  V  V1  1  0.77502000  0.50000000  0.25000000  1.0
  V  V2  1  0.77504000  0.00000000  0.74999000  1.0
  V  V3  1  0.22495000  0.50000000  0.75000000  1.0
  H  H4  1  0.16440000  0.15273000  0.56434000  1.0
  H  H5  1  0.83561000  0.34729000  0.56433000  1.0
  H  H6  1  0.83561000  0.65270000  0.93569000  1.0
  H  H7  1  0.16440000  0.84727000  0.93566000  1.0
  H  H8  1  0.83562000  0.84725000  0.43568000  1.0
  H  H9  1  0.16440000  0.65271000  0.43568000  1.0
  H  H10  1  0.16442000  0.34729000  0.06432000  1.0
  H  H11  1  0.83563000  0.15273000  0.06432000  1.0
  H  H12  1  0.61471000  0.91159000  0.20868000  1.0
  H  H13  1  0.38526000  0.58841000  0.20867000  1.0
  H  H14  1  0.38525000  0.41160000  0.29132000  1.0
  H  H15  1  0.61471000  0.08841000  0.29131000  1.0
  H  H16  1  0.38526000  0.08841000  0.79132000  1.0
  H  H17  1  0.61476000  0.41159000  0.79132000  1.0
  H  H18  1  0.61476000  0.58842000  0.70868000  1.0
  H  H19  1  0.38527000  0.91159000  0.70867000  1.0
  C  C20  1  0.23142000  0.24880000  0.49462000  1.0
  C  C21  1  0.76860000  0.25121000  0.49461000  1.0
  C  C22  1  0.76859000  0.74880000  0.00539000  1.0
  C  C23  1  0.23142000  0.75121000  0.00538000  1.0
  C  C24  1  0.76860000  0.75118000  0.50539000  1.0
  C  C25  1  0.23143000  0.74883000  0.50538000  1.0
  C  C26  1  0.23141000  0.25119000  0.99463000  1.0
  C  C27  1  0.76860000  0.24881000  0.99462000  1.0
  O  O28  1  0.99687000  0.00000000  0.24999000  1.0
  O  O29  1  0.00305000  0.50000000  0.25000000  1.0
  O  O30  1  0.00308000  0.00000000  0.75000000  1.0
  O  O31  1  0.99691000  0.49999000  0.75000000  1.0
  O  O32  1  0.53473000  0.00000000  0.25000000  1.0
  O  O33  1  0.46524000  0.50000000  0.25000000  1.0
  O  O34  1  0.46525000  0.00000000  0.75000000  1.0
  O  O35  1  0.53477000  0.50001000  0.75001000  1.0
  O  O36  1  0.27424000  0.21642000  0.35788000  1.0
  O  O37  1  0.72573000  0.28357000  0.35785000  1.0
  O  O38  1  0.72572000  0.71645000  0.14215000  1.0
  O  O39  1  0.27426000  0.78358000  0.14212000  1.0
  O  O40  1  0.72572000  0.78357000  0.64212000  1.0
  O  O41  1  0.27430000  0.71645000  0.64212000  1.0
  O  O42  1  0.27429000  0.28356000  0.85788000  1.0
  O  O43  1  0.72572000  0.21642000  0.85789000  1.0
  O  O44  1  0.26573000  0.11086000  0.04885000  1.0
  O  O45  1  0.73422000  0.38919000  0.04882000  1.0
  O  O46  1  0.73422000  0.61080000  0.45118000  1.0
  O  O47  1  0.26574000  0.88913000  0.45116000  1.0
  O  O48  1  0.73424000  0.88912000  0.95115000  1.0
  O  O49  1  0.26581000  0.61083000  0.95118000  1.0
  O  O50  1  0.26582000  0.38915000  0.54883000  1.0
  O  O51  1  0.73424000  0.11087000  0.54884000  1.0
