# generated using pymatgen
data_CuH14C10S2(N2O3)2
_symmetry_space_group_name_H-M   'P 1'
_cell_length_a   6.81778000
_cell_length_b   8.07782000
_cell_length_c   13.20220000
_cell_angle_alpha   89.99980000
_cell_angle_beta   90.00010000
_cell_angle_gamma   89.99970000
_symmetry_Int_Tables_number   1
_chemical_formula_structural   CuH14C10S2(N2O3)2
_chemical_formula_sum   'Cu2 H28 C20 S4 N8 O12'
_cell_volume   727.08211539
_cell_formula_units_Z   2
loop_
 _symmetry_equiv_pos_site_id
 _symmetry_equiv_pos_as_xyz
  1  'x, y, z'
loop_
 _atom_site_type_symbol
 _atom_site_label
 _atom_site_symmetry_multiplicity
 _atom_site_fract_x
 _atom_site_fract_y
 _atom_site_fract_z
 _atom_site_occupancy
  Cu  Cu0  1  0.50000000  0.50000000  0.50000000  1.0
  Cu  Cu1  1  0.00000000  0.00000000  0.00000000  1.0
  H  H2  1  0.50000000  0.45251000  0.08627000  1.0
  H  H3  1  0.50000000  0.54749000  0.91373000  1.0
  H  H4  1  0.00000000  0.95252000  0.41373000  1.0
  H  H5  1  0.00000000  0.04748000  0.58627000  1.0
  H  H6  1  0.36809000  0.31301000  0.16917000  1.0
  H  H7  1  0.36809000  0.68699000  0.83083000  1.0
  H  H8  1  0.13192000  0.81301000  0.33084000  1.0
  H  H9  1  0.13192000  0.18699000  0.66916000  1.0
  H  H10  1  0.63192000  0.68699000  0.83083000  1.0
  H  H11  1  0.63191000  0.31300000  0.16917000  1.0
  H  H12  1  0.86808000  0.18699000  0.66916000  1.0
  H  H13  1  0.86808000  0.81301000  0.33084000  1.0
  H  H14  1  0.18348000  0.33313000  0.37913000  1.0
  H  H15  1  0.18348000  0.66687000  0.62087000  1.0
  H  H16  1  0.31652000  0.83313000  0.12087000  1.0
  H  H17  1  0.31652000  0.16687000  0.87913000  1.0
  H  H18  1  0.81652000  0.66687000  0.62087000  1.0
  H  H19  1  0.81652000  0.33313000  0.37913000  1.0
  H  H20  1  0.68348000  0.16687000  0.87913000  1.0
  H  H21  1  0.68348000  0.83313000  0.12087000  1.0
  H  H22  1  0.50000000  0.14194000  0.66173000  1.0
  H  H23  1  0.50000000  0.85806000  0.33827000  1.0
  H  H24  1  0.00000000  0.64194000  0.83827000  1.0
  H  H25  1  0.00000000  0.35805000  0.16173000  1.0
  H  H26  1  0.50000000  0.16659000  0.34761000  1.0
  H  H27  1  0.50000000  0.83341000  0.65239000  1.0
  H  H28  1  0.00000000  0.66659000  0.15239000  1.0
  H  H29  1  0.00000000  0.33341000  0.84761000  1.0
  C  C30  1  0.50000000  0.38885000  0.15959000  1.0
  C  C31  1  0.50000000  0.61115000  0.84041000  1.0
  C  C32  1  0.00000000  0.88885000  0.34041000  1.0
  C  C33  1  0.00000000  0.11115000  0.65959000  1.0
  C  C34  1  0.10225000  0.40756000  0.43356000  1.0
  C  C35  1  0.10225000  0.59243000  0.56644000  1.0
  C  C36  1  0.39775000  0.90757000  0.06644000  1.0
  C  C37  1  0.39776000  0.09244000  0.93356000  1.0
  C  C38  1  0.89776000  0.59244000  0.56644000  1.0
  C  C39  1  0.89775000  0.40757000  0.43356000  1.0
  C  C40  1  0.60225000  0.09243000  0.93356000  1.0
  C  C41  1  0.60224000  0.90756000  0.06644000  1.0
  C  C42  1  0.50000000  0.07944000  0.58866000  1.0
  C  C43  1  0.50000000  0.92056000  0.41134000  1.0
  C  C44  1  0.00000000  0.57944000  0.91134000  1.0
  C  C45  1  0.00000000  0.42056000  0.08866000  1.0
  C  C46  1  0.50000000  0.09313000  0.41635000  1.0
  C  C47  1  0.50000000  0.90687000  0.58366000  1.0
  C  C48  1  0.00000000  0.59312000  0.08365000  1.0
  C  C49  1  0.00000000  0.40687000  0.91634000  1.0
  S  S50  1  0.50000000  0.54400000  0.25509000  1.0
  S  S51  1  0.50000000  0.45600000  0.74491000  1.0
  S  S52  1  0.00000000  0.04400000  0.24491000  1.0
  S  S53  1  0.00000000  0.95600000  0.75509000  1.0
  N  N54  1  0.20369000  0.50000000  0.50000000  1.0
  N  N55  1  0.29631000  0.00000000  0.00000000  1.0
  N  N56  1  0.79632000  0.50000000  0.50000000  1.0
  N  N57  1  0.70368000  0.00000000  0.00000000  1.0
  N  N58  1  0.50000000  0.17433000  0.50518000  1.0
  N  N59  1  0.50000000  0.82567000  0.49482000  1.0
  N  N60  1  0.00000000  0.67433000  0.99482000  1.0
  N  N61  1  0.00000000  0.32567000  0.00518000  1.0
  O  O62  1  0.50000000  0.44368000  0.35116000  1.0
  O  O63  1  0.50000000  0.55632000  0.64884000  1.0
  O  O64  1  0.00000000  0.94368000  0.14884000  1.0
  O  O65  1  0.00000000  0.05632000  0.85116000  1.0
  O  O66  1  0.31980000  0.64077000  0.24419000  1.0
  O  O67  1  0.31980000  0.35923000  0.75580000  1.0
  O  O68  1  0.18020000  0.14077000  0.25581000  1.0
  O  O69  1  0.18021000  0.85923000  0.74419000  1.0
  O  O70  1  0.68021000  0.35923000  0.75581000  1.0
  O  O71  1  0.68020000  0.64077000  0.24419000  1.0
  O  O72  1  0.81980000  0.85923000  0.74419000  1.0
  O  O73  1  0.81980000  0.14077000  0.25581000  1.0
