# generated using pymatgen
data_Zr3H15C25O21
_symmetry_space_group_name_H-M   'P 1'
_cell_length_a   14.79380000
_cell_length_b   14.79377491
_cell_length_c   14.80000000
_cell_angle_alpha   60.04208520
_cell_angle_beta   60.04800000
_cell_angle_gamma   90.07658936
_symmetry_Int_Tables_number   1
_chemical_formula_structural   Zr3H15C25O21
_chemical_formula_sum   'Zr6 H30 C50 O42'
_cell_volume   2291.95499967
_cell_formula_units_Z   2
loop_
 _symmetry_equiv_pos_site_id
 _symmetry_equiv_pos_as_xyz
  1  'x, y, z'
loop_
 _atom_site_type_symbol
 _atom_site_label
 _atom_site_symmetry_multiplicity
 _atom_site_fract_x
 _atom_site_fract_y
 _atom_site_fract_z
 _atom_site_occupancy
  Zr  Zr0  1  0.11777000  0.61768000  0.50139000  1.0
  Zr  Zr1  1  0.88129000  0.38117000  0.49874000  1.0
  Zr  Zr2  1  0.12003000  0.62019000  0.26068000  1.0
  Zr  Zr3  1  0.87860000  0.37878000  0.73963000  1.0
  Zr  Zr4  1  0.11847000  0.38040000  0.50026000  1.0
  Zr  Zr5  1  0.88037000  0.61849000  0.50020000  1.0
  H  H6  1  0.28140000  0.59371000  0.31292000  1.0
  H  H7  1  0.90531000  0.21743000  0.68714000  1.0
  H  H8  1  0.90616000  0.59405000  0.31140000  1.0
  H  H9  1  0.90485000  0.59280000  0.68871000  1.0
  H  H10  1  0.41052000  0.35235000  0.50612000  1.0
  H  H11  1  0.58385000  0.64269000  0.50312000  1.0
  H  H12  1  0.85708000  0.91535000  0.49653000  1.0
  H  H13  1  0.14747000  0.08855000  0.49356000  1.0
  H  H14  1  0.85875000  0.08947000  0.05766000  1.0
  H  H15  1  0.14494000  0.91511000  0.94325000  1.0
  H  H16  1  0.58455000  0.35410000  0.05748000  1.0
  H  H17  1  0.41011000  0.64027000  0.94332000  1.0
  H  H18  1  0.57869000  0.08459000  0.77253000  1.0
  H  H19  1  0.41096000  0.91692000  0.94212000  1.0
  H  H20  1  0.37380000  0.96052000  0.29732000  1.0
  H  H21  1  0.45881000  0.87514000  0.29579000  1.0
  H  H22  1  0.62887000  0.04513000  0.12380000  1.0
  H  H23  1  0.54381000  0.13030000  0.12547000  1.0
  H  H24  1  0.14583000  0.64086000  0.77001000  1.0
  H  H25  1  0.85762000  0.35289000  0.23026000  1.0
  H  H26  1  0.64886000  0.34285000  0.50565000  1.0
  H  H27  1  0.34459000  0.65118000  0.50503000  1.0
  H  H28  1  0.84843000  0.15446000  0.49453000  1.0
  H  H29  1  0.15615000  0.84962000  0.49474000  1.0
  H  H30  1  0.84708000  0.85079000  0.30670000  1.0
  H  H31  1  0.15697000  0.15401000  0.69423000  1.0
  H  H32  1  0.34552000  0.34177000  0.30672000  1.0
  H  H33  1  0.64836000  0.65172000  0.69424000  1.0
  H  H34  1  0.15695000  0.65166000  0.99698000  1.0
  H  H35  1  0.84707000  0.34182000  0.00307000  1.0
  C  C36  1  0.30155000  0.49564000  0.50656000  1.0
  C  C37  1  0.00390000  0.19752000  0.49338000  1.0
  C  C38  1  0.69174000  0.49799000  0.50496000  1.0
  C  C39  1  0.00129000  0.80719000  0.49520000  1.0
  C  C40  1  0.29943000  0.80538000  0.19884000  1.0
  C  C41  1  0.00200000  0.49633000  0.80564000  1.0
  C  C42  1  0.69359000  0.19951000  0.80134000  1.0
  C  C43  1  0.00235000  0.49675000  0.19461000  1.0
  C  C44  1  0.30199000  0.49648000  0.19512000  1.0
  C  C45  1  0.00219000  0.80789000  0.19499000  1.0
  C  C46  1  0.69120000  0.49657000  0.80567000  1.0
  C  C47  1  0.00215000  0.19714000  0.80572000  1.0
  C  C48  1  0.59202000  0.49638000  0.50484000  1.0
  C  C49  1  0.40188000  0.49811000  0.50542000  1.0
  C  C50  1  0.54290000  0.41298000  0.50523000  1.0
  C  C51  1  0.45164000  0.58216000  0.50369000  1.0
  C  C52  1  0.44859000  0.41580000  0.50558000  1.0
  C  C53  1  0.54576000  0.57924000  0.50368000  1.0
  C  C54  1  0.00180000  0.09744000  0.49399000  1.0
  C  C55  1  0.00335000  0.90717000  0.49479000  1.0
  C  C56  1  0.91793000  0.04789000  0.49531000  1.0
  C  C57  1  0.08687000  0.95638000  0.49416000  1.0
  C  C58  1  0.92068000  0.95354000  0.49569000  1.0
  C  C59  1  0.08412000  0.05061000  0.49389000  1.0
  C  C60  1  0.00032000  0.90739000  0.09683000  1.0
  C  C61  1  0.00367000  0.09748000  0.90401000  1.0
  C  C62  1  0.91742000  0.95658000  0.13043000  1.0
  C  C63  1  0.08610000  0.04782000  0.87046000  1.0
  C  C64  1  0.92119000  0.05091000  0.03292000  1.0
  C  C65  1  0.08242000  0.95357000  0.96799000  1.0
  C  C66  1  0.40186000  0.49506000  0.09689000  1.0
  C  C67  1  0.59190000  0.49847000  0.90394000  1.0
  C  C68  1  0.45158000  0.41264000  0.13040000  1.0
  C  C69  1  0.54271000  0.58138000  0.87046000  1.0
  C  C70  1  0.54579000  0.41636000  0.03284000  1.0
  C  C71  1  0.44844000  0.57762000  0.96805000  1.0
  C  C72  1  0.39970000  0.90537000  0.09889000  1.0
  C  C73  1  0.59366000  0.09928000  0.90285000  1.0
  C  C74  1  0.45105000  0.95526000  0.12792000  1.0
  C  C75  1  0.54272000  0.04853000  0.87270000  1.0
  C  C76  1  0.54560000  0.04976000  0.03232000  1.0
  C  C77  1  0.44861000  0.95446000  0.96787000  1.0
  C  C78  1  0.44715000  0.94925000  0.23527000  1.0
  C  C79  1  0.55402000  0.05603000  0.12726000  1.0
  C  C80  1  0.00352000  0.49814000  0.09356000  1.0
  C  C81  1  0.00047000  0.49514000  0.90673000  1.0
  C  C82  1  0.08621000  0.58130000  0.96151000  1.0
  C  C83  1  0.91730000  0.41242000  0.03875000  1.0
  C  C84  1  0.08277000  0.57785000  0.87086000  1.0
  C  C85  1  0.92076000  0.41584000  0.12941000  1.0
  O  O86  1  0.26017000  0.57289000  0.50687000  1.0
  O  O87  1  0.92662000  0.23887000  0.49313000  1.0
  O  O88  1  0.73352000  0.42120000  0.50370000  1.0
  O  O89  1  0.07787000  0.76517000  0.49684000  1.0
  O  O90  1  0.25942000  0.76493000  0.16230000  1.0
  O  O91  1  0.92412000  0.41922000  0.84183000  1.0
  O  O92  1  0.73389000  0.23940000  0.83811000  1.0
  O  O93  1  0.07952000  0.57465000  0.15835000  1.0
  O  O94  1  0.26148000  0.41951000  0.31366000  1.0
  O  O95  1  0.92447000  0.76646000  0.31361000  1.0
  O  O96  1  0.73252000  0.57426000  0.68707000  1.0
  O  O97  1  0.07922000  0.23773000  0.68719000  1.0
  O  O98  1  0.07770000  0.76674000  0.16020000  1.0
  O  O99  1  0.73226000  0.42093000  0.84039000  1.0
  O  O100  1  0.92593000  0.23767000  0.84032000  1.0
  O  O101  1  0.26119000  0.57241000  0.16051000  1.0
  O  O102  1  0.25988000  0.76483000  0.31567000  1.0
  O  O103  1  0.92621000  0.42130000  0.31145000  1.0
  O  O104  1  0.73424000  0.23914000  0.68451000  1.0
  O  O105  1  0.07754000  0.57244000  0.68887000  1.0
  O  O106  1  0.92525000  0.76598000  0.49555000  1.0
  O  O107  1  0.26095000  0.42015000  0.50578000  1.0
  O  O108  1  0.07916000  0.23798000  0.49461000  1.0
  O  O109  1  0.73301000  0.57396000  0.50472000  1.0
  O  O110  1  0.93147000  0.56604000  0.63525000  1.0
  O  O111  1  0.93285000  0.56744000  0.36495000  1.0
  O  O112  1  0.93266000  0.29769000  0.63380000  1.0
  O  O113  1  0.20115000  0.56628000  0.36656000  1.0
  O  O114  1  0.04976000  0.45066000  0.40039000  1.0
  O  O115  1  0.04818000  0.44918000  0.59994000  1.0
  O  O116  1  0.85096000  0.45009000  0.59859000  1.0
  O  O117  1  0.04887000  0.64801000  0.40157000  1.0
  O  O118  1  0.58286000  0.33070000  0.50551000  1.0
  O  O119  1  0.41218000  0.66524000  0.50186000  1.0
  O  O120  1  0.83522000  0.08744000  0.49649000  1.0
  O  O121  1  0.16932000  0.91626000  0.49355000  1.0
  O  O122  1  0.83473000  0.91635000  0.25255000  1.0
  O  O123  1  0.16829000  0.08745000  0.74843000  1.0
  O  O124  1  0.41196000  0.33039000  0.25247000  1.0
  O  O125  1  0.58280000  0.66403000  0.74842000  1.0
  O  O126  1  0.16834000  0.66386000  0.91914000  1.0
  O  O127  1  0.83472000  0.33036000  0.08100000  1.0
