# generated using pymatgen
data_Al3H34C51Br3O14
_symmetry_space_group_name_H-M   'P 1'
_cell_length_a   13.57790000
_cell_length_b   13.60420000
_cell_length_c   27.22190000
_cell_angle_alpha   89.65580000
_cell_angle_beta   89.34880000
_cell_angle_gamma   62.55940000
_symmetry_Int_Tables_number   1
_chemical_formula_structural   Al3H34C51Br3O14
_chemical_formula_sum   'Al6 H68 C102 Br6 O28'
_cell_volume   4462.30081115
_cell_formula_units_Z   2
loop_
 _symmetry_equiv_pos_site_id
 _symmetry_equiv_pos_as_xyz
  1  'x, y, z'
loop_
 _atom_site_type_symbol
 _atom_site_label
 _atom_site_symmetry_multiplicity
 _atom_site_fract_x
 _atom_site_fract_y
 _atom_site_fract_z
 _atom_site_occupancy
  Al  Al0  1  0.42762000  0.41214000  0.50576000  1.0
  Al  Al1  1  0.19674000  0.40153000  0.50299000  1.0
  Al  Al2  1  0.40674000  0.18732000  0.50610000  1.0
  Al  Al3  1  0.92210000  0.91088000  0.01542000  1.0
  Al  Al4  1  0.15256000  0.92163000  0.01541000  1.0
  Al  Al5  1  0.94219000  0.13597000  0.01960000  1.0
  H  H6  1  0.35435000  0.07266000  0.81588000  1.0
  H  H7  1  0.83808000  0.18156000  0.78938000  1.0
  H  H8  1  0.27655000  0.50441000  0.81298000  1.0
  H  H9  1  0.32884000  0.20206000  0.72917000  1.0
  H  H10  1  0.67805000  0.32160000  0.71488000  1.0
  H  H11  1  0.34527000  0.54028000  0.71695000  1.0
  H  H12  1  0.29534000  0.21824000  0.81223000  1.0
  H  H13  1  0.72268000  0.31225000  0.79763000  1.0
  H  H14  1  0.33726000  0.59119000  0.79832000  1.0
  H  H15  1  0.00218000  0.27088000  0.79894000  1.0
  H  H16  1  0.51462000  0.21272000  0.82226000  1.0
  H  H17  1  0.06868000  0.84698000  0.77927000  1.0
  H  H18  1  0.28299000  0.95958000  0.14523000  1.0
  H  H19  1  0.80518000  0.25160000  0.15279000  1.0
  H  H20  1  0.98549000  0.74442000  0.13935000  1.0
  H  H21  1  0.35291000  0.04844000  0.38365000  1.0
  H  H22  1  0.63361000  0.32144000  0.39041000  1.0
  H  H23  1  0.06473000  0.57702000  0.37698000  1.0
  H  H24  1  0.39014000  0.89658000  0.22202000  1.0
  H  H25  1  0.77318000  0.35244000  0.23145000  1.0
  H  H26  1  0.91616000  0.69791000  0.21599000  1.0
  H  H27  1  0.41429000  0.92704000  0.30959000  1.0
  H  H28  1  0.71354000  0.37675000  0.31880000  1.0
  H  H29  1  0.94302000  0.63963000  0.30313000  1.0
  H  H30  1  0.00091000  0.28167000  0.13684000  1.0
  H  H31  1  0.74746000  0.96783000  0.14146000  1.0
  H  H32  1  0.30987000  0.72531000  0.13338000  1.0
  H  H33  1  0.96810000  0.43908000  0.29828000  1.0
  H  H34  1  0.61218000  0.93214000  0.30234000  1.0
  H  H35  1  0.46247000  0.59830000  0.29464000  1.0
  H  H36  1  0.06871000  0.36944000  0.37713000  1.0
  H  H37  1  0.57180000  0.03995000  0.38028000  1.0
  H  H38  1  0.39145000  0.55239000  0.37157000  1.0
  H  H39  1  0.07701000  0.09714000  0.71734000  1.0
  H  H40  1  0.66237000  0.01492000  0.72646000  1.0
  H  H41  1  0.99085000  0.72797000  0.71731000  1.0
  H  H42  1  0.21599000  0.99261000  0.71304000  1.0
  H  H43  1  0.79364000  0.00880000  0.71757000  1.0
  H  H44  1  0.04301000  0.58323000  0.71851000  1.0
  H  H45  1  0.23634000  0.98123000  0.79861000  1.0
  H  H46  1  0.81485000  0.00532000  0.80208000  1.0
  H  H47  1  0.07637000  0.57395000  0.80380000  1.0
  H  H48  1  0.12926000  0.33872000  0.72837000  1.0
  H  H49  1  0.50242000  0.32468000  0.72957000  1.0
  H  H50  1  0.25918000  0.73631000  0.70821000  1.0
  H  H51  1  0.02739000  0.29712000  0.71540000  1.0
  H  H52  1  0.49140000  0.20140000  0.73813000  1.0
  H  H53  1  0.11609000  0.81562000  0.69606000  1.0
  H  H54  1  0.08522000  0.33598000  0.81199000  1.0
  H  H55  1  0.53630000  0.33043000  0.81344000  1.0
  H  H56  1  0.21032000  0.80400000  0.78942000  1.0
  H  H57  1  0.39837000  0.00763000  0.64795000  1.0
  H  H58  1  0.47103000  0.08095000  0.66547000  1.0
  H  H59  1  0.53340000  0.93542000  0.67272000  1.0
  H  H60  1  0.47402000  0.01405000  0.75382000  1.0
  H  H61  1  0.38784000  0.95661000  0.73677000  1.0
  H  H62  1  0.80877000  0.14918000  0.62416000  1.0
  H  H63  1  0.77863000  0.28913000  0.63201000  1.0
  H  H64  1  0.91871000  0.18458000  0.62816000  1.0
  H  H65  1  0.88414000  0.23154000  0.71438000  1.0
  H  H66  1  0.89022000  0.10099000  0.70817000  1.0
  H  H67  1  0.22955000  0.40975000  0.65348000  1.0
  H  H68  1  0.34065000  0.28981000  0.67742000  1.0
  H  H69  1  0.36305000  0.40185000  0.65811000  1.0
  H  H70  1  0.33760000  0.37391000  0.75442000  1.0
  H  H71  1  0.19631000  0.43370000  0.74172000  1.0
  H  H72  1  0.49375000  0.53814000  0.48326000  1.0
  H  H73  1  0.83362000  0.81224000  0.98435000  1.0
  C  C74  1  0.53079000  0.22799000  0.57760000  1.0
  C  C75  1  0.21406000  0.54581000  0.56668000  1.0
  C  C76  1  0.23217000  0.22441000  0.57258000  1.0
  C  C77  1  0.08350000  0.26728000  0.79169000  1.0
  C  C78  1  0.56226000  0.24530000  0.80098000  1.0
  C  C79  1  0.15182000  0.77806000  0.77384000  1.0
  C  C80  1  0.10360000  0.27472000  0.73627000  1.0
  C  C81  1  0.54407000  0.24121000  0.74534000  1.0
  C  C82  1  0.17602000  0.74878000  0.71917000  1.0
  C  C83  1  0.16512000  0.14779000  0.86477000  1.0
  C  C84  1  0.71432000  0.16983000  0.86315000  1.0
  C  C85  1  0.15252000  0.70522000  0.85542000  1.0
  C  C86  1  0.20148000  0.17436000  0.66325000  1.0
  C  C87  1  0.62336000  0.18220000  0.66536000  1.0
  C  C88  1  0.17310000  0.62352000  0.65606000  1.0
  C  C89  1  0.20450000  0.19580000  0.61993000  1.0
  C  C90  1  0.58499000  0.19696000  0.62428000  1.0
  C  C91  1  0.18006000  0.60642000  0.61204000  1.0
  C  C92  1  0.12055000  0.78749000  0.08204000  1.0
  C  C93  1  0.11553000  0.09327000  0.08654000  1.0
  C  C94  1  0.82093000  0.08962000  0.09116000  1.0
  C  C95  1  0.11271000  0.79767000  0.94352000  1.0
  C  C96  1  0.12241000  0.10134000  0.95349000  1.0
  C  C97  1  0.80400000  0.11806000  0.95131000  1.0
  C  C98  1  0.28491000  0.11054000  0.36243000  1.0
  C  C99  1  0.63713000  0.25287000  0.36861000  1.0
  C  C100  1  0.12887000  0.58638000  0.35608000  1.0
  C  C101  1  0.27293000  0.09149000  0.31283000  1.0
  C  C102  1  0.67604000  0.23760000  0.31994000  1.0
  C  C103  1  0.11071000  0.62143000  0.30696000  1.0
  C  C104  1  0.24514000  0.05630000  0.21204000  1.0
  C  C105  1  0.74575000  0.20906000  0.21972000  1.0
  C  C106  1  0.07910000  0.68945000  0.20681000  1.0
  C  C107  1  0.54698000  0.20870000  0.43938000  1.0
  C  C108  1  0.25145000  0.51675000  0.42973000  1.0
  C  C109  1  0.23140000  0.23193000  0.43647000  1.0
  C  C110  1  0.33371000  0.97382000  0.24019000  1.0
  C  C111  1  0.74610000  0.29644000  0.24887000  1.0
  C  C112  1  0.99392000  0.67872000  0.23440000  1.0
  C  C113  1  0.34699000  0.99068000  0.28848000  1.0
  C  C114  1  0.71304000  0.30995000  0.29694000  1.0
  C  C115  1  0.00892000  0.64648000  0.28244000  1.0
  C  C116  1  0.22864000  0.03810000  0.16288000  1.0
  C  C117  1  0.77839000  0.19539000  0.17014000  1.0
  C  C118  1  0.06332000  0.72460000  0.15779000  1.0
  C  C119  1  0.14032000  0.11884000  0.13654000  1.0
  C  C120  1  0.77856000  0.10882000  0.14274000  1.0
  C  C121  1  0.14610000  0.73785000  0.13208000  1.0
  C  C122  1  0.12397000  0.29224000  0.35878000  1.0
  C  C123  1  0.60211000  0.09340000  0.36298000  1.0
  C  C124  1  0.31365000  0.57291000  0.35303000  1.0
  C  C125  1  0.10993000  0.27697000  0.30896000  1.0
  C  C126  1  0.63982000  0.07565000  0.31411000  1.0
  C  C127  1  0.29889000  0.60766000  0.30393000  1.0
  C  C128  1  0.18458000  0.17566000  0.28548000  1.0
  C  C129  1  0.67634000  0.14880000  0.29188000  1.0
  C  C130  1  0.19690000  0.63176000  0.28023000  1.0
  C  C131  1  0.02354000  0.36109000  0.28056000  1.0
  C  C132  1  0.64022000  0.98768000  0.28533000  1.0
  C  C133  1  0.38435000  0.61804000  0.27654000  1.0
  C  C134  1  0.01146000  0.34441000  0.23210000  1.0
  C  C135  1  0.67404000  0.97399000  0.23737000  1.0
  C  C136  1  0.36872000  0.65093000  0.22860000  1.0
  C  C137  1  0.08258000  0.24244000  0.20718000  1.0
  C  C138  1  0.71075000  0.04599000  0.21315000  1.0
  C  C139  1  0.26713000  0.67714000  0.20310000  1.0
  C  C140  1  0.30838000  0.13637000  0.74108000  1.0
  C  C141  1  0.72815000  0.23465000  0.72621000  1.0
  C  C142  1  0.27007000  0.54388000  0.73444000  1.0
  C  C143  1  0.17079000  0.15867000  0.23509000  1.0
  C  C144  1  0.71109000  0.13415000  0.24185000  1.0
  C  C145  1  0.18155000  0.66573000  0.23025000  1.0
  C  C146  1  0.06885000  0.22046000  0.15828000  1.0
  C  C147  1  0.74543000  0.03464000  0.16399000  1.0
  C  C148  1  0.24718000  0.71382000  0.15432000  1.0
  C  C149  1  0.21106000  0.20973000  0.38525000  1.0
  C  C150  1  0.59951000  0.18213000  0.38974000  1.0
  C  C151  1  0.22952000  0.56176000  0.37880000  1.0
  C  C152  1  0.16126000  0.07186000  0.73067000  1.0
  C  C153  1  0.71269000  0.05600000  0.73578000  1.0
  C  C154  1  0.05915000  0.65094000  0.73103000  1.0
  C  C155  1  0.16614000  0.05900000  0.78697000  1.0
  C  C156  1  0.72821000  0.05643000  0.79161000  1.0
  C  C157  1  0.06331000  0.65280000  0.78738000  1.0
  C  C158  1  0.15464000  0.13322000  0.90818000  1.0
  C  C159  1  0.74780000  0.15424000  0.90511000  1.0
  C  C160  1  0.14293000  0.73962000  0.89723000  1.0
  C  C161  1  0.19530000  0.16243000  0.71619000  1.0
  C  C162  1  0.65519000  0.17613000  0.71643000  1.0
  C  C163  1  0.16910000  0.64041000  0.70863000  1.0
  C  C164  1  0.28969000  0.14587000  0.79759000  1.0
  C  C165  1  0.74898000  0.22925000  0.78230000  1.0
  C  C166  1  0.26772000  0.57425000  0.78960000  1.0
  C  C167  1  0.17445000  0.15701000  0.81204000  1.0
  C  C168  1  0.68679000  0.17570000  0.81144000  1.0
  C  C169  1  0.15837000  0.67803000  0.80360000  1.0
  C  C170  1  0.40791000  0.02468000  0.72796000  1.0
  C  C171  1  0.45431000  0.01168000  0.67566000  1.0
  C  C172  1  0.83968000  0.18902000  0.69846000  1.0
  C  C173  1  0.83595000  0.20367000  0.64271000  1.0
  C  C174  1  0.27507000  0.42961000  0.72845000  1.0
  C  C175  1  0.30316000  0.38045000  0.67663000  1.0
  Br  Br176  1  0.89622000  0.46130000  0.19638000  1.0
  Br  Br177  1  0.67001000  0.85602000  0.20128000  1.0
  Br  Br178  1  0.48739000  0.66112000  0.19443000  1.0
  Br  Br179  1  0.03605000  0.04658000  0.81364000  1.0
  Br  Br180  1  0.65172000  0.98186000  0.82671000  1.0
  Br  Br181  1  0.91670000  0.75917000  0.81377000  1.0
  O  O182  1  0.31038000  0.52030000  0.55092000  1.0
  O  O183  1  0.16744000  0.31864000  0.55429000  1.0
  O  O184  1  0.51174000  0.15508000  0.55541000  1.0
  O  O185  1  0.82668000  0.02148000  0.96530000  1.0
  O  O186  1  0.18487000  0.82129000  0.96353000  1.0
  O  O187  1  0.02667000  0.16666000  0.97077000  1.0
  O  O188  1  0.50387000  0.32542000  0.56303000  1.0
  O  O189  1  0.14491000  0.51565000  0.54781000  1.0
  O  O190  1  0.32490000  0.15384000  0.55370000  1.0
  O  O191  1  0.34522000  0.49317000  0.44788000  1.0
  O  O192  1  0.16063000  0.32289000  0.45651000  1.0
  O  O193  1  0.51587000  0.13945000  0.45813000  1.0
  O  O194  1  0.53126000  0.29833000  0.45925000  1.0
  O  O195  1  0.17463000  0.50158000  0.45138000  1.0
  O  O196  1  0.32081000  0.16238000  0.45696000  1.0
  O  O197  1  0.34250000  0.33300000  0.50519000  1.0
  O  O198  1  0.83767000  0.99983000  0.07104000  1.0
  O  O199  1  0.19477000  0.80864000  0.06095000  1.0
  O  O200  1  0.02616000  0.16525000  0.06645000  1.0
  O  O201  1  0.02711000  0.81040000  0.06430000  1.0
  O  O202  1  0.18085000  0.99957000  0.06768000  1.0
  O  O203  1  0.84106000  0.16484000  0.07111000  1.0
  O  O204  1  0.00662000  0.99042000  0.01626000  1.0
  O  O205  1  0.01621000  0.82380000  0.95968000  1.0
  O  O206  1  0.18950000  0.00659000  0.97116000  1.0
  O  O207  1  0.83071000  0.18616000  0.97346000  1.0
  O  O208  1  0.50781000  0.48270000  0.50829000  1.0
  O  O209  1  0.84293000  0.83923000  0.01584000  1.0
