# generated using pymatgen
data_MgH6C3(NO)4
_symmetry_space_group_name_H-M   'P 1'
_cell_length_a   8.10128000
_cell_length_b   8.35600000
_cell_length_c   9.55216000
_cell_angle_alpha   90.00000000
_cell_angle_beta   89.99990000
_cell_angle_gamma   89.99990000
_symmetry_Int_Tables_number   1
_chemical_formula_structural   MgH6C3(NO)4
_chemical_formula_sum   'Mg4 H24 C12 N16 O16'
_cell_volume   646.62674342
_cell_formula_units_Z   4
loop_
 _symmetry_equiv_pos_site_id
 _symmetry_equiv_pos_as_xyz
  1  'x, y, z'
loop_
 _atom_site_type_symbol
 _atom_site_label
 _atom_site_symmetry_multiplicity
 _atom_site_fract_x
 _atom_site_fract_y
 _atom_site_fract_z
 _atom_site_occupancy
  Mg  Mg0  1  0.68107000  0.24313000  0.93533000  1.0
  Mg  Mg1  1  0.18107000  0.75687000  0.06467000  1.0
  Mg  Mg2  1  0.68108000  0.75686000  0.43534000  1.0
  Mg  Mg3  1  0.18107000  0.24314000  0.56467000  1.0
  H  H4  1  0.85512000  0.89922000  0.85889000  1.0
  H  H5  1  0.35511000  0.10077000  0.14110000  1.0
  H  H6  1  0.85513000  0.10078000  0.35889000  1.0
  H  H7  1  0.35512000  0.89922000  0.64111000  1.0
  H  H8  1  0.94352000  0.86801000  0.69057000  1.0
  H  H9  1  0.44351000  0.13199000  0.30942000  1.0
  H  H10  1  0.94352000  0.13199000  0.19057000  1.0
  H  H11  1  0.44352000  0.86802000  0.80943000  1.0
  H  H12  1  0.36695000  0.33220000  0.99935000  1.0
  H  H13  1  0.86696000  0.66780000  0.00065000  1.0
  H  H14  1  0.36696000  0.66780000  0.49936000  1.0
  H  H15  1  0.86695000  0.33220000  0.50064000  1.0
  H  H16  1  0.35582000  0.24604000  0.85042000  1.0
  H  H17  1  0.85581000  0.75397000  0.14957000  1.0
  H  H18  1  0.35581000  0.75397000  0.35042000  1.0
  H  H19  1  0.85581000  0.24604000  0.64957000  1.0
  H  H20  1  0.00916000  0.33387000  0.90796000  1.0
  H  H21  1  0.50916000  0.66614000  0.09204000  1.0
  H  H22  1  0.00917000  0.66613000  0.40796000  1.0
  H  H23  1  0.50916000  0.33387000  0.59204000  1.0
  H  H24  1  0.01116000  0.15052000  0.94296000  1.0
  H  H25  1  0.51116000  0.84949000  0.05703000  1.0
  H  H26  1  0.01115000  0.84948000  0.44297000  1.0
  H  H27  1  0.51115000  0.15052000  0.55703000  1.0
  C  C28  1  0.75994000  0.70100000  0.74692000  1.0
  C  C29  1  0.25993000  0.29900000  0.25308000  1.0
  C  C30  1  0.75993000  0.29900000  0.24692000  1.0
  C  C31  1  0.25994000  0.70101000  0.75308000  1.0
  C  C32  1  0.82738000  0.86628000  0.75065000  1.0
  C  C33  1  0.32738000  0.13372000  0.24936000  1.0
  C  C34  1  0.82738000  0.13372000  0.25064000  1.0
  C  C35  1  0.32738000  0.86629000  0.74935000  1.0
  C  C36  1  0.71623000  0.99102000  0.68318000  1.0
  C  C37  1  0.21623000  0.00896000  0.31681000  1.0
  C  C38  1  0.71624000  0.00896000  0.18318000  1.0
  C  C39  1  0.21623000  0.99103000  0.81683000  1.0
  N  N40  1  0.69647000  0.46433000  0.80976000  1.0
  N  N41  1  0.19647000  0.53567000  0.19024000  1.0
  N  N42  1  0.69647000  0.53567000  0.30976000  1.0
  N  N43  1  0.19648000  0.46433000  0.69024000  1.0
  N  N44  1  0.76876000  0.59911000  0.85474000  1.0
  N  N45  1  0.26876000  0.40088000  0.14526000  1.0
  N  N46  1  0.76876000  0.40088000  0.35474000  1.0
  N  N47  1  0.26877000  0.59912000  0.64526000  1.0
  N  N48  1  0.64432000  0.48316000  0.67994000  1.0
  N  N49  1  0.14432000  0.51684000  0.32006000  1.0
  N  N50  1  0.64432000  0.51683000  0.17994000  1.0
  N  N51  1  0.14432000  0.48317000  0.82006000  1.0
  N  N52  1  0.68388000  0.63127000  0.63736000  1.0
  N  N53  1  0.18388000  0.36872000  0.36264000  1.0
  N  N54  1  0.68387000  0.36872000  0.13736000  1.0
  N  N55  1  0.18388000  0.63128000  0.86264000  1.0
  O  O56  1  0.66053000  0.96587000  0.56049000  1.0
  O  O57  1  0.16053000  0.03413000  0.43953000  1.0
  O  O58  1  0.66053000  0.03413000  0.06048000  1.0
  O  O59  1  0.16053000  0.96587000  0.93951000  1.0
  O  O60  1  0.68684000  0.11915000  0.75022000  1.0
  O  O61  1  0.18684000  0.88085000  0.24979000  1.0
  O  O62  1  0.68686000  0.88084000  0.25021000  1.0
  O  O63  1  0.18685000  0.11917000  0.74978000  1.0
  O  O64  1  0.43059000  0.26753000  0.92835000  1.0
  O  O65  1  0.93059000  0.73246000  0.07165000  1.0
  O  O66  1  0.43059000  0.73246000  0.42836000  1.0
  O  O67  1  0.93059000  0.26754000  0.57165000  1.0
  O  O68  1  0.94074000  0.24653000  0.94954000  1.0
  O  O69  1  0.44075000  0.75348000  0.05046000  1.0
  O  O70  1  0.94075000  0.75347000  0.44955000  1.0
  O  O71  1  0.44075000  0.24653000  0.55045000  1.0
