# generated using pymatgen
data_MnH16C18S2(NO2)4
_symmetry_space_group_name_H-M   'P 1'
_cell_length_a   6.91936000
_cell_length_b   7.60747000
_cell_length_c   10.47350000
_cell_angle_alpha   106.40900000
_cell_angle_beta   95.99900000
_cell_angle_gamma   107.90600000
_symmetry_Int_Tables_number   1
_chemical_formula_structural   MnH16C18S2(NO2)4
_chemical_formula_sum   'Mn1 H16 C18 S2 N4 O8'
_cell_volume   492.05759762
_cell_formula_units_Z   1
loop_
 _symmetry_equiv_pos_site_id
 _symmetry_equiv_pos_as_xyz
  1  'x, y, z'
loop_
 _atom_site_type_symbol
 _atom_site_label
 _atom_site_symmetry_multiplicity
 _atom_site_fract_x
 _atom_site_fract_y
 _atom_site_fract_z
 _atom_site_occupancy
  Mn  Mn0  1  0.00001000  0.00000000  0.00000000  1.0
  H  H1  1  0.30537000  0.87085000  0.42896000  1.0
  H  H2  1  0.69463000  0.12915000  0.57103000  1.0
  H  H3  1  0.37723000  0.93503000  0.68019000  1.0
  H  H4  1  0.62277000  0.06497000  0.31981000  1.0
  H  H5  1  0.34784000  0.66177000  0.77095000  1.0
  H  H6  1  0.65216000  0.33823000  0.22905000  1.0
  H  H7  1  0.23955000  0.31800000  0.61456000  1.0
  H  H8  1  0.76045000  0.68200000  0.38544000  1.0
  H  H9  1  0.75007000  0.25346000  0.94527000  1.0
  H  H10  1  0.24993000  0.74655000  0.05473000  1.0
  H  H11  1  0.04023000  0.31304000  0.91086000  1.0
  H  H12  1  0.95977000  0.68696000  0.08914000  1.0
  H  H13  1  0.99080000  0.10470000  0.79033000  1.0
  H  H14  1  0.00921000  0.89530000  0.20967000  1.0
  H  H15  1  0.39607000  0.24867000  0.94148000  1.0
  H  H16  1  0.60393000  0.75134000  0.05852000  1.0
  C  C17  1  0.14661000  0.21196000  0.32239000  1.0
  C  C18  1  0.85339000  0.78804000  0.67761000  1.0
  C  C19  1  0.21924000  0.40328000  0.43495000  1.0
  C  C20  1  0.78076000  0.59672000  0.56505000  1.0
  C  C21  1  0.24248000  0.55961000  0.38591000  1.0
  C  C22  1  0.75752000  0.44039000  0.61409000  1.0
  C  C23  1  0.29803000  0.75228000  0.46955000  1.0
  C  C24  1  0.70197000  0.24772000  0.53045000  1.0
  C  C25  1  0.33573000  0.78626000  0.61009000  1.0
  C  C26  1  0.66427000  0.21374000  0.38991000  1.0
  C  C27  1  0.31783000  0.63222000  0.66158000  1.0
  C  C28  1  0.68216000  0.36778000  0.33842000  1.0
  C  C29  1  0.25755000  0.43844000  0.57463000  1.0
  C  C30  1  0.74245000  0.56156000  0.42536000  1.0
  C  C31  1  0.64022000  0.13751000  0.96906000  1.0
  C  C32  1  0.35978000  0.86249000  0.03095000  1.0
  C  C33  1  0.43964000  0.13555000  0.96707000  1.0
  C  C34  1  0.56037000  0.86446000  0.03294000  1.0
  S  S35  1  0.19000000  0.46287000  0.20678000  1.0
  S  S36  1  0.81000000  0.53713000  0.79322000  1.0
  N  N37  1  0.11978000  0.22913000  0.19610000  1.0
  N  N38  1  0.88022000  0.77086000  0.80390000  1.0
  N  N39  1  0.70774000  0.00311000  0.00244000  1.0
  N  N40  1  0.29226000  0.99690000  0.99756000  1.0
  O  O41  1  0.10965000  0.05123000  0.34399000  1.0
  O  O42  1  0.89034000  0.94876000  0.65601000  1.0
  O  O43  1  0.37706000  0.52394000  0.15513000  1.0
  O  O44  1  0.62294000  0.47606000  0.84487000  1.0
  O  O45  1  0.05788000  0.18532000  0.89161000  1.0
  O  O46  1  0.94213000  0.81468000  0.10839000  1.0
  O  O47  1  0.01178000  0.49715000  0.14531000  1.0
  O  O48  1  0.98822000  0.50284000  0.85468000  1.0
