# generated using pymatgen
data_PrH21(C9O2)3
_symmetry_space_group_name_H-M   'P 1'
_cell_length_a   7.77106000
_cell_length_b   13.32410000
_cell_length_c   13.32407532
_cell_angle_alpha   116.36163686
_cell_angle_beta   101.03242011
_cell_angle_gamma   101.03300000
_symmetry_Int_Tables_number   1
_chemical_formula_structural   PrH21(C9O2)3
_chemical_formula_sum   'Pr2 H42 C54 O12'
_cell_volume   1151.83922634
_cell_formula_units_Z   2
loop_
 _symmetry_equiv_pos_site_id
 _symmetry_equiv_pos_as_xyz
  1  'x, y, z'
loop_
 _atom_site_type_symbol
 _atom_site_label
 _atom_site_symmetry_multiplicity
 _atom_site_fract_x
 _atom_site_fract_y
 _atom_site_fract_z
 _atom_site_occupancy
  Pr  Pr0  1  0.50256000  0.99969000  0.99966000  1.0
  Pr  Pr1  1  0.00256000  0.99966000  0.99967000  1.0
  H  H2  1  0.78405000  0.17747000  0.35138000  1.0
  H  H3  1  0.43388000  0.64976000  0.82611000  1.0
  H  H4  1  0.28393000  0.35135000  0.17753000  1.0
  H  H5  1  0.60654000  0.17385000  0.82299000  1.0
  H  H6  1  0.10678000  0.82319000  0.17412000  1.0
  H  H7  1  0.93405000  0.82628000  0.64970000  1.0
  H  H8  1  0.14501000  0.34953000  0.38400000  1.0
  H  H9  1  0.75967000  0.61437000  0.96502000  1.0
  H  H10  1  0.64505000  0.38410000  0.34953000  1.0
  H  H11  1  0.79578000  0.03439000  0.64931000  1.0
  H  H12  1  0.29556000  0.64936000  0.03437000  1.0
  H  H13  1  0.26002000  0.96516000  0.61439000  1.0
  H  H14  1  0.81413000  0.28626000  0.54307000  1.0
  H  H15  1  0.27155000  0.45754000  0.74318000  1.0
  H  H16  1  0.31415000  0.54322000  0.28630000  1.0
  H  H17  1  0.52815000  0.25730000  0.71434000  1.0
  H  H18  1  0.02786000  0.71436000  0.25725000  1.0
  H  H19  1  0.77192000  0.74327000  0.45763000  1.0
  H  H20  1  0.80330000  0.43908000  0.73210000  1.0
  H  H21  1  0.07313000  0.26904000  0.70754000  1.0
  H  H22  1  0.30351000  0.73228000  0.43924000  1.0
  H  H23  1  0.36478000  0.29340000  0.56183000  1.0
  H  H24  1  0.86452000  0.56185000  0.29335000  1.0
  H  H25  1  0.57336000  0.70748000  0.26915000  1.0
  H  H26  1  0.00110000  0.64834000  0.82356000  1.0
  H  H27  1  0.17944000  0.17724000  0.82554000  1.0
  H  H28  1  0.50136000  0.82359000  0.64847000  1.0
  H  H29  1  0.35332000  0.17498000  0.35193000  1.0
  H  H30  1  0.85322000  0.35198000  0.17501000  1.0
  H  H31  1  0.67934000  0.82539000  0.17719000  1.0
  H  H32  1  0.21231000  0.70113000  0.72322000  1.0
  H  H33  1  0.48942000  0.27680000  0.97846000  1.0
  H  H34  1  0.71229000  0.72303000  0.70116000  1.0
  H  H35  1  0.51149000  0.02127000  0.29827000  1.0
  H  H36  1  0.01166000  0.29836000  0.02146000  1.0
  H  H37  1  0.98926000  0.97841000  0.27670000  1.0
  H  H38  1  0.22609000  0.54782000  0.53446000  1.0
  H  H39  1  0.69048000  0.46485000  0.01314000  1.0
  H  H40  1  0.72590000  0.53429000  0.54769000  1.0
  H  H41  1  0.67814000  0.98605000  0.45133000  1.0
  H  H42  1  0.17829000  0.45141000  0.98621000  1.0
  H  H43  1  0.19051000  0.01323000  0.46474000  1.0
  C  C44  1  0.93278000  0.13748000  0.22230000  1.0
  C  C45  1  0.71090000  0.77726000  0.91505000  1.0
  C  C46  1  0.43265000  0.22226000  0.13757000  1.0
  C  C47  1  0.79557000  0.08490000  0.86216000  1.0
  C  C48  1  0.29571000  0.86228000  0.08505000  1.0
  C  C49  1  0.21101000  0.91505000  0.77722000  1.0
  C  C50  1  0.90817000  0.21206000  0.33535000  1.0
  C  C51  1  0.57334000  0.66473000  0.87654000  1.0
  C  C52  1  0.40807000  0.33532000  0.21210000  1.0
  C  C53  1  0.69636000  0.12330000  0.78785000  1.0
  C  C54  1  0.19648000  0.78799000  0.12350000  1.0
  C  C55  1  0.07354000  0.87667000  0.66473000  1.0
  C  C56  1  0.02980000  0.32074000  0.41136000  1.0
  C  C57  1  0.61791000  0.58802000  0.90902000  1.0
  C  C58  1  0.52978000  0.41141000  0.32073000  1.0
  C  C59  1  0.70931000  0.09062000  0.67876000  1.0
  C  C60  1  0.20921000  0.67884000  0.09067000  1.0
  C  C61  1  0.11819000  0.90914000  0.58803000  1.0
  C  C62  1  0.01989000  0.40626000  0.52417000  1.0
  C  C63  1  0.49536000  0.47573000  0.88194000  1.0
  C  C64  1  0.51986000  0.52422000  0.40623000  1.0
  C  C65  1  0.61371000  0.11787000  0.59356000  1.0
  C  C66  1  0.11358000  0.59363000  0.11790000  1.0
  C  C67  1  0.99558000  0.88202000  0.47571000  1.0
  C  C68  1  0.90116000  0.37709000  0.58181000  1.0
  C  C69  1  0.31981000  0.41866000  0.79538000  1.0
  C  C70  1  0.40120000  0.58192000  0.37713000  1.0
  C  C71  1  0.52428000  0.20492000  0.62326000  1.0
  C  C72  1  0.02408000  0.62330000  0.20490000  1.0
  C  C73  1  0.82008000  0.79543000  0.41872000  1.0
  C  C74  1  0.89560000  0.46335000  0.68870000  1.0
  C  C75  1  0.20817000  0.31203000  0.77505000  1.0
  C  C76  1  0.39578000  0.68884000  0.46346000  1.0
  C  C77  1  0.43262000  0.22548000  0.53714000  1.0
  C  C78  1  0.93245000  0.53718000  0.22547000  1.0
  C  C79  1  0.70834000  0.77503000  0.31211000  1.0
  C  C80  1  0.00689000  0.58068000  0.74033000  1.0
  C  C81  1  0.26774000  0.26022000  0.84085000  1.0
  C  C82  1  0.50703000  0.74037000  0.58076000  1.0
  C  C83  1  0.42657000  0.15945000  0.41947000  1.0
  C  C84  1  0.92653000  0.41954000  0.15950000  1.0
  C  C85  1  0.76776000  0.84080000  0.26022000  1.0
  C  C86  1  0.12517000  0.61036000  0.68392000  1.0
  C  C87  1  0.44152000  0.31616000  0.92681000  1.0
  C  C88  1  0.62518000  0.68386000  0.61039000  1.0
  C  C89  1  0.51496000  0.07305000  0.38927000  1.0
  C  C90  1  0.01504000  0.38935000  0.07317000  1.0
  C  C91  1  0.94150000  0.92682000  0.31612000  1.0
  C  C92  1  0.13309000  0.52413000  0.57776000  1.0
  C  C93  1  0.55480000  0.42196000  0.94637000  1.0
  C  C94  1  0.63303000  0.57772000  0.52411000  1.0
  C  C95  1  0.60896000  0.05323000  0.47536000  1.0
  C  C96  1  0.10898000  0.47544000  0.05334000  1.0
  C  C97  1  0.05489000  0.94644000  0.42190000  1.0
  O  O98  1  0.80240000  0.03969000  0.14377000  1.0
  O  O99  1  0.65928000  0.85617000  0.89555000  1.0
  O  O100  1  0.30234000  0.14377000  0.03974000  1.0
  O  O101  1  0.76221000  0.10403000  0.96019000  1.0
  O  O102  1  0.26225000  0.96025000  0.10407000  1.0
  O  O103  1  0.15935000  0.89550000  0.85610000  1.0
  O  O104  1  0.08130000  0.16614000  0.20017000  1.0
  O  O105  1  0.88077000  0.79878000  0.96604000  1.0
  O  O106  1  0.58108000  0.20007000  0.16634000  1.0
  O  O107  1  0.91591000  0.03429000  0.83319000  1.0
  O  O108  1  0.41612000  0.83333000  0.03452000  1.0
  O  O109  1  0.38093000  0.96596000  0.79875000  1.0
