# generated using pymatgen
data_CuP2H24(C7O2)4
_symmetry_space_group_name_H-M   'P 1'
_cell_length_a   8.84960000
_cell_length_b   10.55750000
_cell_length_c   16.33180000
_cell_angle_alpha   103.21400000
_cell_angle_beta   96.64030000
_cell_angle_gamma   113.66900000
_symmetry_Int_Tables_number   1
_chemical_formula_structural   CuP2H24(C7O2)4
_chemical_formula_sum   'Cu2 P4 H48 C56 O16'
_cell_volume   1323.19651101
_cell_formula_units_Z   2
loop_
 _symmetry_equiv_pos_site_id
 _symmetry_equiv_pos_as_xyz
  1  'x, y, z'
loop_
 _atom_site_type_symbol
 _atom_site_label
 _atom_site_symmetry_multiplicity
 _atom_site_fract_x
 _atom_site_fract_y
 _atom_site_fract_z
 _atom_site_occupancy
  Cu  Cu0  1  0.12225000  0.95216000  0.95404000  1.0
  Cu  Cu1  1  0.87776000  0.04790000  0.04598000  1.0
  P  P2  1  0.05284000  0.05346000  0.23225000  1.0
  P  P3  1  0.94717000  0.94654000  0.76776000  1.0
  P  P4  1  0.52896000  0.82202000  0.07292000  1.0
  P  P5  1  0.47104000  0.17799000  0.92708000  1.0
  H  H6  1  0.55904000  0.59780000  0.05837000  1.0
  H  H7  1  0.44097000  0.40221000  0.94162000  1.0
  H  H8  1  0.62554000  0.70984000  0.16736000  1.0
  H  H9  1  0.37448000  0.29015000  0.83263000  1.0
  H  H10  1  0.89569000  0.63166000  0.97276000  1.0
  H  H11  1  0.10430000  0.36837000  0.02722000  1.0
  H  H12  1  0.39774000  0.97272000  0.13364000  1.0
  H  H13  1  0.60230000  0.02730000  0.86637000  1.0
  H  H14  1  0.14933000  0.76111000  0.80360000  1.0
  H  H15  1  0.85062000  0.23893000  0.19643000  1.0
  H  H16  1  0.88215000  0.46405000  0.05971000  1.0
  H  H17  1  0.11791000  0.53598000  0.94025000  1.0
  H  H18  1  0.25594000  0.78543000  0.11125000  1.0
  H  H19  1  0.74406000  0.21459000  0.88878000  1.0
  H  H20  1  0.31490000  0.67990000  0.70941000  1.0
  H  H21  1  0.68498000  0.32007000  0.29060000  1.0
  H  H22  1  0.93706000  0.55343000  0.22018000  1.0
  H  H23  1  0.06301000  0.44657000  0.77978000  1.0
  H  H24  1  0.56444000  0.64974000  0.77419000  1.0
  H  H25  1  0.43541000  0.35018000  0.22580000  1.0
  H  H26  1  0.00888000  0.80994000  0.29292000  1.0
  H  H27  1  0.99118000  0.19005000  0.70706000  1.0
  H  H28  1  0.65344000  0.71080000  0.93253000  1.0
  H  H29  1  0.34650000  0.28918000  0.06746000  1.0
  H  H30  1  0.31298000  0.23795000  0.33322000  1.0
  H  H31  1  0.68705000  0.76202000  0.66679000  1.0
  H  H32  1  0.33458000  0.07621000  0.28853000  1.0
  H  H33  1  0.66542000  0.92376000  0.71148000  1.0
  H  H34  1  0.78257000  0.02721000  0.26185000  1.0
  H  H35  1  0.21742000  0.97275000  0.73815000  1.0
  H  H36  1  0.88244000  0.96468000  0.33457000  1.0
  H  H37  1  0.11756000  0.03529000  0.66543000  1.0
  H  H38  1  0.96863000  0.35940000  0.50026000  1.0
  H  H39  1  0.03137000  0.64058000  0.49975000  1.0
  H  H40  1  0.38210000  0.89387000  0.37109000  1.0
  H  H41  1  0.61793000  0.10611000  0.62892000  1.0
  H  H42  1  0.14614000  0.42982000  0.64870000  1.0
  H  H43  1  0.85389000  0.57015000  0.35131000  1.0
  H  H44  1  0.24332000  0.68764000  0.42911000  1.0
  H  H45  1  0.75670000  0.31234000  0.57089000  1.0
  H  H46  1  0.35115000  0.32525000  0.67215000  1.0
  H  H47  1  0.64888000  0.67473000  0.32785000  1.0
  H  H48  1  0.14456000  0.43166000  0.33426000  1.0
  H  H49  1  0.85544000  0.56832000  0.66572000  1.0
  H  H50  1  0.37600000  0.15554000  0.54640000  1.0
  H  H51  1  0.62400000  0.84442000  0.45359000  1.0
  H  H52  1  0.20470000  0.38931000  0.18920000  1.0
  H  H53  1  0.79526000  0.61069000  0.81078000  1.0
  C  C54  1  0.99368000  0.86759000  0.17409000  1.0
  C  C55  1  0.00634000  0.13242000  0.82590000  1.0
  C  C56  1  0.45153000  0.77054000  0.95868000  1.0
  C  C57  1  0.54846000  0.22951000  0.04133000  1.0
  C  C58  1  0.96044000  0.81614000  0.08238000  1.0
  C  C59  1  0.03956000  0.18388000  0.91761000  1.0
  C  C60  1  0.30690000  0.78544000  0.92257000  1.0
  C  C61  1  0.69310000  0.21463000  0.07746000  1.0
  C  C62  1  0.91967000  0.66945000  0.04284000  1.0
  C  C63  1  0.08035000  0.33058000  0.95715000  1.0
  C  C64  1  0.26017000  0.75046000  0.83123000  1.0
  C  C65  1  0.73979000  0.24959000  0.16880000  1.0
  C  C66  1  0.91186000  0.57647000  0.09190000  1.0
  C  C67  1  0.08819000  0.42356000  0.90807000  1.0
  C  C68  1  0.35295000  0.70436000  0.77942000  1.0
  C  C69  1  0.64698000  0.29566000  0.22060000  1.0
  C  C70  1  0.94223000  0.62647000  0.18207000  1.0
  C  C71  1  0.05783000  0.37353000  0.81791000  1.0
  C  C72  1  0.49354000  0.68787000  0.81529000  1.0
  C  C73  1  0.50637000  0.31212000  0.18471000  1.0
  C  C74  1  0.98269000  0.77097000  0.22250000  1.0
  C  C75  1  0.01735000  0.22903000  0.77748000  1.0
  C  C76  1  0.54221000  0.72100000  0.90454000  1.0
  C  C77  1  0.45775000  0.27900000  0.09546000  1.0
  C  C78  1  0.24996000  0.11859000  0.31528000  1.0
  C  C79  1  0.75004000  0.88138000  0.68473000  1.0
  C  C80  1  0.52694000  0.66705000  0.10724000  1.0
  C  C81  1  0.47307000  0.33296000  0.89276000  1.0
  C  C82  1  0.90349000  0.04902000  0.30225000  1.0
  C  C83  1  0.09651000  0.95096000  0.69775000  1.0
  C  C84  1  0.38859000  0.86673000  0.13546000  1.0
  C  C85  1  0.61142000  0.13328000  0.86455000  1.0
  C  C86  1  0.18899000  0.16281000  0.45489000  1.0
  C  C87  1  0.81100000  0.83715000  0.54512000  1.0
  C  C88  1  0.33333333  0.61599000  0.19971000  1.0
  C  C89  1  0.66666667  0.38402000  0.80028000  1.0
  C  C90  1  0.07093000  0.21910000  0.44192000  1.0
  C  C91  1  0.92906000  0.78086000  0.55809000  1.0
  C  C92  1  0.37913000  0.75909000  0.25050000  1.0
  C  C93  1  0.62090000  0.24092000  0.74951000  1.0
  C  C94  1  0.05960000  0.31649000  0.51238000  1.0
  C  C95  1  0.94040000  0.68348000  0.48763000  1.0
  C  C96  1  0.34742000  0.78264000  0.33320000  1.0
  C  C97  1  0.65260000  0.21734000  0.66680000  1.0
  C  C98  1  0.15860000  0.35485000  0.59484000  1.0
  C  C99  1  0.84141000  0.64513000  0.40516000  1.0
  C  C100  1  0.26659000  0.66646000  0.36446000  1.0
  C  C101  1  0.73342000  0.33352000  0.63554000  1.0
  C  C102  1  0.27124000  0.29518000  0.60819000  1.0
  C  C103  1  0.72879000  0.70480000  0.39181000  1.0
  C  C104  1  0.21250000  0.52440000  0.31213000  1.0
  C  C105  1  0.78748000  0.47559000  0.68786000  1.0
  C  C106  1  0.28532000  0.19988000  0.53820000  1.0
  C  C107  1  0.71468000  0.80009000  0.46180000  1.0
  C  C108  1  0.24598000  0.49996000  0.23014000  1.0
  C  C109  1  0.75399000  0.50004000  0.76984000  1.0
  O  O110  1  0.07279000  0.15709000  0.17981000  1.0
  O  O111  1  0.92723000  0.84294000  0.82021000  1.0
  O  O112  1  0.70995000  0.94290000  0.10568000  1.0
  O  O113  1  0.29003000  0.05713000  0.89433000  1.0
  O  O114  1  0.96746000  0.90170000  0.03243000  1.0
  O  O115  1  0.03253000  0.09834000  0.96757000  1.0
  O  O116  1  0.22073000  0.82758000  0.97390000  1.0
  O  O117  1  0.77931000  0.17253000  0.02614000  1.0
  O  O118  1  0.21673000  0.07014000  0.38961000  1.0
  O  O119  1  0.78327000  0.92983000  0.61040000  1.0
  O  O120  1  0.36274000  0.57990000  0.11797000  1.0
  O  O121  1  0.63727000  0.42012000  0.88202000  1.0
  O  O122  1  0.96610000  0.19051000  0.36389000  1.0
  O  O123  1  0.03388000  0.80947000  0.63612000  1.0
  O  O124  1  0.45481000  0.88107000  0.22419000  1.0
  O  O125  1  0.54521000  0.11894000  0.77583000  1.0
