# generated using pymatgen
data_CdH14C21S(N3O2)2
_symmetry_space_group_name_H-M   'P 1'
_cell_length_a   10.80380000
_cell_length_b   19.82980000
_cell_length_c   22.42410000
_cell_angle_alpha   90.00000000
_cell_angle_beta   90.00010000
_cell_angle_gamma   89.99970000
_symmetry_Int_Tables_number   1
_chemical_formula_structural   CdH14C21S(N3O2)2
_chemical_formula_sum   'Cd8 H112 C168 S8 N48 O32'
_cell_volume   4804.07624486
_cell_formula_units_Z   8
loop_
 _symmetry_equiv_pos_site_id
 _symmetry_equiv_pos_as_xyz
  1  'x, y, z'
loop_
 _atom_site_type_symbol
 _atom_site_label
 _atom_site_symmetry_multiplicity
 _atom_site_fract_x
 _atom_site_fract_y
 _atom_site_fract_z
 _atom_site_occupancy
  Cd  Cd0  1  0.43982000  0.13929000  0.37608000  1.0
  Cd  Cd1  1  0.06018000  0.86071000  0.87608000  1.0
  Cd  Cd2  1  0.56018000  0.63929000  0.12392000  1.0
  Cd  Cd3  1  0.93982000  0.36071000  0.62392000  1.0
  Cd  Cd4  1  0.56018000  0.86071000  0.62392000  1.0
  Cd  Cd5  1  0.93982000  0.13929000  0.12392000  1.0
  Cd  Cd6  1  0.43982000  0.36071000  0.87608000  1.0
  Cd  Cd7  1  0.06018000  0.63929000  0.37608000  1.0
  H  H8  1  0.19506000  0.00138000  0.62909000  1.0
  H  H9  1  0.30494000  0.99862000  0.12909000  1.0
  H  H10  1  0.80493000  0.50138000  0.87091000  1.0
  H  H11  1  0.69506000  0.49862000  0.37091000  1.0
  H  H12  1  0.80495000  0.99862000  0.37091000  1.0
  H  H13  1  0.69506000  0.00138000  0.87091000  1.0
  H  H14  1  0.19506000  0.49862000  0.12909000  1.0
  H  H15  1  0.30493000  0.50138000  0.62909000  1.0
  H  H16  1  0.26621000  0.12106000  0.78494000  1.0
  H  H17  1  0.23380000  0.87895000  0.28493000  1.0
  H  H18  1  0.73380000  0.62106000  0.71507000  1.0
  H  H19  1  0.76620000  0.37894000  0.21507000  1.0
  H  H20  1  0.73379000  0.87895000  0.21506000  1.0
  H  H21  1  0.76621000  0.12106000  0.71507000  1.0
  H  H22  1  0.26621000  0.37894000  0.28493000  1.0
  H  H23  1  0.23380000  0.62106000  0.78493000  1.0
  H  H24  1  0.45978000  0.16484000  0.62071000  1.0
  H  H25  1  0.04022000  0.83516000  0.12071000  1.0
  H  H26  1  0.54022000  0.66484000  0.87929000  1.0
  H  H27  1  0.95979000  0.33516000  0.37929000  1.0
  H  H28  1  0.54022000  0.83516000  0.37929000  1.0
  H  H29  1  0.95978000  0.16484000  0.87929000  1.0
  H  H30  1  0.45978000  0.33516000  0.12071000  1.0
  H  H31  1  0.04021000  0.66484000  0.62071000  1.0
  H  H32  1  0.42094000  0.16061000  0.52317000  1.0
  H  H33  1  0.07904000  0.83939000  0.02317000  1.0
  H  H34  1  0.57904000  0.66061000  0.97684000  1.0
  H  H35  1  0.92096000  0.33939000  0.47683000  1.0
  H  H36  1  0.57906000  0.83939000  0.47684000  1.0
  H  H37  1  0.92095000  0.16061000  0.97683000  1.0
  H  H38  1  0.42096000  0.33939000  0.02317000  1.0
  H  H39  1  0.07905000  0.66061000  0.52316000  1.0
  H  H40  1  0.34946000  0.97745000  0.43473000  1.0
  H  H41  1  0.15053000  0.02254000  0.93473000  1.0
  H  H42  1  0.65053000  0.47746000  0.06527000  1.0
  H  H43  1  0.84946000  0.52254000  0.56528000  1.0
  H  H44  1  0.65053000  0.02254000  0.56527000  1.0
  H  H45  1  0.84946000  0.97746000  0.06527000  1.0
  H  H46  1  0.34947000  0.52254000  0.93473000  1.0
  H  H47  1  0.15053000  0.47746000  0.43473000  1.0
  H  H48  1  0.29884000  0.96043000  0.55547000  1.0
  H  H49  1  0.20116000  0.03956000  0.05547000  1.0
  H  H50  1  0.70115000  0.46043000  0.94453000  1.0
  H  H51  1  0.79885000  0.53957000  0.44453000  1.0
  H  H52  1  0.70115000  0.03956000  0.44453000  1.0
  H  H53  1  0.79885000  0.96043000  0.94453000  1.0
  H  H54  1  0.29884000  0.53956000  0.05547000  1.0
  H  H55  1  0.20114000  0.46043000  0.55547000  1.0
  H  H56  1  0.24244000  0.99010000  0.81828000  1.0
  H  H57  1  0.25756000  0.00991000  0.31827000  1.0
  H  H58  1  0.75755000  0.49009000  0.68173000  1.0
  H  H59  1  0.74244000  0.50991000  0.18172000  1.0
  H  H60  1  0.75755000  0.00991000  0.18173000  1.0
  H  H61  1  0.74245000  0.99009000  0.68172000  1.0
  H  H62  1  0.24245000  0.50990000  0.31827000  1.0
  H  H63  1  0.25755000  0.49010000  0.81828000  1.0
  H  H64  1  0.88253000  0.93351000  0.76763000  1.0
  H  H65  1  0.61747000  0.06649000  0.26763000  1.0
  H  H66  1  0.11747000  0.43351000  0.73237000  1.0
  H  H67  1  0.38252000  0.56648000  0.23237000  1.0
  H  H68  1  0.11747000  0.06649000  0.23237000  1.0
  H  H69  1  0.38253000  0.93352000  0.73237000  1.0
  H  H70  1  0.88253000  0.56648000  0.26763000  1.0
  H  H71  1  0.61747000  0.43352000  0.76763000  1.0
  H  H72  1  0.98060000  0.01791000  0.67955000  1.0
  H  H73  1  0.51941000  0.98209000  0.17955000  1.0
  H  H74  1  0.01941000  0.51791000  0.82045000  1.0
  H  H75  1  0.48060000  0.48209000  0.32045000  1.0
  H  H76  1  0.01941000  0.98209000  0.32045000  1.0
  H  H77  1  0.48060000  0.01791000  0.82045000  1.0
  H  H78  1  0.98060000  0.48209000  0.17955000  1.0
  H  H79  1  0.51940000  0.51791000  0.67955000  1.0
  H  H80  1  0.30826000  0.22666000  0.80729000  1.0
  H  H81  1  0.19174000  0.77334000  0.30730000  1.0
  H  H82  1  0.69174000  0.72666000  0.69270000  1.0
  H  H83  1  0.80826000  0.27334000  0.19270000  1.0
  H  H84  1  0.69174000  0.77333000  0.19270000  1.0
  H  H85  1  0.80826000  0.22666000  0.69271000  1.0
  H  H86  1  0.30826000  0.27333000  0.30729000  1.0
  H  H87  1  0.19173000  0.72667000  0.80729000  1.0
  H  H88  1  0.65210000  0.31184000  0.76247000  1.0
  H  H89  1  0.84790000  0.68816000  0.26248000  1.0
  H  H90  1  0.34791000  0.81184000  0.73752000  1.0
  H  H91  1  0.15210000  0.18816000  0.23752000  1.0
  H  H92  1  0.34789000  0.68816000  0.23752000  1.0
  H  H93  1  0.15210000  0.31184000  0.73752000  1.0
  H  H94  1  0.65210000  0.18816000  0.26248000  1.0
  H  H95  1  0.84790000  0.81184000  0.76248000  1.0
  H  H96  1  0.59756000  0.21199000  0.67961000  1.0
  H  H97  1  0.90244000  0.78801000  0.17961000  1.0
  H  H98  1  0.40244000  0.71199000  0.82039000  1.0
  H  H99  1  0.09756000  0.28801000  0.32039000  1.0
  H  H100  1  0.40243000  0.78802000  0.32039000  1.0
  H  H101  1  0.09756000  0.21199000  0.82039000  1.0
  H  H102  1  0.59757000  0.28801000  0.17961000  1.0
  H  H103  1  0.90243000  0.71199000  0.67961000  1.0
  H  H104  1  0.06784000  0.24475000  0.48830000  1.0
  H  H105  1  0.43216000  0.75526000  0.98830000  1.0
  H  H106  1  0.93216000  0.74475000  0.01170000  1.0
  H  H107  1  0.56784000  0.25525000  0.51170000  1.0
  H  H108  1  0.93217000  0.75525000  0.51170000  1.0
  H  H109  1  0.56783000  0.24475000  0.01170000  1.0
  H  H110  1  0.06784000  0.25526000  0.98830000  1.0
  H  H111  1  0.43217000  0.74475000  0.48830000  1.0
  H  H112  1  0.82260000  0.23954000  0.49740000  1.0
  H  H113  1  0.67740000  0.76045000  0.99740000  1.0
  H  H114  1  0.17740000  0.73954000  0.00261000  1.0
  H  H115  1  0.32260000  0.26046000  0.50260000  1.0
  H  H116  1  0.17741000  0.76046000  0.50260000  1.0
  H  H117  1  0.32260000  0.23955000  0.00260000  1.0
  H  H118  1  0.82260000  0.26046000  0.99739000  1.0
  H  H119  1  0.67741000  0.73954000  0.49740000  1.0
  C  C120  1  0.33017000  0.08150000  0.61820000  1.0
  C  C121  1  0.16983000  0.91850000  0.11820000  1.0
  C  C122  1  0.66982000  0.58150000  0.88180000  1.0
  C  C123  1  0.83018000  0.41851000  0.38180000  1.0
  C  C124  1  0.66983000  0.91850000  0.38180000  1.0
  C  C125  1  0.83018000  0.08149000  0.88180000  1.0
  C  C126  1  0.33018000  0.41850000  0.11820000  1.0
  C  C127  1  0.16982000  0.58150000  0.61820000  1.0
  C  C128  1  0.24252000  0.04388000  0.64952000  1.0
  C  C129  1  0.25748000  0.95612000  0.14952000  1.0
  C  C130  1  0.75748000  0.54388000  0.85048000  1.0
  C  C131  1  0.74252000  0.45612000  0.35048000  1.0
  C  C132  1  0.75749000  0.95611000  0.35048000  1.0
  C  C133  1  0.74252000  0.04388000  0.85048000  1.0
  C  C134  1  0.24252000  0.45612000  0.14952000  1.0
  C  C135  1  0.25748000  0.54388000  0.64952000  1.0
  C  C136  1  0.22012000  0.05958000  0.70905000  1.0
  C  C137  1  0.27988000  0.94042000  0.20905000  1.0
  C  C138  1  0.77988000  0.55957000  0.79095000  1.0
  C  C139  1  0.72012000  0.44042000  0.29095000  1.0
  C  C140  1  0.77988000  0.94042000  0.29095000  1.0
  C  C141  1  0.72013000  0.05958000  0.79095000  1.0
  C  C142  1  0.22013000  0.44042000  0.20905000  1.0
  C  C143  1  0.27988000  0.55958000  0.70905000  1.0
  C  C144  1  0.28348000  0.11117000  0.73797000  1.0
  C  C145  1  0.21653000  0.88883000  0.23797000  1.0
  C  C146  1  0.71653000  0.61117000  0.76203000  1.0
  C  C147  1  0.78347000  0.38883000  0.26203000  1.0
  C  C148  1  0.71653000  0.88883000  0.26203000  1.0
  C  C149  1  0.78348000  0.11117000  0.76203000  1.0
  C  C150  1  0.28348000  0.38883000  0.23797000  1.0
  C  C151  1  0.21652000  0.61117000  0.73797000  1.0
  C  C152  1  0.37026000  0.14863000  0.70574000  1.0
  C  C153  1  0.12974000  0.85137000  0.20574000  1.0
  C  C154  1  0.62974000  0.64863000  0.79426000  1.0
  C  C155  1  0.87026000  0.35137000  0.29427000  1.0
  C  C156  1  0.62974000  0.85137000  0.29426000  1.0
  C  C157  1  0.87026000  0.14863000  0.79426000  1.0
  C  C158  1  0.37026000  0.35137000  0.20573000  1.0
  C  C159  1  0.12974000  0.64863000  0.70574000  1.0
  C  C160  1  0.39398000  0.13444000  0.64578000  1.0
  C  C161  1  0.10603000  0.86556000  0.14578000  1.0
  C  C162  1  0.60603000  0.63444000  0.85422000  1.0
  C  C163  1  0.89398000  0.36556000  0.35422000  1.0
  C  C164  1  0.60603000  0.86556000  0.35422000  1.0
  C  C165  1  0.89398000  0.13444000  0.85422000  1.0
  C  C166  1  0.39398000  0.36556000  0.14578000  1.0
  C  C167  1  0.10602000  0.63444000  0.64578000  1.0
  C  C168  1  0.39596000  0.10861000  0.51475000  1.0
  C  C169  1  0.10402000  0.89139000  0.01475000  1.0
  C  C170  1  0.60402000  0.60861000  0.98525000  1.0
  C  C171  1  0.89598000  0.39139000  0.48525000  1.0
  C  C172  1  0.60403000  0.89139000  0.48525000  1.0
  C  C173  1  0.89597000  0.10861000  0.98525000  1.0
  C  C174  1  0.39598000  0.39138000  0.01475000  1.0
  C  C175  1  0.10403000  0.60861000  0.51475000  1.0
  C  C176  1  0.35505000  0.01340000  0.47104000  1.0
  C  C177  1  0.14494000  0.98660000  0.97103000  1.0
  C  C178  1  0.64493000  0.51340000  0.02897000  1.0
  C  C179  1  0.85506000  0.48660000  0.52897000  1.0
  C  C180  1  0.64494000  0.98660000  0.52897000  1.0
  C  C181  1  0.85506000  0.01340000  0.02897000  1.0
  C  C182  1  0.35507000  0.48660000  0.97103000  1.0
  C  C183  1  0.14493000  0.51340000  0.47103000  1.0
  C  C184  1  0.32699000  0.00425000  0.53004000  1.0
  C  C185  1  0.17301000  0.99575000  0.03004000  1.0
  C  C186  1  0.67300000  0.50425000  0.96996000  1.0
  C  C187  1  0.82700000  0.49575000  0.46996000  1.0
  C  C188  1  0.67301000  0.99575000  0.46996000  1.0
  C  C189  1  0.82700000  0.00425000  0.96996000  1.0
  C  C190  1  0.32699000  0.49575000  0.03004000  1.0
  C  C191  1  0.17299000  0.50425000  0.53004000  1.0
  C  C192  1  0.15480000  0.98885000  0.79476000  1.0
  C  C193  1  0.34520000  0.01115000  0.29476000  1.0
  C  C194  1  0.84519000  0.48885000  0.70525000  1.0
  C  C195  1  0.65480000  0.51115000  0.20524000  1.0
  C  C196  1  0.84519000  0.01115000  0.20525000  1.0
  C  C197  1  0.65481000  0.98885000  0.70524000  1.0
  C  C198  1  0.15481000  0.51115000  0.29476000  1.0
  C  C199  1  0.34520000  0.48885000  0.79476000  1.0
  C  C200  1  0.97079000  0.95914000  0.76526000  1.0
  C  C201  1  0.52922000  0.04086000  0.26526000  1.0
  C  C202  1  0.02921000  0.45914000  0.73474000  1.0
  C  C203  1  0.47078000  0.54085000  0.23474000  1.0
  C  C204  1  0.02921000  0.04086000  0.23474000  1.0
  C  C205  1  0.47079000  0.95914000  0.73474000  1.0
  C  C206  1  0.97079000  0.54086000  0.26526000  1.0
  C  C207  1  0.52921000  0.45914000  0.76526000  1.0
  C  C208  1  0.01714000  0.00069000  0.72181000  1.0
  C  C209  1  0.48287000  0.99931000  0.22181000  1.0
  C  C210  1  0.98287000  0.50069000  0.77819000  1.0
  C  C211  1  0.51713000  0.49931000  0.27819000  1.0
  C  C212  1  0.98287000  0.99931000  0.27819000  1.0
  C  C213  1  0.51714000  0.00069000  0.77819000  1.0
  C  C214  1  0.01714000  0.49931000  0.22181000  1.0
  C  C215  1  0.48287000  0.50069000  0.72181000  1.0
  C  C216  1  0.39479000  0.23593000  0.78437000  1.0
  C  C217  1  0.10522000  0.76407000  0.28437000  1.0
  C  C218  1  0.60522000  0.73593000  0.71563000  1.0
  C  C219  1  0.89478000  0.26407000  0.21563000  1.0
  C  C220  1  0.60521000  0.76407000  0.21563000  1.0
  C  C221  1  0.89479000  0.23593000  0.71563000  1.0
  C  C222  1  0.39479000  0.26407000  0.28437000  1.0
  C  C223  1  0.10521000  0.73593000  0.78437000  1.0
  C  C224  1  0.57296000  0.27848000  0.75963000  1.0
  C  C225  1  0.92705000  0.72153000  0.25964000  1.0
  C  C226  1  0.42705000  0.77848000  0.74037000  1.0
  C  C227  1  0.07295000  0.22153000  0.24037000  1.0
  C  C228  1  0.42704000  0.72153000  0.24037000  1.0
  C  C229  1  0.07296000  0.27847000  0.74037000  1.0
  C  C230  1  0.57296000  0.22153000  0.25963000  1.0
  C  C231  1  0.92704000  0.77848000  0.75963000  1.0
  C  C232  1  0.54807000  0.22888000  0.71878000  1.0
  C  C233  1  0.95194000  0.77112000  0.21878000  1.0
  C  C234  1  0.45194000  0.72888000  0.78122000  1.0
  C  C235  1  0.04806000  0.27112000  0.28122000  1.0
  C  C236  1  0.45194000  0.77112000  0.28122000  1.0
  C  C237  1  0.04806000  0.22888000  0.78122000  1.0
  C  C238  1  0.54807000  0.27112000  0.21878000  1.0
  C  C239  1  0.95193000  0.72888000  0.71878000  1.0
  C  C240  1  0.05183000  0.17908000  0.41037000  1.0
  C  C241  1  0.44817000  0.82093000  0.91037000  1.0
  C  C242  1  0.94816000  0.67908000  0.08963000  1.0
  C  C243  1  0.55183000  0.32092000  0.58963000  1.0
  C  C244  1  0.94817000  0.82092000  0.58962000  1.0
  C  C245  1  0.55183000  0.17908000  0.08962000  1.0
  C  C246  1  0.05183000  0.32093000  0.91037000  1.0
  C  C247  1  0.44817000  0.67908000  0.41037000  1.0
  C  C248  1  0.00753000  0.21730000  0.45770000  1.0
  C  C249  1  0.49246000  0.78271000  0.95770000  1.0
  C  C250  1  0.99247000  0.71730000  0.04230000  1.0
  C  C251  1  0.50753000  0.28270000  0.54230000  1.0
  C  C252  1  0.99248000  0.78270000  0.54230000  1.0
  C  C253  1  0.50752000  0.21730000  0.04230000  1.0
  C  C254  1  0.00754000  0.28271000  0.95770000  1.0
  C  C255  1  0.49247000  0.71730000  0.45770000  1.0
  C  C256  1  0.87674000  0.21489000  0.46253000  1.0
  C  C257  1  0.62325000  0.78511000  0.96254000  1.0
  C  C258  1  0.12326000  0.71489000  0.03747000  1.0
  C  C259  1  0.37674000  0.28511000  0.53746000  1.0
  C  C260  1  0.12326000  0.78511000  0.53746000  1.0
  C  C261  1  0.37674000  0.21489000  0.03746000  1.0
  C  C262  1  0.87675000  0.28511000  0.96253000  1.0
  C  C263  1  0.62326000  0.71489000  0.46253000  1.0
  C  C264  1  0.82314000  0.17571000  0.41832000  1.0
  C  C265  1  0.67686000  0.82429000  0.91832000  1.0
  C  C266  1  0.17686000  0.67571000  0.08168000  1.0
  C  C267  1  0.32314000  0.32429000  0.58168000  1.0
  C  C268  1  0.17686000  0.82429000  0.58168000  1.0
  C  C269  1  0.32314000  0.17572000  0.08168000  1.0
  C  C270  1  0.82314000  0.32429000  0.91832000  1.0
  C  C271  1  0.67686000  0.67571000  0.41832000  1.0
  C  C272  1  0.18178000  0.16829000  0.39051000  1.0
  C  C273  1  0.31822000  0.83172000  0.89051000  1.0
  C  C274  1  0.81821000  0.66829000  0.10948000  1.0
  C  C275  1  0.68178000  0.33171000  0.60948000  1.0
  C  C276  1  0.81821000  0.83171000  0.60948000  1.0
  C  C277  1  0.68178000  0.16828000  0.10948000  1.0
  C  C278  1  0.18178000  0.33172000  0.89051000  1.0
  C  C279  1  0.31822000  0.66829000  0.39052000  1.0
  C  C280  1  0.69117000  0.16129000  0.40566000  1.0
  C  C281  1  0.80884000  0.83869000  0.90565000  1.0
  C  C282  1  0.30883000  0.66130000  0.09435000  1.0
  C  C283  1  0.19117000  0.33870000  0.59434000  1.0
  C  C284  1  0.30883000  0.83870000  0.59435000  1.0
  C  C285  1  0.19116000  0.16130000  0.09434000  1.0
  C  C286  1  0.69117000  0.33870000  0.90565000  1.0
  C  C287  1  0.80883000  0.66129000  0.40566000  1.0
  S  S288  1  0.93312000  0.14010000  0.37243000  1.0
  S  S289  1  0.56688000  0.85989000  0.87242000  1.0
  S  S290  1  0.06687000  0.64011000  0.12758000  1.0
  S  S291  1  0.43312000  0.35989000  0.62758000  1.0
  S  S292  1  0.06688000  0.85989000  0.62758000  1.0
  S  S293  1  0.43312000  0.14011000  0.12757000  1.0
  S  S294  1  0.93312000  0.35990000  0.87242000  1.0
  S  S295  1  0.56687000  0.64011000  0.37243000  1.0
  N  N296  1  0.35314000  0.06541000  0.55775000  1.0
  N  N297  1  0.14685000  0.93458000  0.05774000  1.0
  N  N298  1  0.64685000  0.56542000  0.94226000  1.0
  N  N299  1  0.85315000  0.43458000  0.44226000  1.0
  N  N300  1  0.64686000  0.93458000  0.44226000  1.0
  N  N301  1  0.85316000  0.06542000  0.94226000  1.0
  N  N302  1  0.35315000  0.43458000  0.05774000  1.0
  N  N303  1  0.14684000  0.56542000  0.55774000  1.0
  N  N304  1  0.39756000  0.07839000  0.46226000  1.0
  N  N305  1  0.10243000  0.92161000  0.96226000  1.0
  N  N306  1  0.60243000  0.57839000  0.03774000  1.0
  N  N307  1  0.89757000  0.42161000  0.53774000  1.0
  N  N308  1  0.60243000  0.92161000  0.53774000  1.0
  N  N309  1  0.89756000  0.07839000  0.03774000  1.0
  N  N310  1  0.39757000  0.42161000  0.96226000  1.0
  N  N311  1  0.10244000  0.57839000  0.46226000  1.0
  N  N312  1  0.13380000  0.01998000  0.74125000  1.0
  N  N313  1  0.36620000  0.98003000  0.24125000  1.0
  N  N314  1  0.86620000  0.51997000  0.75875000  1.0
  N  N315  1  0.63380000  0.48003000  0.25875000  1.0
  N  N316  1  0.86620000  0.98003000  0.25875000  1.0
  N  N317  1  0.63381000  0.01997000  0.75875000  1.0
  N  N318  1  0.13381000  0.48002000  0.24125000  1.0
  N  N319  1  0.36620000  0.51998000  0.74125000  1.0
  N  N320  1  0.05759000  0.95202000  0.80998000  1.0
  N  N321  1  0.44241000  0.04798000  0.30998000  1.0
  N  N322  1  0.94241000  0.45202000  0.69002000  1.0
  N  N323  1  0.55758000  0.54798000  0.19002000  1.0
  N  N324  1  0.94241000  0.04798000  0.19002000  1.0
  N  N325  1  0.55759000  0.95202000  0.69002000  1.0
  N  N326  1  0.05759000  0.54798000  0.30998000  1.0
  N  N327  1  0.44241000  0.45202000  0.80998000  1.0
  N  N328  1  0.43436000  0.20160000  0.73479000  1.0
  N  N329  1  0.06565000  0.79840000  0.23480000  1.0
  N  N330  1  0.56565000  0.70160000  0.76521000  1.0
  N  N331  1  0.93435000  0.29840000  0.26521000  1.0
  N  N332  1  0.56564000  0.79841000  0.26520000  1.0
  N  N333  1  0.93436000  0.20160000  0.76521000  1.0
  N  N334  1  0.43436000  0.29840000  0.23480000  1.0
  N  N335  1  0.06564000  0.70160000  0.73480000  1.0
  N  N336  1  0.47644000  0.28231000  0.79992000  1.0
  N  N337  1  0.02357000  0.71769000  0.29993000  1.0
  N  N338  1  0.52358000  0.78231000  0.70008000  1.0
  N  N339  1  0.97643000  0.21769000  0.20008000  1.0
  N  N340  1  0.52356000  0.71769000  0.20007000  1.0
  N  N341  1  0.97643000  0.28231000  0.70008000  1.0
  N  N342  1  0.47643000  0.21769000  0.29992000  1.0
  N  N343  1  0.02356000  0.78231000  0.79992000  1.0
  O  O344  1  0.20404000  0.11852000  0.35634000  1.0
  O  O345  1  0.29596000  0.88149000  0.85635000  1.0
  O  O346  1  0.79594000  0.61852000  0.14365000  1.0
  O  O347  1  0.70404000  0.38148000  0.64365000  1.0
  O  O348  1  0.79595000  0.88147000  0.64366000  1.0
  O  O349  1  0.70404000  0.11852000  0.14365000  1.0
  O  O350  1  0.20404000  0.38150000  0.85635000  1.0
  O  O351  1  0.29595000  0.61853000  0.35634000  1.0
  O  O352  1  0.26485000  0.20972000  0.40864000  1.0
  O  O353  1  0.23514000  0.79029000  0.90863000  1.0
  O  O354  1  0.73514000  0.70972000  0.09136000  1.0
  O  O355  1  0.76486000  0.29029000  0.59136000  1.0
  O  O356  1  0.73515000  0.79028000  0.59136000  1.0
  O  O357  1  0.76486000  0.20971000  0.09136000  1.0
  O  O358  1  0.26486000  0.29030000  0.90863000  1.0
  O  O359  1  0.23514000  0.70972000  0.40864000  1.0
  O  O360  1  0.60695000  0.19123000  0.43529000  1.0
  O  O361  1  0.89305000  0.80876000  0.93529000  1.0
  O  O362  1  0.39304000  0.69123000  0.06471000  1.0
  O  O363  1  0.10695000  0.30877000  0.56470000  1.0
  O  O364  1  0.39305000  0.80877000  0.56471000  1.0
  O  O365  1  0.10695000  0.19124000  0.06470000  1.0
  O  O366  1  0.60696000  0.30877000  0.93529000  1.0
  O  O367  1  0.89305000  0.69123000  0.43529000  1.0
  O  O368  1  0.66883000  0.11819000  0.36445000  1.0
  O  O369  1  0.83118000  0.88179000  0.86444000  1.0
  O  O370  1  0.33117000  0.61820000  0.13556000  1.0
  O  O371  1  0.16882000  0.38180000  0.63556000  1.0
  O  O372  1  0.33118000  0.88180000  0.63556000  1.0
  O  O373  1  0.16882000  0.11820000  0.13555000  1.0
  O  O374  1  0.66882000  0.38180000  0.86444000  1.0
  O  O375  1  0.83118000  0.61819000  0.36445000  1.0
