# generated using pymatgen
data_CdH12C10N5O6
_symmetry_space_group_name_H-M   'P 1'
_cell_length_a   7.32715000
_cell_length_b   7.60242000
_cell_length_c   26.21800000
_cell_angle_alpha   89.99960000
_cell_angle_beta   89.99960000
_cell_angle_gamma   70.74400000
_symmetry_Int_Tables_number   1
_chemical_formula_structural   CdH12C10N5O6
_chemical_formula_sum   'Cd4 H48 C40 N20 O24'
_cell_volume   1378.74376817
_cell_formula_units_Z   4
loop_
 _symmetry_equiv_pos_site_id
 _symmetry_equiv_pos_as_xyz
  1  'x, y, z'
loop_
 _atom_site_type_symbol
 _atom_site_label
 _atom_site_symmetry_multiplicity
 _atom_site_fract_x
 _atom_site_fract_y
 _atom_site_fract_z
 _atom_site_occupancy
  Cd  Cd0  1  0.99371000  0.31094000  0.15085000  1.0
  Cd  Cd1  1  0.00630000  0.18906000  0.65085000  1.0
  Cd  Cd2  1  0.00630000  0.68906000  0.84915000  1.0
  Cd  Cd3  1  0.99371000  0.81094000  0.34915000  1.0
  H  H4  1  0.63969000  0.74968000  0.21618000  1.0
  H  H5  1  0.36031000  0.75032000  0.71618000  1.0
  H  H6  1  0.36031000  0.25032000  0.78382000  1.0
  H  H7  1  0.63969000  0.24969000  0.28382000  1.0
  H  H8  1  0.65314000  0.24277000  0.18055000  1.0
  H  H9  1  0.34686000  0.25722000  0.68055000  1.0
  H  H10  1  0.34686000  0.75724000  0.81945000  1.0
  H  H11  1  0.65314000  0.74278000  0.31945000  1.0
  H  H12  1  0.81195000  0.04218000  0.16818000  1.0
  H  H13  1  0.18806000  0.45781000  0.66818000  1.0
  H  H14  1  0.18804000  0.95783000  0.83182000  1.0
  H  H15  1  0.81195000  0.54219000  0.33182000  1.0
  H  H16  1  0.64450000  0.61470000  0.12930000  1.0
  H  H17  1  0.35550000  0.88529000  0.62930000  1.0
  H  H18  1  0.35550000  0.38529000  0.87070000  1.0
  H  H19  1  0.64450000  0.11471000  0.37070000  1.0
  H  H20  1  0.82645000  0.68537000  0.14116000  1.0
  H  H21  1  0.17355000  0.81462000  0.64116000  1.0
  H  H22  1  0.17355000  0.31463000  0.85884000  1.0
  H  H23  1  0.82645000  0.18538000  0.35884000  1.0
  H  H24  1  0.21647000  0.28858000  0.03051000  1.0
  H  H25  1  0.78352000  0.21142000  0.53051000  1.0
  H  H26  1  0.78354000  0.71142000  0.96949000  1.0
  H  H27  1  0.21646000  0.78858000  0.46949000  1.0
  H  H28  1  0.41266000  0.96560000  0.15138000  1.0
  H  H29  1  0.58733000  0.53440000  0.65138000  1.0
  H  H30  1  0.58734000  0.03440000  0.84862000  1.0
  H  H31  1  0.41266000  0.46561000  0.34862000  1.0
  H  H32  1  0.05949000  0.86621000  0.10286000  1.0
  H  H33  1  0.94050000  0.63378000  0.60286000  1.0
  H  H34  1  0.94052000  0.13378000  0.89714000  1.0
  H  H35  1  0.05950000  0.36621000  0.39713000  1.0
  H  H36  1  0.17438000  0.68739000  0.97764000  1.0
  H  H37  1  0.82563000  0.81261000  0.47764000  1.0
  H  H38  1  0.82562000  0.31261000  0.02236000  1.0
  H  H39  1  0.17438000  0.18740000  0.52236000  1.0
  H  H40  1  0.20671000  0.61047000  0.04263000  1.0
  H  H41  1  0.79329000  0.88953000  0.54263000  1.0
  H  H42  1  0.79329000  0.38952000  0.95738000  1.0
  H  H43  1  0.20671000  0.11048000  0.45737000  1.0
  H  H44  1  0.54745000  0.63549000  0.03713000  1.0
  H  H45  1  0.45256000  0.86450000  0.53714000  1.0
  H  H46  1  0.45256000  0.36450000  0.96287000  1.0
  H  H47  1  0.54745000  0.13550000  0.46287000  1.0
  H  H48  1  0.50867000  0.67119000  0.97028000  1.0
  H  H49  1  0.49134000  0.82880000  0.47028000  1.0
  H  H50  1  0.49134000  0.32881000  0.02972000  1.0
  H  H51  1  0.50866000  0.17120000  0.52972000  1.0
  C  C52  1  0.51154000  0.86374000  0.22764000  1.0
  C  C53  1  0.48846000  0.63626000  0.72764000  1.0
  C  C54  1  0.48846000  0.13625000  0.77236000  1.0
  C  C55  1  0.51154000  0.36374000  0.27236000  1.0
  C  C56  1  0.30748000  0.04384000  0.35130000  1.0
  C  C57  1  0.69253000  0.45616000  0.85130000  1.0
  C  C58  1  0.69252000  0.95616000  0.64870000  1.0
  C  C59  1  0.30747000  0.54384000  0.14870000  1.0
  C  C60  1  0.18861000  0.13798000  0.25832000  1.0
  C  C61  1  0.81139000  0.36202000  0.75832000  1.0
  C  C62  1  0.81138000  0.86202000  0.74168000  1.0
  C  C63  1  0.18861000  0.63798000  0.24168000  1.0
  C  C64  1  0.19635000  0.15628000  0.03820000  1.0
  C  C65  1  0.80365000  0.34372000  0.53821000  1.0
  C  C66  1  0.80366000  0.84372000  0.96180000  1.0
  C  C67  1  0.19635000  0.65629000  0.46180000  1.0
  C  C68  1  0.38647000  0.98020000  0.19228000  1.0
  C  C69  1  0.61353000  0.51980000  0.69228000  1.0
  C  C70  1  0.61353000  0.01980000  0.80772000  1.0
  C  C71  1  0.38647000  0.48020000  0.30772000  1.0
  C  C72  1  0.31920000  0.02383000  0.29378000  1.0
  C  C73  1  0.68080000  0.47617000  0.79378000  1.0
  C  C74  1  0.68079000  0.97617000  0.70622000  1.0
  C  C75  1  0.31920000  0.52383000  0.20622000  1.0
  C  C76  1  0.11371000  0.94562000  0.07604000  1.0
  C  C77  1  0.88629000  0.55438000  0.57605000  1.0
  C  C78  1  0.88629000  0.05438000  0.92396000  1.0
  C  C79  1  0.11371000  0.44563000  0.42395000  1.0
  C  C80  1  0.25392000  0.68835000  0.01304000  1.0
  C  C81  1  0.74609000  0.81164000  0.51304000  1.0
  C  C82  1  0.74607000  0.31165000  0.98696000  1.0
  C  C83  1  0.25393000  0.18835000  0.48696000  1.0
  C  C84  1  0.47090000  0.60482000  0.00403000  1.0
  C  C85  1  0.52910000  0.89519000  0.50403000  1.0
  C  C86  1  0.52911000  0.39517000  0.99597000  1.0
  C  C87  1  0.47089000  0.10484000  0.49597000  1.0
  C  C88  1  0.00537000  0.29587000  0.27266000  1.0
  C  C89  1  0.99463000  0.20413000  0.77267000  1.0
  C  C90  1  0.99463000  0.70413000  0.72734000  1.0
  C  C91  1  0.00537000  0.79587000  0.22734000  1.0
  N  N92  1  0.47812000  0.88704000  0.27760000  1.0
  N  N93  1  0.52188000  0.61296000  0.77760000  1.0
  N  N94  1  0.52187000  0.11296000  0.72240000  1.0
  N  N95  1  0.47812000  0.38705000  0.22240000  1.0
  N  N96  1  0.10851000  0.12235000  0.08145000  1.0
  N  N97  1  0.89149000  0.37766000  0.58145000  1.0
  N  N98  1  0.89150000  0.87764000  0.91855000  1.0
  N  N99  1  0.10851000  0.62235000  0.41855000  1.0
  N  N100  1  0.22726000  0.11351000  0.20817000  1.0
  N  N101  1  0.77273000  0.38648000  0.70817000  1.0
  N  N102  1  0.77273000  0.88648000  0.79183000  1.0
  N  N103  1  0.22727000  0.61351000  0.29183000  1.0
  N  N104  1  0.25418000  0.01175000  0.00685000  1.0
  N  N105  1  0.74582000  0.48825000  0.50685000  1.0
  N  N106  1  0.74582000  0.98825000  0.99315000  1.0
  N  N107  1  0.25418000  0.51175000  0.49315000  1.0
  N  N108  1  0.20082000  0.87902000  0.03182000  1.0
  N  N109  1  0.79918000  0.62098000  0.53182000  1.0
  N  N110  1  0.79918000  0.12098000  0.96818000  1.0
  N  N111  1  0.20082000  0.37902000  0.46818000  1.0
  O  O112  1  0.91575000  0.40404000  0.23746000  1.0
  O  O113  1  0.08425000  0.09596000  0.73746000  1.0
  O  O114  1  0.08425000  0.59596000  0.76254000  1.0
  O  O115  1  0.91575000  0.90404000  0.26254000  1.0
  O  O116  1  0.75423000  0.17248000  0.15550000  1.0
  O  O117  1  0.24578000  0.32751000  0.65550000  1.0
  O  O118  1  0.24577000  0.82753000  0.84450000  1.0
  O  O119  1  0.75422000  0.67249000  0.34450000  1.0
  O  O120  1  0.40878000  0.13331000  0.37015000  1.0
  O  O121  1  0.59122000  0.36670000  0.87016000  1.0
  O  O122  1  0.59122000  0.86670000  0.62984000  1.0
  O  O123  1  0.40878000  0.63330000  0.12984000  1.0
  O  O124  1  0.20870000  0.96401000  0.37602000  1.0
  O  O125  1  0.79131000  0.53599000  0.87602000  1.0
  O  O126  1  0.79130000  0.03600000  0.62398000  1.0
  O  O127  1  0.20869000  0.46401000  0.12398000  1.0
  O  O128  1  0.78454000  0.59214000  0.12284000  1.0
  O  O129  1  0.21545000  0.90786000  0.62284000  1.0
  O  O130  1  0.21546000  0.40786000  0.87716000  1.0
  O  O131  1  0.78454000  0.09214000  0.37716000  1.0
  O  O132  1  0.95651000  0.31183000  0.31949000  1.0
  O  O133  1  0.04349000  0.18818000  0.81949000  1.0
  O  O134  1  0.04350000  0.68817000  0.68051000  1.0
  O  O135  1  0.95651000  0.81182000  0.18051000  1.0
