# generated using pymatgen
data_Hf3H10C50(NO)16
_symmetry_space_group_name_H-M   'P 1'
_cell_length_a   15.28020000
_cell_length_b   17.68090000
_cell_length_c   17.68740000
_cell_angle_alpha   88.14660000
_cell_angle_beta   89.98070000
_cell_angle_gamma   89.98510000
_symmetry_Int_Tables_number   1
_chemical_formula_structural   Hf3H10C50(NO)16
_chemical_formula_sum   'Hf6 H20 C100 N32 O32'
_cell_volume   4776.06364881
_cell_formula_units_Z   2
loop_
 _symmetry_equiv_pos_site_id
 _symmetry_equiv_pos_as_xyz
  1  'x, y, z'
loop_
 _atom_site_type_symbol
 _atom_site_label
 _atom_site_symmetry_multiplicity
 _atom_site_fract_x
 _atom_site_fract_y
 _atom_site_fract_z
 _atom_site_occupancy
  Hf  Hf0  1  0.99504000  0.14058000  0.99821000  1.0
  Hf  Hf1  1  0.99142000  0.99567000  0.14243000  1.0
  Hf  Hf2  1  0.99265000  0.00406000  0.85715000  1.0
  Hf  Hf3  1  0.99383000  0.86043000  0.99928000  1.0
  Hf  Hf4  1  0.15555000  0.99992000  0.99935000  1.0
  Hf  Hf5  1  0.83142000  0.00057000  0.99889000  1.0
  H  H6  1  0.86951000  0.11498000  0.10883000  1.0
  H  H7  1  0.11002000  0.88366000  0.12113000  1.0
  H  H8  1  0.86989000  0.88486000  0.88844000  1.0
  H  H9  1  0.11757000  0.11413000  0.88194000  1.0
  H  H10  1  0.95748000  0.88420000  0.24536000  1.0
  H  H11  1  0.93704000  0.75373000  0.11001000  1.0
  H  H12  1  0.02945000  0.75492000  0.89771000  1.0
  H  H13  1  0.99061000  0.85001000  0.83523000  1.0
  H  H14  1  0.95544000  0.11588000  0.75297000  1.0
  H  H15  1  0.99131000  0.16876000  0.84516000  1.0
  H  H16  1  0.03495000  0.24378000  0.10128000  1.0
  H  H17  1  0.99166000  0.14979000  0.16339000  1.0
  H  H18  1  0.03784000  0.88411000  0.75991000  1.0
  H  H19  1  0.03531000  0.24625000  0.87437000  1.0
  H  H20  1  0.03480000  0.11511000  0.24029000  1.0
  H  H21  1  0.04157000  0.74776000  0.12217000  1.0
  H  H22  1  0.65675000  0.50075000  0.99339000  1.0
  H  H23  1  0.33517000  0.49957000  0.99601000  1.0
  H  H24  1  0.65389000  0.99854000  0.49820000  1.0
  H  H25  1  0.33246000  0.99817000  0.49910000  1.0
  C  C26  1  0.20538000  0.17635000  0.00158000  1.0
  C  C27  1  0.77966000  0.99576000  0.17309000  1.0
  C  C28  1  0.20628000  0.00225000  0.17236000  1.0
  C  C29  1  0.78330000  0.17511000  0.98883000  1.0
  C  C30  1  0.78322000  0.00454000  0.82220000  1.0
  C  C31  1  0.20543000  0.82424000  0.99416000  1.0
  C  C32  1  0.77989000  0.82641000  0.00968000  1.0
  C  C33  1  0.20407000  0.99885000  0.82330000  1.0
  C  C34  1  0.54243000  0.43076000  0.99388000  1.0
  C  C35  1  0.45008000  0.43044000  0.99477000  1.0
  C  C36  1  0.40635000  0.49985000  0.99564000  1.0
  C  C37  1  0.44939000  0.56952000  0.99625000  1.0
  C  C38  1  0.54177000  0.56980000  0.99568000  1.0
  C  C39  1  0.58554000  0.50049000  0.99405000  1.0
  C  C40  1  0.53913000  0.99705000  0.42905000  1.0
  C  C41  1  0.44673000  0.99785000  0.42922000  1.0
  C  C42  1  0.40366000  0.99837000  0.49890000  1.0
  C  C43  1  0.44719000  0.99934000  0.56835000  1.0
  C  C44  1  0.53959000  0.00039000  0.56811000  1.0
  C  C45  1  0.58269000  0.99862000  0.49844000  1.0
  C  C46  1  0.71522000  0.00541000  0.76035000  1.0
  C  C47  1  0.64678000  0.95262000  0.76000000  1.0
  C  C48  1  0.58990000  0.94922000  0.69650000  1.0
  C  C49  1  0.59596000  0.00289000  0.63613000  1.0
  C  C50  1  0.66239000  0.05847000  0.63909000  1.0
  C  C51  1  0.72279000  0.05811000  0.69943000  1.0
  C  C52  1  0.63308000  0.89966000  0.82141000  1.0
  C  C53  1  0.67082000  0.11508000  0.58025000  1.0
  C  C54  1  0.79093000  0.11320000  0.69845000  1.0
  C  C55  1  0.52983000  0.88787000  0.69277000  1.0
  C  C56  1  0.39071000  0.99899000  0.63654000  1.0
  C  C57  1  0.32577000  0.94232000  0.64515000  1.0
  C  C58  1  0.26609000  0.94316000  0.70591000  1.0
  C  C59  1  0.27133000  0.99867000  0.76084000  1.0
  C  C60  1  0.33624000  0.05443000  0.75359000  1.0
  C  C61  1  0.39451000  0.05554000  0.69079000  1.0
  C  C62  1  0.31813000  0.88375000  0.59196000  1.0
  C  C63  1  0.34160000  0.11322000  0.80677000  1.0
  C  C64  1  0.45421000  0.11698000  0.68131000  1.0
  C  C65  1  0.20029000  0.88616000  0.71176000  1.0
  C  C66  1  0.71161000  0.99407000  0.23482000  1.0
  C  C67  1  0.64471000  0.04813000  0.23736000  1.0
  C  C68  1  0.58844000  0.05036000  0.30137000  1.0
  C  C69  1  0.59474000  0.99530000  0.36047000  1.0
  C  C70  1  0.66026000  0.93904000  0.35567000  1.0
  C  C71  1  0.71893000  0.93947000  0.29410000  1.0
  C  C72  1  0.63300000  0.10338000  0.17765000  1.0
  C  C73  1  0.66941000  0.88184000  0.41388000  1.0
  C  C74  1  0.78448000  0.88220000  0.29088000  1.0
  C  C75  1  0.52887000  0.11191000  0.30691000  1.0
  C  C76  1  0.27321000  0.00156000  0.23510000  1.0
  C  C77  1  0.26656000  0.05572000  0.29136000  1.0
  C  C78  1  0.32539000  0.05553000  0.35275000  1.0
  C  C79  1  0.39043000  0.99885000  0.36094000  1.0
  C  C80  1  0.39493000  0.94316000  0.30586000  1.0
  C  C81  1  0.33793000  0.94558000  0.24219000  1.0
  C  C82  1  0.20009000  0.11229000  0.28687000  1.0
  C  C83  1  0.45380000  0.88110000  0.31532000  1.0
  C  C84  1  0.34437000  0.88746000  0.18831000  1.0
  C  C85  1  0.31670000  0.11282000  0.40727000  1.0
  C  C86  1  0.59690000  0.63862000  0.99809000  1.0
  C  C87  1  0.66100000  0.65201000  0.94148000  1.0
  C  C88  1  0.71677000  0.71540000  0.94423000  1.0
  C  C89  1  0.71200000  0.76477000  0.00487000  1.0
  C  C90  1  0.64718000  0.75346000  0.05990000  1.0
  C  C91  1  0.59026000  0.69004000  0.05702000  1.0
  C  C92  1  0.67119000  0.60117000  0.88112000  1.0
  C  C93  1  0.63810000  0.80508000  0.11962000  1.0
  C  C94  1  0.52896000  0.67764000  0.11678000  1.0
  C  C95  1  0.77368000  0.73375000  0.88248000  1.0
  C  C96  1  0.39315000  0.63777000  0.99716000  1.0
  C  C97  1  0.39976000  0.69717000  0.94234000  1.0
  C  C98  1  0.34246000  0.76061000  0.94343000  1.0
  C  C99  1  0.27416000  0.76272000  0.99615000  1.0
  C  C100  1  0.26706000  0.70331000  0.05063000  1.0
  C  C101  1  0.32624000  0.64209000  0.05218000  1.0
  C  C102  1  0.46059000  0.69285000  0.88162000  1.0
  C  C103  1  0.19960000  0.70569000  0.10610000  1.0
  C  C104  1  0.31498000  0.58370000  0.10890000  1.0
  C  C105  1  0.35444000  0.82041000  0.88839000  1.0
  C  C106  1  0.71519000  0.23677000  0.99116000  1.0
  C  C107  1  0.65001000  0.24543000  0.93598000  1.0
  C  C108  1  0.59225000  0.30848000  0.93653000  1.0
  C  C109  1  0.59840000  0.36230000  0.99328000  1.0
  C  C110  1  0.66296000  0.35174000  0.04996000  1.0
  C  C111  1  0.71975000  0.28884000  0.04947000  1.0
  C  C112  1  0.64127000  0.19187000  0.87792000  1.0
  C  C113  1  0.67259000  0.40512000  0.10818000  1.0
  C  C114  1  0.77771000  0.27507000  0.11154000  1.0
  C  C115  1  0.53039000  0.31813000  0.87679000  1.0
  C  C116  1  0.27388000  0.23798000  0.99891000  1.0
  C  C117  1  0.34281000  0.24033000  0.05100000  1.0
  C  C118  1  0.40064000  0.30345000  0.05090000  1.0
  C  C119  1  0.39402000  0.36202000  0.99522000  1.0
  C  C120  1  0.32648000  0.35742000  0.94091000  1.0
  C  C121  1  0.26622000  0.29704000  0.94411000  1.0
  C  C122  1  0.35443000  0.18146000  0.10710000  1.0
  C  C123  1  0.31593000  0.41489000  0.88315000  1.0
  C  C124  1  0.19722000  0.29626000  0.89005000  1.0
  C  C125  1  0.46195000  0.30867000  0.11114000  1.0
  N  N126  1  0.84701000  0.15800000  0.69669000  1.0
  N  N127  1  0.48145000  0.83702000  0.68904000  1.0
  N  N128  1  0.68020000  0.16015000  0.53119000  1.0
  N  N129  1  0.61684000  0.85552000  0.86983000  1.0
  N  N130  1  0.50298000  0.16746000  0.67338000  1.0
  N  N131  1  0.14560000  0.84020000  0.71659000  1.0
  N  N132  1  0.34572000  0.16251000  0.84890000  1.0
  N  N133  1  0.30847000  0.83706000  0.54751000  1.0
  N  N134  1  0.83763000  0.83504000  0.28728000  1.0
  N  N135  1  0.48069000  0.16280000  0.31171000  1.0
  N  N136  1  0.67979000  0.83671000  0.46272000  1.0
  N  N137  1  0.62008000  0.14912000  0.12994000  1.0
  N  N138  1  0.34994000  0.83825000  0.14617000  1.0
  N  N139  1  0.30629000  0.15814000  0.45300000  1.0
  N  N140  1  0.50161000  0.82991000  0.32328000  1.0
  N  N141  1  0.14537000  0.15837000  0.28447000  1.0
  N  N142  1  0.47858000  0.66817000  0.16585000  1.0
  N  N143  1  0.81595000  0.75405000  0.83070000  1.0
  N  N144  1  0.62949000  0.84779000  0.16796000  1.0
  N  N145  1  0.68331000  0.55758000  0.83402000  1.0
  N  N146  1  0.30122000  0.53494000  0.15344000  1.0
  N  N147  1  0.36744000  0.86836000  0.84295000  1.0
  N  N148  1  0.14340000  0.70891000  0.15048000  1.0
  N  N149  1  0.50909000  0.68978000  0.83078000  1.0
  N  N150  1  0.82073000  0.26067000  0.16461000  1.0
  N  N151  1  0.47931000  0.32560000  0.82802000  1.0
  N  N152  1  0.68399000  0.45092000  0.15326000  1.0
  N  N153  1  0.63214000  0.14841000  0.83032000  1.0
  N  N154  1  0.14003000  0.29611000  0.84640000  1.0
  N  N155  1  0.51100000  0.31315000  0.16140000  1.0
  N  N156  1  0.30357000  0.46302000  0.83763000  1.0
  N  N157  1  0.36669000  0.13449000  0.15371000  1.0
  O  O158  1  0.12723000  0.20065000  0.99987000  1.0
  O  O159  1  0.23171000  0.10852000  0.00416000  1.0
  O  O160  1  0.85736000  0.99301000  0.19735000  1.0
  O  O161  1  0.75316000  0.00054000  0.10515000  1.0
  O  O162  1  0.12881000  0.01063000  0.19465000  1.0
  O  O163  1  0.23350000  0.99343000  0.10525000  1.0
  O  O164  1  0.86100000  0.19898000  0.98742000  1.0
  O  O165  1  0.75610000  0.10723000  0.99004000  1.0
  O  O166  1  0.99286000  0.20357000  0.09429000  1.0
  O  O167  1  0.99228000  0.20718000  0.88944000  1.0
  O  O168  1  0.98998000  0.10426000  0.20247000  1.0
  O  O169  1  0.00341000  0.91083000  0.21723000  1.0
  O  O170  1  0.06342000  0.05643000  0.05607000  1.0
  O  O171  1  0.90171000  0.08016000  0.07764000  1.0
  O  O172  1  0.86154000  0.00734000  0.79867000  1.0
  O  O173  1  0.75620000  0.00009000  0.88984000  1.0
  O  O174  1  0.12748000  0.79970000  0.99517000  1.0
  O  O175  1  0.23171000  0.89197000  0.99252000  1.0
  O  O176  1  0.85743000  0.80185000  0.01682000  1.0
  O  O177  1  0.75373000  0.89415000  0.00437000  1.0
  O  O178  1  0.12589000  0.99369000  0.80051000  1.0
  O  O179  1  0.23170000  0.00468000  0.89042000  1.0
  O  O180  1  0.99159000  0.89598000  0.79620000  1.0
  O  O181  1  0.99765000  0.10358000  0.79302000  1.0
  O  O182  1  0.98886000  0.79650000  0.90361000  1.0
  O  O183  1  0.99374000  0.77013000  0.09077000  1.0
  O  O184  1  0.90163000  0.91952000  0.92022000  1.0
  O  O185  1  0.06307000  0.94266000  0.94149000  1.0
  O  O186  1  0.92463000  0.05894000  0.93925000  1.0
  O  O187  1  0.08315000  0.91510000  0.08140000  1.0
  O  O188  1  0.08624000  0.08129000  0.91773000  1.0
  O  O189  1  0.92234000  0.93990000  0.05949000  1.0
