# generated using pymatgen
data_CuH12C11NO4
_symmetry_space_group_name_H-M   'P 1'
_cell_length_a   8.67715000
_cell_length_b   13.12280000
_cell_length_c   14.26964830
_cell_angle_alpha   117.36509006
_cell_angle_beta   93.90897770
_cell_angle_gamma   90.01040000
_symmetry_Int_Tables_number   1
_chemical_formula_structural   CuH12C11NO4
_chemical_formula_sum   'Cu4 H48 C44 N4 O16'
_cell_volume   1438.76598460
_cell_formula_units_Z   4
loop_
 _symmetry_equiv_pos_site_id
 _symmetry_equiv_pos_as_xyz
  1  'x, y, z'
loop_
 _atom_site_type_symbol
 _atom_site_label
 _atom_site_symmetry_multiplicity
 _atom_site_fract_x
 _atom_site_fract_y
 _atom_site_fract_z
 _atom_site_occupancy
  Cu  Cu0  1  0.93941000  0.41320000  0.41675000  1.0
  Cu  Cu1  1  0.56061000  0.99640000  0.58327000  1.0
  Cu  Cu2  1  0.06060000  0.58680000  0.58325000  1.0
  Cu  Cu3  1  0.43940000  0.00360000  0.41673000  1.0
  H  H4  1  0.51603000  0.59319000  0.62647000  1.0
  H  H5  1  0.62615000  0.58307000  0.73074000  1.0
  H  H6  1  0.41395000  0.42946000  0.64534000  1.0
  H  H7  1  0.49190000  0.38135000  0.52162000  1.0
  H  H8  1  0.74075000  0.33819000  0.59515000  1.0
  H  H9  1  0.65678000  0.37225000  0.71533000  1.0
  H  H10  1  0.77026000  0.37611000  0.20915000  1.0
  H  H11  1  0.57088000  0.24226000  0.07176000  1.0
  H  H12  1  0.61735000  0.02415000  0.22459000  1.0
  H  H13  1  0.81393000  0.16596000  0.35301000  1.0
  H  H14  1  0.41203000  0.97990000  0.08054000  1.0
  H  H15  1  0.36751000  0.08353000  0.03707000  1.0
  H  H16  1  0.98389000  0.96697000  0.37354000  1.0
  H  H17  1  0.87377000  0.85256000  0.26933000  1.0
  H  H18  1  0.08608000  0.78446000  0.35477000  1.0
  H  H19  1  0.00807000  0.86001000  0.47848000  1.0
  H  H20  1  0.75929000  0.74321000  0.40491000  1.0
  H  H21  1  0.84322000  0.65725000  0.28471000  1.0
  H  H22  1  0.72999000  0.16725000  0.79089000  1.0
  H  H23  1  0.92934000  0.17081000  0.92839000  1.0
  H  H24  1  0.88283000  0.79990000  0.77559000  1.0
  H  H25  1  0.68623000  0.81328000  0.64715000  1.0
  H  H26  1  0.08828000  0.89968000  0.91943000  1.0
  H  H27  1  0.13249000  0.04691000  0.96328000  1.0
  H  H28  1  0.48398000  0.40681000  0.37353000  1.0
  H  H29  1  0.37385000  0.41693000  0.26926000  1.0
  H  H30  1  0.58605000  0.57054000  0.35466000  1.0
  H  H31  1  0.50811000  0.61865000  0.47838000  1.0
  H  H32  1  0.25925000  0.66181000  0.40485000  1.0
  H  H33  1  0.34322000  0.62776000  0.28467000  1.0
  H  H34  1  0.22974000  0.62389000  0.79085000  1.0
  H  H35  1  0.42912000  0.75775000  0.92824000  1.0
  H  H36  1  0.38265000  0.97585000  0.77541000  1.0
  H  H37  1  0.18607000  0.83404000  0.64699000  1.0
  H  H38  1  0.58796000  0.02011000  0.91946000  1.0
  H  H39  1  0.63248000  0.91648000  0.96293000  1.0
  H  H40  1  0.01611000  0.03302000  0.62646000  1.0
  H  H41  1  0.12623000  0.14744000  0.73067000  1.0
  H  H42  1  0.91391000  0.21553000  0.64523000  1.0
  H  H43  1  0.99193000  0.13999000  0.52153000  1.0
  H  H44  1  0.24071000  0.25678000  0.59509000  1.0
  H  H45  1  0.15677000  0.34275000  0.71529000  1.0
  H  H46  1  0.27001000  0.83276000  0.20912000  1.0
  H  H47  1  0.07066000  0.82919000  0.07161000  1.0
  H  H48  1  0.11717000  0.20010000  0.22441000  1.0
  H  H49  1  0.31377000  0.18673000  0.35286000  1.0
  H  H50  1  0.91172000  0.10032000  0.08058000  1.0
  H  H51  1  0.86751000  0.95310000  0.03673000  1.0
  C  C52  1  0.74500000  0.53465000  0.59118000  1.0
  C  C53  1  0.59770000  0.53932000  0.64472000  1.0
  C  C54  1  0.52239000  0.42009000  0.60707000  1.0
  C  C55  1  0.63019000  0.34074000  0.62992000  1.0
  C  C56  1  0.57396000  0.21631000  0.58230000  1.0
  C  C57  1  0.73389000  0.29578000  0.20774000  1.0
  C  C58  1  0.62284000  0.22138000  0.13239000  1.0
  C  C59  1  0.57795000  0.12042000  0.13538000  1.0
  C  C60  1  0.64797000  0.09988000  0.21604000  1.0
  C  C61  1  0.75820000  0.17898000  0.28864000  1.0
  C  C62  1  0.46280000  0.03654000  0.05237000  1.0
  C  C63  1  0.75503000  0.94365000  0.40889000  1.0
  C  C64  1  0.90227000  0.89484000  0.35534000  1.0
  C  C65  1  0.97761000  0.81328000  0.39301000  1.0
  C  C66  1  0.86983000  0.71101000  0.37012000  1.0
  C  C67  1  0.92602000  0.63404000  0.41762000  1.0
  C  C68  1  0.76637000  0.08837000  0.79236000  1.0
  C  C69  1  0.87738000  0.08932000  0.86775000  1.0
  C  C70  1  0.92223000  0.98536000  0.86473000  1.0
  C  C71  1  0.85218000  0.88416000  0.78413000  1.0
  C  C72  1  0.74198000  0.89065000  0.71150000  1.0
  C  C73  1  0.03733000  0.98444000  0.94772000  1.0
  C  C74  1  0.25501000  0.46535000  0.40882000  1.0
  C  C75  1  0.40230000  0.46068000  0.35528000  1.0
  C  C76  1  0.47762000  0.57990000  0.39292000  1.0
  C  C77  1  0.36981000  0.65926000  0.37008000  1.0
  C  C78  1  0.42604000  0.78369000  0.41769000  1.0
  C  C79  1  0.26611000  0.70421000  0.79225000  1.0
  C  C80  1  0.37716000  0.77863000  0.86761000  1.0
  C  C81  1  0.42205000  0.87958000  0.86462000  1.0
  C  C82  1  0.35203000  0.90013000  0.78396000  1.0
  C  C83  1  0.24180000  0.82102000  0.71136000  1.0
  C  C84  1  0.53719000  0.96346000  0.94763000  1.0
  C  C85  1  0.24498000  0.05635000  0.59110000  1.0
  C  C86  1  0.09774000  0.10516000  0.64466000  1.0
  C  C87  1  0.02238000  0.18672000  0.60699000  1.0
  C  C88  1  0.13016000  0.28898000  0.62988000  1.0
  C  C89  1  0.07398000  0.36596000  0.58238000  1.0
  C  C90  1  0.23364000  0.91163000  0.20764000  1.0
  C  C91  1  0.12262000  0.91069000  0.13226000  1.0
  C  C92  1  0.07777000  0.01464000  0.13527000  1.0
  C  C93  1  0.14782000  0.11585000  0.21588000  1.0
  C  C94  1  0.25802000  0.10935000  0.28850000  1.0
  C  C95  1  0.96267000  0.01556000  0.05229000  1.0
  N  N96  1  0.80176000  0.27523000  0.28476000  1.0
  N  N97  1  0.69849000  0.99079000  0.71538000  1.0
  N  N98  1  0.19824000  0.72477000  0.71524000  1.0
  N  N99  1  0.30151000  0.00922000  0.28463000  1.0
  O  O100  1  0.74836000  0.45665000  0.49600000  1.0
  O  O101  1  0.85470000  0.60709000  0.64510000  1.0
  O  O102  1  0.60681000  0.16465000  0.63778000  1.0
  O  O103  1  0.50302000  0.17146000  0.49040000  1.0
  O  O104  1  0.75161000  0.96066000  0.50403000  1.0
  O  O105  1  0.64537000  0.96224000  0.35502000  1.0
  O  O106  1  0.89310000  0.52695000  0.36213000  1.0
  O  O107  1  0.99697000  0.68101000  0.50954000  1.0
  O  O108  1  0.25164000  0.54334000  0.50400000  1.0
  O  O109  1  0.14531000  0.39291000  0.35490000  1.0
  O  O110  1  0.39319000  0.83535000  0.36222000  1.0
  O  O111  1  0.49698000  0.82854000  0.50960000  1.0
  O  O112  1  0.24839000  0.03934000  0.49597000  1.0
  O  O113  1  0.35464000  0.03775000  0.64497000  1.0
  O  O114  1  0.10689000  0.47305000  0.63787000  1.0
  O  O115  1  0.00303000  0.31899000  0.49046000  1.0
