# generated using pymatgen
data_CdH6C7S2(N2O)2
_symmetry_space_group_name_H-M   'P 1'
_cell_length_a   7.75813000
_cell_length_b   8.61362000
_cell_length_c   8.76922000
_cell_angle_alpha   100.18800000
_cell_angle_beta   99.08570000
_cell_angle_gamma   103.39900000
_symmetry_Int_Tables_number   1
_chemical_formula_structural   CdH6C7S2(N2O)2
_chemical_formula_sum   'Cd2 H12 C14 S4 N8 O4'
_cell_volume   548.82843555
_cell_formula_units_Z   2
loop_
 _symmetry_equiv_pos_site_id
 _symmetry_equiv_pos_as_xyz
  1  'x, y, z'
loop_
 _atom_site_type_symbol
 _atom_site_label
 _atom_site_symmetry_multiplicity
 _atom_site_fract_x
 _atom_site_fract_y
 _atom_site_fract_z
 _atom_site_occupancy
  Cd  Cd0  1  0.26111000  0.20284000  0.28375000  1.0
  Cd  Cd1  1  0.73891000  0.79717000  0.71626000  1.0
  H  H2  1  0.19848000  0.97338000  0.57399000  1.0
  H  H3  1  0.80151000  0.02661000  0.42600000  1.0
  H  H4  1  0.32893000  0.44527000  0.01356000  1.0
  H  H5  1  0.67106000  0.55472000  0.98643000  1.0
  H  H6  1  0.37276000  0.97542000  0.84785000  1.0
  H  H7  1  0.62723000  0.02457000  0.15214000  1.0
  H  H8  1  0.20992000  0.53645000  0.63587000  1.0
  H  H9  1  0.79007000  0.46354000  0.36412000  1.0
  H  H10  1  0.18264000  0.58743000  0.83482000  1.0
  H  H11  1  0.81736000  0.41256000  0.16516000  1.0
  H  H12  1  0.00095000  0.45105000  0.68429000  1.0
  H  H13  1  0.99905000  0.54894000  0.31570000  1.0
  C  C14  1  0.23581000  0.07956000  0.67192000  1.0
  C  C15  1  0.76418000  0.92044000  0.32807000  1.0
  C  C16  1  0.21361000  0.34833000  0.76324000  1.0
  C  C17  1  0.78638000  0.65166000  0.23675000  1.0
  C  C18  1  0.30322000  0.34485000  0.91129000  1.0
  C  C19  1  0.69677000  0.65514000  0.08870000  1.0
  C  C20  1  0.32653000  0.07890000  0.81934000  1.0
  C  C21  1  0.67346000  0.92109000  0.18065000  1.0
  C  C22  1  0.14830000  0.48914000  0.72855000  1.0
  C  C23  1  0.85169000  0.51085000  0.27144000  1.0
  C  C24  1  0.08062000  0.83941000  0.02081000  1.0
  C  C25  1  0.91941000  0.16056000  0.97921000  1.0
  C  C26  1  0.38672000  0.61601000  0.41211000  1.0
  C  C27  1  0.61329000  0.38404000  0.58791000  1.0
  S  S28  1  0.20990000  0.86830000  0.19464000  1.0
  S  S29  1  0.79012000  0.13168000  0.80537000  1.0
  S  S30  1  0.44256000  0.80052000  0.52346000  1.0
  S  S31  1  0.55745000  0.19954000  0.47656000  1.0
  N  N32  1  0.34240000  0.48422000  0.32788000  1.0
  N  N33  1  0.65762000  0.51584000  0.67215000  1.0
  N  N34  1  0.98852000  0.81348000  0.89311000  1.0
  N  N35  1  0.01149000  0.18650000  0.10691000  1.0
  N  N36  1  0.18307000  0.21319000  0.64189000  1.0
  N  N37  1  0.81693000  0.78680000  0.35810000  1.0
  N  N38  1  0.36241000  0.21323000  0.93975000  1.0
  N  N39  1  0.63758000  0.78676000  0.06024000  1.0
  O  O40  1  0.44957000  0.21523000  0.08064000  1.0
  O  O41  1  0.55041000  0.78475000  0.91935000  1.0
  O  O42  1  0.10080000  0.21321000  0.49945000  1.0
  O  O43  1  0.89920000  0.78679000  0.50054000  1.0
