# generated using pymatgen
data_AlH3C10SNO7F
_symmetry_space_group_name_H-M   'P 1'
_cell_length_a   6.65509000
_cell_length_b   11.11050000
_cell_length_c   12.72780176
_cell_angle_alpha   87.73746039
_cell_angle_beta   75.20691689
_cell_angle_gamma   73.08140000
_symmetry_Int_Tables_number   1
_chemical_formula_structural   AlH3C10SNO7F
_chemical_formula_sum   'Al2 H6 C20 S2 N2 O14 F2'
_cell_volume   869.91816138
_cell_formula_units_Z   2
loop_
 _symmetry_equiv_pos_site_id
 _symmetry_equiv_pos_as_xyz
  1  'x, y, z'
loop_
 _atom_site_type_symbol
 _atom_site_label
 _atom_site_symmetry_multiplicity
 _atom_site_fract_x
 _atom_site_fract_y
 _atom_site_fract_z
 _atom_site_occupancy
  Al  Al0  1  0.00218000  0.49845000  0.50725000  1.0
  Al  Al1  1  0.50236000  0.49700000  0.50558000  1.0
  H  H2  1  0.14787000  0.64290000  0.58181000  1.0
  H  H3  1  0.85202000  0.42751000  0.37699000  1.0
  H  H4  1  0.44933000  0.76060000  0.34486000  1.0
  H  H5  1  0.23247000  0.87459000  0.22255000  1.0
  H  H6  1  0.18748000  0.22984000  0.36406000  1.0
  H  H7  1  0.10232000  0.10984000  0.23134000  1.0
  C  C8  1  0.65503000  0.72428000  0.49519000  1.0
  C  C9  1  0.65163000  0.49581000  0.69913000  1.0
  C  C10  1  0.34579000  0.27365000  0.51618000  1.0
  C  C11  1  0.35310000  0.49859000  0.30926000  1.0
  C  C12  1  0.69786000  0.52791000  0.88952000  1.0
  C  C13  1  0.30092000  0.47137000  0.11883000  1.0
  C  C14  1  0.59333000  0.49631000  0.81805000  1.0
  C  C15  1  0.40597000  0.50141000  0.19072000  1.0
  C  C16  1  0.40439000  0.48139000  0.00875000  1.0
  C  C17  1  0.59148000  0.52004000  0.99946000  1.0
  C  C18  1  0.58336000  0.86563000  0.49416000  1.0
  C  C19  1  0.44797000  0.92937000  0.42618000  1.0
  C  C20  1  0.64081000  0.93472000  0.56348000  1.0
  C  C21  1  0.39396000  0.86303000  0.34944000  1.0
  C  C22  1  0.27202000  0.92721000  0.28103000  1.0
  C  C23  1  0.42048000  0.13172000  0.51086000  1.0
  C  C24  1  0.55220000  0.06667000  0.57529000  1.0
  C  C25  1  0.37051000  0.06466000  0.43251000  1.0
  C  C26  1  0.24655000  0.12757000  0.35994000  1.0
  C  C27  1  0.19826000  0.06016000  0.28608000  1.0
  S  S28  1  0.36046000  0.45639000  0.88516000  1.0
  S  S29  1  0.63776000  0.54290000  0.12310000  1.0
  N  N30  1  0.59172000  0.13576000  0.66078000  1.0
  N  N31  1  0.77977000  0.86674000  0.63472000  1.0
  O  O32  1  0.85727000  0.67144000  0.47995000  1.0
  O  O33  1  0.51644000  0.47472000  0.65230000  1.0
  O  O34  1  0.49672000  0.32622000  0.49478000  1.0
  O  O35  1  0.17620000  0.47544000  0.35795000  1.0
  O  O36  1  0.14415000  0.32712000  0.53401000  1.0
  O  O37  1  0.49292000  0.51818000  0.35428000  1.0
  O  O38  1  0.50529000  0.67115000  0.51368000  1.0
  O  O39  1  0.82946000  0.51814000  0.65196000  1.0
  O  O40  1  0.20272000  0.55750000  0.55008000  1.0
  O  O41  1  0.80420000  0.44300000  0.45523000  1.0
  O  O42  1  0.43523000  0.22078000  0.71200000  1.0
  O  O43  1  0.77613000  0.10305000  0.67606000  1.0
  O  O44  1  0.97836000  0.83863000  0.59694000  1.0
  O  O45  1  0.68361000  0.84044000  0.72512000  1.0
  F  F46  1  0.87956000  0.56363000  0.85957000  1.0
  F  F47  1  0.12026000  0.43353000  0.14926000  1.0
