# generated using pymatgen
data_Zr3H20C44N5O26F
_symmetry_space_group_name_H-M   'P 1'
_cell_length_a   19.12270000
_cell_length_b   19.12182566
_cell_length_c   19.14560000
_cell_angle_alpha   60.04279800
_cell_angle_beta   60.04480000
_cell_angle_gamma   90.53632477
_symmetry_Int_Tables_number   1
_chemical_formula_structural   Zr3H20C44N5O26F
_chemical_formula_sum   'Zr6 H40 C88 N10 O52 F2'
_cell_volume   4933.29291840
_cell_formula_units_Z   2
loop_
 _symmetry_equiv_pos_site_id
 _symmetry_equiv_pos_as_xyz
  1  'x, y, z'
loop_
 _atom_site_type_symbol
 _atom_site_label
 _atom_site_symmetry_multiplicity
 _atom_site_fract_x
 _atom_site_fract_y
 _atom_site_fract_z
 _atom_site_occupancy
  Zr  Zr0  1  0.59300000  0.59332000  0.49965000  1.0
  Zr  Zr1  1  0.40710000  0.40747000  0.49994000  1.0
  Zr  Zr2  1  0.59380000  0.59413000  0.31432000  1.0
  Zr  Zr3  1  0.40631000  0.40665000  0.68527000  1.0
  Zr  Zr4  1  0.40803000  0.59241000  0.49981000  1.0
  Zr  Zr5  1  0.59207000  0.40831000  0.49981000  1.0
  H  H6  1  0.57497000  0.71974000  0.35363000  1.0
  H  H7  1  0.28072000  0.42549000  0.64596000  1.0
  H  H8  1  0.57270000  0.42824000  0.35376000  1.0
  H  H9  1  0.57213000  0.42768000  0.64589000  1.0
  H  H10  1  0.38892000  0.05046000  0.49497000  1.0
  H  H11  1  0.61544000  0.95479000  0.49588000  1.0
  H  H12  1  0.38506000  0.81375000  0.51018000  1.0
  H  H13  1  0.38186000  0.94181000  0.51023000  1.0
  H  H14  1  0.60448000  0.17647000  0.51016000  1.0
  H  H15  1  0.60760000  0.04842000  0.51012000  1.0
  H  H16  1  0.04556000  0.38479000  0.50396000  1.0
  H  H17  1  0.94966000  0.61119000  0.50514000  1.0
  H  H18  1  0.82373000  0.39565000  0.48986000  1.0
  H  H19  1  0.95169000  0.39245000  0.49008000  1.0
  H  H20  1  0.18637000  0.61521000  0.48978000  1.0
  H  H21  1  0.05824000  0.61825000  0.48990000  1.0
  H  H22  1  0.94788000  0.38481000  0.16306000  1.0
  H  H23  1  0.04681000  0.61051000  0.83694000  1.0
  H  H24  1  0.18523000  0.39659000  0.93055000  1.0
  H  H25  1  0.05651000  0.39313000  0.06158000  1.0
  H  H26  1  0.82434000  0.61383000  0.06897000  1.0
  H  H27  1  0.95224000  0.61643000  0.93796000  1.0
  H  H28  1  0.38964000  0.95335000  0.16268000  1.0
  H  H29  1  0.61521000  0.05216000  0.83663000  1.0
  H  H30  1  0.38644000  0.17596000  0.93058000  1.0
  H  H31  1  0.38365000  0.04792000  0.06165000  1.0
  H  H32  1  0.60372000  0.81507000  0.06902000  1.0
  H  H33  1  0.60691000  0.94358000  0.93805000  1.0
  H  H34  1  0.18110000  0.17645000  0.70873000  1.0
  H  H35  1  0.06587000  0.06310000  0.75679000  1.0
  H  H36  1  0.18175000  0.17747000  0.93270000  1.0
  H  H37  1  0.82397000  0.81941000  0.29084000  1.0
  H  H38  1  0.93724000  0.93461000  0.24281000  1.0
  H  H39  1  0.82293000  0.81873000  0.06690000  1.0
  H  H40  1  0.61705000  0.61259000  0.93397000  1.0
  H  H41  1  0.38778000  0.38333000  0.06563000  1.0
  H  H42  1  0.60543000  0.61530000  0.70954000  1.0
  H  H43  1  0.60884000  0.61856000  0.83414000  1.0
  H  H44  1  0.38511000  0.39500000  0.29009000  1.0
  H  H45  1  0.38180000  0.39155000  0.16551000  1.0
  C  C46  1  0.49874000  0.73237000  0.50479000  1.0
  C  C47  1  0.26798000  0.50171000  0.49491000  1.0
  C  C48  1  0.49645000  0.26354000  0.50441000  1.0
  C  C49  1  0.73682000  0.50383000  0.49530000  1.0
  C  C50  1  0.73864000  0.73387000  0.26416000  1.0
  C  C51  1  0.49611000  0.50101000  0.73594000  1.0
  C  C52  1  0.26658000  0.26179000  0.73544000  1.0
  C  C53  1  0.49941000  0.50435000  0.26363000  1.0
  C  C54  1  0.49795000  0.73323000  0.26545000  1.0
  C  C55  1  0.73759000  0.50300000  0.26545000  1.0
  C  C56  1  0.49737000  0.26276000  0.73412000  1.0
  C  C57  1  0.26717000  0.50246000  0.73416000  1.0
  C  C58  1  0.49591000  0.18603000  0.50377000  1.0
  C  C59  1  0.49978000  0.81040000  0.50441000  1.0
  C  C60  1  0.43637000  0.14825000  0.49941000  1.0
  C  C61  1  0.43688000  0.07601000  0.49893000  1.0
  C  C62  1  0.56348000  0.85240000  0.50050000  1.0
  C  C63  1  0.56359000  0.92529000  0.49967000  1.0
  C  C64  1  0.43501000  0.84538000  0.50739000  1.0
  C  C65  1  0.43417000  0.91813000  0.50700000  1.0
  C  C66  1  0.55743000  0.14781000  0.50715000  1.0
  C  C67  1  0.55861000  0.07543000  0.50680000  1.0
  C  C68  1  0.49828000  0.03755000  0.50289000  1.0
  C  C69  1  0.49841000  0.95998000  0.50312000  1.0
  C  C70  1  0.18989000  0.50056000  0.49539000  1.0
  C  C71  1  0.81422000  0.50428000  0.49614000  1.0
  C  C72  1  0.14792000  0.43684000  0.49930000  1.0
  C  C73  1  0.07498000  0.43665000  0.50023000  1.0
  C  C74  1  0.85195000  0.56380000  0.50058000  1.0
  C  C75  1  0.92414000  0.56326000  0.50111000  1.0
  C  C76  1  0.85240000  0.44271000  0.49285000  1.0
  C  C77  1  0.92472000  0.44149000  0.49329000  1.0
  C  C78  1  0.15480000  0.56525000  0.49253000  1.0
  C  C79  1  0.08200000  0.56600000  0.49303000  1.0
  C  C80  1  0.04019000  0.50174000  0.49690000  1.0
  C  C81  1  0.96260000  0.50184000  0.49718000  1.0
  C  C82  1  0.81448000  0.50084000  0.18890000  1.0
  C  C83  1  0.18931000  0.50363000  0.81081000  1.0
  C  C84  1  0.85126000  0.43705000  0.21199000  1.0
  C  C85  1  0.92310000  0.43657000  0.13951000  1.0
  C  C86  1  0.14827000  0.56316000  0.78786000  1.0
  C  C87  1  0.07541000  0.56260000  0.86039000  1.0
  C  C88  1  0.15358000  0.44274000  0.91148000  1.0
  C  C89  1  0.08078000  0.44154000  0.98483000  1.0
  C  C90  1  0.85302000  0.56460000  0.08813000  1.0
  C  C91  1  0.92499000  0.56499000  0.01482000  1.0
  C  C92  1  0.96219000  0.50119000  0.03861000  1.0
  C  C93  1  0.03969000  0.50139000  0.96119000  1.0
  C  C94  1  0.49667000  0.81097000  0.18880000  1.0
  C  C95  1  0.49942000  0.18579000  0.81068000  1.0
  C  C96  1  0.43709000  0.85195000  0.21175000  1.0
  C  C97  1  0.43753000  0.92474000  0.13924000  1.0
  C  C98  1  0.56313000  0.14892000  0.78762000  1.0
  C  C99  1  0.56349000  0.07698000  0.86014000  1.0
  C  C100  1  0.43561000  0.14721000  0.91146000  1.0
  C  C101  1  0.43512000  0.07516000  0.98480000  1.0
  C  C102  1  0.55750000  0.84666000  0.08811000  1.0
  C  C103  1  0.55855000  0.91934000  0.01479000  1.0
  C  C104  1  0.49867000  0.96040000  0.03843000  1.0
  C  C105  1  0.49885000  0.03789000  0.96104000  1.0
  C  C106  1  0.15144000  0.14695000  0.78704000  1.0
  C  C107  1  0.07712000  0.07347000  0.85995000  1.0
  C  C108  1  0.03796000  0.03495000  0.83444000  1.0
  C  C109  1  0.15194000  0.14767000  0.91385000  1.0
  C  C110  1  0.07783000  0.07426000  0.98833000  1.0
  C  C111  1  0.03713000  0.03416000  0.09187000  1.0
  C  C112  1  0.85346000  0.84905000  0.21253000  1.0
  C  C113  1  0.92695000  0.92336000  0.13963000  1.0
  C  C114  1  0.96547000  0.96248000  0.16515000  1.0
  C  C115  1  0.85273000  0.84854000  0.08575000  1.0
  C  C116  1  0.92614000  0.92264000  0.01127000  1.0
  C  C117  1  0.96622000  0.96334000  0.90774000  1.0
  C  C118  1  0.18820000  0.18330000  0.81407000  1.0
  C  C119  1  0.03940000  0.03594000  0.96226000  1.0
  C  C120  1  0.81710000  0.81226000  0.18554000  1.0
  C  C121  1  0.96449000  0.96106000  0.03733000  1.0
  C  C122  1  0.50064000  0.50491000  0.18488000  1.0
  C  C123  1  0.49553000  0.49977000  0.81471000  1.0
  C  C124  1  0.56478000  0.56504000  0.08331000  1.0
  C  C125  1  0.56479000  0.56420000  0.01130000  1.0
  C  C126  1  0.43538000  0.43562000  0.91626000  1.0
  C  C127  1  0.43620000  0.43558000  0.98830000  1.0
  C  C128  1  0.55787000  0.56500000  0.78809000  1.0
  C  C129  1  0.55925000  0.56590000  0.85945000  1.0
  C  C130  1  0.43540000  0.44255000  0.21152000  1.0
  C  C131  1  0.43447000  0.44114000  0.14020000  1.0
  C  C132  1  0.49901000  0.50190000  0.03826000  1.0
  C  C133  1  0.49848000  0.50136000  0.96137000  1.0
  N  N134  1  0.36902000  0.18310000  0.49349000  1.0
  N  N135  1  0.63614000  0.82285000  0.49601000  1.0
  N  N136  1  0.17755000  0.36424000  0.50370000  1.0
  N  N137  1  0.81709000  0.63115000  0.50649000  1.0
  N  N138  1  0.81605000  0.36456000  0.31534000  1.0
  N  N139  1  0.17882000  0.63086000  0.68460000  1.0
  N  N140  1  0.36944000  0.82145000  0.31500000  1.0
  N  N141  1  0.63568000  0.18419000  0.68429000  1.0
  N  N142  1  0.63822000  0.63369000  0.04484000  1.0
  N  N143  1  0.36672000  0.36222000  0.95467000  1.0
  O  O144  1  0.55793000  0.70198000  0.50477000  1.0
  O  O145  1  0.29846000  0.44259000  0.49480000  1.0
  O  O146  1  0.43749000  0.29414000  0.50398000  1.0
  O  O147  1  0.70628000  0.56286000  0.49560000  1.0
  O  O148  1  0.70697000  0.70317000  0.23585000  1.0
  O  O149  1  0.43642000  0.44111000  0.76480000  1.0
  O  O150  1  0.29731000  0.29344000  0.76375000  1.0
  O  O151  1  0.55932000  0.56402000  0.23479000  1.0
  O  O152  1  0.43873000  0.70203000  0.35572000  1.0
  O  O153  1  0.70631000  0.44374000  0.35577000  1.0
  O  O154  1  0.55660000  0.29402000  0.64382000  1.0
  O  O155  1  0.29838000  0.56168000  0.64390000  1.0
  O  O156  1  0.70861000  0.56280000  0.23509000  1.0
  O  O157  1  0.43764000  0.29183000  0.76448000  1.0
  O  O158  1  0.29565000  0.44213000  0.76453000  1.0
  O  O159  1  0.55835000  0.70483000  0.23509000  1.0
  O  O160  1  0.70718000  0.70300000  0.35440000  1.0
  O  O161  1  0.43958000  0.44405000  0.35323000  1.0
  O  O162  1  0.29743000  0.29327000  0.64520000  1.0
  O  O163  1  0.55644000  0.56081000  0.64636000  1.0
  O  O164  1  0.70638000  0.44405000  0.49556000  1.0
  O  O165  1  0.43957000  0.70257000  0.50385000  1.0
  O  O166  1  0.29775000  0.56087000  0.49588000  1.0
  O  O167  1  0.55624000  0.29399000  0.50413000  1.0
  O  O168  1  0.55149000  0.44793000  0.60458000  1.0
  O  O169  1  0.55247000  0.44894000  0.39502000  1.0
  O  O170  1  0.34307000  0.44757000  0.60425000  1.0
  O  O171  1  0.55286000  0.65738000  0.39537000  1.0
  O  O172  1  0.46223000  0.53896000  0.42277000  1.0
  O  O173  1  0.46150000  0.53821000  0.57684000  1.0
  O  O174  1  0.46108000  0.38513000  0.57657000  1.0
  O  O175  1  0.61530000  0.53934000  0.42303000  1.0
  O  O176  1  0.38908000  0.23872000  0.40964000  1.0
  O  O177  1  0.29701000  0.14989000  0.57212000  1.0
  O  O178  1  0.70186000  0.85260000  0.41270000  1.0
  O  O179  1  0.62699000  0.77526000  0.57559000  1.0
  O  O180  1  0.14799000  0.29855000  0.58697000  1.0
  O  O181  1  0.22503000  0.37341000  0.42409000  1.0
  O  O182  1  0.76139000  0.61106000  0.59034000  1.0
  O  O183  1  0.85037000  0.70321000  0.42788000  1.0
  O  O184  1  0.76071000  0.29901000  0.35267000  1.0
  O  O185  1  0.84889000  0.37355000  0.35315000  1.0
  O  O186  1  0.14983000  0.61173000  0.64905000  1.0
  O  O187  1  0.22635000  0.70240000  0.64502000  1.0
  O  O188  1  0.38859000  0.85055000  0.35045000  1.0
  O  O189  1  0.29792000  0.77382000  0.35468000  1.0
  O  O190  1  0.70114000  0.23960000  0.64699000  1.0
  O  O191  1  0.62681000  0.15131000  0.64644000  1.0
  O  O192  1  0.70332000  0.61595000  0.03393000  1.0
  O  O193  1  0.63053000  0.70474000  0.02088000  1.0
  O  O194  1  0.38443000  0.29710000  0.96560000  1.0
  O  O195  1  0.29571000  0.36997000  0.97857000  1.0
  F  F196  1  0.92898000  0.92664000  0.88341000  1.0
  F  F197  1  0.07382000  0.07135000  0.11625000  1.0
