# generated using pymatgen
data_HgH16C22I2Br2(N3O)2
_symmetry_space_group_name_H-M   'P 1'
_cell_length_a   4.39495000
_cell_length_b   13.32540000
_cell_length_c   22.15370000
_cell_angle_alpha   89.97940000
_cell_angle_beta   89.99920000
_cell_angle_gamma   89.99990000
_symmetry_Int_Tables_number   1
_chemical_formula_structural   HgH16C22I2Br2(N3O)2
_chemical_formula_sum   'Hg2 H32 C44 I4 Br4 N12 O4'
_cell_volume   1297.41954261
_cell_formula_units_Z   2
loop_
 _symmetry_equiv_pos_site_id
 _symmetry_equiv_pos_as_xyz
  1  'x, y, z'
loop_
 _atom_site_type_symbol
 _atom_site_label
 _atom_site_symmetry_multiplicity
 _atom_site_fract_x
 _atom_site_fract_y
 _atom_site_fract_z
 _atom_site_occupancy
  Hg  Hg0  1  0.50000000  0.00000000  0.50000000  1.0
  Hg  Hg1  1  0.99999000  0.50000000  1.00000000  1.0
  H  H2  1  0.40614000  0.23717000  0.27722000  1.0
  H  H3  1  0.90618000  0.26283000  0.22279000  1.0
  H  H4  1  0.59383000  0.76283000  0.72279000  1.0
  H  H5  1  0.09383000  0.73718000  0.77721000  1.0
  H  H6  1  0.63106000  0.17949000  0.37647000  1.0
  H  H7  1  0.13113000  0.32050000  0.12354000  1.0
  H  H8  1  0.36888000  0.82051000  0.62354000  1.0
  H  H9  1  0.86887000  0.67950000  0.87646000  1.0
  H  H10  1  0.15507000  0.91072000  0.36273000  1.0
  H  H11  1  0.65508000  0.58926000  0.13727000  1.0
  H  H12  1  0.84491000  0.08927000  0.63727000  1.0
  H  H13  1  0.34493000  0.41074000  0.86273000  1.0
  H  H14  1  0.22720000  0.01717000  0.02884000  1.0
  H  H15  1  0.72721000  0.48282000  0.47116000  1.0
  H  H16  1  0.77281000  0.98283000  0.97115000  1.0
  H  H17  1  0.27282000  0.51717000  0.52884000  1.0
  H  H18  1  0.00544000  0.84475000  0.03922000  1.0
  H  H19  1  0.50545000  0.65525000  0.46078000  1.0
  H  H20  1  0.99457000  0.15525000  0.96077000  1.0
  H  H21  1  0.49458000  0.34474000  0.53922000  1.0
  H  H22  1  0.14290000  0.74019000  0.12886000  1.0
  H  H23  1  0.64291000  0.75981000  0.37114000  1.0
  H  H24  1  0.85709000  0.25981000  0.87113000  1.0
  H  H25  1  0.35711000  0.24019000  0.62887000  1.0
  H  H26  1  0.49896000  0.80403000  0.20536000  1.0
  H  H27  1  0.99897000  0.69597000  0.29464000  1.0
  H  H28  1  0.50102000  0.19597000  0.79464000  1.0
  H  H29  1  0.00104000  0.30403000  0.70536000  1.0
  H  H30  1  0.86423000  0.05523000  0.19241000  1.0
  H  H31  1  0.36424000  0.44477000  0.30759000  1.0
  H  H32  1  0.13576000  0.94477000  0.80759000  1.0
  H  H33  1  0.63577000  0.55523000  0.69241000  1.0
  C  C34  1  0.35044000  0.16347000  0.29589000  1.0
  C  C35  1  0.85049000  0.33652000  0.20412000  1.0
  C  C36  1  0.64953000  0.83652000  0.70411000  1.0
  C  C37  1  0.14952000  0.66348000  0.79589000  1.0
  C  C38  1  0.47503000  0.13183000  0.35079000  1.0
  C  C39  1  0.97508000  0.36817000  0.14922000  1.0
  C  C40  1  0.52492000  0.86817000  0.64921000  1.0
  C  C41  1  0.02492000  0.63184000  0.85079000  1.0
  C  C42  1  0.21414000  0.98373000  0.34366000  1.0
  C  C43  1  0.71416000  0.51626000  0.15634000  1.0
  C  C44  1  0.78585000  0.01626000  0.65634000  1.0
  C  C45  1  0.28585000  0.48375000  0.84366000  1.0
  C  C46  1  0.08851000  0.01565000  0.28881000  1.0
  C  C47  1  0.58853000  0.48434000  0.21119000  1.0
  C  C48  1  0.91148000  0.98434000  0.71119000  1.0
  C  C49  1  0.41149000  0.51567000  0.78881000  1.0
  C  C50  1  0.86605000  0.94849000  0.25676000  1.0
  C  C51  1  0.36606000  0.55151000  0.24324000  1.0
  C  C52  1  0.13394000  0.05151000  0.74324000  1.0
  C  C53  1  0.63396000  0.44850000  0.75676000  1.0
  C  C54  1  0.56531000  0.94719000  0.16156000  1.0
  C  C55  1  0.06532000  0.55281000  0.33844000  1.0
  C  C56  1  0.43468000  0.05281000  0.83844000  1.0
  C  C57  1  0.93471000  0.44719000  0.66156000  1.0
  C  C58  1  0.48113000  0.00571000  0.11122000  1.0
  C  C59  1  0.98114000  0.49429000  0.38878000  1.0
  C  C60  1  0.51887000  0.99429000  0.88878000  1.0
  C  C61  1  0.01888000  0.50570000  0.61122000  1.0
  C  C62  1  0.28374000  0.96974000  0.06725000  1.0
  C  C63  1  0.78375000  0.53026000  0.43275000  1.0
  C  C64  1  0.71627000  0.03026000  0.93275000  1.0
  C  C65  1  0.21627000  0.46974000  0.56725000  1.0
  C  C66  1  0.16123000  0.87364000  0.07330000  1.0
  C  C67  1  0.66124000  0.62635000  0.42671000  1.0
  C  C68  1  0.83877000  0.12636000  0.92670000  1.0
  C  C69  1  0.33878000  0.37364000  0.57330000  1.0
  C  C70  1  0.23808000  0.81506000  0.12325000  1.0
  C  C71  1  0.73809000  0.68494000  0.37675000  1.0
  C  C72  1  0.76191000  0.18495000  0.87675000  1.0
  C  C73  1  0.26193000  0.31506000  0.62325000  1.0
  C  C74  1  0.43858000  0.85060000  0.16694000  1.0
  C  C75  1  0.93859000  0.64940000  0.33306000  1.0
  C  C76  1  0.56141000  0.14940000  0.83306000  1.0
  C  C77  1  0.06142000  0.35060000  0.66694000  1.0
  I  I78  1  0.12662000  0.84199000  0.49231000  1.0
  I  I79  1  0.62661000  0.65800000  0.00769000  1.0
  I  I80  1  0.87338000  0.15800000  0.50768000  1.0
  I  I81  1  0.37338000  0.34200000  0.99231000  1.0
  Br  Br82  1  0.63887000  0.13850000  0.10208000  1.0
  Br  Br83  1  0.13888000  0.36149000  0.39792000  1.0
  Br  Br84  1  0.36113000  0.86150000  0.89792000  1.0
  Br  Br85  1  0.86113000  0.63850000  0.60208000  1.0
  N  N86  1  0.15611000  0.10572000  0.26498000  1.0
  N  N87  1  0.65613000  0.39427000  0.23502000  1.0
  N  N88  1  0.84387000  0.89428000  0.73502000  1.0
  N  N89  1  0.34388000  0.60573000  0.76498000  1.0
  N  N90  1  0.40554000  0.04228000  0.37459000  1.0
  N  N91  1  0.90557000  0.45771000  0.12541000  1.0
  N  N92  1  0.59444000  0.95771000  0.62541000  1.0
  N  N93  1  0.09444000  0.54229000  0.87459000  1.0
  N  N94  1  0.77049000  0.98714000  0.20303000  1.0
  N  N95  1  0.27051000  0.51285000  0.29697000  1.0
  N  N96  1  0.22949000  0.01286000  0.79697000  1.0
  N  N97  1  0.72951000  0.48715000  0.70303000  1.0
  O  O98  1  0.78187000  0.86853000  0.27969000  1.0
  O  O99  1  0.28188000  0.63147000  0.22030000  1.0
  O  O100  1  0.21812000  0.13147000  0.72030000  1.0
  O  O101  1  0.71812000  0.36853000  0.77970000  1.0
