# generated using pymatgen
data_LiH7(C4O)3
_symmetry_space_group_name_H-M   'P 1'
_cell_length_a   4.88221000
_cell_length_b   12.28730000
_cell_length_c   15.00170000
_cell_angle_alpha   99.69510000
_cell_angle_beta   89.99930000
_cell_angle_gamma   89.99990000
_symmetry_Int_Tables_number   1
_chemical_formula_structural   LiH7(C4O)3
_chemical_formula_sum   'Li4 H28 C48 O12'
_cell_volume   887.08661463
_cell_formula_units_Z   4
loop_
 _symmetry_equiv_pos_site_id
 _symmetry_equiv_pos_as_xyz
  1  'x, y, z'
loop_
 _atom_site_type_symbol
 _atom_site_label
 _atom_site_symmetry_multiplicity
 _atom_site_fract_x
 _atom_site_fract_y
 _atom_site_fract_z
 _atom_site_occupancy
  Li  Li0  1  0.92193000  0.17130000  0.50244000  1.0
  Li  Li1  1  0.42194000  0.32871000  0.49756000  1.0
  Li  Li2  1  0.07806000  0.82870000  0.49756000  1.0
  Li  Li3  1  0.57807000  0.67129000  0.50244000  1.0
  H  H4  1  0.96852000  0.71863000  0.29051000  1.0
  H  H5  1  0.46853000  0.78137000  0.70948000  1.0
  H  H6  1  0.03147000  0.28137000  0.70949000  1.0
  H  H7  1  0.53149000  0.21863000  0.29052000  1.0
  H  H8  1  0.05114000  0.69118000  0.12469000  1.0
  H  H9  1  0.55115000  0.80882000  0.87531000  1.0
  H  H10  1  0.94884000  0.30882000  0.87531000  1.0
  H  H11  1  0.44887000  0.19119000  0.12469000  1.0
  H  H12  1  0.75417000  0.78804000  0.02732000  1.0
  H  H13  1  0.25416000  0.71197000  0.97268000  1.0
  H  H14  1  0.24582000  0.21197000  0.97268000  1.0
  H  H15  1  0.74583000  0.28804000  0.02732000  1.0
  H  H16  1  0.39466000  0.91626000  0.01091000  1.0
  H  H17  1  0.89465000  0.58375000  0.98909000  1.0
  H  H18  1  0.60533000  0.08375000  0.98910000  1.0
  H  H19  1  0.10533000  0.41626000  0.01090000  1.0
  H  H20  1  0.03349000  0.04946000  0.07710000  1.0
  H  H21  1  0.53349000  0.45054000  0.92290000  1.0
  H  H22  1  0.96650000  0.95055000  0.92290000  1.0
  H  H23  1  0.46651000  0.54945000  0.07710000  1.0
  H  H24  1  0.97889000  0.09200000  0.24470000  1.0
  H  H25  1  0.47890000  0.40800000  0.75530000  1.0
  H  H26  1  0.02110000  0.90801000  0.75530000  1.0
  H  H27  1  0.52112000  0.59199000  0.24470000  1.0
  H  H28  1  0.45329000  0.04709000  0.40840000  1.0
  H  H29  1  0.95330000  0.45291000  0.59160000  1.0
  H  H30  1  0.54669000  0.95290000  0.59160000  1.0
  H  H31  1  0.04670000  0.54709000  0.40840000  1.0
  C  C32  1  0.64860000  0.83603000  0.28950000  1.0
  C  C33  1  0.14860000  0.66396000  0.71050000  1.0
  C  C34  1  0.35139000  0.16396000  0.71050000  1.0
  C  C35  1  0.85142000  0.33604000  0.28951000  1.0
  C  C36  1  0.84964000  0.76501000  0.24822000  1.0
  C  C37  1  0.34965000  0.73499000  0.75178000  1.0
  C  C38  1  0.15034000  0.23499000  0.75178000  1.0
  C  C39  1  0.65036000  0.26501000  0.24822000  1.0
  C  C40  1  0.89261000  0.74851000  0.15418000  1.0
  C  C41  1  0.39261000  0.75148000  0.84581000  1.0
  C  C42  1  0.10738000  0.25148000  0.84582000  1.0
  C  C43  1  0.60739000  0.24852000  0.15419000  1.0
  C  C44  1  0.72939000  0.80241000  0.10072000  1.0
  C  C45  1  0.22937000  0.69759000  0.89928000  1.0
  C  C46  1  0.27060000  0.19758000  0.89928000  1.0
  C  C47  1  0.77062000  0.30242000  0.10073000  1.0
  C  C48  1  0.52756000  0.87886000  0.13983000  1.0
  C  C49  1  0.02756000  0.62114000  0.86017000  1.0
  C  C50  1  0.47244000  0.12114000  0.86017000  1.0
  C  C51  1  0.97245000  0.37886000  0.13983000  1.0
  C  C52  1  0.36187000  0.93411000  0.08380000  1.0
  C  C53  1  0.86186000  0.56589000  0.91620000  1.0
  C  C54  1  0.63812000  0.06589000  0.91620000  1.0
  C  C55  1  0.13814000  0.43411000  0.08380000  1.0
  C  C56  1  0.16299000  0.00785000  0.12020000  1.0
  C  C57  1  0.66299000  0.49214000  0.87980000  1.0
  C  C58  1  0.83701000  0.99214000  0.87980000  1.0
  C  C59  1  0.33701000  0.50786000  0.12020000  1.0
  C  C60  1  0.12957000  0.03135000  0.21462000  1.0
  C  C61  1  0.62957000  0.46865000  0.78538000  1.0
  C  C62  1  0.87042000  0.96865000  0.78538000  1.0
  C  C63  1  0.37043000  0.53135000  0.21462000  1.0
  C  C64  1  0.29132000  0.98117000  0.27213000  1.0
  C  C65  1  0.79131000  0.51883000  0.72787000  1.0
  C  C66  1  0.70867000  0.01883000  0.72788000  1.0
  C  C67  1  0.20870000  0.48118000  0.27213000  1.0
  C  C68  1  0.49026000  0.89981000  0.23639000  1.0
  C  C69  1  0.99026000  0.60019000  0.76361000  1.0
  C  C70  1  0.50974000  0.10019000  0.76361000  1.0
  C  C71  1  0.00974000  0.39981000  0.23639000  1.0
  C  C72  1  0.57998000  0.82828000  0.38591000  1.0
  C  C73  1  0.07998000  0.67171000  0.61409000  1.0
  C  C74  1  0.42002000  0.17171000  0.61409000  1.0
  C  C75  1  0.92004000  0.32829000  0.38591000  1.0
  C  C76  1  0.26174000  0.02662000  0.36986000  1.0
  C  C77  1  0.76173000  0.47338000  0.63014000  1.0
  C  C78  1  0.73826000  0.97338000  0.63014000  1.0
  C  C79  1  0.23829000  0.52662000  0.36985000  1.0
  O  O80  1  0.74438000  0.77845000  0.43124000  1.0
  O  O81  1  0.24438000  0.72155000  0.56876000  1.0
  O  O82  1  0.25563000  0.22155000  0.56876000  1.0
  O  O83  1  0.75565000  0.27846000  0.43125000  1.0
  O  O84  1  0.34746000  0.86473000  0.41576000  1.0
  O  O85  1  0.84746000  0.63526000  0.58424000  1.0
  O  O86  1  0.65253000  0.13526000  0.58424000  1.0
  O  O87  1  0.15255000  0.36474000  0.41576000  1.0
  O  O88  1  0.03789000  0.06085000  0.40230000  1.0
  O  O89  1  0.53788000  0.43915000  0.59770000  1.0
  O  O90  1  0.96211000  0.93914000  0.59770000  1.0
  O  O91  1  0.46212000  0.56086000  0.40230000  1.0
