# generated using pymatgen
data_Zn2H35C45N5O8
_symmetry_space_group_name_H-M   'P 1'
_cell_length_a   14.68530000
_cell_length_b   16.06720000
_cell_length_c   16.12110000
_cell_angle_alpha   90.34610000
_cell_angle_beta   90.66430000
_cell_angle_gamma   90.55810000
_symmetry_Int_Tables_number   1
_chemical_formula_structural   Zn2H35C45N5O8
_chemical_formula_sum   'Zn2 H35 C45 N5 O8'
_cell_volume   3803.29205230
_cell_formula_units_Z   1
loop_
 _symmetry_equiv_pos_site_id
 _symmetry_equiv_pos_as_xyz
  1  'x, y, z'
loop_
 _atom_site_type_symbol
 _atom_site_label
 _atom_site_symmetry_multiplicity
 _atom_site_fract_x
 _atom_site_fract_y
 _atom_site_fract_z
 _atom_site_occupancy
  Zn  Zn0  1  0.40547000  0.49948000  0.49923000  1.0
  Zn  Zn1  1  0.59423000  0.50075000  0.50097000  1.0
  H  H2  1  0.59986000  0.39063000  0.05285000  1.0
  H  H3  1  0.44572000  0.36443000  0.94730000  1.0
  H  H4  1  0.91926000  0.40080000  0.58746000  1.0
  H  H5  1  0.92478000  0.55092000  0.62334000  1.0
  H  H6  1  0.08246000  0.55455000  0.62363000  1.0
  H  H7  1  0.08274000  0.62845000  0.54266000  1.0
  H  H8  1  0.92338000  0.58576000  0.39493000  1.0
  H  H9  1  0.07758000  0.47367000  0.36745000  1.0
  H  H10  1  0.91737000  0.36766000  0.48290000  1.0
  H  H11  1  0.07633000  0.36619000  0.48261000  1.0
  H  H12  1  0.08075000  0.58131000  0.39174000  1.0
  H  H13  1  0.60597000  0.07831000  0.59923000  1.0
  H  H14  1  0.55287000  0.63525000  0.05319000  1.0
  H  H15  1  0.39880000  0.60909000  0.94774000  1.0
  H  H16  1  0.34389000  0.47356000  0.04893000  1.0
  H  H17  1  0.42067000  0.92144000  0.60854000  1.0
  H  H18  1  0.70391000  0.91606000  0.46745000  1.0
  H  H19  1  0.73489000  0.93469000  0.57224000  1.0
  H  H20  1  0.67430000  0.84219000  0.54417000  1.0
  H  H21  1  0.54783000  0.93801000  0.28450000  1.0
  H  H22  1  0.63496000  0.95400000  0.35955000  1.0
  H  H23  1  0.57865000  0.85527000  0.35168000  1.0
  H  H24  1  0.57528000  0.94164000  0.61366000  1.0
  H  H25  1  0.72897000  0.53844000  0.99515000  1.0
  H  H26  1  0.70321000  0.47797000  0.90458000  1.0
  H  H27  1  0.68244000  0.58671000  0.90491000  1.0
  H  H28  1  0.36347000  0.05377000  0.67725000  1.0
  H  H29  1  0.48384000  0.05179000  0.67963000  1.0
  H  H30  1  0.42653000  0.14433000  0.64941000  1.0
  H  H31  1  0.42425000  0.06994000  0.38806000  1.0
  H  H32  1  0.54303000  0.07689000  0.37360000  1.0
  H  H33  1  0.43064000  0.92687000  0.38631000  1.0
  H  H34  1  0.36031000  0.07119000  0.52591000  1.0
  H  H35  1  0.35919000  0.92824000  0.51407000  1.0
  H  H36  1  0.07861000  0.39867000  0.58754000  1.0
  C  C37  1  0.49821000  0.33768000  0.50078000  1.0
  C  C38  1  0.59489000  0.04943000  0.53780000  1.0
  C  C39  1  0.59099000  0.95255000  0.54794000  1.0
  C  C40  1  0.49922000  0.50029000  0.33845000  1.0
  C  C41  1  0.50084000  0.75264000  0.49936000  1.0
  C  C42  1  0.50199000  0.08173000  0.50208000  1.0
  C  C43  1  0.42099000  0.95020000  0.54683000  1.0
  C  C44  1  0.50542000  0.91853000  0.49932000  1.0
  C  C45  1  0.49648000  0.95215000  0.40875000  1.0
  C  C46  1  0.49016000  0.04847000  0.41223000  1.0
  C  C47  1  0.50381000  0.82824000  0.49879000  1.0
  C  C48  1  0.49840000  0.49980000  0.08552000  1.0
  C  C49  1  0.50091000  0.17206000  0.50205000  1.0
  C  C50  1  0.49905000  0.24762000  0.50159000  1.0
  C  C51  1  0.94607000  0.41464000  0.52571000  1.0
  C  C52  1  0.49950000  0.66261000  0.50030000  1.0
  C  C53  1  0.94967000  0.56833000  0.56163000  1.0
  C  C54  1  0.05591000  0.56746000  0.56120000  1.0
  C  C55  1  0.91177000  0.50125000  0.49881000  1.0
  C  C56  1  0.05135000  0.41360000  0.52577000  1.0
  C  C57  1  0.08809000  0.50009000  0.49956000  1.0
  C  C58  1  0.05333000  0.52084000  0.41116000  1.0
  C  C59  1  0.44325000  0.56054000  0.97203000  1.0
  C  C60  1  0.94707000  0.52282000  0.41016000  1.0
  C  C61  1  0.18689000  0.49938000  0.49960000  1.0
  C  C62  1  0.81289000  0.50178000  0.49934000  1.0
  C  C63  1  0.50218000  0.50010000  0.66221000  1.0
  C  C64  1  0.46943000  0.42453000  0.97184000  1.0
  C  C65  1  0.55508000  0.43903000  0.02862000  1.0
  C  C66  1  0.49893000  0.50067000  0.24891000  1.0
  C  C67  1  0.50150000  0.49967000  0.75176000  1.0
  C  C68  1  0.41277000  0.48528000  0.02644000  1.0
  C  C69  1  0.68101000  0.90894000  0.53145000  1.0
  C  C70  1  0.49974000  0.49980000  0.91507000  1.0
  C  C71  1  0.56910000  0.92288000  0.34822000  1.0
  C  C72  1  0.91504000  0.65103000  0.54283000  1.0
  C  C73  1  0.90955000  0.46554000  0.34781000  1.0
  C  C74  1  0.68033000  0.53027000  0.94323000  1.0
  C  C75  1  0.42468000  0.07604000  0.64531000  1.0
  C  C76  1  0.67052000  0.07786000  0.48690000  1.0
  C  C77  1  0.52891000  0.57511000  0.02880000  1.0
  C  C78  1  0.58622000  0.51442000  0.97414000  1.0
  C  C79  1  0.49867000  0.50039000  0.17329000  1.0
  C  C80  1  0.50017000  0.49950000  0.82738000  1.0
  C  C81  1  0.42248000  0.04635000  0.55502000  1.0
  N  N82  1  0.26569000  0.49884000  0.49960000  1.0
  N  N83  1  0.73418000  0.50151000  0.50088000  1.0
  N  N84  1  0.88951000  0.71741000  0.52620000  1.0
  N  N85  1  0.88254000  0.41858000  0.29773000  1.0
  N  N86  1  0.73149000  0.09989000  0.44655000  1.0
  O  O87  1  0.42030000  0.37189000  0.49969000  1.0
  O  O88  1  0.57569000  0.37394000  0.50140000  1.0
  O  O89  1  0.42152000  0.49901000  0.37315000  1.0
  O  O90  1  0.57688000  0.50122000  0.37454000  1.0
  O  O91  1  0.42148000  0.62715000  0.49923000  1.0
  O  O92  1  0.57685000  0.62739000  0.50220000  1.0
  O  O93  1  0.42462000  0.50008000  0.62571000  1.0
  O  O94  1  0.58001000  0.50049000  0.62798000  1.0
