# generated using pymatgen
data_CdH6(C5N2)2
_symmetry_space_group_name_H-M   'P 1'
_cell_length_a   15.67077948
_cell_length_b   15.67080000
_cell_length_c   15.67090000
_cell_angle_alpha   70.52900000
_cell_angle_beta   70.52905304
_cell_angle_gamma   109.47142990
_symmetry_Int_Tables_number   1
_chemical_formula_structural   CdH6(C5N2)2
_chemical_formula_sum   'Cd6 H36 C60 N24'
_cell_volume   2962.47943039
_cell_formula_units_Z   6
loop_
 _symmetry_equiv_pos_site_id
 _symmetry_equiv_pos_as_xyz
  1  'x, y, z'
loop_
 _atom_site_type_symbol
 _atom_site_label
 _atom_site_symmetry_multiplicity
 _atom_site_fract_x
 _atom_site_fract_y
 _atom_site_fract_z
 _atom_site_occupancy
  Cd  Cd0  1  0.25000000  0.75000000  0.50000000  1.0
  Cd  Cd1  1  0.75000000  0.25000000  0.50000000  1.0
  Cd  Cd2  1  0.75000000  0.50000000  0.75000000  1.0
  Cd  Cd3  1  0.50000000  0.75000000  0.75000000  1.0
  Cd  Cd4  1  0.50000000  0.25000000  0.25000000  1.0
  Cd  Cd5  1  0.25000000  0.50000000  0.25000000  1.0
  H  H6  1  0.61964000  1.00000000  0.25147000  1.0
  H  H7  1  0.12889000  0.38036000  0.61964000  1.0
  H  H8  1  0.00000000  0.74853000  0.38036000  1.0
  H  H9  1  0.74853000  1.00000000  0.38036000  1.0
  H  H10  1  0.38036000  0.38036000  0.87111000  1.0
  H  H11  1  0.25147000  0.25147000  0.12889000  1.0
  H  H12  1  0.38036000  0.12889000  0.61964000  1.0
  H  H13  1  0.00000000  0.61964000  0.25147000  1.0
  H  H14  1  0.25147000  0.87111000  0.74853000  1.0
  H  H15  1  0.87111000  0.25147000  0.74853000  1.0
  H  H16  1  0.74853000  0.61964000  0.00000000  1.0
  H  H17  1  0.61964000  0.74853000  0.00000000  1.0
  H  H18  1  0.12606000  0.89101000  0.52401000  1.0
  H  H19  1  0.34993000  0.87393000  0.23505000  1.0
  H  H20  1  0.10899000  0.58499000  0.76495000  1.0
  H  H21  1  0.58499000  0.10900000  0.76494000  1.0
  H  H22  1  0.87394000  0.76495000  0.65006000  1.0
  H  H23  1  0.76495000  0.87394000  0.65007000  1.0
  H  H24  1  0.52400000  0.41501000  0.34994000  1.0
  H  H25  1  0.41502000  0.52401000  0.34993000  1.0
  H  H26  1  0.34993000  0.76495000  0.12607000  1.0
  H  H27  1  0.76495000  0.34993000  0.12606000  1.0
  H  H28  1  0.47600000  0.89102000  0.87393000  1.0
  H  H29  1  0.89101000  0.47599000  0.87394000  1.0
  H  H30  1  0.10899000  0.23505000  0.41502000  1.0
  H  H31  1  0.52401000  0.65007000  0.58498000  1.0
  H  H32  1  0.23505000  0.10899000  0.41502000  1.0
  H  H33  1  0.65007000  0.52401000  0.58498000  1.0
  H  H34  1  0.58498000  0.23505000  0.89102000  1.0
  H  H35  1  0.47599000  0.12606000  0.10899000  1.0
  H  H36  1  0.23505000  0.58498000  0.89101000  1.0
  H  H37  1  0.12606000  0.47599000  0.10899000  1.0
  H  H38  1  0.41502000  0.65007000  0.47599000  1.0
  H  H39  1  0.89101000  0.12606000  0.52401000  1.0
  H  H40  1  0.65007000  0.41502000  0.47599000  1.0
  H  H41  1  0.87394000  0.34993000  0.23505000  1.0
  C  C42  1  0.20883000  0.94586000  0.46988000  1.0
  C  C43  1  0.32129000  0.79117000  0.26297000  1.0
  C  C44  1  0.05414000  0.58426000  0.73703000  1.0
  C  C45  1  0.58426000  0.05414000  0.73703000  1.0
  C  C46  1  0.79117000  0.73703000  0.67871000  1.0
  C  C47  1  0.73703000  0.79117000  0.67871000  1.0
  C  C48  1  0.46988000  0.41574000  0.32129000  1.0
  C  C49  1  0.41574000  0.46988000  0.32129000  1.0
  C  C50  1  0.32129000  0.73703000  0.20883000  1.0
  C  C51  1  0.73703000  0.32129000  0.20883000  1.0
  C  C52  1  0.53012000  0.94586000  0.79117000  1.0
  C  C53  1  0.94586000  0.53012000  0.79117000  1.0
  C  C54  1  0.05414000  0.26297000  0.41574000  1.0
  C  C55  1  0.46988000  0.67871000  0.58426000  1.0
  C  C56  1  0.26297000  0.05414000  0.41574000  1.0
  C  C57  1  0.67871000  0.46988000  0.58426000  1.0
  C  C58  1  0.58426000  0.26297000  0.94586000  1.0
  C  C59  1  0.53012000  0.20883000  0.05414000  1.0
  C  C60  1  0.26297000  0.58426000  0.94586000  1.0
  C  C61  1  0.20883000  0.53012000  0.05414000  1.0
  C  C62  1  0.41574000  0.67871000  0.53012000  1.0
  C  C63  1  0.94586000  0.20883000  0.46988000  1.0
  C  C64  1  0.67871000  0.41574000  0.53012000  1.0
  C  C65  1  0.79117000  0.32129000  0.26297000  1.0
  C  C66  1  0.37361000  1.00000000  0.37563000  1.0
  C  C67  1  0.25076000  0.62640000  0.37360000  1.0
  C  C68  1  0.00000000  0.62436000  0.62639000  1.0
  C  C69  1  0.62436000  0.00000000  0.62640000  1.0
  C  C70  1  0.62639000  0.62639000  0.74925000  1.0
  C  C71  1  0.37564000  0.37564000  0.25075000  1.0
  C  C72  1  0.62639000  0.25075000  0.37361000  1.0
  C  C73  1  0.00000000  0.37360000  0.37564000  1.0
  C  C74  1  0.37564000  0.74925000  0.62436000  1.0
  C  C75  1  0.74924000  0.37564000  0.62436000  1.0
  C  C76  1  0.62436000  0.37360000  0.00000000  1.0
  C  C77  1  0.37361000  0.62437000  0.99999000  1.0
  C  C78  1  0.46770000  0.99999000  0.32889000  1.0
  C  C79  1  0.20341000  0.53229000  0.46771000  1.0
  C  C80  1  1.00000000  0.67112000  0.53230000  1.0
  C  C81  1  0.67112000  1.00000000  0.53229000  1.0
  C  C82  1  0.53229000  0.53229000  0.79659000  1.0
  C  C83  1  0.32888000  0.32888000  0.20341000  1.0
  C  C84  1  0.53229000  0.20341000  0.46771000  1.0
  C  C85  1  0.00000000  0.46771000  0.32888000  1.0
  C  C86  1  0.32888000  0.79659000  0.67112000  1.0
  C  C87  1  0.79659000  0.32888000  0.67112000  1.0
  C  C88  1  0.67112000  0.46771000  0.00000000  1.0
  C  C89  1  0.46771000  0.67112000  0.00000000  1.0
  C  C90  1  0.54847000  0.00000000  0.28751000  1.0
  C  C91  1  0.16402000  0.45154000  0.54847000  1.0
  C  C92  1  0.00000000  0.71248000  0.45154000  1.0
  C  C93  1  0.71249000  0.00000000  0.45153000  1.0
  C  C94  1  0.45153000  0.45153000  0.83598000  1.0
  C  C95  1  0.28751000  0.28751000  0.16402000  1.0
  C  C96  1  0.45154000  0.16403000  0.54846000  1.0
  C  C97  1  0.00000000  0.54847000  0.28751000  1.0
  C  C98  1  0.28751000  0.83598000  0.71249000  1.0
  C  C99  1  0.83598000  0.28751000  0.71249000  1.0
  C  C100  1  0.71249000  0.54847000  0.00000000  1.0
  C  C101  1  0.54847000  0.71249000  0.00000000  1.0
  N  N102  1  0.27878000  0.91214000  0.44431000  1.0
  N  N103  1  0.27691000  0.72122000  0.36664000  1.0
  N  N104  1  0.08786000  0.64355000  0.63336000  1.0
  N  N105  1  0.64355000  0.08786000  0.63336000  1.0
  N  N106  1  0.72122000  0.63336000  0.72309000  1.0
  N  N107  1  0.63335000  0.72121000  0.72310000  1.0
  N  N108  1  0.44431000  0.35645000  0.27691000  1.0
  N  N109  1  0.35645000  0.44431000  0.27690000  1.0
  N  N110  1  0.27691000  0.63336000  0.27878000  1.0
  N  N111  1  0.63335000  0.27690000  0.27879000  1.0
  N  N112  1  0.55569000  0.91214000  0.72122000  1.0
  N  N113  1  0.91214000  0.55569000  0.72121000  1.0
  N  N114  1  0.08786000  0.36664000  0.35645000  1.0
  N  N115  1  0.44431000  0.72309000  0.64355000  1.0
  N  N116  1  0.36665000  0.08787000  0.35644000  1.0
  N  N117  1  0.72309000  0.44431000  0.64356000  1.0
  N  N118  1  0.64355000  0.36664000  0.91214000  1.0
  N  N119  1  0.55569000  0.27878000  0.08786000  1.0
  N  N120  1  0.36665000  0.64356000  0.91213000  1.0
  N  N121  1  0.27878000  0.55569000  0.08787000  1.0
  N  N122  1  0.35645000  0.72310000  0.55569000  1.0
  N  N123  1  0.91214000  0.27879000  0.44431000  1.0
  N  N124  1  0.72309000  0.35644000  0.55569000  1.0
  N  N125  1  0.72122000  0.27691000  0.36664000  1.0
