# generated using pymatgen
data_TbH19C23O9
_symmetry_space_group_name_H-M   'P 1'
_cell_length_a   14.88040000
_cell_length_b   14.87870000
_cell_length_c   24.10540000
_cell_angle_alpha   103.57300000
_cell_angle_beta   99.14440000
_cell_angle_gamma   111.25200000
_symmetry_Int_Tables_number   1
_chemical_formula_structural   TbH19C23O9
_chemical_formula_sum   'Tb4 H76 C92 O36'
_cell_volume   4656.45985814
_cell_formula_units_Z   4
loop_
 _symmetry_equiv_pos_site_id
 _symmetry_equiv_pos_as_xyz
  1  'x, y, z'
loop_
 _atom_site_type_symbol
 _atom_site_label
 _atom_site_symmetry_multiplicity
 _atom_site_fract_x
 _atom_site_fract_y
 _atom_site_fract_z
 _atom_site_occupancy
  Tb  Tb0  1  0.65277000  0.09964000  0.95683000  1.0
  Tb  Tb1  1  0.14282000  0.19606000  0.54318000  1.0
  Tb  Tb2  1  0.34723000  0.90036000  0.04317000  1.0
  Tb  Tb3  1  0.85718000  0.80394000  0.45682000  1.0
  H  H4  1  0.45616000  0.01035000  0.75670000  1.0
  H  H5  1  0.25355000  0.19965000  0.74332000  1.0
  H  H6  1  0.54385000  0.98965000  0.24330000  1.0
  H  H7  1  0.74644000  0.80035000  0.25668000  1.0
  H  H8  1  0.42245000  0.65548000  0.70486000  1.0
  H  H9  1  0.95051000  0.21768000  0.79515000  1.0
  H  H10  1  0.57755000  0.34453000  0.29514000  1.0
  H  H11  1  0.04949000  0.78233000  0.20485000  1.0
  H  H12  1  0.54628000  0.78556000  0.79578000  1.0
  H  H13  1  0.98961000  0.25058000  0.70423000  1.0
  H  H14  1  0.45372000  0.21444000  0.20422000  1.0
  H  H15  1  0.01039000  0.74942000  0.29577000  1.0
  H  H16  1  0.32272000  0.55317000  0.63603000  1.0
  H  H17  1  0.91729000  0.18713000  0.86412000  1.0
  H  H18  1  0.67728000  0.44683000  0.36397000  1.0
  H  H19  1  0.08270000  0.81287000  0.13588000  1.0
  H  H20  1  0.09578000  0.64686000  0.51115000  1.0
  H  H21  1  0.13551000  0.08451000  0.98878000  1.0
  H  H22  1  0.90422000  0.35314000  0.48885000  1.0
  H  H23  1  0.86449000  0.91549000  0.01122000  1.0
  H  H24  1  0.07591000  0.46932000  0.48809000  1.0
  H  H25  1  0.98120000  0.08790000  0.01193000  1.0
  H  H26  1  0.92410000  0.53068000  0.51191000  1.0
  H  H27  1  0.01880000  0.91210000  0.98807000  1.0
  H  H28  1  0.09877000  0.77951000  0.53624000  1.0
  H  H29  1  0.24283000  0.06207000  0.96358000  1.0
  H  H30  1  0.90123000  0.22049000  0.46376000  1.0
  H  H31  1  0.75717000  0.93793000  0.03642000  1.0
  H  H32  1  0.37147000  0.04636000  0.70687000  1.0
  H  H33  1  0.33922000  0.16438000  0.79305000  1.0
  H  H34  1  0.62853000  0.95364000  0.29313000  1.0
  H  H35  1  0.66078000  0.83561000  0.20695000  1.0
  H  H36  1  0.24853000  0.08798000  0.64908000  1.0
  H  H37  1  0.43843000  0.09893000  0.85076000  1.0
  H  H38  1  0.75148000  0.91202000  0.35092000  1.0
  H  H39  1  0.56157000  0.90106000  0.14923000  1.0
  H  H40  1  0.89724000  0.25479000  0.08648000  1.0
  H  H41  1  0.16808000  0.31079000  0.41351000  1.0
  H  H42  1  0.10276000  0.74522000  0.91352000  1.0
  H  H43  1  0.83189000  0.68919000  0.58648000  1.0
  H  H44  1  0.89423000  0.37827000  0.10386000  1.0
  H  H45  1  0.27421000  0.29047000  0.39611000  1.0
  H  H46  1  0.10577000  0.62174000  0.89614000  1.0
  H  H47  1  0.72578000  0.70952000  0.60388000  1.0
  H  H48  1  0.91102000  0.32284000  0.03411000  1.0
  H  H49  1  0.28851000  0.37693000  0.46589000  1.0
  H  H50  1  0.08898000  0.67717000  0.96589000  1.0
  H  H51  1  0.71146000  0.62306000  0.53410000  1.0
  H  H52  1  0.59411000  0.30791000  0.06289000  1.0
  H  H53  1  0.24484000  0.03098000  0.43716000  1.0
  H  H54  1  0.40589000  0.69208000  0.93712000  1.0
  H  H55  1  0.75516000  0.96902000  0.56284000  1.0
  H  H56  1  0.53343000  0.24179000  0.10940000  1.0
  H  H57  1  0.13214000  0.92380000  0.39068000  1.0
  H  H58  1  0.46658000  0.75821000  0.89060000  1.0
  H  H59  1  0.86787000  0.07620000  0.60932000  1.0
  H  H60  1  0.47134000  0.20677000  0.03263000  1.0
  H  H61  1  0.17392000  0.93860000  0.46747000  1.0
  H  H62  1  0.52867000  0.79323000  0.96737000  1.0
  H  H63  1  0.82608000  0.06140000  0.53253000  1.0
  H  H64  1  0.72845000  0.24459000  0.06912000  1.0
  H  H65  1  0.17536000  0.15932000  0.43085000  1.0
  H  H66  1  0.27155000  0.75541000  0.93088000  1.0
  H  H67  1  0.82464000  0.84067000  0.56915000  1.0
  H  H68  1  0.55497000  0.10129000  0.05906000  1.0
  H  H69  1  0.04215000  0.99595000  0.44099000  1.0
  H  H70  1  0.44503000  0.89871000  0.94094000  1.0
  H  H71  1  0.95785000  0.00405000  0.55901000  1.0
  H  H72  1  0.62140000  0.21657000  0.89335000  1.0
  H  H73  1  0.32331000  0.22812000  0.60665000  1.0
  H  H74  1  0.37860000  0.78343000  0.10665000  1.0
  H  H75  1  0.67669000  0.77188000  0.39335000  1.0
  H  H76  1  0.70021000  0.30168000  0.95027000  1.0
  H  H77  1  0.35143000  0.24999000  0.54971000  1.0
  H  H78  1  0.29979000  0.69832000  0.04973000  1.0
  H  H79  1  0.64857000  0.75002000  0.45029000  1.0
  C  C80  1  0.57540000  0.98328000  0.83844000  1.0
  C  C81  1  0.14472000  0.23715000  0.66157000  1.0
  C  C82  1  0.42461000  0.01672000  0.16156000  1.0
  C  C83  1  0.85528000  0.76285000  0.33843000  1.0
  C  C84  1  0.50760000  0.90618000  0.78106000  1.0
  C  C85  1  0.12505000  0.22679000  0.71897000  1.0
  C  C86  1  0.49240000  0.09382000  0.21894000  1.0
  C  C87  1  0.87495000  0.77321000  0.28103000  1.0
  C  C88  1  0.44698000  0.93181000  0.74362000  1.0
  C  C89  1  0.18807000  0.20353000  0.75639000  1.0
  C  C90  1  0.55302000  0.06819000  0.25638000  1.0
  C  C91  1  0.81192000  0.79647000  0.24361000  1.0
  C  C92  1  0.37404000  0.85929000  0.69199000  1.0
  C  C93  1  0.16712000  0.18206000  0.80798000  1.0
  C  C94  1  0.62596000  0.14071000  0.30801000  1.0
  C  C95  1  0.83287000  0.81794000  0.19202000  1.0
  C  C96  1  0.36414000  0.75706000  0.67748000  1.0
  C  C97  1  0.07950000  0.18679000  0.82254000  1.0
  C  C98  1  0.63586000  0.24294000  0.32253000  1.0
  C  C99  1  0.92050000  0.81321000  0.17746000  1.0
  C  C100  1  0.42862000  0.73311000  0.71533000  1.0
  C  C101  1  0.01771000  0.21347000  0.78470000  1.0
  C  C102  1  0.57138000  0.26689000  0.28467000  1.0
  C  C103  1  0.98229000  0.78653000  0.21530000  1.0
  C  C104  1  0.49846000  0.80538000  0.76632000  1.0
  C  C105  1  0.03896000  0.23232000  0.73371000  1.0
  C  C106  1  0.50154000  0.19462000  0.23368000  1.0
  C  C107  1  0.96104000  0.76768000  0.26629000  1.0
  C  C108  1  0.18386000  0.39468000  0.55048000  1.0
  C  C109  1  0.84413000  0.13346000  0.94955000  1.0
  C  C110  1  0.81614000  0.60532000  0.44952000  1.0
  C  C111  1  0.15587000  0.86655000  0.05045000  1.0
  C  C112  1  0.19919000  0.50250000  0.56180000  1.0
  C  C113  1  0.94070000  0.13757000  0.93825000  1.0
  C  C114  1  0.80081000  0.49750000  0.43820000  1.0
  C  C115  1  0.05930000  0.86243000  0.06175000  1.0
  C  C116  1  0.27487000  0.57744000  0.60992000  1.0
  C  C117  1  0.96758000  0.16523000  0.89017000  1.0
  C  C118  1  0.72514000  0.42256000  0.39009000  1.0
  C  C119  1  0.03242000  0.83477000  0.10982000  1.0
  C  C120  1  0.28725000  0.67938000  0.62524000  1.0
  C  C121  1  0.05407000  0.16208000  0.87477000  1.0
  C  C122  1  0.71275000  0.32062000  0.37476000  1.0
  C  C123  1  0.94593000  0.83792000  0.12523000  1.0
  C  C124  1  0.22096000  0.70537000  0.58946000  1.0
  C  C125  1  0.11572000  0.13135000  0.91048000  1.0
  C  C126  1  0.77904000  0.29463000  0.41055000  1.0
  C  C127  1  0.88428000  0.86865000  0.08952000  1.0
  C  C128  1  0.14645000  0.62833000  0.53945000  1.0
  C  C129  1  0.08871000  0.10692000  0.96050000  1.0
  C  C130  1  0.85355000  0.37168000  0.46055000  1.0
  C  C131  1  0.91129000  0.89308000  0.03950000  1.0
  C  C132  1  0.13481000  0.52855000  0.52596000  1.0
  C  C133  1  0.00250000  0.10889000  0.97404000  1.0
  C  C134  1  0.86520000  0.47146000  0.47404000  1.0
  C  C135  1  0.99750000  0.89112000  0.02596000  1.0
  C  C136  1  0.08762000  0.95510000  0.55544000  1.0
  C  C137  1  0.39946000  0.03201000  0.94450000  1.0
  C  C138  1  0.91238000  0.04490000  0.44456000  1.0
  C  C139  1  0.60053000  0.96798000  0.05550000  1.0
  C  C140  1  0.16715000  0.93467000  0.58881000  1.0
  C  C141  1  0.34539000  0.07780000  0.91099000  1.0
  C  C142  1  0.83285000  0.06533000  0.41119000  1.0
  C  C143  1  0.65461000  0.92220000  0.08901000  1.0
  C  C144  1  0.16105000  0.83612000  0.57330000  1.0
  C  C145  1  0.26237000  0.08722000  0.92649000  1.0
  C  C146  1  0.83896000  0.16389000  0.42670000  1.0
  C  C147  1  0.73763000  0.91278000  0.07351000  1.0
  C  C148  1  0.22967000  0.80970000  0.60539000  1.0
  C  C149  1  0.20395000  0.12389000  0.89444000  1.0
  C  C150  1  0.77033000  0.19030000  0.39461000  1.0
  C  C151  1  0.79605000  0.87611000  0.10555000  1.0
  C  C152  1  0.30649000  0.88632000  0.65531000  1.0
  C  C153  1  0.23066000  0.15086000  0.84454000  1.0
  C  C154  1  0.69351000  0.11368000  0.34469000  1.0
  C  C155  1  0.76934000  0.84914000  0.15545000  1.0
  C  C156  1  0.31270000  0.98659000  0.66923000  1.0
  C  C157  1  0.31695000  0.14303000  0.83060000  1.0
  C  C158  1  0.68730000  0.01341000  0.33077000  1.0
  C  C159  1  0.68305000  0.85696000  0.16939000  1.0
  C  C160  1  0.24468000  0.01108000  0.63705000  1.0
  C  C161  1  0.37352000  0.10705000  0.86274000  1.0
  C  C162  1  0.75532000  0.98892000  0.36295000  1.0
  C  C163  1  0.62648000  0.89294000  0.13725000  1.0
  C  C164  1  0.87358000  0.30656000  0.06855000  1.0
  C  C165  1  0.23780000  0.30507000  0.43143000  1.0
  C  C166  1  0.12643000  0.69345000  0.93146000  1.0
  C  C167  1  0.76218000  0.69492000  0.56856000  1.0
  C  C168  1  0.54422000  0.23406000  0.06474000  1.0
  C  C169  1  0.16911000  0.97931000  0.43533000  1.0
  C  C170  1  0.45579000  0.76594000  0.93526000  1.0
  C  C171  1  0.83089000  0.02069000  0.56468000  1.0
  O  O172  1  0.58864000  0.07623000  0.84935000  1.0
  O  O173  1  0.22679000  0.23954000  0.65069000  1.0
  O  O174  1  0.41136000  0.92377000  0.15065000  1.0
  O  O175  1  0.77320000  0.76046000  0.34931000  1.0
  O  O176  1  0.61492000  0.95364000  0.87779000  1.0
  O  O177  1  0.07571000  0.23720000  0.62219000  1.0
  O  O178  1  0.38508000  0.04636000  0.12222000  1.0
  O  O179  1  0.92429000  0.76280000  0.37781000  1.0
  O  O180  1  0.25288000  0.37315000  0.57535000  1.0
  O  O181  1  0.79768000  0.17759000  0.92471000  1.0
  O  O182  1  0.74712000  0.62685000  0.42465000  1.0
  O  O183  1  0.20232000  0.82241000  0.07530000  1.0
  O  O184  1  0.10054000  0.32394000  0.51687000  1.0
  O  O185  1  0.80703000  0.08367000  0.98313000  1.0
  O  O186  1  0.89946000  0.67606000  0.48313000  1.0
  O  O187  1  0.19297000  0.91633000  0.01687000  1.0
  O  O188  1  0.01885000  0.88122000  0.51365000  1.0
  O  O189  1  0.36769000  0.00546000  0.98648000  1.0
  O  O190  1  0.98114000  0.11877000  0.48635000  1.0
  O  O191  1  0.63231000  0.99454000  0.01352000  1.0
  O  O192  1  0.08897000  0.04429000  0.57078000  1.0
  O  O193  1  0.47332000  0.01805000  0.92917000  1.0
  O  O194  1  0.91103000  0.95570000  0.42922000  1.0
  O  O195  1  0.52668000  0.98195000  0.07083000  1.0
  O  O196  1  0.76773000  0.26051000  0.04075000  1.0
  O  O197  1  0.21962000  0.22700000  0.45921000  1.0
  O  O198  1  0.23227000  0.73950000  0.95925000  1.0
  O  O199  1  0.78037000  0.77300000  0.54079000  1.0
  O  O200  1  0.59136000  0.16548000  0.05067000  1.0
  O  O201  1  0.11473000  0.04067000  0.44935000  1.0
  O  O202  1  0.40865000  0.83452000  0.94933000  1.0
  O  O203  1  0.88527000  0.95933000  0.55065000  1.0
  O  O204  1  0.63286000  0.24729000  0.93611000  1.0
  O  O205  1  0.31114000  0.19685000  0.56388000  1.0
  O  O206  1  0.36713000  0.75271000  0.06390000  1.0
  O  O207  1  0.68886000  0.80315000  0.43612000  1.0
