# generated using pymatgen
data_CuH16C8S2(ClO)2
_symmetry_space_group_name_H-M   'P 1'
_cell_length_a   7.86035000
_cell_length_b   7.86035000
_cell_length_c   10.72760000
_cell_angle_alpha   89.99980000
_cell_angle_beta   89.99970000
_cell_angle_gamma   105.00700000
_symmetry_Int_Tables_number   1
_chemical_formula_structural   CuH16C8S2(ClO)2
_chemical_formula_sum   'Cu2 H32 C16 S4 Cl4 O4'
_cell_volume   640.20033628
_cell_formula_units_Z   2
loop_
 _symmetry_equiv_pos_site_id
 _symmetry_equiv_pos_as_xyz
  1  'x, y, z'
loop_
 _atom_site_type_symbol
 _atom_site_label
 _atom_site_symmetry_multiplicity
 _atom_site_fract_x
 _atom_site_fract_y
 _atom_site_fract_z
 _atom_site_occupancy
  Cu  Cu0  1  0.50000000  0.50000000  0.00000000  1.0
  Cu  Cu1  1  0.00000000  0.00000000  0.50000000  1.0
  H  H2  1  0.60321000  0.82383000  0.21923000  1.0
  H  H3  1  0.67617000  0.89680000  0.71923000  1.0
  H  H4  1  0.82383000  0.60321000  0.21923000  1.0
  H  H5  1  0.10320000  0.32383000  0.28078000  1.0
  H  H6  1  0.39679000  0.17617000  0.78077000  1.0
  H  H7  1  0.32383000  0.10320000  0.28078000  1.0
  H  H8  1  0.17617000  0.39679000  0.78077000  1.0
  H  H9  1  0.89680000  0.67617000  0.71923000  1.0
  H  H10  1  0.59681000  0.96280000  0.08812000  1.0
  H  H11  1  0.53720000  0.90319000  0.58812000  1.0
  H  H12  1  0.96280000  0.59681000  0.08812000  1.0
  H  H13  1  0.09681000  0.46280000  0.41189000  1.0
  H  H14  1  0.40319000  0.03720000  0.91189000  1.0
  H  H15  1  0.46280000  0.09681000  0.41189000  1.0
  H  H16  1  0.03720000  0.40320000  0.91188000  1.0
  H  H17  1  0.90319000  0.53720000  0.58812000  1.0
  H  H18  1  0.80076000  0.12427000  0.25379000  1.0
  H  H19  1  0.37573000  0.69924000  0.75379000  1.0
  H  H20  1  0.12427000  0.80076000  0.25378000  1.0
  H  H21  1  0.30076000  0.62427000  0.24622000  1.0
  H  H22  1  0.19924000  0.87573000  0.74622000  1.0
  H  H23  1  0.62427000  0.30076000  0.24622000  1.0
  H  H24  1  0.87573000  0.19924000  0.74621000  1.0
  H  H25  1  0.69924000  0.37573000  0.75378000  1.0
  H  H26  1  0.91609000  0.10902000  0.11167000  1.0
  H  H27  1  0.39098000  0.58391000  0.61167000  1.0
  H  H28  1  0.10902000  0.91610000  0.11167000  1.0
  H  H29  1  0.41610000  0.60902000  0.38832000  1.0
  H  H30  1  0.08390000  0.89098000  0.88833000  1.0
  H  H31  1  0.60902000  0.41610000  0.38833000  1.0
  H  H32  1  0.89098000  0.08391000  0.88832000  1.0
  H  H33  1  0.58390000  0.39098000  0.61167000  1.0
  C  C34  1  0.68029000  0.89783000  0.14224000  1.0
  C  C35  1  0.60217000  0.81971000  0.64224000  1.0
  C  C36  1  0.89782000  0.68029000  0.14225000  1.0
  C  C37  1  0.18029000  0.39783000  0.35776000  1.0
  C  C38  1  0.31971000  0.10218000  0.85775000  1.0
  C  C39  1  0.39783000  0.18029000  0.35776000  1.0
  C  C40  1  0.10217000  0.31971000  0.85775000  1.0
  C  C41  1  0.81971000  0.60216000  0.64224000  1.0
  C  C42  1  0.84224000  0.03328000  0.19002000  1.0
  C  C43  1  0.46672000  0.65776000  0.69002000  1.0
  C  C44  1  0.03328000  0.84224000  0.19002000  1.0
  C  C45  1  0.34224000  0.53328000  0.30998000  1.0
  C  C46  1  0.15776000  0.96672000  0.80998000  1.0
  C  C47  1  0.53328000  0.34224000  0.30998000  1.0
  C  C48  1  0.96672000  0.15776000  0.80998000  1.0
  C  C49  1  0.65776000  0.46672000  0.69002000  1.0
  S  S50  1  0.74382000  0.74383000  0.03754000  1.0
  S  S51  1  0.75617000  0.75617000  0.53754000  1.0
  S  S52  1  0.24383000  0.24383000  0.46246000  1.0
  S  S53  1  0.25617000  0.25618000  0.96245000  1.0
  Cl  Cl54  1  0.31803000  0.68197000  0.00000000  1.0
  Cl  Cl55  1  0.81803000  0.18197000  0.50000000  1.0
  Cl  Cl56  1  0.68197000  0.31803000  0.00000000  1.0
  Cl  Cl57  1  0.18197000  0.81803000  0.50000000  1.0
  O  O58  1  0.95664000  0.95664000  0.26193000  1.0
  O  O59  1  0.54336000  0.54336000  0.76193000  1.0
  O  O60  1  0.45664000  0.45664000  0.23807000  1.0
  O  O61  1  0.04336000  0.04336000  0.73807000  1.0
