# generated using pymatgen
data_CuH11C9SN4O5F3
_symmetry_space_group_name_H-M   'P 1'
_cell_length_a   5.51333000
_cell_length_b   9.82346641
_cell_length_c   13.14730000
_cell_angle_alpha   92.54833347
_cell_angle_beta   91.16930000
_cell_angle_gamma   102.62299217
_symmetry_Int_Tables_number   1
_chemical_formula_structural   CuH11C9SN4O5F3
_chemical_formula_sum   'Cu2 H22 C18 S2 N8 O10 F6'
_cell_volume   693.82824951
_cell_formula_units_Z   2
loop_
 _symmetry_equiv_pos_site_id
 _symmetry_equiv_pos_as_xyz
  1  'x, y, z'
loop_
 _atom_site_type_symbol
 _atom_site_label
 _atom_site_symmetry_multiplicity
 _atom_site_fract_x
 _atom_site_fract_y
 _atom_site_fract_z
 _atom_site_occupancy
  Cu  Cu0  1  0.80348000  0.09432000  0.06595000  1.0
  Cu  Cu1  1  0.19653000  0.90569000  0.93405000  1.0
  H  H2  1  0.84121000  0.43694000  0.74380000  1.0
  H  H3  1  0.15877000  0.56306000  0.25621000  1.0
  H  H4  1  0.53277000  0.39904000  0.69796000  1.0
  H  H5  1  0.46723000  0.60096000  0.30203000  1.0
  H  H6  1  0.74027000  0.30008000  0.64992000  1.0
  H  H7  1  0.25976000  0.69993000  0.35009000  1.0
  H  H8  1  0.34449000  0.45986000  0.92851000  1.0
  H  H9  1  0.65548000  0.54014000  0.07149000  1.0
  H  H10  1  0.08447000  0.52346000  0.88430000  1.0
  H  H11  1  0.91553000  0.47654000  0.11569000  1.0
  H  H12  1  0.19551000  0.39946000  0.80854000  1.0
  H  H13  1  0.80448000  0.60054000  0.19146000  1.0
  H  H14  1  0.21492000  0.25625000  0.62635000  1.0
  H  H15  1  0.78509000  0.74373000  0.37363000  1.0
  H  H16  1  0.35917000  0.11815000  0.58888000  1.0
  H  H17  1  0.64086000  0.88183000  0.41111000  1.0
  H  H18  1  0.02901000  0.09077000  0.58628000  1.0
  H  H19  1  0.97100000  0.90920000  0.41371000  1.0
  H  H20  1  0.84626000  0.97576000  0.70576000  1.0
  H  H21  1  0.15372000  0.02423000  0.29423000  1.0
  H  H22  1  0.25846000  0.29879000  0.14351000  1.0
  H  H23  1  0.74153000  0.70121000  0.85648000  1.0
  C  C24  1  0.61942000  0.25006000  0.80090000  1.0
  C  C25  1  0.38057000  0.74995000  0.19910000  1.0
  C  C26  1  0.40298000  0.14123000  0.80658000  1.0
  C  C27  1  0.59701000  0.85876000  0.19342000  1.0
  C  C28  1  0.68686000  0.35098000  0.71945000  1.0
  C  C29  1  0.31315000  0.64903000  0.28055000  1.0
  C  C30  1  0.75553000  0.24079000  0.89088000  1.0
  C  C31  1  0.24447000  0.75923000  0.10912000  1.0
  C  C32  1  0.99389000  0.31482000  0.93619000  1.0
  C  C33  1  0.00611000  0.68519000  0.06382000  1.0
  C  C34  1  0.16486000  0.43084000  0.88749000  1.0
  C  C35  1  0.83513000  0.56917000  0.11251000  1.0
  C  C36  1  0.19617000  0.09650000  0.73548000  1.0
  C  C37  1  0.80385000  0.90350000  0.26452000  1.0
  C  C38  1  0.19999000  0.14317000  0.62861000  1.0
  C  C39  1  0.80003000  0.85682000  0.37138000  1.0
  C  C40  1  0.72250000  0.34315000  0.40684000  1.0
  C  C41  1  0.27750000  0.65684000  0.59317000  1.0
  S  S42  1  0.54339000  0.23573000  0.29847000  1.0
  S  S43  1  0.45663000  0.76428000  0.70154000  1.0
  N  N44  1  0.62754000  0.13375000  0.94442000  1.0
  N  N45  1  0.37242000  0.86625000  0.05557000  1.0
  N  N46  1  0.41879000  0.07487000  0.89552000  1.0
  N  N47  1  0.58118000  0.92512000  0.10448000  1.0
  N  N48  1  0.04210000  0.26747000  0.02380000  1.0
  N  N49  1  0.95789000  0.73254000  0.97620000  1.0
  N  N50  1  0.99230000  0.00850000  0.75952000  1.0
  N  N51  1  0.00770000  0.99150000  0.24048000  1.0
  O  O52  1  0.26063000  0.33369000  0.07299000  1.0
  O  O53  1  0.73935000  0.66631000  0.92701000  1.0
  O  O54  1  0.93704000  0.95033000  0.84734000  1.0
  O  O55  1  0.06296000  0.04968000  0.15266000  1.0
  O  O56  1  0.44521000  0.10293000  0.34593000  1.0
  O  O57  1  0.55478000  0.89707000  0.65408000  1.0
  O  O58  1  0.35534000  0.31369000  0.27201000  1.0
  O  O59  1  0.64468000  0.68631000  0.72800000  1.0
  O  O60  1  0.72874000  0.23123000  0.22182000  1.0
  O  O61  1  0.27126000  0.76876000  0.77819000  1.0
  F  F62  1  0.89852000  0.28041000  0.44495000  1.0
  F  F63  1  0.10149000  0.71959000  0.55506000  1.0
  F  F64  1  0.83776000  0.47155000  0.37721000  1.0
  F  F65  1  0.16226000  0.52844000  0.62280000  1.0
  F  F66  1  0.56814000  0.36162000  0.48274000  1.0
  F  F67  1  0.43189000  0.63838000  0.51726000  1.0
