# generated using pymatgen
data_CuH15C17N4ClO4
_symmetry_space_group_name_H-M   'P 1'
_cell_length_a   8.01975000
_cell_length_b   13.01020000
_cell_length_c   18.17670000
_cell_angle_alpha   106.57300000
_cell_angle_beta   89.99930000
_cell_angle_gamma   90.00000000
_symmetry_Int_Tables_number   1
_chemical_formula_structural   CuH15C17N4ClO4
_chemical_formula_sum   'Cu4 H60 C68 N16 Cl4 O16'
_cell_volume   1817.74316060
_cell_formula_units_Z   4
loop_
 _symmetry_equiv_pos_site_id
 _symmetry_equiv_pos_as_xyz
  1  'x, y, z'
loop_
 _atom_site_type_symbol
 _atom_site_label
 _atom_site_symmetry_multiplicity
 _atom_site_fract_x
 _atom_site_fract_y
 _atom_site_fract_z
 _atom_site_occupancy
  Cu  Cu0  1  0.80360000  0.96981000  0.85807000  1.0
  Cu  Cu1  1  0.30360000  0.03018000  0.64195000  1.0
  Cu  Cu2  1  0.19635000  0.03024000  0.14189000  1.0
  Cu  Cu3  1  0.69636000  0.96975000  0.35811000  1.0
  H  H4  1  0.64871000  0.21738000  0.11886000  1.0
  H  H5  1  0.14872000  0.78262000  0.38113000  1.0
  H  H6  1  0.35128000  0.78262000  0.88114000  1.0
  H  H7  1  0.85128000  0.21737000  0.61886000  1.0
  H  H8  1  0.91671000  0.40512000  0.88063000  1.0
  H  H9  1  0.41674000  0.59486000  0.61936000  1.0
  H  H10  1  0.08326000  0.59488000  0.11939000  1.0
  H  H11  1  0.58329000  0.40511000  0.38062000  1.0
  H  H12  1  0.85037000  0.50413000  0.01542000  1.0
  H  H13  1  0.35039000  0.49588000  0.48457000  1.0
  H  H14  1  0.14962000  0.49589000  0.98460000  1.0
  H  H15  1  0.64964000  0.50410000  0.51541000  1.0
  H  H16  1  0.87600000  0.20437000  0.83399000  1.0
  H  H17  1  0.37602000  0.79562000  0.66600000  1.0
  H  H18  1  0.12402000  0.79565000  0.16604000  1.0
  H  H19  1  0.62403000  0.20434000  0.33397000  1.0
  H  H20  1  0.65579000  0.02807000  0.02946000  1.0
  H  H21  1  0.15582000  0.97193000  0.47054000  1.0
  H  H22  1  0.34421000  0.97193000  0.97054000  1.0
  H  H23  1  0.84421000  0.02805000  0.52946000  1.0
  H  H24  1  0.70533000  0.70235000  0.71517000  1.0
  H  H25  1  0.20532000  0.29767000  0.78482000  1.0
  H  H26  1  0.29467000  0.29766000  0.28481000  1.0
  H  H27  1  0.79468000  0.70234000  0.21518000  1.0
  H  H28  1  0.67391000  0.83075000  0.70035000  1.0
  H  H29  1  0.17391000  0.16925000  0.79964000  1.0
  H  H30  1  0.32612000  0.16923000  0.29962000  1.0
  H  H31  1  0.82613000  0.83075000  0.20037000  1.0
  H  H32  1  0.92165000  0.89635000  0.68923000  1.0
  H  H33  1  0.42162000  0.10369000  0.81078000  1.0
  H  H34  1  0.07839000  0.10361000  0.31074000  1.0
  H  H35  1  0.57841000  0.89637000  0.18926000  1.0
  H  H36  1  0.06522000  0.79524000  0.69783000  1.0
  H  H37  1  0.56522000  0.20479000  0.80217000  1.0
  H  H38  1  0.93482000  0.20477000  0.30215000  1.0
  H  H39  1  0.43483000  0.79522000  0.19785000  1.0
  H  H40  1  0.06886000  0.78592000  0.83515000  1.0
  H  H41  1  0.56886000  0.21410000  0.66485000  1.0
  H  H42  1  0.93114000  0.21409000  0.16486000  1.0
  H  H43  1  0.43116000  0.78590000  0.33515000  1.0
  H  H44  1  0.96889000  0.67695000  0.76828000  1.0
  H  H45  1  0.46889000  0.32307000  0.73173000  1.0
  H  H46  1  0.03112000  0.32305000  0.23173000  1.0
  H  H47  1  0.53114000  0.67694000  0.26827000  1.0
  H  H48  1  0.73608000  0.58394000  0.80752000  1.0
  H  H49  1  0.23606000  0.41609000  0.69249000  1.0
  H  H50  1  0.26392000  0.41609000  0.19249000  1.0
  H  H51  1  0.76392000  0.58390000  0.30752000  1.0
  H  H52  1  0.57983000  0.54602000  0.91549000  1.0
  H  H53  1  0.07983000  0.45399000  0.58451000  1.0
  H  H54  1  0.42017000  0.45399000  0.08452000  1.0
  H  H55  1  0.92018000  0.54601000  0.41549000  1.0
  H  H56  1  0.79249000  0.83027000  0.07207000  1.0
  H  H57  1  0.29249000  0.16974000  0.42793000  1.0
  H  H58  1  0.20750000  0.16975000  0.92793000  1.0
  H  H59  1  0.70754000  0.83025000  0.57207000  1.0
  H  H60  1  0.94197000  0.86885000  0.96475000  1.0
  H  H61  1  0.44196000  0.13117000  0.53525000  1.0
  H  H62  1  0.05801000  0.13117000  0.03524000  1.0
  H  H63  1  0.55804000  0.86883000  0.46476000  1.0
  C  C64  1  0.87137000  0.36096000  0.91937000  1.0
  C  C65  1  0.37139000  0.63903000  0.58062000  1.0
  C  C66  1  0.12861000  0.63906000  0.08065000  1.0
  C  C67  1  0.62863000  0.36094000  0.41936000  1.0
  C  C68  1  0.83268000  0.41751000  0.99590000  1.0
  C  C69  1  0.33269000  0.58248000  0.50409000  1.0
  C  C70  1  0.16730000  0.58250000  0.00412000  1.0
  C  C71  1  0.66732000  0.41749000  0.49589000  1.0
  C  C72  1  0.75278000  0.26684000  0.02211000  1.0
  C  C73  1  0.25277000  0.73316000  0.47789000  1.0
  C  C74  1  0.24719000  0.73317000  0.97791000  1.0
  C  C75  1  0.74723000  0.26682000  0.52210000  1.0
  C  C76  1  0.79021000  0.20170000  0.94700000  1.0
  C  C77  1  0.29021000  0.79829000  0.55299000  1.0
  C  C78  1  0.20978000  0.79831000  0.05301000  1.0
  C  C79  1  0.70980000  0.20168000  0.44699000  1.0
  C  C80  1  0.85021000  0.25019000  0.89303000  1.0
  C  C81  1  0.35022000  0.74981000  0.60696000  1.0
  C  C82  1  0.14978000  0.74983000  0.10699000  1.0
  C  C83  1  0.64980000  0.25017000  0.39302000  1.0
  C  C84  1  0.69672000  0.09774000  0.01284000  1.0
  C  C85  1  0.19673000  0.90226000  0.48716000  1.0
  C  C86  1  0.30327000  0.90226000  0.98717000  1.0
  C  C87  1  0.80329000  0.09772000  0.51284000  1.0
  C  C88  1  0.70249000  0.78902000  0.74354000  1.0
  C  C89  1  0.20250000  0.21098000  0.75645000  1.0
  C  C90  1  0.29750000  0.21096000  0.25643000  1.0
  C  C91  1  0.79752000  0.78902000  0.24356000  1.0
  C  C92  1  0.56246000  0.81714000  0.80330000  1.0
  C  C93  1  0.06248000  0.18285000  0.69669000  1.0
  C  C94  1  0.43750000  0.18287000  0.19668000  1.0
  C  C95  1  0.93752000  0.81713000  0.30332000  1.0
  C  C96  1  0.98770000  0.86266000  0.72985000  1.0
  C  C97  1  0.48768000  0.13736000  0.77014000  1.0
  C  C98  1  0.01234000  0.13732000  0.27011000  1.0
  C  C99  1  0.51234000  0.86267000  0.22989000  1.0
  C  C100  1  0.09801000  0.95198000  0.77854000  1.0
  C  C101  1  0.59798000  0.04804000  0.72147000  1.0
  C  C102  1  0.90198000  0.04805000  0.22144000  1.0
  C  C103  1  0.40198000  0.95194000  0.27856000  1.0
  C  C104  1  0.94668000  0.75187000  0.81441000  1.0
  C  C105  1  0.44668000  0.24816000  0.68559000  1.0
  C  C106  1  0.05332000  0.24814000  0.18559000  1.0
  C  C107  1  0.55333000  0.75184000  0.31441000  1.0
  C  C108  1  0.84990000  0.72891000  0.87865000  1.0
  C  C109  1  0.34990000  0.27112000  0.62136000  1.0
  C  C110  1  0.15008000  0.27113000  0.12136000  1.0
  C  C111  1  0.65008000  0.72887000  0.37865000  1.0
  C  C112  1  0.74759000  0.63834000  0.86539000  1.0
  C  C113  1  0.24760000  0.36168000  0.63461000  1.0
  C  C114  1  0.25239000  0.36169000  0.13460000  1.0
  C  C115  1  0.75239000  0.63830000  0.36539000  1.0
  C  C116  1  0.66062000  0.61581000  0.92534000  1.0
  C  C117  1  0.16063000  0.38421000  0.57466000  1.0
  C  C118  1  0.33936000  0.38421000  0.07467000  1.0
  C  C119  1  0.83936000  0.61578000  0.42534000  1.0
  C  C120  1  0.67927000  0.68441000  0.99938000  1.0
  C  C121  1  0.17928000  0.31561000  0.50062000  1.0
  C  C122  1  0.32070000  0.31561000  0.00062000  1.0
  C  C123  1  0.82072000  0.68438000  0.49938000  1.0
  C  C124  1  0.77765000  0.77665000  0.01423000  1.0
  C  C125  1  0.27765000  0.22337000  0.48577000  1.0
  C  C126  1  0.22233000  0.22338000  0.98576000  1.0
  C  C127  1  0.72235000  0.77662000  0.51423000  1.0
  C  C128  1  0.86217000  0.79799000  0.95331000  1.0
  C  C129  1  0.36218000  0.20204000  0.54670000  1.0
  C  C130  1  0.13779000  0.20204000  0.04670000  1.0
  C  C131  1  0.63782000  0.79796000  0.45331000  1.0
  N  N132  1  0.86447000  0.82949000  0.77921000  1.0
  N  N133  1  0.36447000  0.17053000  0.72080000  1.0
  N  N134  1  0.13555000  0.17050000  0.22078000  1.0
  N  N135  1  0.63556000  0.82949000  0.27922000  1.0
  N  N136  1  0.77263000  0.37271000  0.04840000  1.0
  N  N137  1  0.27264000  0.62729000  0.45159000  1.0
  N  N138  1  0.22734000  0.62729000  0.95161000  1.0
  N  N139  1  0.72737000  0.37270000  0.54840000  1.0
  N  N140  1  0.75500000  0.09596000  0.94356000  1.0
  N  N141  1  0.25501000  0.90402000  0.55644000  1.0
  N  N142  1  0.24499000  0.90404000  0.05644000  1.0
  N  N143  1  0.74501000  0.09595000  0.44356000  1.0
  N  N144  1  0.69356000  0.19803000  0.06175000  1.0
  N  N145  1  0.19357000  0.80197000  0.43825000  1.0
  N  N146  1  0.30643000  0.80197000  0.93826000  1.0
  N  N147  1  0.80644000  0.19802000  0.56175000  1.0
  Cl  Cl148  1  0.58249000  0.65026000  0.07447000  1.0
  Cl  Cl149  1  0.08250000  0.34975000  0.42553000  1.0
  Cl  Cl150  1  0.41750000  0.34977000  0.92554000  1.0
  Cl  Cl151  1  0.91752000  0.65024000  0.57447000  1.0
  O  O152  1  0.58311000  0.90274000  0.85975000  1.0
  O  O153  1  0.08316000  0.09726000  0.64024000  1.0
  O  O154  1  0.41680000  0.09730000  0.14019000  1.0
  O  O155  1  0.91682000  0.90268000  0.35980000  1.0
  O  O156  1  0.43450000  0.75949000  0.79439000  1.0
  O  O157  1  0.93451000  0.24050000  0.70560000  1.0
  O  O158  1  0.56550000  0.24050000  0.20561000  1.0
  O  O159  1  0.06552000  0.75949000  0.29440000  1.0
  O  O160  1  0.04038000  0.00677000  0.84487000  1.0
  O  O161  1  0.54037000  0.99324000  0.65514000  1.0
  O  O162  1  0.95966000  0.99318000  0.15514000  1.0
  O  O163  1  0.45968000  0.00681000  0.34485000  1.0
  O  O164  1  0.23491000  0.97035000  0.75221000  1.0
  O  O165  1  0.73487000  0.02967000  0.74781000  1.0
  O  O166  1  0.76502000  0.02978000  0.24775000  1.0
  O  O167  1  0.26501000  0.97021000  0.25225000  1.0
