# generated using pymatgen
data_AlH6C13O5F2
_symmetry_space_group_name_H-M   'P 1'
_cell_length_a   6.70520000
_cell_length_b   11.20490000
_cell_length_c   17.77854502
_cell_angle_alpha   90.09506480
_cell_angle_beta   100.60718110
_cell_angle_gamma   107.15540000
_symmetry_Int_Tables_number   1
_chemical_formula_structural   AlH6C13O5F2
_chemical_formula_sum   'Al2 H12 C26 O10 F4'
_cell_volume   1252.25564572
_cell_formula_units_Z   2
loop_
 _symmetry_equiv_pos_site_id
 _symmetry_equiv_pos_as_xyz
  1  'x, y, z'
loop_
 _atom_site_type_symbol
 _atom_site_label
 _atom_site_symmetry_multiplicity
 _atom_site_fract_x
 _atom_site_fract_y
 _atom_site_fract_z
 _atom_site_occupancy
  Al  Al0  1  0.99537000  0.50091000  0.49578000  1.0
  Al  Al1  1  0.49457000  0.49915000  0.49563000  1.0
  H  H2  1  0.14550000  0.36740000  0.43144000  1.0
  H  H3  1  0.83978000  0.64146000  0.54970000  1.0
  H  H4  1  0.04591000  0.50764000  0.72777000  1.0
  H  H5  1  0.11837000  0.51218000  0.87108000  1.0
  H  H6  1  0.64758000  0.44350000  0.72568000  1.0
  H  H7  1  0.32940000  0.53617000  0.26483000  1.0
  H  H8  1  0.95465000  0.50658000  0.26407000  1.0
  H  H9  1  0.88074000  0.49816000  0.12075000  1.0
  H  H10  1  0.10911000  0.12840000  0.53297000  1.0
  H  H11  1  0.28836000  0.13317000  0.62136000  1.0
  H  H12  1  0.16229000  0.89836000  0.62056000  1.0
  H  H13  1  0.98401000  0.89282000  0.53144000  1.0
  C  C14  1  0.63388000  0.27455000  0.49095000  1.0
  C  C15  1  0.68460000  0.51527000  0.35793000  1.0
  C  C16  1  0.35537000  0.72548000  0.49435000  1.0
  C  C17  1  0.30477000  0.48303000  0.63317000  1.0
  C  C18  1  0.34174000  0.47628000  0.71817000  1.0
  C  C19  1  0.19214000  0.49399000  0.75937000  1.0
  C  C20  1  0.23275000  0.49692000  0.83885000  1.0
  C  C21  1  0.42422000  0.48124000  0.87984000  1.0
  C  C22  1  0.56729000  0.45937000  0.83637000  1.0
  C  C23  1  0.53096000  0.45765000  0.75726000  1.0
  C  C24  1  0.47294000  0.49018000  0.96062000  1.0
  C  C25  1  0.51479000  0.50189000  0.03049000  1.0
  C  C26  1  0.56343000  0.51220000  0.11127000  1.0
  C  C27  1  0.41364000  0.52539000  0.15427000  1.0
  C  C28  1  0.45055000  0.52890000  0.23338000  1.0
  C  C29  1  0.64695000  0.52076000  0.27289000  1.0
  C  C30  1  0.80283000  0.51187000  0.23211000  1.0
  C  C31  1  0.76168000  0.50710000  0.15261000  1.0
  C  C32  1  0.56078000  0.13548000  0.48799000  1.0
  C  C33  1  0.42111000  0.86366000  0.48891000  1.0
  C  C34  1  0.38889000  0.06938000  0.52027000  1.0
  C  C35  1  0.59158000  0.92924000  0.45443000  1.0
  C  C36  1  0.32119000  0.93930000  0.52029000  1.0
  C  C37  1  0.65815000  0.06005000  0.45379000  1.0
  C  C38  1  0.22399000  0.08502000  0.56426000  1.0
  C  C39  1  0.14566000  0.93708000  0.56380000  1.0
  O  O40  1  0.83057000  0.32855000  0.49383000  1.0
  O  O41  1  0.52954000  0.51307000  0.39057000  1.0
  O  O42  1  0.49883000  0.67131000  0.49906000  1.0
  O  O43  1  0.12412000  0.49171000  0.60048000  1.0
  O  O44  1  0.16027000  0.67377000  0.49651000  1.0
  O  O45  1  0.45867000  0.48308000  0.60043000  1.0
  O  O46  1  0.49056000  0.32766000  0.49154000  1.0
  O  O47  1  0.86692000  0.50930000  0.39077000  1.0
  O  O48  1  0.20147000  0.44747000  0.46037000  1.0
  O  O49  1  0.78857000  0.55437000  0.53100000  1.0
  F  F50  1  0.75067000  0.44102000  0.87454000  1.0
  F  F51  1  0.22314000  0.53294000  0.11538000  1.0
  F  F52  1  0.69624000  0.86739000  0.41834000  1.0
  F  F53  1  0.81948000  0.11181000  0.41648000  1.0
