# generated using pymatgen
data_PrH49C66(N3O4)2
_symmetry_space_group_name_H-M   'P 1'
_cell_length_a   9.29384000
_cell_length_b   13.13740000
_cell_length_c   25.33220000
_cell_angle_alpha   99.67830000
_cell_angle_beta   97.79990000
_cell_angle_gamma   99.61890000
_symmetry_Int_Tables_number   1
_chemical_formula_structural   PrH49C66(N3O4)2
_chemical_formula_sum   'Pr2 H98 C132 N12 O16'
_cell_volume   2963.09318130
_cell_formula_units_Z   2
loop_
 _symmetry_equiv_pos_site_id
 _symmetry_equiv_pos_as_xyz
  1  'x, y, z'
loop_
 _atom_site_type_symbol
 _atom_site_label
 _atom_site_symmetry_multiplicity
 _atom_site_fract_x
 _atom_site_fract_y
 _atom_site_fract_z
 _atom_site_occupancy
  Pr  Pr0  1  0.22616000  0.47227000  0.48815000  1.0
  Pr  Pr1  1  0.77384000  0.52773000  0.51185000  1.0
  H  H2  1  0.28534000  0.26257000  0.48942000  1.0
  H  H3  1  0.71466000  0.73743000  0.51058000  1.0
  H  H4  1  0.41832000  0.30217000  0.46040000  1.0
  H  H5  1  0.58168000  0.69783000  0.53960000  1.0
  H  H6  1  0.94827000  0.36481000  0.41044000  1.0
  H  H7  1  0.05173000  0.63519000  0.58956000  1.0
  H  H8  1  0.06217000  0.28605000  0.40761000  1.0
  H  H9  1  0.93783000  0.71395000  0.59239000  1.0
  H  H10  1  0.68052000  0.73870000  0.84535000  1.0
  H  H11  1  0.31948000  0.26130000  0.15465000  1.0
  H  H12  1  0.35640000  0.86748000  0.27301000  1.0
  H  H13  1  0.64361000  0.13252000  0.72699000  1.0
  H  H14  1  0.13228000  0.04806000  0.72849000  1.0
  H  H15  1  0.86773000  0.95195000  0.27151000  1.0
  H  H16  1  0.71925000  0.62032000  0.67151000  1.0
  H  H17  1  0.28076000  0.37967000  0.32849000  1.0
  H  H18  1  0.69835000  0.69424000  0.76546000  1.0
  H  H19  1  0.30166000  0.30575000  0.23454000  1.0
  H  H20  1  0.24595000  0.52529000  0.73901000  1.0
  H  H21  1  0.75406000  0.47471000  0.26099000  1.0
  H  H22  1  0.26857000  0.45299000  0.64322000  1.0
  H  H23  1  0.73143000  0.54701000  0.35678000  1.0
  H  H24  1  0.16160000  0.52346000  0.89525000  1.0
  H  H25  1  0.83840000  0.47655000  0.10475000  1.0
  H  H26  1  0.97428000  0.52368000  0.95648000  1.0
  H  H27  1  0.02572000  0.47632000  0.04352000  1.0
  H  H28  1  0.99476000  0.67792000  0.03165000  1.0
  H  H29  1  0.00524000  0.32208000  0.96835000  1.0
  H  H30  1  0.20215000  0.83165000  0.04363000  1.0
  H  H31  1  0.79785000  0.16835000  0.95637000  1.0
  H  H32  1  0.38111000  0.83431000  0.97984000  1.0
  H  H33  1  0.61889000  0.16569000  0.02016000  1.0
  H  H34  1  0.60079000  0.66478000  0.99522000  1.0
  H  H35  1  0.39922000  0.33522000  0.00478000  1.0
  H  H36  1  0.77595000  0.76269000  0.07834000  1.0
  H  H37  1  0.22405000  0.23731000  0.92166000  1.0
  H  H38  1  0.90994000  0.94465000  0.08111000  1.0
  H  H39  1  0.09006000  0.05535000  0.91889000  1.0
  H  H40  1  0.86614000  0.02935000  0.00130000  1.0
  H  H41  1  0.13386000  0.97066000  0.99869000  1.0
  H  H42  1  0.68782000  0.93207000  0.91853000  1.0
  H  H43  1  0.31218000  0.06793000  0.08147000  1.0
  H  H44  1  0.20606000  0.71636000  0.66235000  1.0
  H  H45  1  0.79394000  0.28365000  0.33765000  1.0
  H  H46  1  0.22035000  0.88874000  0.72181000  1.0
  H  H47  1  0.77965000  0.11127000  0.27819000  1.0
  H  H48  1  0.49312000  0.04084000  0.62179000  1.0
  H  H49  1  0.50688000  0.95916000  0.37821000  1.0
  H  H50  1  0.47905000  0.86651000  0.56224000  1.0
  H  H51  1  0.52095000  0.13349000  0.43776000  1.0
  H  H52  1  0.09697000  0.09178000  0.82710000  1.0
  H  H53  1  0.90303000  0.90823000  0.17290000  1.0
  H  H54  1  0.90113000  0.16005000  0.87159000  1.0
  H  H55  1  0.09887000  0.83995000  0.12840000  1.0
  H  H56  1  0.85789000  0.34103000  0.86655000  1.0
  H  H57  1  0.14211000  0.65897000  0.13345000  1.0
  H  H58  1  0.01770000  0.45369000  0.81897000  1.0
  H  H59  1  0.98230000  0.54631000  0.18103000  1.0
  H  H60  1  0.21750000  0.38711000  0.77675000  1.0
  H  H61  1  0.78251000  0.61289000  0.22325000  1.0
  H  H62  1  0.43429000  0.32376000  0.86642000  1.0
  H  H63  1  0.56572000  0.67625000  0.13358000  1.0
  H  H64  1  0.61420000  0.48008000  0.91968000  1.0
  H  H65  1  0.38581000  0.51992000  0.08032000  1.0
  H  H66  1  0.80583000  0.57464000  0.87562000  1.0
  H  H67  1  0.19418000  0.42536000  0.12438000  1.0
  H  H68  1  0.81145000  0.51303000  0.77749000  1.0
  H  H69  1  0.18856000  0.48697000  0.22251000  1.0
  H  H70  1  0.63064000  0.35771000  0.72430000  1.0
  H  H71  1  0.36937000  0.64229000  0.27570000  1.0
  H  H72  1  0.88108000  0.81812000  0.42538000  1.0
  H  H73  1  0.11889000  0.18186000  0.57462000  1.0
  H  H74  1  0.94927000  0.93192000  0.35979000  1.0
  H  H75  1  0.05071000  0.06807000  0.64021000  1.0
  H  H76  1  0.29297000  0.75953000  0.32503000  1.0
  H  H77  1  0.70702000  0.24047000  0.67497000  1.0
  H  H78  1  0.22475000  0.64738000  0.39081000  1.0
  H  H79  1  0.77523000  0.35261000  0.60919000  1.0
  H  H80  1  0.46411000  0.15988000  0.23377000  1.0
  H  H81  1  0.53590000  0.84012000  0.76623000  1.0
  H  H82  1  0.66120000  0.18024000  0.17691000  1.0
  H  H83  1  0.33880000  0.81976000  0.82309000  1.0
  H  H84  1  0.69295000  0.02727000  0.11017000  1.0
  H  H85  1  0.30704000  0.97273000  0.88983000  1.0
  H  H86  1  0.52996000  0.85212000  0.10188000  1.0
  H  H87  1  0.47004000  0.14788000  0.89812000  1.0
  H  H88  1  0.33786000  0.83085000  0.16018000  1.0
  H  H89  1  0.66214000  0.16915000  0.83983000  1.0
  H  H90  1  0.03703000  0.18921000  0.29463000  1.0
  H  H91  1  0.96297000  0.81079000  0.70537000  1.0
  H  H92  1  0.93140000  0.32507000  0.25281000  1.0
  H  H93  1  0.06861000  0.67493000  0.74720000  1.0
  H  H94  1  0.93617000  0.32970000  0.15544000  1.0
  H  H95  1  0.06383000  0.67030000  0.84457000  1.0
  H  H96  1  0.04869000  0.19861000  0.09969000  1.0
  H  H97  1  0.95131000  0.80138000  0.90031000  1.0
  H  H98  1  0.15144000  0.06200000  0.14153000  1.0
  H  H99  1  0.84856000  0.93800000  0.85847000  1.0
  C  C100  1  0.51242000  0.48819000  0.59508000  1.0
  C  C101  1  0.48759000  0.51181000  0.40492000  1.0
  C  C102  1  0.49623000  0.53062000  0.65193000  1.0
  C  C103  1  0.50377000  0.46937000  0.34807000  1.0
  C  C104  1  0.61594000  0.59998000  0.68664000  1.0
  C  C105  1  0.38406000  0.40002000  0.31336000  1.0
  C  C106  1  0.60277000  0.64119000  0.73948000  1.0
  C  C107  1  0.39723000  0.35880000  0.26053000  1.0
  C  C108  1  0.47051000  0.61284000  0.75942000  1.0
  C  C109  1  0.52949000  0.38716000  0.24058000  1.0
  C  C110  1  0.34927000  0.54557000  0.72392000  1.0
  C  C111  1  0.65072000  0.45442000  0.27608000  1.0
  C  C112  1  0.36199000  0.50516000  0.67080000  1.0
  C  C113  1  0.63801000  0.49484000  0.32920000  1.0
  C  C114  1  0.46075000  0.64928000  0.81600000  1.0
  C  C115  1  0.53926000  0.35072000  0.18400000  1.0
  C  C116  1  0.53414000  0.73120000  0.90247000  1.0
  C  C117  1  0.46586000  0.26880000  0.09753000  1.0
  C  C118  1  0.38683000  0.67827000  0.89413000  1.0
  C  C119  1  0.61317000  0.32173000  0.10587000  1.0
  C  C120  1  0.28413000  0.67813000  0.93316000  1.0
  C  C121  1  0.71587000  0.32187000  0.06684000  1.0
  C  C122  1  0.16853000  0.59115000  0.92750000  1.0
  C  C123  1  0.83147000  0.40885000  0.07250000  1.0
  C  C124  1  0.06428000  0.59146000  0.96217000  1.0
  C  C125  1  0.93572000  0.40854000  0.03783000  1.0
  C  C126  1  0.07562000  0.67770000  0.00425000  1.0
  C  C127  1  0.92437000  0.32230000  0.99574000  1.0
  C  C128  1  0.19169000  0.76396000  0.01083000  1.0
  C  C129  1  0.80831000  0.23603000  0.98917000  1.0
  C  C130  1  0.29415000  0.76503000  0.97537000  1.0
  C  C131  1  0.70585000  0.23497000  0.02463000  1.0
  C  C132  1  0.63559000  0.79122000  0.95114000  1.0
  C  C133  1  0.36441000  0.20878000  0.04886000  1.0
  C  C134  1  0.65929000  0.74476000  0.99682000  1.0
  C  C135  1  0.34071000  0.25525000  0.00318000  1.0
  C  C136  1  0.75712000  0.79965000  0.04328000  1.0
  C  C137  1  0.24288000  0.20035000  0.95672000  1.0
  C  C138  1  0.83291000  0.90170000  0.04476000  1.0
  C  C139  1  0.16709000  0.09831000  0.95524000  1.0
  C  C140  1  0.80891000  0.94912000  0.99978000  1.0
  C  C141  1  0.19108000  0.05089000  0.00021000  1.0
  C  C142  1  0.71056000  0.89439000  0.95319000  1.0
  C  C143  1  0.28944000  0.10562000  0.04681000  1.0
  C  C144  1  0.31371000  0.67783000  0.56917000  1.0
  C  C145  1  0.68629000  0.32217000  0.43083000  1.0
  C  C146  1  0.33757000  0.78073000  0.60735000  1.0
  C  C147  1  0.66243000  0.21927000  0.39265000  1.0
  C  C148  1  0.26607000  0.78775000  0.65287000  1.0
  C  C149  1  0.73393000  0.21225000  0.34713000  1.0
  C  C150  1  0.27340000  0.88440000  0.68596000  1.0
  C  C151  1  0.72660000  0.11560000  0.31405000  1.0
  C  C152  1  0.35283000  0.97699000  0.67460000  1.0
  C  C153  1  0.64717000  0.02301000  0.32540000  1.0
  C  C154  1  0.43021000  0.96954000  0.63049000  1.0
  C  C155  1  0.56979000  0.03046000  0.36951000  1.0
  C  C156  1  0.42241000  0.87219000  0.59727000  1.0
  C  C157  1  0.57759000  0.12781000  0.40273000  1.0
  C  C158  1  0.35351000  0.07685000  0.70961000  1.0
  C  C159  1  0.64649000  0.92316000  0.29039000  1.0
  C  C160  1  0.27612000  0.19185000  0.76883000  1.0
  C  C161  1  0.72389000  0.80815000  0.23117000  1.0
  C  C162  1  0.41878000  0.23348000  0.76117000  1.0
  C  C163  1  0.58122000  0.76652000  0.23883000  1.0
  C  C164  1  0.16903000  0.23465000  0.79853000  1.0
  C  C165  1  0.83098000  0.76535000  0.20147000  1.0
  C  C166  1  0.07929000  0.17127000  0.82553000  1.0
  C  C167  1  0.92072000  0.82874000  0.17447000  1.0
  C  C168  1  0.96944000  0.20987000  0.85050000  1.0
  C  C169  1  0.03056000  0.79013000  0.14950000  1.0
  C  C170  1  0.94602000  0.31133000  0.84817000  1.0
  C  C171  1  0.05398000  0.68867000  0.15183000  1.0
  C  C172  1  0.03593000  0.37487000  0.82160000  1.0
  C  C173  1  0.96408000  0.62513000  0.17839000  1.0
  C  C174  1  0.14773000  0.33769000  0.79752000  1.0
  C  C175  1  0.85227000  0.66231000  0.20247000  1.0
  C  C176  1  0.52008000  0.32938000  0.79154000  1.0
  C  C177  1  0.47993000  0.67063000  0.20846000  1.0
  C  C178  1  0.51636000  0.36588000  0.84683000  1.0
  C  C179  1  0.48365000  0.63412000  0.15317000  1.0
  C  C180  1  0.61796000  0.45354000  0.87677000  1.0
  C  C181  1  0.38205000  0.54646000  0.12323000  1.0
  C  C182  1  0.72541000  0.50660000  0.85212000  1.0
  C  C183  1  0.27460000  0.49340000  0.14788000  1.0
  C  C184  1  0.72933000  0.47147000  0.79725000  1.0
  C  C185  1  0.27068000  0.52853000  0.20275000  1.0
  C  C186  1  0.62805000  0.38373000  0.76725000  1.0
  C  C187  1  0.37196000  0.61628000  0.23275000  1.0
  C  C188  1  0.00275000  0.65840000  0.45114000  1.0
  C  C189  1  0.99724000  0.34160000  0.54886000  1.0
  C  C190  1  0.04795000  0.72567000  0.41211000  1.0
  C  C191  1  0.95203000  0.27432000  0.58788000  1.0
  C  C192  1  0.97099000  0.80616000  0.40302000  1.0
  C  C193  1  0.02899000  0.19382000  0.59697000  1.0
  C  C194  1  0.00815000  0.86882000  0.36614000  1.0
  C  C195  1  0.99183000  0.13117000  0.63386000  1.0
  C  C196  1  0.12310000  0.85200000  0.33674000  1.0
  C  C197  1  0.87689000  0.14799000  0.66326000  1.0
  C  C198  1  0.20172000  0.77227000  0.34660000  1.0
  C  C199  1  0.79827000  0.22772000  0.65339000  1.0
  C  C200  1  0.16443000  0.70959000  0.38370000  1.0
  C  C201  1  0.83556000  0.29040000  0.61630000  1.0
  C  C202  1  0.15770000  0.91666000  0.29714000  1.0
  C  C203  1  0.84230000  0.08334000  0.70287000  1.0
  C  C204  1  0.15545000  0.03398000  0.24570000  1.0
  C  C205  1  0.84455000  0.96602000  0.75431000  1.0
  C  C206  1  0.27200000  0.98258000  0.23508000  1.0
  C  C207  1  0.72800000  0.01742000  0.76492000  1.0
  C  C208  1  0.38429000  0.99503000  0.19978000  1.0
  C  C209  1  0.61572000  0.00497000  0.80023000  1.0
  C  C210  1  0.47688000  0.09312000  0.20404000  1.0
  C  C211  1  0.52312000  0.90688000  0.79596000  1.0
  C  C212  1  0.58806000  0.10418000  0.17238000  1.0
  C  C213  1  0.41194000  0.89582000  0.82762000  1.0
  C  C214  1  0.60698000  0.01804000  0.13527000  1.0
  C  C215  1  0.39302000  0.98196000  0.86473000  1.0
  C  C216  1  0.51554000  0.91991000  0.13064000  1.0
  C  C217  1  0.48446000  0.08009000  0.86936000  1.0
  C  C218  1  0.40605000  0.90816000  0.16296000  1.0
  C  C219  1  0.59395000  0.09184000  0.83704000  1.0
  C  C220  1  0.10094000  0.11617000  0.22098000  1.0
  C  C221  1  0.89905000  0.88383000  0.77902000  1.0
  C  C222  1  0.03832000  0.19129000  0.25187000  1.0
  C  C223  1  0.96168000  0.80871000  0.74813000  1.0
  C  C224  1  0.98044000  0.26772000  0.22843000  1.0
  C  C225  1  0.01956000  0.73228000  0.77157000  1.0
  C  C226  1  0.98443000  0.27126000  0.17379000  1.0
  C  C227  1  0.01556000  0.72875000  0.82621000  1.0
  C  C228  1  0.04721000  0.19746000  0.14264000  1.0
  C  C229  1  0.95279000  0.80254000  0.85736000  1.0
  C  C230  1  0.10488000  0.12060000  0.16603000  1.0
  C  C231  1  0.89512000  0.87940000  0.83397000  1.0
  N  N232  1  0.57715000  0.71214000  0.85265000  1.0
  N  N233  1  0.42285000  0.28786000  0.14735000  1.0
  N  N234  1  0.34375000  0.62780000  0.84052000  1.0
  N  N235  1  0.65625000  0.37219000  0.15948000  1.0
  N  N236  1  0.26955000  0.90892000  0.26769000  1.0
  N  N237  1  0.73045000  0.09108000  0.73231000  1.0
  N  N238  1  0.08530000  0.99156000  0.28391000  1.0
  N  N239  1  0.91470000  0.00845000  0.71609000  1.0
  N  N240  1  0.46336000  0.16166000  0.72344000  1.0
  N  N241  1  0.53664000  0.83834000  0.27656000  1.0
  N  N242  1  0.23938000  0.09267000  0.73692000  1.0
  N  N243  1  0.76063000  0.90733000  0.26308000  1.0
  O  O244  1  0.64273000  0.50031000  0.58353000  1.0
  O  O245  1  0.35727000  0.49969000  0.41647000  1.0
  O  O246  1  0.39735000  0.44321000  0.56071000  1.0
  O  O247  1  0.60265000  0.55679000  0.43929000  1.0
  O  O248  1  0.20356000  0.60625000  0.57164000  1.0
  O  O249  1  0.79644000  0.39375000  0.42836000  1.0
  O  O250  1  0.39604000  0.66066000  0.53342000  1.0
  O  O251  1  0.60396000  0.33934000  0.46658000  1.0
  O  O252  1  0.06271000  0.57865000  0.45574000  1.0
  O  O253  1  0.93729000  0.42135000  0.54426000  1.0
  O  O254  1  0.90207000  0.68056000  0.47803000  1.0
  O  O255  1  0.09793000  0.31944000  0.52197000  1.0
  O  O256  1  0.30831000  0.29251000  0.45812000  1.0
  O  O257  1  0.69169000  0.70749000  0.54188000  1.0
  O  O258  1  0.05253000  0.35810000  0.40577000  1.0
  O  O259  1  0.94747000  0.64190000  0.59423000  1.0
