# generated using pymatgen
data_ZnH9C13NO5
_symmetry_space_group_name_H-M   'P 1'
_cell_length_a   6.39769000
_cell_length_b   13.20150000
_cell_length_c   15.33140000
_cell_angle_alpha   68.90700000
_cell_angle_beta   89.99870000
_cell_angle_gamma   89.99910000
_symmetry_Int_Tables_number   1
_chemical_formula_structural   ZnH9C13NO5
_chemical_formula_sum   'Zn4 H36 C52 N4 O20'
_cell_volume   1208.11637725
_cell_formula_units_Z   4
loop_
 _symmetry_equiv_pos_site_id
 _symmetry_equiv_pos_as_xyz
  1  'x, y, z'
loop_
 _atom_site_type_symbol
 _atom_site_label
 _atom_site_symmetry_multiplicity
 _atom_site_fract_x
 _atom_site_fract_y
 _atom_site_fract_z
 _atom_site_occupancy
  Zn  Zn0  1  0.13662000  0.72181000  0.39489000  1.0
  Zn  Zn1  1  0.13663000  0.77818000  0.10511000  1.0
  Zn  Zn2  1  0.86337000  0.27819000  0.60511000  1.0
  Zn  Zn3  1  0.86340000  0.22182000  0.89489000  1.0
  H  H4  1  0.36928000  0.30043000  0.49283000  1.0
  H  H5  1  0.36927000  0.19956000  0.00717000  1.0
  H  H6  1  0.63070000  0.69956000  0.50718000  1.0
  H  H7  1  0.63075000  0.80044000  0.99283000  1.0
  H  H8  1  0.39321000  0.16918000  0.41574000  1.0
  H  H9  1  0.39320000  0.33081000  0.08425000  1.0
  H  H10  1  0.60677000  0.83081000  0.58426000  1.0
  H  H11  1  0.60679000  0.66918000  0.91576000  1.0
  H  H12  1  0.42038000  0.43222000  0.14836000  1.0
  H  H13  1  0.42039000  0.06778000  0.35163000  1.0
  H  H14  1  0.57962000  0.56778000  0.85165000  1.0
  H  H15  1  0.57959000  0.93221000  0.64837000  1.0
  H  H16  1  0.12500000  0.89519000  0.46945000  1.0
  H  H17  1  0.12503000  0.60481000  0.03055000  1.0
  H  H18  1  0.87496000  0.10482000  0.53054000  1.0
  H  H19  1  0.87498000  0.39519000  0.96944000  1.0
  H  H20  1  0.10747000  0.91908000  0.62312000  1.0
  H  H21  1  0.10750000  0.58090000  0.87689000  1.0
  H  H22  1  0.89249000  0.08092000  0.37688000  1.0
  H  H23  1  0.89250000  0.41910000  0.12310000  1.0
  H  H24  1  0.10482000  0.56740000  0.75254000  1.0
  H  H25  1  0.10482000  0.93258000  0.74746000  1.0
  H  H26  1  0.89520000  0.43260000  0.24746000  1.0
  H  H27  1  0.89520000  0.06742000  0.25254000  1.0
  H  H28  1  0.13155000  0.56079000  0.59426000  1.0
  H  H29  1  0.13157000  0.93921000  0.90573000  1.0
  H  H30  1  0.86844000  0.43922000  0.40573000  1.0
  H  H31  1  0.86846000  0.06080000  0.09427000  1.0
  H  H32  1  0.77918000  0.63179000  0.41621000  1.0
  H  H33  1  0.77920000  0.86821000  0.08378000  1.0
  H  H34  1  0.22081000  0.36821000  0.58378000  1.0
  H  H35  1  0.22084000  0.13179000  0.91621000  1.0
  H  H36  1  0.73613000  0.75476000  0.34431000  1.0
  H  H37  1  0.73614000  0.74525000  0.15569000  1.0
  H  H38  1  0.26386000  0.24524000  0.65569000  1.0
  H  H39  1  0.26388000  0.25476000  0.84431000  1.0
  C  C40  1  0.30970000  0.51808000  0.41439000  1.0
  C  C41  1  0.30970000  0.98191000  0.08561000  1.0
  C  C42  1  0.69030000  0.48191000  0.58562000  1.0
  C  C43  1  0.69032000  0.01809000  0.91438000  1.0
  C  C44  1  0.36606000  0.44165000  0.36572000  1.0
  C  C45  1  0.36606000  0.05834000  0.13428000  1.0
  C  C46  1  0.63393000  0.55834000  0.63429000  1.0
  C  C47  1  0.63395000  0.94166000  0.86572000  1.0
  C  C48  1  0.37773000  0.32967000  0.41686000  1.0
  C  C49  1  0.37773000  0.17032000  0.08313000  1.0
  C  C50  1  0.62226000  0.67033000  0.58314000  1.0
  C  C51  1  0.62229000  0.82968000  0.91687000  1.0
  C  C52  1  0.39325000  0.25509000  0.37263000  1.0
  C  C53  1  0.39325000  0.24490000  0.12736000  1.0
  C  C54  1  0.60674000  0.74490000  0.62738000  1.0
  C  C55  1  0.60676000  0.75510000  0.87264000  1.0
  C  C56  1  0.40336000  0.28910000  0.27440000  1.0
  C  C57  1  0.40336000  0.21090000  0.22560000  1.0
  C  C58  1  0.59663000  0.71090000  0.72561000  1.0
  C  C59  1  0.59663000  0.78910000  0.77440000  1.0
  C  C60  1  0.40675000  0.40133000  0.22426000  1.0
  C  C61  1  0.40676000  0.09867000  0.27573000  1.0
  C  C62  1  0.59325000  0.59867000  0.77574000  1.0
  C  C63  1  0.59324000  0.90133000  0.72427000  1.0
  C  C64  1  0.38626000  0.47717000  0.26792000  1.0
  C  C65  1  0.38626000  0.02283000  0.23207000  1.0
  C  C66  1  0.61374000  0.52282000  0.73209000  1.0
  C  C67  1  0.61374000  0.97718000  0.76793000  1.0
  C  C68  1  0.37146000  0.59378000  0.20278000  1.0
  C  C69  1  0.37147000  0.90622000  0.29722000  1.0
  C  C70  1  0.62854000  0.40622000  0.79723000  1.0
  C  C71  1  0.62853000  0.09378000  0.70278000  1.0
  C  C72  1  0.11959000  0.82550000  0.53497000  1.0
  C  C73  1  0.11963000  0.67449000  0.96504000  1.0
  C  C74  1  0.88037000  0.17451000  0.46503000  1.0
  C  C75  1  0.88039000  0.32551000  0.03496000  1.0
  C  C76  1  0.10926000  0.83754000  0.62102000  1.0
  C  C77  1  0.10928000  0.66244000  0.87899000  1.0
  C  C78  1  0.89072000  0.16247000  0.37898000  1.0
  C  C79  1  0.89073000  0.33756000  0.12101000  1.0
  C  C80  1  0.10474000  0.74507000  0.70348000  1.0
  C  C81  1  0.10476000  0.75491000  0.79653000  1.0
  C  C82  1  0.89525000  0.25493000  0.29652000  1.0
  C  C83  1  0.89525000  0.24509000  0.20347000  1.0
  C  C84  1  0.10914000  0.64371000  0.69325000  1.0
  C  C85  1  0.10915000  0.85628000  0.80675000  1.0
  C  C86  1  0.89086000  0.35630000  0.30674000  1.0
  C  C87  1  0.89087000  0.14373000  0.19325000  1.0
  C  C88  1  0.12154000  0.63800000  0.60473000  1.0
  C  C89  1  0.12156000  0.86199000  0.89527000  1.0
  C  C90  1  0.87845000  0.36201000  0.39526000  1.0
  C  C91  1  0.87846000  0.13802000  0.10473000  1.0
  N  N92  1  0.12686000  0.72742000  0.52655000  1.0
  N  N93  1  0.12688000  0.77257000  0.97346000  1.0
  N  N94  1  0.87312000  0.27259000  0.47345000  1.0
  N  N95  1  0.87314000  0.22743000  0.02654000  1.0
  O  O96  1  0.31037000  0.61962000  0.36271000  1.0
  O  O97  1  0.31037000  0.88037000  0.13729000  1.0
  O  O98  1  0.68962000  0.38038000  0.63729000  1.0
  O  O99  1  0.68964000  0.11963000  0.86271000  1.0
  O  O100  1  0.25475000  0.48246000  0.49897000  1.0
  O  O101  1  0.25475000  0.01753000  0.00104000  1.0
  O  O102  1  0.74526000  0.51754000  0.50104000  1.0
  O  O103  1  0.74529000  0.98247000  0.99896000  1.0
  O  O104  1  0.18042000  0.62498000  0.18084000  1.0
  O  O105  1  0.18042000  0.87501000  0.31916000  1.0
  O  O106  1  0.81958000  0.37502000  0.81916000  1.0
  O  O107  1  0.81957000  0.12499000  0.68083000  1.0
  O  O108  1  0.53280000  0.64589000  0.16784000  1.0
  O  O109  1  0.53281000  0.85412000  0.33217000  1.0
  O  O110  1  0.46720000  0.35411000  0.83218000  1.0
  O  O111  1  0.46718000  0.14587000  0.66783000  1.0
  O  O112  1  0.84038000  0.69538000  0.36406000  1.0
  O  O113  1  0.84039000  0.80462000  0.13593000  1.0
  O  O114  1  0.15960000  0.30462000  0.63594000  1.0
  O  O115  1  0.15963000  0.19538000  0.86406000  1.0
