# generated using pymatgen
data_CuH26C32(NO2)6
_symmetry_space_group_name_H-M   'P 1'
_cell_length_a   8.11125000
_cell_length_b   9.73458000
_cell_length_c   11.32517170
_cell_angle_alpha   65.64839194
_cell_angle_beta   78.48127792
_cell_angle_gamma   73.37790000
_symmetry_Int_Tables_number   1
_chemical_formula_structural   CuH26C32(NO2)6
_chemical_formula_sum   'Cu1 H26 C32 N6 O12'
_cell_volume   777.20076529
_cell_formula_units_Z   1
loop_
 _symmetry_equiv_pos_site_id
 _symmetry_equiv_pos_as_xyz
  1  'x, y, z'
loop_
 _atom_site_type_symbol
 _atom_site_label
 _atom_site_symmetry_multiplicity
 _atom_site_fract_x
 _atom_site_fract_y
 _atom_site_fract_z
 _atom_site_occupancy
  Cu  Cu0  1  0.00000000  0.00000000  0.50000000  1.0
  H  H1  1  0.71513000  0.95749000  0.45862000  1.0
  H  H2  1  0.28488000  0.04251000  0.54138000  1.0
  H  H3  1  0.58773000  0.05980000  0.53430000  1.0
  H  H4  1  0.41228000  0.94020000  0.46570000  1.0
  H  H5  1  0.14881000  0.43226000  0.09518000  1.0
  H  H6  1  0.85121000  0.56774000  0.90482000  1.0
  H  H7  1  0.54640000  0.85441000  0.86571000  1.0
  H  H8  1  0.45360000  0.14559000  0.13429000  1.0
  H  H9  1  0.23654000  0.47090000  0.88717000  1.0
  H  H10  1  0.76347000  0.52911000  0.11282000  1.0
  H  H11  1  0.24553000  0.10785000  0.86223000  1.0
  H  H12  1  0.75446000  0.89214000  0.13778000  1.0
  H  H13  1  0.74937000  0.22744000  0.59896000  1.0
  H  H14  1  0.25063000  0.77257000  0.40103000  1.0
  H  H15  1  0.56896000  0.79417000  0.68049000  1.0
  H  H16  1  0.43103000  0.20584000  0.31951000  1.0
  H  H17  1  0.67939000  0.51496000  0.53657000  1.0
  H  H18  1  0.32062000  0.48505000  0.46343000  1.0
  H  H19  1  0.12468000  0.25070000  0.28906000  1.0
  H  H20  1  0.87531000  0.74931000  0.71093000  1.0
  H  H21  1  0.86029000  0.67354000  0.35087000  1.0
  H  H22  1  0.13971000  0.32646000  0.64913000  1.0
  H  H23  1  0.35896000  0.75200000  0.05525000  1.0
  H  H24  1  0.64105000  0.24800000  0.94475000  1.0
  H  H25  1  0.42009000  0.59248000  0.68492000  1.0
  H  H26  1  0.57991000  0.40753000  0.31507000  1.0
  C  C27  1  0.04036000  0.00462000  0.87163000  1.0
  C  C28  1  0.95964000  0.99536000  0.12838000  1.0
  C  C29  1  0.30138000  0.55829000  0.87987000  1.0
  C  C30  1  0.69862000  0.44171000  0.12013000  1.0
  C  C31  1  0.13709000  0.06095000  0.92361000  1.0
  C  C32  1  0.86291000  0.93904000  0.07639000  1.0
  C  C33  1  0.00887000  0.47427000  0.30624000  1.0
  C  C34  1  0.99113000  0.52573000  0.69376000  1.0
  C  C35  1  0.79616000  0.86586000  0.91006000  1.0
  C  C36  1  0.20384000  0.13413000  0.08995000  1.0
  C  C37  1  0.28189000  0.60080000  0.98751000  1.0
  C  C38  1  0.71811000  0.39920000  0.01249000  1.0
  C  C39  1  0.81533000  0.30208000  0.51332000  1.0
  C  C40  1  0.18468000  0.69792000  0.48668000  1.0
  C  C41  1  0.08674000  0.01895000  0.73245000  1.0
  C  C42  1  0.91326000  0.98104000  0.26756000  1.0
  C  C43  1  0.90150000  0.94172000  0.94990000  1.0
  C  C44  1  0.09849000  0.05827000  0.05011000  1.0
  C  C45  1  0.48680000  0.73420000  0.76397000  1.0
  C  C46  1  0.51321000  0.26581000  0.23602000  1.0
  C  C47  1  0.77954000  0.46191000  0.47865000  1.0
  C  C48  1  0.22045000  0.53809000  0.52135000  1.0
  C  C49  1  0.03045000  0.31524000  0.34150000  1.0
  C  C50  1  0.96955000  0.68477000  0.65849000  1.0
  C  C51  1  0.87948000  0.54930000  0.37599000  1.0
  C  C52  1  0.12053000  0.45070000  0.62401000  1.0
  C  C53  1  0.36793000  0.71207000  0.97724000  1.0
  C  C54  1  0.63207000  0.28791000  0.02277000  1.0
  C  C55  1  0.12859000  0.56508000  0.20482000  1.0
  C  C56  1  0.87141000  0.43494000  0.79517000  1.0
  C  C57  1  0.40400000  0.62526000  0.76824000  1.0
  C  C58  1  0.59600000  0.37475000  0.23176000  1.0
  N  N59  1  0.93789000  0.23117000  0.44475000  1.0
  N  N60  1  0.06212000  0.76883000  0.55524000  1.0
  N  N61  1  0.18091000  0.52755000  0.09756000  1.0
  N  N62  1  0.81909000  0.47246000  0.90243000  1.0
  N  N63  1  0.46637000  0.77324000  0.86754000  1.0
  N  N64  1  0.53362000  0.22676000  0.13246000  1.0
  O  O65  1  0.98977000  0.97296000  0.68610000  1.0
  O  O66  1  0.01023000  0.02703000  0.31391000  1.0
  O  O67  1  0.21511000  0.07597000  0.66976000  1.0
  O  O68  1  0.78488000  0.92403000  0.33025000  1.0
  O  O69  1  0.17352000  0.66635000  0.22204000  1.0
  O  O70  1  0.82645000  0.33367000  0.77794000  1.0
  O  O71  1  0.64839000  0.94531000  0.87084000  1.0
  O  O72  1  0.35161000  0.05468000  0.12917000  1.0
  O  O73  1  0.85880000  0.72411000  0.92936000  1.0
  O  O74  1  0.14120000  0.27587000  0.07065000  1.0
  O  O75  1  0.68497000  0.97112000  0.54527000  1.0
  O  O76  1  0.31504000  0.02888000  0.45473000  1.0
