# generated using pymatgen
data_CdH10C7N12
_symmetry_space_group_name_H-M   'P 1'
_cell_length_a   11.01550000
_cell_length_b   11.03688013
_cell_length_c   12.76480000
_cell_angle_alpha   74.64576468
_cell_angle_beta   89.99980000
_cell_angle_gamma   60.06417912
_symmetry_Int_Tables_number   1
_chemical_formula_structural   CdH10C7N12
_chemical_formula_sum   'Cd4 H40 C28 N48'
_cell_volume   1280.53976043
_cell_formula_units_Z   4
loop_
 _symmetry_equiv_pos_site_id
 _symmetry_equiv_pos_as_xyz
  1  'x, y, z'
loop_
 _atom_site_type_symbol
 _atom_site_label
 _atom_site_symmetry_multiplicity
 _atom_site_fract_x
 _atom_site_fract_y
 _atom_site_fract_z
 _atom_site_occupancy
  Cd  Cd0  1  0.15599000  0.00000000  0.75000000  1.0
  Cd  Cd1  1  0.84401000  0.00000000  0.25000000  1.0
  Cd  Cd2  1  0.00000000  0.00000000  0.50000000  1.0
  Cd  Cd3  1  0.00000000  0.00000000  0.00000000  1.0
  H  H4  1  0.82136000  0.55036000  0.98682000  1.0
  H  H5  1  0.37172000  0.44964000  0.51318000  1.0
  H  H6  1  0.17864000  0.44964000  0.01317000  1.0
  H  H7  1  0.62828000  0.55037000  0.48682000  1.0
  H  H8  1  0.78978000  0.71366000  0.88781000  1.0
  H  H9  1  0.50345000  0.28633000  0.61220000  1.0
  H  H10  1  0.21022000  0.28634000  0.11219000  1.0
  H  H11  1  0.49655000  0.71367000  0.38781000  1.0
  H  H12  1  0.83310000  0.43554000  0.84083000  1.0
  H  H13  1  0.26864000  0.56446000  0.65917000  1.0
  H  H14  1  0.16690000  0.56446000  0.15916000  1.0
  H  H15  1  0.73136000  0.43554000  0.34083000  1.0
  H  H16  1  0.95744000  0.49311000  0.83629000  1.0
  H  H17  1  0.45056000  0.50688000  0.66371000  1.0
  H  H18  1  0.04256000  0.50689000  0.16371000  1.0
  H  H19  1  0.54944000  0.49312000  0.33629000  1.0
  H  H20  1  0.83468000  0.54633000  0.64933000  1.0
  H  H21  1  0.38100000  0.45367000  0.85067000  1.0
  H  H22  1  0.16531000  0.45368000  0.35067000  1.0
  H  H23  1  0.61899000  0.54633000  0.14933000  1.0
  H  H24  1  0.66843000  0.66102000  0.68274000  1.0
  H  H25  1  0.32944000  0.33898000  0.81726000  1.0
  H  H26  1  0.33157000  0.33899000  0.31725000  1.0
  H  H27  1  0.67055000  0.66102000  0.18275000  1.0
  H  H28  1  0.35351000  0.64685000  0.88642000  1.0
  H  H29  1  0.00036000  0.35316000  0.61358000  1.0
  H  H30  1  0.64648000  0.35316000  0.11358000  1.0
  H  H31  1  0.99964000  0.64684000  0.38642000  1.0
  H  H32  1  0.53065000  0.91415000  0.83703000  1.0
  H  H33  1  0.44480000  0.08585000  0.66297000  1.0
  H  H34  1  0.46935000  0.08585000  0.16297000  1.0
  H  H35  1  0.55519000  0.91415000  0.33703000  1.0
  H  H36  1  0.71479000  0.07073000  0.63161000  1.0
  H  H37  1  0.78552000  0.92927000  0.86839000  1.0
  H  H38  1  0.28521000  0.92927000  0.36839000  1.0
  H  H39  1  0.21448000  0.07073000  0.13161000  1.0
  H  H40  1  0.00023000  0.65452000  0.59975000  1.0
  H  H41  1  0.65475000  0.34548000  0.90025000  1.0
  H  H42  1  0.99977000  0.34548000  0.40025000  1.0
  H  H43  1  0.34525000  0.65452000  0.09975000  1.0
  C  C44  1  0.77463000  0.62026000  0.90144000  1.0
  C  C45  1  0.39489000  0.37973000  0.59856000  1.0
  C  C46  1  0.22538000  0.37973000  0.09856000  1.0
  C  C47  1  0.60511000  0.62027000  0.40144000  1.0
  C  C48  1  0.84360000  0.53272000  0.82187000  1.0
  C  C49  1  0.37632000  0.46728000  0.67814000  1.0
  C  C50  1  0.15640000  0.46728000  0.17813000  1.0
  C  C51  1  0.62368000  0.53272000  0.32187000  1.0
  C  C52  1  0.78260000  0.61799000  0.70045000  1.0
  C  C53  1  0.40059000  0.38201000  0.79955000  1.0
  C  C54  1  0.21740000  0.38201000  0.29955000  1.0
  C  C55  1  0.59941000  0.61799000  0.20045000  1.0
  C  C56  1  0.42951000  0.68241000  0.88091000  1.0
  C  C57  1  0.11192000  0.31759000  0.61909000  1.0
  C  C58  1  0.57049000  0.31759000  0.11909000  1.0
  C  C59  1  0.88808000  0.68241000  0.38091000  1.0
  C  C60  1  0.51509000  0.82148000  0.85483000  1.0
  C  C61  1  0.33657000  0.17852000  0.64517000  1.0
  C  C62  1  0.48491000  0.17852000  0.14517000  1.0
  C  C63  1  0.66343000  0.82148000  0.35483000  1.0
  C  C64  1  0.76387000  0.95681000  0.63430000  1.0
  C  C65  1  0.72068000  0.04319000  0.86570000  1.0
  C  C66  1  0.23613000  0.04319000  0.36570000  1.0
  C  C67  1  0.27932000  0.95681000  0.13430000  1.0
  C  C68  1  0.91052000  0.74790000  0.61639000  1.0
  C  C69  1  0.65841000  0.25210000  0.88361000  1.0
  C  C70  1  0.08948000  0.25210000  0.38361000  1.0
  C  C71  1  0.34159000  0.74790000  0.11639000  1.0
  N  N72  1  0.62162000  0.68035000  0.88948000  1.0
  N  N73  1  0.30198000  0.31965000  0.61052000  1.0
  N  N74  1  0.37838000  0.31965000  0.11052000  1.0
  N  N75  1  0.69802000  0.68035000  0.38948000  1.0
  N  N76  1  0.56864000  0.58952000  0.90677000  1.0
  N  N77  1  0.15816000  0.41048000  0.59323000  1.0
  N  N78  1  0.43136000  0.41048000  0.09323000  1.0
  N  N79  1  0.84184000  0.58952000  0.40677000  1.0
  N  N80  1  0.39114000  0.82660000  0.84834000  1.0
  N  N81  1  0.21773000  0.17340000  0.65166000  1.0
  N  N82  1  0.60886000  0.17340000  0.15166000  1.0
  N  N83  1  0.78226000  0.82660000  0.34834000  1.0
  N  N84  1  0.80213000  0.74303000  0.66150000  1.0
  N  N85  1  0.54516000  0.25696000  0.83851000  1.0
  N  N86  1  0.19788000  0.25697000  0.33850000  1.0
  N  N87  1  0.45485000  0.74303000  0.16150000  1.0
  N  N88  1  0.70741000  0.87579000  0.67433000  1.0
  N  N89  1  0.58321000  0.12420000  0.82567000  1.0
  N  N90  1  0.29259000  0.12421000  0.32567000  1.0
  N  N91  1  0.41679000  0.87580000  0.17433000  1.0
  N  N92  1  0.88867000  0.88293000  0.59748000  1.0
  N  N93  1  0.77160000  0.11707000  0.90252000  1.0
  N  N94  1  0.11133000  0.11707000  0.40252000  1.0
  N  N95  1  0.22841000  0.88293000  0.09748000  1.0
  N  N96  1  0.94100000  0.14008000  0.62352000  1.0
  N  N97  1  0.08108000  0.85992000  0.87648000  1.0
  N  N98  1  0.05900000  0.85992000  0.37648000  1.0
  N  N99  1  0.91892000  0.14008000  0.12352000  1.0
  N  N100  1  0.83175000  0.24226000  0.63279000  1.0
  N  N101  1  0.07401000  0.75774000  0.86721000  1.0
  N  N102  1  0.16825000  0.75774000  0.36721000  1.0
  N  N103  1  0.92599000  0.24226000  0.13279000  1.0
  N  N104  1  0.72641000  0.34215000  0.64189000  1.0
  N  N105  1  0.06856000  0.65785000  0.85811000  1.0
  N  N106  1  0.27359000  0.65785000  0.35811000  1.0
  N  N107  1  0.93144000  0.34215000  0.14189000  1.0
  N  N108  1  0.21325000  0.85188000  0.63265000  1.0
  N  N109  1  0.06513000  0.14812000  0.86735000  1.0
  N  N110  1  0.78674000  0.14813000  0.36735000  1.0
  N  N111  1  0.93486000  0.85188000  0.13265000  1.0
  N  N112  1  0.33029000  0.81051000  0.60771000  1.0
  N  N113  1  0.14081000  0.18949000  0.89229000  1.0
  N  N114  1  0.66971000  0.18949000  0.39229000  1.0
  N  N115  1  0.85919000  0.81051000  0.10771000  1.0
  N  N116  1  0.44419000  0.76810000  0.58517000  1.0
  N  N117  1  0.21229000  0.23190000  0.91483000  1.0
  N  N118  1  0.55581000  0.23190000  0.41483000  1.0
  N  N119  1  0.78771000  0.76810000  0.08517000  1.0
