# generated using pymatgen
data_Al2H5C10ClO10
_symmetry_space_group_name_H-M   'P 1'
_cell_length_a   6.67787000
_cell_length_b   11.61060000
_cell_length_c   16.00570000
_cell_angle_alpha   101.05200000
_cell_angle_beta   89.99940000
_cell_angle_gamma   89.99950000
_symmetry_Int_Tables_number   1
_chemical_formula_structural   Al2H5C10ClO10
_chemical_formula_sum   'Al4 H10 C20 Cl2 O20'
_cell_volume   1217.97134616
_cell_formula_units_Z   2
loop_
 _symmetry_equiv_pos_site_id
 _symmetry_equiv_pos_as_xyz
  1  'x, y, z'
loop_
 _atom_site_type_symbol
 _atom_site_label
 _atom_site_symmetry_multiplicity
 _atom_site_fract_x
 _atom_site_fract_y
 _atom_site_fract_z
 _atom_site_occupancy
  Al  Al0  1  0.01509000  0.49749000  0.49476000  1.0
  Al  Al1  1  0.98493000  0.99748000  0.99475000  1.0
  Al  Al2  1  0.51503000  0.49881000  0.49780000  1.0
  Al  Al3  1  0.48497000  0.99881000  0.99779000  1.0
  H  H4  1  0.95765000  0.69290000  0.31443000  1.0
  H  H5  1  0.04236000  0.19291000  0.81443000  1.0
  H  H6  1  0.41509000  0.73176000  0.31322000  1.0
  H  H7  1  0.58491000  0.23177000  0.81322000  1.0
  H  H8  1  0.37450000  0.76202000  0.17910000  1.0
  H  H9  1  0.62547000  0.26203000  0.67909000  1.0
  H  H10  1  0.76757000  0.64386000  0.54768000  1.0
  H  H11  1  0.23240000  0.14386000  0.04767000  1.0
  H  H12  1  0.26543000  0.35706000  0.51619000  1.0
  H  H13  1  0.73456000  0.85705000  0.01618000  1.0
  C  C14  1  0.76840000  0.36720000  0.59803000  1.0
  C  C15  1  0.23161000  0.86720000  0.09803000  1.0
  C  C16  1  0.76111000  0.35832000  0.36437000  1.0
  C  C17  1  0.23892000  0.85833000  0.86436000  1.0
  C  C18  1  0.26588000  0.62811000  0.39598000  1.0
  C  C19  1  0.73411000  0.12812000  0.89598000  1.0
  C  C20  1  0.26260000  0.64317000  0.62858000  1.0
  C  C21  1  0.73740000  0.14319000  0.12858000  1.0
  C  C22  1  0.25581000  0.71901000  0.71163000  1.0
  C  C23  1  0.74420000  0.21904000  0.21163000  1.0
  C  C24  1  0.24537000  0.78135000  0.78165000  1.0
  C  C25  1  0.75467000  0.28135000  0.28164000  1.0
  C  C26  1  0.09759000  0.72421000  0.29130000  1.0
  C  C27  1  0.90242000  0.22421000  0.79130000  1.0
  C  C28  1  0.26871000  0.70045000  0.32921000  1.0
  C  C29  1  0.73131000  0.20046000  0.82921000  1.0
  C  C30  1  0.08024000  0.78979000  0.22254000  1.0
  C  C31  1  0.91975000  0.28979000  0.72253000  1.0
  C  C32  1  0.23170000  0.80256000  0.16860000  1.0
  C  C33  1  0.76830000  0.30257000  0.66860000  1.0
  Cl  Cl34  1  0.84387000  0.84949000  0.21676000  1.0
  Cl  Cl35  1  0.15613000  0.34947000  0.71674000  1.0
  O  O36  1  0.59243000  0.38960000  0.39775000  1.0
  O  O37  1  0.40760000  0.88963000  0.89773000  1.0
  O  O38  1  0.93567000  0.39276000  0.56799000  1.0
  O  O39  1  0.06431000  0.89278000  0.06800000  1.0
  O  O40  1  0.09394000  0.61507000  0.59365000  1.0
  O  O41  1  0.90601000  0.11510000  0.09362000  1.0
  O  O42  1  0.93296000  0.38711000  0.39532000  1.0
  O  O43  1  0.06705000  0.88710000  0.89532000  1.0
  O  O44  1  0.09611000  0.59661000  0.42001000  1.0
  O  O45  1  0.90390000  0.09658000  0.91999000  1.0
  O  O46  1  0.59538000  0.39140000  0.57135000  1.0
  O  O47  1  0.40459000  0.89138000  0.07134000  1.0
  O  O48  1  0.76513000  0.56981000  0.50745000  1.0
  O  O49  1  0.23485000  0.06980000  0.00745000  1.0
  O  O50  1  0.43546000  0.60334000  0.42454000  1.0
  O  O51  1  0.56456000  0.10336000  0.92455000  1.0
  O  O52  1  0.43531000  0.61223000  0.59874000  1.0
  O  O53  1  0.56468000  0.11223000  0.09873000  1.0
  O  O54  1  0.26550000  0.42743000  0.49184000  1.0
  O  O55  1  0.73450000  0.92743000  0.99185000  1.0
