# generated using pymatgen
data_Sr2PH8C5NO8
_symmetry_space_group_name_H-M   'P 1'
_cell_length_a   6.86219000
_cell_length_b   7.20719000
_cell_length_c   11.47080000
_cell_angle_alpha   96.13680000
_cell_angle_beta   103.87300000
_cell_angle_gamma   94.98210000
_symmetry_Int_Tables_number   1
_chemical_formula_structural   Sr2PH8C5NO8
_chemical_formula_sum   'Sr4 P2 H16 C10 N2 O16'
_cell_volume   543.87731040
_cell_formula_units_Z   2
loop_
 _symmetry_equiv_pos_site_id
 _symmetry_equiv_pos_as_xyz
  1  'x, y, z'
loop_
 _atom_site_type_symbol
 _atom_site_label
 _atom_site_symmetry_multiplicity
 _atom_site_fract_x
 _atom_site_fract_y
 _atom_site_fract_z
 _atom_site_occupancy
  Sr  Sr0  1  0.80473000  0.66478000  0.91990000  1.0
  Sr  Sr1  1  0.19527000  0.33522000  0.08010000  1.0
  Sr  Sr2  1  0.46204000  0.85120000  0.14483000  1.0
  Sr  Sr3  1  0.53796000  0.14881000  0.85517000  1.0
  P  P4  1  0.31178000  0.63350000  0.86991000  1.0
  P  P5  1  0.68822000  0.36650000  0.13009000  1.0
  H  H6  1  0.22185000  0.64860000  0.65318000  1.0
  H  H7  1  0.77816000  0.35140000  0.34683000  1.0
  H  H8  1  0.09536000  0.45796000  0.70206000  1.0
  H  H9  1  0.90465000  0.54204000  0.29795000  1.0
  H  H10  1  0.85059000  0.94376000  0.63592000  1.0
  H  H11  1  0.14941000  0.05623000  0.36408000  1.0
  H  H12  1  0.11558000  0.93728000  0.66067000  1.0
  H  H13  1  0.88442000  0.06271000  0.33933000  1.0
  H  H14  1  0.84315000  0.57944000  0.52202000  1.0
  H  H15  1  0.15685000  0.42056000  0.47798000  1.0
  H  H16  1  0.65994000  0.67198000  0.58937000  1.0
  H  H17  1  0.34006000  0.32802000  0.41064000  1.0
  H  H18  1  0.60386000  0.09490000  0.42456000  1.0
  H  H19  1  0.39614000  0.90510000  0.57545000  1.0
  H  H20  1  0.48956000  0.88686000  0.40492000  1.0
  H  H21  1  0.51044000  0.11315000  0.59508000  1.0
  C  C22  1  0.13799000  0.61086000  0.72016000  1.0
  C  C23  1  0.86201000  0.38914000  0.27984000  1.0
  C  C24  1  0.98486000  0.90379000  0.69765000  1.0
  C  C25  1  0.01514000  0.09621000  0.30235000  1.0
  C  C26  1  0.79462000  0.59656000  0.60736000  1.0
  C  C27  1  0.20538000  0.40344000  0.39264000  1.0
  C  C28  1  0.00732000  0.02580000  0.81907000  1.0
  C  C29  1  0.99268000  0.97421000  0.18093000  1.0
  C  C30  1  0.72374000  0.40223000  0.63490000  1.0
  C  C31  1  0.27626000  0.59777000  0.36510000  1.0
  N  N32  1  0.95138000  0.70182000  0.70839000  1.0
  N  N33  1  0.04862000  0.29818000  0.29161000  1.0
  O  O34  1  0.45086000  0.82257000  0.90478000  1.0
  O  O35  1  0.54914000  0.17743000  0.09522000  1.0
  O  O36  1  0.17940000  0.61653000  0.96127000  1.0
  O  O37  1  0.82060000  0.38347000  0.03873000  1.0
  O  O38  1  0.44412000  0.47525000  0.86113000  1.0
  O  O39  1  0.55588000  0.52475000  0.13887000  1.0
  O  O40  1  0.74635000  0.37543000  0.74469000  1.0
  O  O41  1  0.25365000  0.62457000  0.25531000  1.0
  O  O42  1  0.63787000  0.28052000  0.54394000  1.0
  O  O43  1  0.36213000  0.71948000  0.45606000  1.0
  O  O44  1  0.86393000  0.99826000  0.87095000  1.0
  O  O45  1  0.13607000  0.00174000  0.12905000  1.0
  O  O46  1  0.16021000  0.14645000  0.86162000  1.0
  O  O47  1  0.83978000  0.85355000  0.13838000  1.0
  O  O48  1  0.56367000  0.97944000  0.36627000  1.0
  O  O49  1  0.43633000  0.02056000  0.63373000  1.0
