# generated using pymatgen
data_HgH11C13Br2N2O
_symmetry_space_group_name_H-M   'P 1'
_cell_length_a   9.73732000
_cell_length_b   10.02630000
_cell_length_c   10.68290000
_cell_angle_alpha   71.90080000
_cell_angle_beta   86.42540000
_cell_angle_gamma   64.35800000
_symmetry_Int_Tables_number   1
_chemical_formula_structural   HgH11C13Br2N2O
_chemical_formula_sum   'Hg2 H22 C26 Br4 N4 O2'
_cell_volume   890.55648148
_cell_formula_units_Z   2
loop_
 _symmetry_equiv_pos_site_id
 _symmetry_equiv_pos_as_xyz
  1  'x, y, z'
loop_
 _atom_site_type_symbol
 _atom_site_label
 _atom_site_symmetry_multiplicity
 _atom_site_fract_x
 _atom_site_fract_y
 _atom_site_fract_z
 _atom_site_occupancy
  Hg  Hg0  1  0.82514000  0.56988000  0.62011000  1.0
  Hg  Hg1  1  0.17487000  0.43010000  0.37988000  1.0
  H  H2  1  0.54512000  0.46086000  0.24981000  1.0
  H  H3  1  0.45488000  0.53917000  0.75017000  1.0
  H  H4  1  0.74671000  0.41210000  0.41738000  1.0
  H  H5  1  0.25329000  0.58790000  0.58260000  1.0
  H  H6  1  0.49488000  0.84313000  0.46885000  1.0
  H  H7  1  0.50514000  0.15687000  0.53115000  1.0
  H  H8  1  0.28492000  0.91099000  0.30673000  1.0
  H  H9  1  0.71509000  0.08902000  0.69327000  1.0
  H  H10  1  0.99722000  0.83996000  0.05516000  1.0
  H  H11  1  0.00277000  0.16004000  0.94485000  1.0
  H  H12  1  0.94214000  0.80445000  0.85671000  1.0
  H  H13  1  0.05785000  0.19555000  0.14328000  1.0
  H  H14  1  0.99905000  0.79878000  0.62924000  1.0
  H  H15  1  0.00095000  0.20121000  0.37076000  1.0
  H  H16  1  0.20469000  0.86750000  0.52358000  1.0
  H  H17  1  0.79533000  0.13249000  0.47643000  1.0
  H  H18  1  0.35708000  0.93730000  0.64982000  1.0
  H  H19  1  0.64292000  0.06269000  0.35020000  1.0
  H  H20  1  0.29111000  0.95636000  0.87295000  1.0
  H  H21  1  0.70888000  0.04363000  0.12706000  1.0
  H  H22  1  0.19674000  0.95379000  0.12437000  1.0
  H  H23  1  0.80324000  0.04623000  0.87563000  1.0
  C  C24  1  0.53131000  0.54846000  0.29575000  1.0
  C  C25  1  0.46869000  0.45156000  0.70423000  1.0
  C  C26  1  0.64246000  0.52119000  0.38845000  1.0
  C  C27  1  0.35755000  0.47882000  0.61153000  1.0
  C  C28  1  0.50212000  0.76217000  0.41726000  1.0
  C  C29  1  0.49789000  0.23783000  0.58274000  1.0
  C  C30  1  0.38578000  0.79940000  0.32510000  1.0
  C  C31  1  0.61423000  0.20062000  0.67490000  1.0
  C  C32  1  0.40005000  0.69083000  0.26262000  1.0
  C  C33  1  0.59995000  0.30918000  0.73737000  1.0
  C  C34  1  0.27799000  0.71766000  0.16577000  1.0
  C  C35  1  0.72200000  0.28235000  0.83424000  1.0
  C  C36  1  0.05661000  0.91298000  0.00936000  1.0
  C  C37  1  0.94337000  0.08702000  0.99065000  1.0
  C  C38  1  0.10806000  0.88789000  0.87809000  1.0
  C  C39  1  0.89193000  0.11210000  0.12192000  1.0
  C  C40  1  0.02973000  0.83934000  0.80992000  1.0
  C  C41  1  0.97026000  0.16066000  0.19009000  1.0
  C  C42  1  0.06379000  0.83276000  0.68253000  1.0
  C  C43  1  0.93621000  0.16723000  0.31747000  1.0
  C  C44  1  0.18006000  0.87019000  0.62391000  1.0
  C  C45  1  0.81994000  0.12981000  0.37610000  1.0
  C  C46  1  0.26375000  0.91141000  0.69371000  1.0
  C  C47  1  0.73626000  0.08858000  0.30630000  1.0
  C  C48  1  0.22703000  0.92133000  0.81990000  1.0
  C  C49  1  0.77296000  0.07867000  0.18011000  1.0
  Br  Br50  1  0.00827000  0.30025000  0.61831000  1.0
  Br  Br51  1  0.99172000  0.69974000  0.38168000  1.0
  Br  Br52  1  0.69060000  0.80815000  0.68986000  1.0
  Br  Br53  1  0.30942000  0.19184000  0.31011000  1.0
  N  N54  1  0.62761000  0.62579000  0.44835000  1.0
  N  N55  1  0.37240000  0.37421000  0.55164000  1.0
  N  N56  1  0.18405000  0.86873000  0.10144000  1.0
  N  N57  1  0.81593000  0.13128000  0.89856000  1.0
  O  O58  1  0.26551000  0.60690000  0.14748000  1.0
  O  O59  1  0.73448000  0.39310000  0.85253000  1.0
