# generated using pymatgen
data_ZnH5C8(NO2)2
_symmetry_space_group_name_H-M   'P 1'
_cell_length_a   8.27247000
_cell_length_b   9.21091000
_cell_length_c   12.43270000
_cell_angle_alpha   75.37500000
_cell_angle_beta   89.99950000
_cell_angle_gamma   89.99950000
_symmetry_Int_Tables_number   1
_chemical_formula_structural   ZnH5C8(NO2)2
_chemical_formula_sum   'Zn4 H20 C32 N8 O16'
_cell_volume   916.63966516
_cell_formula_units_Z   4
loop_
 _symmetry_equiv_pos_site_id
 _symmetry_equiv_pos_as_xyz
  1  'x, y, z'
loop_
 _atom_site_type_symbol
 _atom_site_label
 _atom_site_symmetry_multiplicity
 _atom_site_fract_x
 _atom_site_fract_y
 _atom_site_fract_z
 _atom_site_occupancy
  Zn  Zn0  1  0.94612000  0.13104000  0.87966000  1.0
  Zn  Zn1  1  0.44612000  0.36896000  0.12033000  1.0
  Zn  Zn2  1  0.05388000  0.86895000  0.12034000  1.0
  Zn  Zn3  1  0.55388000  0.63104000  0.87967000  1.0
  H  H4  1  0.66493000  0.30201000  0.62579000  1.0
  H  H5  1  0.16492000  0.19799000  0.37421000  1.0
  H  H6  1  0.33507000  0.69800000  0.37421000  1.0
  H  H7  1  0.83507000  0.80200000  0.62579000  1.0
  H  H8  1  0.20158000  0.50363000  0.51672000  1.0
  H  H9  1  0.70158000  0.99636000  0.48328000  1.0
  H  H10  1  0.79842000  0.49637000  0.48328000  1.0
  H  H11  1  0.29842000  0.00363000  0.51672000  1.0
  H  H12  1  0.07866000  0.34148000  0.66233000  1.0
  H  H13  1  0.57866000  0.15853000  0.33767000  1.0
  H  H14  1  0.92134000  0.65852000  0.33768000  1.0
  H  H15  1  0.42134000  0.84148000  0.66233000  1.0
  H  H16  1  0.31988000  0.98170000  0.87982000  1.0
  H  H17  1  0.81989000  0.51830000  0.12018000  1.0
  H  H18  1  0.68012000  0.01830000  0.12018000  1.0
  H  H19  1  0.18011000  0.48170000  0.87982000  1.0
  H  H20  1  0.53075000  0.12678000  0.74566000  1.0
  H  H21  1  0.03074000  0.37322000  0.25434000  1.0
  H  H22  1  0.46926000  0.87323000  0.25434000  1.0
  H  H23  1  0.96926000  0.62678000  0.74566000  1.0
  C  C24  1  0.59123000  0.38787000  0.57092000  1.0
  C  C25  1  0.09122000  0.11212000  0.42907000  1.0
  C  C26  1  0.40877000  0.61213000  0.42908000  1.0
  C  C27  1  0.90877000  0.88787000  0.57092000  1.0
  C  C28  1  0.42203000  0.38727000  0.58231000  1.0
  C  C29  1  0.92203000  0.11273000  0.41769000  1.0
  C  C30  1  0.57797000  0.61273000  0.41769000  1.0
  C  C31  1  0.07797000  0.88727000  0.58231000  1.0
  C  C32  1  0.33286000  0.50141000  0.50970000  1.0
  C  C33  1  0.83286000  0.99859000  0.49030000  1.0
  C  C34  1  0.66714000  0.49860000  0.49030000  1.0
  C  C35  1  0.16714000  0.00140000  0.50970000  1.0
  C  C36  1  0.33824000  0.27616000  0.66764000  1.0
  C  C37  1  0.83824000  0.22383000  0.33236000  1.0
  C  C38  1  0.66176000  0.72384000  0.33236000  1.0
  C  C39  1  0.16176000  0.77616000  0.66764000  1.0
  C  C40  1  0.17702000  0.26743000  0.69718000  1.0
  C  C41  1  0.67702000  0.23258000  0.30282000  1.0
  C  C42  1  0.82298000  0.73257000  0.30282000  1.0
  C  C43  1  0.32298000  0.76743000  0.69719000  1.0
  C  C44  1  0.29690000  0.08125000  0.81311000  1.0
  C  C45  1  0.79690000  0.41875000  0.18689000  1.0
  C  C46  1  0.70311000  0.91875000  0.18689000  1.0
  C  C47  1  0.20310000  0.58125000  0.81311000  1.0
  C  C48  1  0.78276000  0.41979000  0.83260000  1.0
  C  C49  1  0.28278000  0.08021000  0.16738000  1.0
  C  C50  1  0.21724000  0.58021000  0.16740000  1.0
  C  C51  1  0.71723000  0.91979000  0.83261000  1.0
  C  C52  1  0.68552000  0.32557000  0.93292000  1.0
  C  C53  1  0.18554000  0.17443000  0.06707000  1.0
  C  C54  1  0.31447000  0.67443000  0.06709000  1.0
  C  C55  1  0.81446000  0.82557000  0.93293000  1.0
  N  N56  1  0.15314000  0.14754000  0.78766000  1.0
  N  N57  1  0.65314000  0.35247000  0.21233000  1.0
  N  N58  1  0.84687000  0.85245000  0.21234000  1.0
  N  N59  1  0.34686000  0.64755000  0.78767000  1.0
  N  N60  1  0.41080000  0.15628000  0.74253000  1.0
  N  N61  1  0.91079000  0.34372000  0.25747000  1.0
  N  N62  1  0.58921000  0.84372000  0.25747000  1.0
  N  N63  1  0.08921000  0.65628000  0.74253000  1.0
  O  O64  1  0.90077000  0.35576000  0.79957000  1.0
  O  O65  1  0.40077000  0.14424000  0.20042000  1.0
  O  O66  1  0.09924000  0.64423000  0.20044000  1.0
  O  O67  1  0.59923000  0.85577000  0.79957000  1.0
  O  O68  1  0.74269000  0.55556000  0.79147000  1.0
  O  O69  1  0.24270000  0.94444000  0.20853000  1.0
  O  O70  1  0.25731000  0.44444000  0.20854000  1.0
  O  O71  1  0.75730000  0.05557000  0.79147000  1.0
  O  O72  1  0.56789000  0.39518000  0.96461000  1.0
  O  O73  1  0.06791000  0.10481000  0.03537000  1.0
  O  O74  1  0.43211000  0.60483000  0.03539000  1.0
  O  O75  1  0.93209000  0.89519000  0.96463000  1.0
  O  O76  1  0.72936000  0.19352000  0.97496000  1.0
  O  O77  1  0.22936000  0.30647000  0.02503000  1.0
  O  O78  1  0.27064000  0.80648000  0.02505000  1.0
  O  O79  1  0.77063000  0.69353000  0.97496000  1.0
