# generated using pymatgen
data_LaH22C24N3O8
_symmetry_space_group_name_H-M   'P 1'
_cell_length_a   8.27373000
_cell_length_b   12.62650000
_cell_length_c   14.42060000
_cell_angle_alpha   109.86000000
_cell_angle_beta   97.82930000
_cell_angle_gamma   100.93400000
_symmetry_Int_Tables_number   1
_chemical_formula_structural   LaH22C24N3O8
_chemical_formula_sum   'La2 H44 C48 N6 O16'
_cell_volume   1357.93463347
_cell_formula_units_Z   2
loop_
 _symmetry_equiv_pos_site_id
 _symmetry_equiv_pos_as_xyz
  1  'x, y, z'
loop_
 _atom_site_type_symbol
 _atom_site_label
 _atom_site_symmetry_multiplicity
 _atom_site_fract_x
 _atom_site_fract_y
 _atom_site_fract_z
 _atom_site_occupancy
  La  La0  1  0.78122000  0.57067000  0.52607000  1.0
  La  La1  1  0.21878000  0.42933000  0.47393000  1.0
  H  H2  1  0.51408000  0.49514000  0.32862000  1.0
  H  H3  1  0.48592000  0.50486000  0.67137000  1.0
  H  H4  1  0.67537000  0.53988000  0.28722000  1.0
  H  H5  1  0.32463000  0.46012000  0.71278000  1.0
  H  H6  1  0.02657000  0.64930000  0.40461000  1.0
  H  H7  1  0.97343000  0.35071000  0.59539000  1.0
  H  H8  1  0.91816000  0.74554000  0.41843000  1.0
  H  H9  1  0.08183000  0.25446000  0.58158000  1.0
  H  H10  1  0.85179000  0.41630000  0.81267000  1.0
  H  H11  1  0.14821000  0.58372000  0.18733000  1.0
  H  H12  1  0.67163000  0.61453000  0.86558000  1.0
  H  H13  1  0.32836000  0.38547000  0.13442000  1.0
  H  H14  1  0.61123000  0.68795000  0.02618000  1.0
  H  H15  1  0.38876000  0.31205000  0.97382000  1.0
  H  H16  1  0.60068000  0.67892000  0.19506000  1.0
  H  H17  1  0.39933000  0.32108000  0.80495000  1.0
  H  H18  1  0.83382000  0.40836000  0.13899000  1.0
  H  H19  1  0.16618000  0.59163000  0.86100000  1.0
  H  H20  1  0.85144000  0.40288000  0.96672000  1.0
  H  H21  1  0.14854000  0.59712000  0.03327000  1.0
  H  H22  1  0.72213000  0.24731000  0.45677000  1.0
  H  H23  1  0.27788000  0.75270000  0.54323000  1.0
  H  H24  1  0.39139000  0.05355000  0.37368000  1.0
  H  H25  1  0.60863000  0.94645000  0.62631000  1.0
  H  H26  1  0.41863000  0.86590000  0.37344000  1.0
  H  H27  1  0.58137000  0.13411000  0.62656000  1.0
  H  H28  1  0.59675000  0.72600000  0.37336000  1.0
  H  H29  1  0.40324000  0.27400000  0.62663000  1.0
  H  H30  1  0.02568000  0.96396000  0.38471000  1.0
  H  H31  1  0.97433000  0.03603000  0.61529000  1.0
  H  H32  1  0.87160000  0.11482000  0.38915000  1.0
  H  H33  1  0.12841000  0.88518000  0.61085000  1.0
  H  H34  1  0.60833000  0.31789000  0.28257000  1.0
  H  H35  1  0.39167000  0.68210000  0.71743000  1.0
  H  H36  1  0.81163000  0.18630000  0.13992000  1.0
  H  H37  1  0.18837000  0.81370000  0.86009000  1.0
  H  H38  1  0.67754000  0.13117000  0.95875000  1.0
  H  H39  1  0.32246000  0.86882000  0.04126000  1.0
  H  H40  1  0.41261000  0.05215000  0.82489000  1.0
  H  H41  1  0.58740000  0.94784000  0.17511000  1.0
  H  H42  1  0.11662000  0.10799000  0.03763000  1.0
  H  H43  1  0.88338000  0.89201000  0.96237000  1.0
  H  H44  1  0.36565000  0.18955000  0.18000000  1.0
  H  H45  1  0.63435000  0.81045000  0.82000000  1.0
  C  C46  1  0.77714000  0.50095000  0.70890000  1.0
  C  C47  1  0.22285000  0.49905000  0.29110000  1.0
  C  C48  1  0.78925000  0.48285000  0.80581000  1.0
  C  C49  1  0.21076000  0.51716000  0.19419000  1.0
  C  C50  1  0.72963000  0.54963000  0.88105000  1.0
  C  C51  1  0.27037000  0.45038000  0.11895000  1.0
  C  C52  1  0.73223000  0.54602000  0.98104000  1.0
  C  C53  1  0.26775000  0.45397000  0.01896000  1.0
  C  C54  1  0.66275000  0.62473000  0.04829000  1.0
  C  C55  1  0.33724000  0.37527000  0.95171000  1.0
  C  C56  1  0.65710000  0.62004000  0.14265000  1.0
  C  C57  1  0.34289000  0.37996000  0.85735000  1.0
  C  C58  1  0.78588000  0.46894000  0.11086000  1.0
  C  C59  1  0.21412000  0.53105000  0.88914000  1.0
  C  C60  1  0.79578000  0.46655000  0.01475000  1.0
  C  C61  1  0.20421000  0.53344000  0.98524000  1.0
  C  C62  1  0.47037000  0.28122000  0.44248000  1.0
  C  C63  1  0.52964000  0.71878000  0.55751000  1.0
  C  C64  1  0.58776000  0.20462000  0.43077000  1.0
  C  C65  1  0.41226000  0.79539000  0.56923000  1.0
  C  C66  1  0.52843000  0.08811000  0.39365000  1.0
  C  C67  1  0.47159000  0.91190000  0.60635000  1.0
  C  C68  1  0.63012000  0.00405000  0.38387000  1.0
  C  C69  1  0.36990000  0.99596000  0.61613000  1.0
  C  C70  1  0.55329000  0.89101000  0.37582000  1.0
  C  C71  1  0.44672000  0.10900000  0.62418000  1.0
  C  C72  1  0.65137000  0.81298000  0.37579000  1.0
  C  C73  1  0.34862000  0.18702000  0.62420000  1.0
  C  C74  1  0.89067000  0.94525000  0.38279000  1.0
  C  C75  1  0.10933000  0.05475000  0.61721000  1.0
  C  C76  1  0.80388000  0.03000000  0.38527000  1.0
  C  C77  1  0.19613000  0.97000000  0.61473000  1.0
  C  C78  1  0.87554000  0.32716000  0.33143000  1.0
  C  C79  1  0.12446000  0.67284000  0.66858000  1.0
  C  C80  1  0.71275000  0.28399000  0.25684000  1.0
  C  C81  1  0.28725000  0.71600000  0.74316000  1.0
  C  C82  1  0.69889000  0.21254000  0.16088000  1.0
  C  C83  1  0.30112000  0.78745000  0.83912000  1.0
  C  C84  1  0.54552000  0.16887000  0.08171000  1.0
  C  C85  1  0.45448000  0.83113000  0.91829000  1.0
  C  C86  1  0.55518000  0.12903000  0.97949000  1.0
  C  C87  1  0.44482000  0.87097000  0.02052000  1.0
  C  C88  1  0.40710000  0.08448000  0.90472000  1.0
  C  C89  1  0.59290000  0.91552000  0.09528000  1.0
  C  C90  1  0.24325000  0.11519000  0.02228000  1.0
  C  C91  1  0.75675000  0.88481000  0.97772000  1.0
  C  C92  1  0.38326000  0.16173000  0.10251000  1.0
  C  C93  1  0.61675000  0.83827000  0.89749000  1.0
  N  N94  1  0.71687000  0.54359000  0.17421000  1.0
  N  N95  1  0.28313000  0.45641000  0.82579000  1.0
  N  N96  1  0.81818000  0.83901000  0.37992000  1.0
  N  N97  1  0.18182000  0.16099000  0.62008000  1.0
  N  N98  1  0.25204000  0.07637000  0.92435000  1.0
  N  N99  1  0.74796000  0.92363000  0.07565000  1.0
  O  O100  1  0.85615000  0.45032000  0.64454000  1.0
  O  O101  1  0.14385000  0.54968000  0.35546000  1.0
  O  O102  1  0.68849000  0.56857000  0.69262000  1.0
  O  O103  1  0.31150000  0.43143000  0.30737000  1.0
  O  O104  1  0.53323000  0.39207000  0.47481000  1.0
  O  O105  1  0.46677000  0.60793000  0.52519000  1.0
  O  O106  1  0.31201000  0.23837000  0.42225000  1.0
  O  O107  1  0.68800000  0.76162000  0.57775000  1.0
  O  O108  1  0.88846000  0.41122000  0.41620000  1.0
  O  O109  1  0.11155000  0.58878000  0.58380000  1.0
  O  O110  1  0.99808000  0.28325000  0.31227000  1.0
  O  O111  1  0.00191000  0.71673000  0.68774000  1.0
  O  O112  1  0.63393000  0.54140000  0.35020000  1.0
  O  O113  1  0.36607000  0.45860000  0.64980000  1.0
  O  O114  1  0.96656000  0.69609000  0.45108000  1.0
  O  O115  1  0.03344000  0.30391000  0.54892000  1.0
