# generated using pymatgen
data_CaCd2H18(C8O5)3
_symmetry_space_group_name_H-M   'P 1'
_cell_length_a   13.11170000
_cell_length_b   14.18500000
_cell_length_c   14.78488004
_cell_angle_alpha   69.10074950
_cell_angle_beta   63.70000838
_cell_angle_gamma   62.48760000
_symmetry_Int_Tables_number   1
_chemical_formula_structural   CaCd2H18(C8O5)3
_chemical_formula_sum   'Ca2 Cd4 H36 C48 O30'
_cell_volume   2146.04884536
_cell_formula_units_Z   2
loop_
 _symmetry_equiv_pos_site_id
 _symmetry_equiv_pos_as_xyz
  1  'x, y, z'
loop_
 _atom_site_type_symbol
 _atom_site_label
 _atom_site_symmetry_multiplicity
 _atom_site_fract_x
 _atom_site_fract_y
 _atom_site_fract_z
 _atom_site_occupancy
  Ca  Ca0  1  0.71246000  0.24992000  0.75000000  1.0
  Ca  Ca1  1  0.28754000  0.75008000  0.25000000  1.0
  Cd  Cd2  1  0.97413000  0.03785000  0.61631000  1.0
  Cd  Cd3  1  0.62832000  0.46220000  0.88368000  1.0
  Cd  Cd4  1  0.02587000  0.96215000  0.38369000  1.0
  Cd  Cd5  1  0.37168000  0.53780000  0.11632000  1.0
  H  H6  1  0.67818000  0.41288000  0.50846000  1.0
  H  H7  1  0.59898000  0.08721000  0.99146000  1.0
  H  H8  1  0.32183000  0.58712000  0.49154000  1.0
  H  H9  1  0.40101000  0.91279000  0.00855000  1.0
  H  H10  1  0.54262000  0.53445000  0.40322000  1.0
  H  H11  1  0.47967000  0.96571000  0.09677000  1.0
  H  H12  1  0.45738000  0.46555000  0.59678000  1.0
  H  H13  1  0.52033000  0.03429000  0.90323000  1.0
  H  H14  1  0.68802000  0.28721000  0.22950000  1.0
  H  H15  1  0.20479000  0.21288000  0.27067000  1.0
  H  H16  1  0.31198000  0.71279000  0.77050000  1.0
  H  H17  1  0.79521000  0.78712000  0.72932000  1.0
  H  H18  1  0.82421000  0.16655000  0.33183000  1.0
  H  H19  1  0.32273000  0.33349000  0.16828000  1.0
  H  H20  1  0.17579000  0.83345000  0.66817000  1.0
  H  H21  1  0.67727000  0.66652000  0.83172000  1.0
  H  H22  1  0.84636000  0.17061000  0.94157000  1.0
  H  H23  1  0.95882000  0.32922000  0.55845000  1.0
  H  H24  1  0.15364000  0.82939000  0.05843000  1.0
  H  H25  1  0.04118000  0.67078000  0.44155000  1.0
  H  H26  1  0.13145000  0.86396000  0.88663000  1.0
  H  H27  1  0.88171000  0.63618000  0.61326000  1.0
  H  H28  1  0.86855000  0.13605000  0.11337000  1.0
  H  H29  1  0.11829000  0.36383000  0.38674000  1.0
  H  H30  1  0.13587000  0.16111000  0.49163000  1.0
  H  H31  1  0.78852000  0.33902000  0.00847000  1.0
  H  H32  1  0.86414000  0.83889000  0.50837000  1.0
  H  H33  1  0.21148000  0.66098000  0.99153000  1.0
  H  H34  1  0.15795000  0.07766000  0.43022000  1.0
  H  H35  1  0.66575000  0.42239000  0.06988000  1.0
  H  H36  1  0.84205000  0.92233000  0.56978000  1.0
  H  H37  1  0.33425000  0.57761000  0.93012000  1.0
  H  H38  1  0.50411000  0.18608000  0.76545000  1.0
  H  H39  1  0.45597000  0.31354000  0.73465000  1.0
  H  H40  1  0.49589000  0.81392000  0.23456000  1.0
  H  H41  1  0.54403000  0.68646000  0.26536000  1.0
  C  C42  1  0.75908000  0.28161000  0.42748000  1.0
  C  C43  1  0.46795000  0.21845000  0.07251000  1.0
  C  C44  1  0.24092000  0.71839000  0.57252000  1.0
  C  C45  1  0.53205000  0.78155000  0.92749000  1.0
  C  C46  1  0.68118000  0.38643000  0.44622000  1.0
  C  C47  1  0.51340000  0.11368000  0.05370000  1.0
  C  C48  1  0.31882000  0.61357000  0.55378000  1.0
  C  C49  1  0.48661000  0.88632000  0.94630000  1.0
  C  C50  1  0.60637000  0.45427000  0.38723000  1.0
  C  C51  1  0.44743000  0.04589000  0.11271000  1.0
  C  C52  1  0.39362000  0.54573000  0.61277000  1.0
  C  C53  1  0.55257000  0.95411000  0.88729000  1.0
  C  C54  1  0.60789000  0.41889000  0.30918000  1.0
  C  C55  1  0.33569000  0.08129000  0.19082000  1.0
  C  C56  1  0.39211000  0.58111000  0.69082000  1.0
  C  C57  1  0.66431000  0.91871000  0.80918000  1.0
  C  C58  1  0.68805000  0.31523000  0.28919000  1.0
  C  C59  1  0.29238000  0.18490000  0.21090000  1.0
  C  C60  1  0.31195000  0.68477000  0.71081000  1.0
  C  C61  1  0.70761000  0.81510000  0.78910000  1.0
  C  C62  1  0.76336000  0.24711000  0.34758000  1.0
  C  C63  1  0.35801000  0.25297000  0.15248000  1.0
  C  C64  1  0.23664000  0.75289000  0.65242000  1.0
  C  C65  1  0.64199000  0.74703000  0.84752000  1.0
  C  C66  1  0.83323000  0.20540000  0.49477000  1.0
  C  C67  1  0.53334000  0.29451000  0.00519000  1.0
  C  C68  1  0.16677000  0.79460000  0.50523000  1.0
  C  C69  1  0.46666000  0.70549000  0.99481000  1.0
  C  C70  1  0.51970000  0.48954000  0.25189000  1.0
  C  C71  1  0.26091000  0.01061000  0.24815000  1.0
  C  C72  1  0.48030000  0.51046000  0.74812000  1.0
  C  C73  1  0.73909000  0.98939000  0.75185000  1.0
  C  C74  1  0.97594000  0.03929000  0.80317000  1.0
  C  C75  1  0.81847000  0.46066000  0.69672000  1.0
  C  C76  1  0.02406000  0.96071000  0.19683000  1.0
  C  C77  1  0.18153000  0.53933000  0.30328000  1.0
  C  C78  1  0.98819000  0.01919000  0.90483000  1.0
  C  C79  1  0.91223000  0.48078000  0.59509000  1.0
  C  C80  1  0.01180000  0.98081000  0.09517000  1.0
  C  C81  1  0.08777000  0.51922000  0.40491000  1.0
  C  C82  1  0.91365000  0.09666000  0.96800000  1.0
  C  C83  1  0.97849000  0.40323000  0.53199000  1.0
  C  C84  1  0.08635000  0.90334000  0.03200000  1.0
  C  C85  1  0.02151000  0.59676000  0.46801000  1.0
  C  C86  1  0.07445000  0.92256000  0.93744000  1.0
  C  C87  1  0.93424000  0.57752000  0.56250000  1.0
  C  C88  1  0.92555000  0.07744000  0.06256000  1.0
  C  C89  1  0.06576000  0.42248000  0.43750000  1.0
  O  O90  1  0.81687000  0.23105000  0.57591000  1.0
  O  O91  1  0.62367000  0.26877000  0.92409000  1.0
  O  O92  1  0.18313000  0.76895000  0.42409000  1.0
  O  O93  1  0.37633000  0.73123000  0.07591000  1.0
  O  O94  1  0.14426000  0.08719000  0.49929000  1.0
  O  O95  1  0.73067000  0.41293000  0.00083000  1.0
  O  O96  1  0.85574000  0.91281000  0.50071000  1.0
  O  O97  1  0.26933000  0.58707000  0.99917000  1.0
  O  O98  1  0.91215000  0.11413000  0.47067000  1.0
  O  O99  1  0.49714000  0.38576000  0.02928000  1.0
  O  O100  1  0.08785000  0.88587000  0.52933000  1.0
  O  O101  1  0.50286000  0.61424000  0.97072000  1.0
  O  O102  1  0.52345000  0.24972000  0.74966000  1.0
  O  O103  1  0.47655000  0.75028000  0.25034000  1.0
  O  O104  1  0.53739000  0.46090000  0.17104000  1.0
  O  O105  1  0.16937000  0.03907000  0.32914000  1.0
  O  O106  1  0.46260000  0.53910000  0.82897000  1.0
  O  O107  1  0.83063000  0.96093000  0.67086000  1.0
  O  O108  1  0.43214000  0.57096000  0.28646000  1.0
  O  O109  1  0.28917000  0.92931000  0.21343000  1.0
  O  O110  1  0.56787000  0.42904000  0.71353000  1.0
  O  O111  1  0.71083000  0.07069000  0.78657000  1.0
  O  O112  1  0.03956000  0.96256000  0.75208000  1.0
  O  O113  1  0.75418000  0.53745000  0.74776000  1.0
  O  O114  1  0.96045000  0.03744000  0.24792000  1.0
  O  O115  1  0.24582000  0.46255000  0.25224000  1.0
  O  O116  1  0.90466000  0.13021000  0.77018000  1.0
  O  O117  1  0.80514000  0.36973000  0.72977000  1.0
  O  O118  1  0.09534000  0.86979000  0.22982000  1.0
  O  O119  1  0.19486000  0.63027000  0.27023000  1.0
