# generated using pymatgen
data_MnH14C15(NO2)2
_symmetry_space_group_name_H-M   'P 1'
_cell_length_a   8.04778000
_cell_length_b   9.55232000
_cell_length_c   10.11850000
_cell_angle_alpha   107.88500000
_cell_angle_beta   95.16720000
_cell_angle_gamma   104.96200000
_symmetry_Int_Tables_number   1
_chemical_formula_structural   MnH14C15(NO2)2
_chemical_formula_sum   'Mn2 H28 C30 N4 O8'
_cell_volume   702.93523770
_cell_formula_units_Z   2
loop_
 _symmetry_equiv_pos_site_id
 _symmetry_equiv_pos_as_xyz
  1  'x, y, z'
loop_
 _atom_site_type_symbol
 _atom_site_label
 _atom_site_symmetry_multiplicity
 _atom_site_fract_x
 _atom_site_fract_y
 _atom_site_fract_z
 _atom_site_occupancy
  Mn  Mn0  1  0.65614000  0.97566000  0.64577000  1.0
  Mn  Mn1  1  0.34387000  0.02434000  0.35423000  1.0
  H  H2  1  0.85143000  0.92347000  0.38887000  1.0
  H  H3  1  0.14858000  0.07653000  0.61113000  1.0
  H  H4  1  0.86143000  0.72490000  0.17652000  1.0
  H  H5  1  0.13857000  0.27509000  0.82348000  1.0
  H  H6  1  0.84221000  0.55550000  0.98964000  1.0
  H  H7  1  0.15778000  0.44449000  0.01036000  1.0
  H  H8  1  0.82864000  0.33482000  0.77625000  1.0
  H  H9  1  0.17136000  0.66518000  0.22375000  1.0
  H  H10  1  0.45351000  0.03357000  0.89247000  1.0
  H  H11  1  0.54648000  0.96643000  0.10753000  1.0
  H  H12  1  0.44790000  0.23713000  0.11145000  1.0
  H  H13  1  0.55209000  0.76287000  0.88855000  1.0
  H  H14  1  0.43706000  0.40762000  0.27481000  1.0
  H  H15  1  0.56294000  0.59238000  0.72519000  1.0
  H  H16  1  0.44931000  0.62463000  0.48829000  1.0
  H  H17  1  0.55070000  0.37537000  0.51171000  1.0
  H  H18  1  0.92384000  0.39474000  0.50016000  1.0
  H  H19  1  0.07616000  0.60526000  0.49984000  1.0
  H  H20  1  0.01578000  0.24332000  0.46657000  1.0
  H  H21  1  0.98422000  0.75668000  0.53343000  1.0
  H  H22  1  0.81897000  0.32176000  0.23704000  1.0
  H  H23  1  0.18103000  0.67824000  0.76296000  1.0
  H  H24  1  0.04932000  0.38793000  0.29086000  1.0
  H  H25  1  0.95068000  0.61207000  0.70914000  1.0
  H  H26  1  0.96064000  0.16395000  0.06912000  1.0
  H  H27  1  0.03936000  0.83604000  0.93088000  1.0
  H  H28  1  0.82604000  0.04914000  0.15109000  1.0
  H  H29  1  0.17396000  0.95086000  0.84892000  1.0
  C  C30  1  0.76031000  0.80827000  0.36109000  1.0
  C  C31  1  0.23969000  0.19172000  0.63891000  1.0
  C  C32  1  0.76520000  0.69294000  0.23933000  1.0
  C  C33  1  0.23480000  0.30706000  0.76067000  1.0
  C  C34  1  0.64871000  0.54388000  0.20249000  1.0
  C  C35  1  0.35129000  0.45612000  0.79751000  1.0
  C  C36  1  0.64651000  0.41784000  0.07278000  1.0
  C  C37  1  0.35348000  0.58216000  0.92721000  1.0
  C  C38  1  0.75451000  0.44182000  0.97497000  1.0
  C  C39  1  0.24548000  0.55818000  0.02503000  1.0
  C  C40  1  0.74816000  0.31942000  0.85493000  1.0
  C  C41  1  0.25183000  0.68058000  0.14507000  1.0
  C  C42  1  0.53832000  0.15144000  0.91971000  1.0
  C  C43  1  0.46168000  0.84856000  0.08029000  1.0
  C  C44  1  0.53623000  0.26695000  0.04212000  1.0
  C  C45  1  0.46377000  0.73305000  0.95787000  1.0
  C  C46  1  0.53304000  0.51949000  0.29536000  1.0
  C  C47  1  0.46695000  0.48051000  0.70464000  1.0
  C  C48  1  0.53756000  0.64128000  0.41504000  1.0
  C  C49  1  0.46245000  0.35872000  0.58496000  1.0
  C  C50  1  0.73712000  0.17628000  0.43372000  1.0
  C  C51  1  0.26289000  0.82372000  0.56628000  1.0
  C  C52  1  0.91092000  0.28009000  0.42358000  1.0
  C  C53  1  0.08908000  0.71992000  0.57641000  1.0
  C  C54  1  0.93097000  0.29272000  0.27878000  1.0
  C  C55  1  0.06904000  0.70728000  0.72122000  1.0
  C  C56  1  0.94520000  0.14514000  0.16986000  1.0
  C  C57  1  0.05480000  0.85486000  0.83014000  1.0
  C  C58  1  0.10085000  0.10192000  0.22157000  1.0
  C  C59  1  0.89915000  0.89807000  0.77843000  1.0
  N  N60  1  0.64754000  0.78498000  0.44822000  1.0
  N  N61  1  0.35247000  0.21502000  0.55178000  1.0
  N  N62  1  0.64113000  0.17547000  0.82604000  1.0
  N  N63  1  0.35887000  0.82453000  0.17396000  1.0
  O  O64  1  0.73456000  0.13695000  0.54295000  1.0
  O  O65  1  0.26544000  0.86305000  0.45705000  1.0
  O  O66  1  0.60417000  0.14098000  0.33807000  1.0
  O  O67  1  0.39583000  0.85902000  0.66193000  1.0
  O  O68  1  0.07314000  0.98509000  0.26321000  1.0
  O  O69  1  0.92686000  0.01491000  0.73680000  1.0
  O  O70  1  0.25562000  0.18497000  0.23045000  1.0
  O  O71  1  0.74438000  0.81503000  0.76956000  1.0
