# generated using pymatgen
data_CdH2C6(NO2)2
_symmetry_space_group_name_H-M   'P 1'
_cell_length_a   7.81128000
_cell_length_b   8.77289000
_cell_length_c   10.59300000
_cell_angle_alpha   112.00800000
_cell_angle_beta   89.99950000
_cell_angle_gamma   89.99960000
_symmetry_Int_Tables_number   1
_chemical_formula_structural   CdH2C6(NO2)2
_chemical_formula_sum   'Cd4 H8 C24 N8 O16'
_cell_volume   673.01573430
_cell_formula_units_Z   4
loop_
 _symmetry_equiv_pos_site_id
 _symmetry_equiv_pos_as_xyz
  1  'x, y, z'
loop_
 _atom_site_type_symbol
 _atom_site_label
 _atom_site_symmetry_multiplicity
 _atom_site_fract_x
 _atom_site_fract_y
 _atom_site_fract_z
 _atom_site_occupancy
  Cd  Cd0  1  0.14043000  0.53435000  0.35865000  1.0
  Cd  Cd1  1  0.64043000  0.96566000  0.64135000  1.0
  Cd  Cd2  1  0.85957000  0.46565000  0.64135000  1.0
  Cd  Cd3  1  0.35957000  0.03434000  0.35864000  1.0
  H  H4  1  0.85620000  0.73189000  0.97472000  1.0
  H  H5  1  0.35621000  0.76811000  0.02529000  1.0
  H  H6  1  0.14380000  0.26812000  0.02529000  1.0
  H  H7  1  0.64380000  0.23188000  0.97471000  1.0
  H  H8  1  0.09698000  0.67268000  0.10879000  1.0
  H  H9  1  0.59698000  0.82732000  0.89121000  1.0
  H  H10  1  0.90302000  0.32732000  0.89121000  1.0
  H  H11  1  0.40302000  0.17268000  0.10878000  1.0
  C  C12  1  0.76819000  0.62235000  0.28187000  1.0
  C  C13  1  0.26820000  0.87765000  0.71813000  1.0
  C  C14  1  0.23180000  0.37765000  0.71813000  1.0
  C  C15  1  0.73180000  0.12236000  0.28187000  1.0
  C  C16  1  0.63433000  0.65339000  0.20614000  1.0
  C  C17  1  0.13433000  0.84661000  0.79386000  1.0
  C  C18  1  0.36567000  0.34661000  0.79386000  1.0
  C  C19  1  0.86567000  0.15339000  0.20614000  1.0
  C  C20  1  0.82921000  0.69878000  0.06235000  1.0
  C  C21  1  0.32922000  0.80122000  0.93765000  1.0
  C  C22  1  0.17079000  0.30123000  0.93765000  1.0
  C  C23  1  0.67078000  0.19877000  0.06235000  1.0
  C  C24  1  0.96345000  0.66434000  0.13455000  1.0
  C  C25  1  0.46345000  0.83566000  0.86545000  1.0
  C  C26  1  0.03655000  0.33566000  0.86545000  1.0
  C  C27  1  0.53655000  0.16434000  0.13455000  1.0
  C  C28  1  0.44810000  0.64267000  0.24065000  1.0
  C  C29  1  0.94811000  0.85733000  0.75935000  1.0
  C  C30  1  0.55190000  0.35733000  0.75935000  1.0
  C  C31  1  0.05189000  0.14267000  0.24065000  1.0
  C  C32  1  0.74140000  0.59971000  0.41528000  1.0
  C  C33  1  0.24141000  0.90030000  0.58472000  1.0
  C  C34  1  0.25861000  0.40028000  0.58472000  1.0
  C  C35  1  0.75858000  0.09970000  0.41527000  1.0
  N  N36  1  0.93156000  0.62300000  0.24172000  1.0
  N  N37  1  0.43156000  0.87700000  0.75828000  1.0
  N  N38  1  0.06844000  0.37700000  0.75828000  1.0
  N  N39  1  0.56844000  0.12300000  0.24172000  1.0
  N  N40  1  0.66548000  0.69106000  0.09658000  1.0
  N  N41  1  0.16548000  0.80893000  0.90341000  1.0
  N  N42  1  0.33453000  0.30894000  0.90342000  1.0
  N  N43  1  0.83452000  0.19107000  0.09659000  1.0
  O  O44  1  0.84436000  0.49764000  0.43616000  1.0
  O  O45  1  0.34435000  0.00237000  0.56385000  1.0
  O  O46  1  0.15564000  0.50236000  0.56385000  1.0
  O  O47  1  0.65565000  0.99764000  0.43615000  1.0
  O  O48  1  0.34731000  0.75391000  0.23655000  1.0
  O  O49  1  0.84732000  0.74608000  0.76345000  1.0
  O  O50  1  0.65269000  0.24609000  0.76345000  1.0
  O  O51  1  0.15269000  0.25392000  0.23656000  1.0
  O  O52  1  0.40399000  0.51822000  0.26651000  1.0
  O  O53  1  0.90399000  0.98176000  0.73348000  1.0
  O  O54  1  0.59602000  0.48177000  0.73349000  1.0
  O  O55  1  0.09600000  0.01823000  0.26651000  1.0
  O  O56  1  0.62886000  0.68319000  0.49564000  1.0
  O  O57  1  0.12887000  0.81681000  0.50436000  1.0
  O  O58  1  0.37113000  0.31682000  0.50437000  1.0
  O  O59  1  0.87113000  0.18319000  0.49564000  1.0
