# generated using pymatgen
data_CdH22C22N4O5
_symmetry_space_group_name_H-M   'P 1'
_cell_length_a   9.27847000
_cell_length_b   10.42360000
_cell_length_c   11.40570000
_cell_angle_alpha   91.05760000
_cell_angle_beta   103.40400000
_cell_angle_gamma   102.74900000
_symmetry_Int_Tables_number   1
_chemical_formula_structural   CdH22C22N4O5
_chemical_formula_sum   'Cd2 H44 C44 N8 O10'
_cell_volume   1043.77816299
_cell_formula_units_Z   2
loop_
 _symmetry_equiv_pos_site_id
 _symmetry_equiv_pos_as_xyz
  1  'x, y, z'
loop_
 _atom_site_type_symbol
 _atom_site_label
 _atom_site_symmetry_multiplicity
 _atom_site_fract_x
 _atom_site_fract_y
 _atom_site_fract_z
 _atom_site_occupancy
  Cd  Cd0  1  0.67222000  0.81727000  0.97609000  1.0
  Cd  Cd1  1  0.32778000  0.18273000  0.02391000  1.0
  H  H2  1  0.52171000  0.56193000  0.14336000  1.0
  H  H3  1  0.47829000  0.43807000  0.85664000  1.0
  H  H4  1  0.55851000  0.97258000  0.19762000  1.0
  H  H5  1  0.44149000  0.02742000  0.80238000  1.0
  H  H6  1  0.38986000  0.83939000  0.34895000  1.0
  H  H7  1  0.61015000  0.16061000  0.65105000  1.0
  H  H8  1  0.26997000  0.43671000  0.15760000  1.0
  H  H9  1  0.73004000  0.56329000  0.84240000  1.0
  H  H10  1  0.11847000  0.26385000  0.25211000  1.0
  H  H11  1  0.88153000  0.73615000  0.74789000  1.0
  H  H12  1  0.26740000  0.50270000  0.58991000  1.0
  H  H13  1  0.73259000  0.49730000  0.41009000  1.0
  H  H14  1  0.42344000  0.67403000  0.49588000  1.0
  H  H15  1  0.57656000  0.32597000  0.50413000  1.0
  H  H16  1  0.90554000  0.20201000  0.31865000  1.0
  H  H17  1  0.09445000  0.79799000  0.68135000  1.0
  H  H18  1  0.74057000  0.04456000  0.41238000  1.0
  H  H19  1  0.25943000  0.95543000  0.58762000  1.0
  H  H20  1  0.07581000  0.13781000  0.75464000  1.0
  H  H21  1  0.92419000  0.86219000  0.24536000  1.0
  H  H22  1  0.23515000  0.30229000  0.66158000  1.0
  H  H23  1  0.76485000  0.69771000  0.33842000  1.0
  H  H24  1  0.91306000  0.02780000  0.83816000  1.0
  H  H25  1  0.08694000  0.97220000  0.16183000  1.0
  H  H26  1  0.48395000  0.78592000  0.67319000  1.0
  H  H27  1  0.51605000  0.21408000  0.32681000  1.0
  H  H28  1  0.60994000  0.90780000  0.49333000  1.0
  H  H29  1  0.39006000  0.09220000  0.50667000  1.0
  H  H30  1  0.07803000  0.57644000  0.05484000  1.0
  H  H31  1  0.92197000  0.42356000  0.94517000  1.0
  H  H32  1  0.10081000  0.67373000  0.18850000  1.0
  H  H33  1  0.89919000  0.32628000  0.81150000  1.0
  H  H34  1  0.19629000  0.74007000  0.07598000  1.0
  H  H35  1  0.80371000  0.25993000  0.92403000  1.0
  H  H36  1  0.11639000  0.65863000  0.83819000  1.0
  H  H37  1  0.88361000  0.34137000  0.16182000  1.0
  H  H38  1  0.19158000  0.51360000  0.85716000  1.0
  H  H39  1  0.80843000  0.48640000  0.14285000  1.0
  H  H40  1  0.17287000  0.58952000  0.71795000  1.0
  H  H41  1  0.82712000  0.41048000  0.28205000  1.0
  H  H42  1  0.73004000  0.08761000  0.09312000  1.0
  H  H43  1  0.26996000  0.91239000  0.90688000  1.0
  H  H44  1  0.87651000  0.07267000  0.04708000  1.0
  H  H45  1  0.12348000  0.92733000  0.95292000  1.0
  C  C46  1  0.51050000  0.65732000  0.17638000  1.0
  C  C47  1  0.48950000  0.34268000  0.82362000  1.0
  C  C48  1  0.52925000  0.86801000  0.21053000  1.0
  C  C49  1  0.47075000  0.13199000  0.78947000  1.0
  C  C50  1  0.44752000  0.80428000  0.28707000  1.0
  C  C51  1  0.55248000  0.19572000  0.71293000  1.0
  C  C52  1  0.35378000  0.56766000  0.32045000  1.0
  C  C53  1  0.64623000  0.43235000  0.67955000  1.0
  C  C54  1  0.26950000  0.45120000  0.25239000  1.0
  C  C55  1  0.73050000  0.54880000  0.74761000  1.0
  C  C56  1  0.18284000  0.35441000  0.30623000  1.0
  C  C57  1  0.81716000  0.64559000  0.69377000  1.0
  C  C58  1  0.17823000  0.37053000  0.42784000  1.0
  C  C59  1  0.82177000  0.62947000  0.57216000  1.0
  C  C60  1  0.26685000  0.48734000  0.49503000  1.0
  C  C61  1  0.73315000  0.51266000  0.50497000  1.0
  C  C62  1  0.35369000  0.58509000  0.44222000  1.0
  C  C63  1  0.64631000  0.41491000  0.55779000  1.0
  C  C64  1  0.08213000  0.26901000  0.48310000  1.0
  C  C65  1  0.91787000  0.73099000  0.51690000  1.0
  C  C66  1  0.94312000  0.19128000  0.41499000  1.0
  C  C67  1  0.05688000  0.80872000  0.58501000  1.0
  C  C68  1  0.84827000  0.10106000  0.46853000  1.0
  C  C69  1  0.15172000  0.89894000  0.53147000  1.0
  C  C70  1  0.89245000  0.08370000  0.59203000  1.0
  C  C71  1  0.10754000  0.91630000  0.40797000  1.0
  C  C72  1  0.03408000  0.15528000  0.66032000  1.0
  C  C73  1  0.96592000  0.84472000  0.33968000  1.0
  C  C74  1  0.12578000  0.24757000  0.60633000  1.0
  C  C75  1  0.87421000  0.75243000  0.39367000  1.0
  C  C76  1  0.81344000  0.97868000  0.76913000  1.0
  C  C77  1  0.18656000  0.02132000  0.23087000  1.0
  C  C78  1  0.59145000  0.85576000  0.67994000  1.0
  C  C79  1  0.40855000  0.14424000  0.32005000  1.0
  C  C80  1  0.65158000  0.91624000  0.59053000  1.0
  C  C81  1  0.34842000  0.08376000  0.40947000  1.0
  C  C82  1  0.95375000  0.73097000  0.03657000  1.0
  C  C83  1  0.04624000  0.26903000  0.96343000  1.0
  C  C84  1  0.09151000  0.67770000  0.09085000  1.0
  C  C85  1  0.90849000  0.32230000  0.90916000  1.0
  C  C86  1  0.36039000  0.69292000  0.85997000  1.0
  C  C87  1  0.63961000  0.30708000  0.14003000  1.0
  C  C88  1  0.20034000  0.60895000  0.81665000  1.0
  C  C89  1  0.79966000  0.39105000  0.18335000  1.0
  N  N90  1  0.56829000  0.77555000  0.14303000  1.0
  N  N91  1  0.43170000  0.22445000  0.85697000  1.0
  N  N92  1  0.43626000  0.67063000  0.26502000  1.0
  N  N93  1  0.56374000  0.32937000  0.73498000  1.0
  N  N94  1  0.79320000  0.99505000  0.64800000  1.0
  N  N95  1  0.20680000  0.00495000  0.35200000  1.0
  N  N96  1  0.69323000  0.89545000  0.79024000  1.0
  N  N97  1  0.30677000  0.10455000  0.20976000  1.0
  O  O98  1  0.82198000  0.66207000  0.03728000  1.0
  O  O99  1  0.17802000  0.33793000  0.96272000  1.0
  O  O100  1  0.97174000  0.84507000  0.99574000  1.0
  O  O101  1  0.02825000  0.15493000  0.00425000  1.0
  O  O102  1  0.38269000  0.81677000  0.88636000  1.0
  O  O103  1  0.61731000  0.18323000  0.11364000  1.0
  O  O104  1  0.47112000  0.63686000  0.86886000  1.0
  O  O105  1  0.52889000  0.36314000  0.13113000  1.0
  O  O106  1  0.79223000  0.02297000  0.08144000  1.0
  O  O107  1  0.20777000  0.97703000  0.91856000  1.0
