# generated using pymatgen
data_Zn3H21(C16O9)2
_symmetry_space_group_name_H-M   'P 1'
_cell_length_a   18.50180000
_cell_length_b   18.55880000
_cell_length_c   18.67060000
_cell_angle_alpha   109.25700000
_cell_angle_beta   109.48400000
_cell_angle_gamma   109.33000000
_symmetry_Int_Tables_number   1
_chemical_formula_structural   Zn3H21(C16O9)2
_chemical_formula_sum   'Zn6 H42 C64 O36'
_cell_volume   4955.89405452
_cell_formula_units_Z   2
loop_
 _symmetry_equiv_pos_site_id
 _symmetry_equiv_pos_as_xyz
  1  'x, y, z'
loop_
 _atom_site_type_symbol
 _atom_site_label
 _atom_site_symmetry_multiplicity
 _atom_site_fract_x
 _atom_site_fract_y
 _atom_site_fract_z
 _atom_site_occupancy
  Zn  Zn0  1  0.92911000  0.49113000  0.93416000  1.0
  Zn  Zn1  1  0.05383000  0.48701000  0.05799000  1.0
  Zn  Zn2  1  0.49585000  0.06224000  0.07045000  1.0
  Zn  Zn3  1  0.49045000  0.93234000  0.94345000  1.0
  Zn  Zn4  1  0.94470000  0.93818000  0.50199000  1.0
  Zn  Zn5  1  0.06963000  0.06368000  0.49911000  1.0
  H  H6  1  0.33321000  0.68150000  0.97462000  1.0
  H  H7  1  0.87507000  0.16039000  0.41516000  1.0
  H  H8  1  0.74596000  0.16077000  0.31366000  1.0
  H  H9  1  0.29352000  0.91358000  0.75133000  1.0
  H  H10  1  0.34706000  0.16673000  0.92690000  1.0
  H  H11  1  0.30656000  0.87534000  0.11993000  1.0
  H  H12  1  0.28360000  0.71054000  0.10652000  1.0
  H  H13  1  0.99150000  0.23765000  0.63262000  1.0
  H  H14  1  0.77640000  0.36293000  0.18660000  1.0
  H  H15  1  0.67079000  0.27274000  0.14303000  1.0
  H  H16  1  0.75979000  0.30579000  0.24474000  1.0
  H  H17  1  0.00021000  0.35809000  0.75343000  1.0
  H  H18  1  0.73546000  0.17144000  0.12797000  1.0
  H  H19  1  0.83898000  0.26132000  0.16797000  1.0
  H  H20  1  0.59648000  0.15888000  0.67574000  1.0
  H  H21  1  0.18942000  0.90856000  0.27183000  1.0
  H  H22  1  0.25098000  0.90500000  0.36541000  1.0
  H  H23  1  0.27638000  0.88517000  0.27969000  1.0
  H  H24  1  0.19226000  0.74295000  0.27152000  1.0
  H  H25  1  0.13608000  0.74705000  0.17804000  1.0
  H  H26  1  0.66871000  0.78029000  0.09318000  1.0
  H  H27  1  0.74788000  0.84039000  0.07186000  1.0
  H  H28  1  0.85875000  0.34436000  0.09130000  1.0
  H  H29  1  0.75640000  0.75908000  0.09859000  1.0
  H  H30  1  0.86679000  0.90429000  0.22884000  1.0
  H  H31  1  0.78653000  0.84852000  0.24944000  1.0
  H  H32  1  0.14957000  0.77891000  0.53705000  1.0
  H  H33  1  0.28683000  0.30623000  0.89581000  1.0
  H  H34  1  0.05821000  0.63594000  0.74344000  1.0
  H  H35  1  0.03309000  0.71430000  0.79842000  1.0
  H  H36  1  0.05762000  0.71823000  0.71509000  1.0
  H  H37  1  0.18800000  0.83555000  0.86312000  1.0
  H  H38  1  0.21365000  0.75867000  0.80808000  1.0
  H  H39  1  0.59361000  0.08568000  0.82202000  1.0
  H  H40  1  0.05985000  0.82353000  0.06470000  1.0
  H  H41  1  0.95015000  0.21275000  0.98269000  1.0
  H  H42  1  0.94678000  0.98768000  0.80038000  1.0
  H  H43  1  0.12046000  0.88162000  0.35785000  1.0
  H  H44  1  0.86543000  0.68530000  0.28361000  1.0
  H  H45  1  0.87458000  0.57359000  0.17224000  1.0
  H  H46  1  0.66705000  0.90676000  0.11525000  1.0
  H  H47  1  0.15169000  0.59772000  0.84621000  1.0
  C  C48  1  0.01484000  0.37121000  0.90312000  1.0
  C  C49  1  0.00596000  0.29572000  0.83217000  1.0
  C  C50  1  0.79926000  0.28753000  0.03255000  1.0
  C  C51  1  0.08913000  0.61048000  0.97966000  1.0
  C  C52  1  0.74349000  0.22206000  0.04025000  1.0
  C  C53  1  0.66833000  0.14889000  0.96229000  1.0
  C  C54  1  0.65139000  0.14348000  0.88128000  1.0
  C  C55  1  0.70688000  0.21099000  0.87515000  1.0
  C  C56  1  0.78205000  0.28424000  0.95241000  1.0
  C  C57  1  0.07666000  0.75146000  0.25861000  1.0
  C  C58  1  0.06804000  0.81335000  0.31708000  1.0
  C  C59  1  0.27353000  0.81302000  0.05961000  1.0
  C  C60  1  0.99288000  0.79002000  0.32645000  1.0
  C  C61  1  0.92362000  0.70300000  0.27595000  1.0
  C  C62  1  0.92941000  0.64091000  0.21472000  1.0
  C  C63  1  0.00733000  0.59731000  0.13703000  1.0
  C  C64  1  0.00514000  0.66454000  0.20653000  1.0
  C  C65  1  0.62157000  0.02899000  0.14470000  1.0
  C  C66  1  0.37487000  0.86336000  0.99100000  1.0
  C  C67  1  0.38341000  0.03232000  0.91894000  1.0
  C  C68  1  0.60248000  0.07968000  0.96626000  1.0
  C  C69  1  0.91155000  0.02758000  0.38696000  1.0
  C  C70  1  0.26106000  0.72276000  0.05197000  1.0
  C  C71  1  0.98319000  0.08981000  0.61989000  1.0
  C  C72  1  0.15367000  0.04181000  0.62562000  1.0
  C  C73  1  0.98797000  0.85977000  0.38952000  1.0
  C  C74  1  0.71279000  0.96093000  0.18185000  1.0
  C  C75  1  0.84789000  0.36144000  0.95710000  1.0
  C  C76  1  0.78216000  0.95783000  0.23794000  1.0
  C  C77  1  0.84002000  0.03118000  0.32285000  1.0
  C  C78  1  0.82835000  0.10435000  0.34946000  1.0
  C  C79  1  0.75678000  0.10492000  0.29321000  1.0
  C  C80  1  0.69858000  0.03264000  0.20887000  1.0
  C  C81  1  0.16228000  0.67727000  0.98137000  1.0
  C  C82  1  0.28433000  0.97033000  0.76153000  1.0
  C  C83  1  0.23233000  0.97391000  0.69055000  1.0
  C  C84  1  0.22042000  0.04754000  0.70380000  1.0
  C  C85  1  0.26229000  0.11720000  0.78976000  1.0
  C  C86  1  0.31512000  0.11287000  0.86064000  1.0
  C  C87  1  0.18843000  0.66015000  0.90742000  1.0
  C  C88  1  0.32614000  0.03965000  0.84676000  1.0
  C  C89  1  0.28726000  0.70536000  0.97872000  1.0
  C  C90  1  0.30120000  0.79682000  0.98835000  1.0
  C  C91  1  0.20079000  0.75046000  0.91398000  1.0
  C  C92  1  0.00430000  0.22195000  0.83871000  1.0
  C  C93  1  0.17373000  0.76743000  0.98680000  1.0
  C  C94  1  0.76720000  0.23446000  0.13072000  1.0
  C  C95  1  0.74203000  0.29779000  0.17924000  1.0
  C  C96  1  0.68969000  0.19983000  0.78711000  1.0
  C  C97  1  0.15777000  0.77581000  0.24832000  1.0
  C  C98  1  0.22201000  0.87408000  0.29405000  1.0
  C  C99  1  0.79659000  0.87977000  0.21003000  1.0
  C  C100  1  0.73916000  0.81133000  0.11308000  1.0
  C  C101  1  0.19202000  0.90049000  0.60041000  1.0
  C  C102  1  0.24708000  0.19370000  0.80672000  1.0
  C  C103  1  0.99733000  0.15357000  0.77016000  1.0
  C  C104  1  0.17270000  0.76662000  0.83827000  1.0
  C  C105  1  0.07473000  0.70519000  0.76996000  1.0
  C  C106  1  0.11519000  0.80377000  0.99667000  1.0
  C  C107  1  0.01006000  0.21504000  0.91809000  1.0
  C  C108  1  0.00249000  0.07787000  0.77984000  1.0
  C  C109  1  0.99211000  0.16003000  0.69594000  1.0
  C  C110  1  0.99443000  0.23405000  0.69050000  1.0
  C  C111  1  0.00004000  0.30084000  0.75750000  1.0
  O  O112  1  0.97102000  0.40686000  0.87909000  1.0
  O  O113  1  0.99216000  0.08018000  0.41285000  1.0
  O  O114  1  0.93215000  0.00915000  0.59525000  1.0
  O  O115  1  0.06745000  0.39614000  0.98297000  1.0
  O  O116  1  0.02446000  0.11491000  0.58311000  1.0
  O  O117  1  0.07527000  0.98460000  0.59653000  1.0
  O  O118  1  0.17842000  0.09001000  0.59341000  1.0
  O  O119  1  0.93430000  0.83519000  0.41767000  1.0
  O  O120  1  0.03598000  0.93890000  0.41130000  1.0
  O  O121  1  0.00886000  0.58521000  0.92651000  1.0
  O  O122  1  0.11264000  0.58197000  0.03156000  1.0
  O  O123  1  0.58426000  0.96965000  0.06537000  1.0
  O  O124  1  0.95523000  0.57269000  0.05857000  1.0
  O  O125  1  0.06174000  0.57001000  0.16138000  1.0
  O  O126  1  0.82227000  0.39313000  0.90831000  1.0
  O  O127  1  0.92729000  0.39318000  0.01449000  1.0
  O  O128  1  0.59672000  0.08490000  0.17184000  1.0
  O  O129  1  0.74519000  0.21570000  0.76466000  1.0
  O  O130  1  0.60206000  0.16615000  0.73209000  1.0
  O  O131  1  0.17767000  0.90795000  0.53524000  1.0
  O  O132  1  0.17405000  0.82203000  0.59816000  1.0
  O  O133  1  0.19069000  0.19778000  0.75373000  1.0
  O  O134  1  0.40582000  0.94361000  0.04495000  1.0
  O  O135  1  0.30427000  0.26117000  0.89061000  1.0
  O  O136  1  0.08726000  0.83763000  0.95654000  1.0
  O  O137  1  0.09751000  0.79743000  0.06065000  1.0
  O  O138  1  0.06805000  0.20815000  0.96562000  1.0
  O  O139  1  0.94094000  0.21475000  0.92870000  1.0
  O  O140  1  0.06095000  0.06090000  0.78139000  1.0
  O  O141  1  0.93536000  0.03204000  0.78939000  1.0
  O  O142  1  0.40058000  0.83457000  0.93682000  1.0
  O  O143  1  0.41384000  0.08837000  0.99901000  1.0
  O  O144  1  0.39925000  0.96946000  0.89536000  1.0
  O  O145  1  0.58017000  0.10731000  0.02238000  1.0
  O  O146  1  0.57168000  0.99794000  0.91347000  1.0
  O  O147  1  0.88602000  0.97178000  0.41063000  1.0
