# generated using pymatgen
data_AlH8C14NO6F
_symmetry_space_group_name_H-M   'P 1'
_cell_length_a   6.76606000
_cell_length_b   15.36765442
_cell_length_c   17.04040000
_cell_angle_alpha   91.47850572
_cell_angle_beta   98.28050000
_cell_angle_gamma   101.95271670
_symmetry_Int_Tables_number   1
_chemical_formula_structural   AlH8C14NO6F
_chemical_formula_sum   'Al2 H16 C28 N2 O12 F2'
_cell_volume   1712.51402876
_cell_formula_units_Z   2
loop_
 _symmetry_equiv_pos_site_id
 _symmetry_equiv_pos_as_xyz
  1  'x, y, z'
loop_
 _atom_site_type_symbol
 _atom_site_label
 _atom_site_symmetry_multiplicity
 _atom_site_fract_x
 _atom_site_fract_y
 _atom_site_fract_z
 _atom_site_occupancy
  Al  Al0  1  0.00000000  0.50000000  0.50000000  1.0
  Al  Al1  1  0.50000000  0.50000000  0.50000000  1.0
  H  H2  1  0.18140000  0.40029000  0.44107000  1.0
  H  H3  1  0.81858000  0.59971000  0.55893000  1.0
  H  H4  1  0.65117000  0.49575000  0.74069000  1.0
  H  H5  1  0.71194000  0.49763000  0.88833000  1.0
  H  H6  1  0.07661000  0.49944000  0.89168000  1.0
  H  H7  1  0.92339000  0.50056000  0.10831000  1.0
  H  H8  1  0.28807000  0.50237000  0.11167000  1.0
  H  H9  1  0.34882000  0.50424000  0.25931000  1.0
  H  H10  1  0.69814000  0.76859000  0.49635000  1.0
  H  H11  1  0.30187000  0.23141000  0.50365000  1.0
  H  H12  1  0.93486000  0.22572000  0.50460000  1.0
  H  H13  1  0.85041000  0.06420000  0.50260000  1.0
  H  H14  1  0.06515000  0.77428000  0.49540000  1.0
  H  H15  1  0.14958000  0.93580000  0.49741000  1.0
  H  H16  1  0.98105000  0.49505000  0.68023000  1.0
  H  H17  1  0.01897000  0.50495000  0.31976000  1.0
  C  C18  1  0.67378000  0.33982000  0.50239000  1.0
  C  C19  1  0.69742000  0.50390000  0.35534000  1.0
  C  C20  1  0.32621000  0.66017000  0.49762000  1.0
  C  C21  1  0.30258000  0.49610000  0.64467000  1.0
  C  C22  1  0.33057000  0.49582000  0.73181000  1.0
  C  C23  1  0.52612000  0.49625000  0.77415000  1.0
  C  C24  1  0.56105000  0.49743000  0.85598000  1.0
  C  C25  1  0.39637000  0.49857000  0.89820000  1.0
  C  C26  1  0.20126000  0.49830000  0.85793000  1.0
  C  C27  1  0.16572000  0.49668000  0.77475000  1.0
  C  C28  1  0.79873000  0.50170000  0.14207000  1.0
  C  C29  1  0.60364000  0.50144000  0.10180000  1.0
  C  C30  1  0.43895000  0.50257000  0.14401000  1.0
  C  C31  1  0.47389000  0.50375000  0.22585000  1.0
  C  C32  1  0.66944000  0.50419000  0.26819000  1.0
  C  C33  1  0.83428000  0.50332000  0.22525000  1.0
  C  C34  1  0.37462000  0.75901000  0.49702000  1.0
  C  C35  1  0.62538000  0.24099000  0.50298000  1.0
  C  C36  1  0.57572000  0.80462000  0.49702000  1.0
  C  C37  1  0.62072000  0.89664000  0.49768000  1.0
  C  C38  1  0.42427000  0.19537000  0.50297000  1.0
  C  C39  1  0.37928000  0.10336000  0.50232000  1.0
  C  C40  1  0.77666000  0.19132000  0.50332000  1.0
  C  C41  1  0.72722000  0.09900000  0.50236000  1.0
  C  C42  1  0.22333000  0.80868000  0.49668000  1.0
  C  C43  1  0.27277000  0.90100000  0.49763000  1.0
  C  C44  1  0.47492000  0.95061000  0.49889000  1.0
  C  C45  1  0.52507000  0.04939000  0.50110000  1.0
  N  N46  1  0.41135000  0.50011000  0.98198000  1.0
  N  N47  1  0.58866000  0.49989000  0.01801000  1.0
  O  O48  1  0.85941000  0.37813000  0.50092000  1.0
  O  O49  1  0.54442000  0.50190000  0.39113000  1.0
  O  O50  1  0.47531000  0.62125000  0.49740000  1.0
  O  O51  1  0.11907000  0.49564000  0.60885000  1.0
  O  O52  1  0.14058000  0.62187000  0.49908000  1.0
  O  O53  1  0.45558000  0.49810000  0.60888000  1.0
  O  O54  1  0.52468000  0.37874000  0.50260000  1.0
  O  O55  1  0.88093000  0.50437000  0.39115000  1.0
  O  O56  1  0.21770000  0.46090000  0.46399000  1.0
  O  O57  1  0.78229000  0.53909000  0.53602000  1.0
  O  O58  1  0.97451000  0.49636000  0.73865000  1.0
  O  O59  1  0.02550000  0.50364000  0.26134000  1.0
  F  F60  1  0.82263000  0.93337000  0.49695000  1.0
  F  F61  1  0.17738000  0.06663000  0.50305000  1.0
