# generated using pymatgen
data_Cu2H8C16Se4S4N4Cl3
_symmetry_space_group_name_H-M   'P 1'
_cell_length_a   6.92997000
_cell_length_b   7.47123000
_cell_length_c   11.68860000
_cell_angle_alpha   84.25620000
_cell_angle_beta   89.75650000
_cell_angle_gamma   75.74650000
_symmetry_Int_Tables_number   1
_chemical_formula_structural   Cu2H8C16Se4S4N4Cl3
_chemical_formula_sum   'Cu2 H8 C16 Se4 S4 N4 Cl3'
_cell_volume   583.47658601
_cell_formula_units_Z   1
loop_
 _symmetry_equiv_pos_site_id
 _symmetry_equiv_pos_as_xyz
  1  'x, y, z'
loop_
 _atom_site_type_symbol
 _atom_site_label
 _atom_site_symmetry_multiplicity
 _atom_site_fract_x
 _atom_site_fract_y
 _atom_site_fract_z
 _atom_site_occupancy
  Cu  Cu0  1  0.29742000  0.05740000  0.55958000  1.0
  Cu  Cu1  1  0.70261000  0.94256000  0.44044000  1.0
  H  H2  1  0.20723000  0.46606000  0.53024000  1.0
  H  H3  1  0.79277000  0.53393000  0.46975000  1.0
  H  H4  1  0.13014000  0.72032000  0.66291000  1.0
  H  H5  1  0.86987000  0.27968000  0.33708000  1.0
  H  H6  1  0.35512000  0.45623000  0.25673000  1.0
  H  H7  1  0.64488000  0.54379000  0.74330000  1.0
  H  H8  1  0.27926000  0.72804000  0.38682000  1.0
  H  H9  1  0.72072000  0.27203000  0.61318000  1.0
  C  C10  1  0.20093000  0.43597000  0.62307000  1.0
  C  C11  1  0.79906000  0.56404000  0.37691000  1.0
  C  C12  1  0.16195000  0.57433000  0.69680000  1.0
  C  C13  1  0.83806000  0.42565000  0.30321000  1.0
  C  C14  1  0.23560000  0.21360000  0.77796000  1.0
  C  C15  1  0.76440000  0.78639000  0.22203000  1.0
  C  C16  1  0.19790000  0.35623000  0.85131000  1.0
  C  C17  1  0.80211000  0.64376000  0.14868000  1.0
  C  C18  1  0.24561000  0.03058000  0.99260000  1.0
  C  C19  1  0.75438000  0.96940000  0.00738000  1.0
  C  C20  1  0.26093000  0.90289000  0.08712000  1.0
  C  C21  1  0.73905000  0.09710000  0.91287000  1.0
  C  C22  1  0.31934000  0.60339000  0.22495000  1.0
  C  C23  1  0.68065000  0.39664000  0.77506000  1.0
  C  C24  1  0.28073000  0.74310000  0.29323000  1.0
  C  C25  1  0.71927000  0.25694000  0.70677000  1.0
  Se  Se26  1  0.28114000  0.96136000  0.83991000  1.0
  Se  Se27  1  0.71883000  0.03863000  0.16007000  1.0
  Se  Se28  1  0.19153000  0.28705000  0.01253000  1.0
  Se  Se29  1  0.80848000  0.71293000  0.98747000  1.0
  S  S30  1  0.31578000  0.66394000  0.07849000  1.0
  S  S31  1  0.68421000  0.33604000  0.92152000  1.0
  S  S32  1  0.23018000  0.96676000  0.22709000  1.0
  S  S33  1  0.76981000  0.03326000  0.77289000  1.0
  N  N34  1  0.23878000  0.25383000  0.66359000  1.0
  N  N35  1  0.76122000  0.74617000  0.33641000  1.0
  N  N36  1  0.16246000  0.53430000  0.81193000  1.0
  N  N37  1  0.83755000  0.46572000  0.18805000  1.0
  Cl  Cl38  1  0.53561000  0.78656000  0.59019000  1.0
  Cl  Cl39  1  0.46441000  0.21342000  0.40984000  1.0
  Cl  Cl40  1  0.99998000  0.00000000  0.50003000  1.0
