# generated using pymatgen
data_CoH13C18(NO3)2
_symmetry_space_group_name_H-M   'P 1'
_cell_length_a   8.84686000
_cell_length_b   9.77845000
_cell_length_c   10.35470000
_cell_angle_alpha   93.19830000
_cell_angle_beta   106.31400000
_cell_angle_gamma   108.81800000
_symmetry_Int_Tables_number   1
_chemical_formula_structural   CoH13C18(NO3)2
_chemical_formula_sum   'Co2 H26 C36 N4 O12'
_cell_volume   803.11417122
_cell_formula_units_Z   2
loop_
 _symmetry_equiv_pos_site_id
 _symmetry_equiv_pos_as_xyz
  1  'x, y, z'
loop_
 _atom_site_type_symbol
 _atom_site_label
 _atom_site_symmetry_multiplicity
 _atom_site_fract_x
 _atom_site_fract_y
 _atom_site_fract_z
 _atom_site_occupancy
  Co  Co0  1  0.17550000  0.39239000  0.64094000  1.0
  Co  Co1  1  0.82451000  0.60761000  0.35906000  1.0
  H  H2  1  0.33010000  0.00293000  0.76947000  1.0
  H  H3  1  0.66990000  0.99708000  0.23053000  1.0
  H  H4  1  0.61484000  0.00966000  0.89752000  1.0
  H  H5  1  0.38515000  0.99034000  0.10248000  1.0
  H  H6  1  0.80573000  0.46568000  0.97787000  1.0
  H  H7  1  0.19427000  0.53432000  0.02213000  1.0
  H  H8  1  0.52724000  0.47993000  0.85004000  1.0
  H  H9  1  0.47277000  0.52007000  0.14996000  1.0
  H  H10  1  0.90957000  0.14454000  0.82717000  1.0
  H  H11  1  0.09043000  0.85545000  0.17283000  1.0
  H  H12  1  0.19175000  0.13576000  0.94506000  1.0
  H  H13  1  0.80825000  0.86424000  0.05495000  1.0
  H  H14  1  0.32276000  0.22473000  0.19665000  1.0
  H  H15  1  0.67724000  0.77527000  0.80335000  1.0
  H  H16  1  0.99315000  0.06126000  0.59009000  1.0
  H  H17  1  0.00685000  0.93874000  0.40990000  1.0
  H  H18  1  0.70120000  0.88322000  0.51352000  1.0
  H  H19  1  0.29880000  0.11678000  0.48647000  1.0
  H  H20  1  0.53551000  0.25186000  0.54727000  1.0
  H  H21  1  0.46449000  0.74815000  0.45273000  1.0
  H  H22  1  0.83413000  0.41097000  0.62136000  1.0
  H  H23  1  0.16587000  0.58904000  0.37864000  1.0
  H  H24  1  0.48257000  0.59162000  0.63165000  1.0
  H  H25  1  0.51742000  0.40839000  0.36836000  1.0
  H  H26  1  0.36475000  0.65646000  0.69917000  1.0
  H  H27  1  0.63525000  0.34354000  0.30083000  1.0
  C  C28  1  0.40101000  0.24281000  0.79558000  1.0
  C  C29  1  0.59899000  0.75719000  0.20442000  1.0
  C  C30  1  0.43075000  0.10834000  0.81294000  1.0
  C  C31  1  0.56924000  0.89166000  0.18706000  1.0
  C  C32  1  0.58743000  0.10951000  0.88277000  1.0
  C  C33  1  0.41256000  0.89049000  0.11723000  1.0
  C  C34  1  0.69552000  0.36833000  0.92863000  1.0
  C  C35  1  0.30448000  0.63167000  0.07137000  1.0
  C  C36  1  0.54174000  0.37425000  0.85986000  1.0
  C  C37  1  0.45827000  0.62575000  0.14014000  1.0
  C  C38  1  0.88389000  0.23415000  0.01111000  1.0
  C  C39  1  0.11611000  0.76584000  0.98890000  1.0
  C  C40  1  0.96773000  0.18124000  0.93647000  1.0
  C  C41  1  0.03227000  0.81875000  0.06354000  1.0
  C  C42  1  0.12633000  0.17736000  0.00330000  1.0
  C  C43  1  0.87367000  0.82264000  0.99671000  1.0
  C  C44  1  0.19900000  0.22721000  0.14288000  1.0
  C  C45  1  0.80100000  0.77279000  0.85712000  1.0
  C  C46  1  0.11520000  0.28086000  0.21840000  1.0
  C  C47  1  0.88480000  0.71914000  0.78160000  1.0
  C  C48  1  0.95368000  0.28358000  0.15206000  1.0
  C  C49  1  0.04632000  0.71642000  0.84794000  1.0
  C  C50  1  0.85183000  0.33822000  0.22384000  1.0
  C  C51  1  0.14817000  0.66178000  0.77616000  1.0
  C  C52  1  0.19751000  0.32778000  0.37025000  1.0
  C  C53  1  0.80249000  0.67223000  0.62976000  1.0
  C  C54  1  0.88679000  0.09796000  0.57802000  1.0
  C  C55  1  0.11321000  0.90204000  0.42197000  1.0
  C  C56  1  0.72256000  0.99920000  0.53572000  1.0
  C  C57  1  0.27745000  0.00080000  0.46427000  1.0
  C  C58  1  0.58832000  0.05028000  0.52303000  1.0
  C  C59  1  0.41169000  0.94972000  0.47697000  1.0
  C  C60  1  0.63087000  0.20200000  0.55580000  1.0
  C  C61  1  0.36913000  0.79800000  0.44420000  1.0
  C  C62  1  0.79853000  0.29310000  0.59693000  1.0
  C  C63  1  0.20147000  0.70690000  0.40307000  1.0
  N  N64  1  0.92629000  0.24343000  0.60885000  1.0
  N  N65  1  0.07371000  0.75657000  0.39115000  1.0
  N  N66  1  0.71973000  0.23758000  0.93976000  1.0
  N  N67  1  0.28027000  0.76242000  0.06024000  1.0
  O  O68  1  0.09842000  0.33846000  0.43706000  1.0
  O  O69  1  0.90158000  0.66154000  0.56294000  1.0
  O  O70  1  0.89703000  0.47819000  0.24681000  1.0
  O  O71  1  0.10297000  0.52181000  0.75318000  1.0
  O  O72  1  0.39163000  0.56747000  0.67530000  1.0
  O  O73  1  0.60837000  0.43253000  0.32470000  1.0
  O  O74  1  0.25334000  0.23957000  0.72645000  1.0
  O  O75  1  0.74666000  0.76044000  0.27355000  1.0
  O  O76  1  0.35157000  0.34879000  0.42372000  1.0
  O  O77  1  0.64843000  0.65121000  0.57628000  1.0
  O  O78  1  0.72717000  0.24531000  0.24358000  1.0
  O  O79  1  0.27284000  0.75470000  0.75642000  1.0
