# generated using pymatgen
data_Al3H32C42(BrO7)2
_symmetry_space_group_name_H-M   'P 1'
_cell_length_a   12.95190000
_cell_length_b   13.11556191
_cell_length_c   28.33550000
_cell_angle_alpha   89.82834203
_cell_angle_beta   89.95390000
_cell_angle_gamma   119.19118753
_symmetry_Int_Tables_number   1
_chemical_formula_structural   Al3H32C42(BrO7)2
_chemical_formula_sum   'Al6 H64 C84 Br4 O28'
_cell_volume   4202.04457828
_cell_formula_units_Z   2
loop_
 _symmetry_equiv_pos_site_id
 _symmetry_equiv_pos_as_xyz
  1  'x, y, z'
loop_
 _atom_site_type_symbol
 _atom_site_label
 _atom_site_symmetry_multiplicity
 _atom_site_fract_x
 _atom_site_fract_y
 _atom_site_fract_z
 _atom_site_occupancy
  Al  Al0  1  0.40801000  0.58612000  0.50313000  1.0
  Al  Al1  1  0.65348000  0.58048000  0.50071000  1.0
  Al  Al2  1  0.42783000  0.35173000  0.49988000  1.0
  Al  Al3  1  0.91971000  0.07526000  0.00228000  1.0
  Al  Al4  1  0.91268000  0.31665000  0.99985000  1.0
  Al  Al5  1  0.68071000  0.09323000  0.00048000  1.0
  H  H6  1  0.80974000  0.51841000  0.77668000  1.0
  H  H7  1  0.88931000  0.41325000  0.70885000  1.0
  H  H8  1  0.49125000  0.23172000  0.77840000  1.0
  H  H9  1  0.57025000  0.12591000  0.71060000  1.0
  H  H10  1  0.78295000  0.20337000  0.76211000  1.0
  H  H11  1  0.22338000  0.21367000  0.80365000  1.0
  H  H12  1  0.20019000  0.17649000  0.72153000  1.0
  H  H13  1  0.98822000  0.28367000  0.70015000  1.0
  H  H14  1  0.00521000  0.15830000  0.69525000  1.0
  H  H15  1  0.00734000  0.13530000  0.77785000  1.0
  H  H16  1  0.94512000  0.22880000  0.78030000  1.0
  H  H17  1  0.30658000  0.49632000  0.72053000  1.0
  H  H18  1  0.17557000  0.48906000  0.69856000  1.0
  H  H19  1  0.23187000  0.50594000  0.79488000  1.0
  H  H20  1  0.33180000  0.31196000  0.71696000  1.0
  H  H21  1  0.31985000  0.36491000  0.79504000  1.0
  H  H22  1  0.08494000  0.44642000  0.77424000  1.0
  H  H23  1  0.48419000  0.80698000  0.78789000  1.0
  H  H24  1  0.47392000  0.75225000  0.70871000  1.0
  H  H25  1  0.77707000  0.01467000  0.69685000  1.0
  H  H26  1  0.62409000  0.96792000  0.69888000  1.0
  H  H27  1  0.64377000  0.00794000  0.78019000  1.0
  H  H28  1  0.79245000  0.03881000  0.77894000  1.0
  H  H29  1  0.75092000  0.72248000  0.71804000  1.0
  H  H30  1  0.84902000  0.87430000  0.71442000  1.0
  H  H31  1  0.72769000  0.73113000  0.79948000  1.0
  H  H32  1  0.52492000  0.65358000  0.72283000  1.0
  H  H33  1  0.84386000  0.87695000  0.79746000  1.0
  H  H34  1  0.48939000  0.23284000  0.20126000  1.0
  H  H35  1  0.47454000  0.24273000  0.28316000  1.0
  H  H36  1  0.77446000  0.27403000  0.30134000  1.0
  H  H37  1  0.62177000  0.17258000  0.30092000  1.0
  H  H38  1  0.62444000  0.15011000  0.21965000  1.0
  H  H39  1  0.77950000  0.24180000  0.22044000  1.0
  H  H40  1  0.74336000  0.53925000  0.27937000  1.0
  H  H41  1  0.84576000  0.49125000  0.29230000  1.0
  H  H42  1  0.77183000  0.52093000  0.19892000  1.0
  H  H43  1  0.52276000  0.39366000  0.27754000  1.0
  H  H44  1  0.54811000  0.38554000  0.19609000  1.0
  H  H45  1  0.86505000  0.46195000  0.21197000  1.0
  H  H46  1  0.22177000  0.51162000  0.20540000  1.0
  H  H47  1  0.24650000  0.52225000  0.28768000  1.0
  H  H48  1  0.00082000  0.21490000  0.30252000  1.0
  H  H49  1  0.03558000  0.36298000  0.30428000  1.0
  H  H50  1  0.00946000  0.36390000  0.22235000  1.0
  H  H51  1  0.96280000  0.21292000  0.22184000  1.0
  H  H52  1  0.30737000  0.26951000  0.28024000  1.0
  H  H53  1  0.15965000  0.16097000  0.29035000  1.0
  H  H54  1  0.27181000  0.25863000  0.19933000  1.0
  H  H55  1  0.36029000  0.48610000  0.28090000  1.0
  H  H56  1  0.32902000  0.46668000  0.19908000  1.0
  H  H57  1  0.78864000  0.79254000  0.20753000  1.0
  H  H58  1  0.75049000  0.72397000  0.28602000  1.0
  H  H59  1  0.74917000  0.00489000  0.30797000  1.0
  H  H60  1  0.83912000  0.94252000  0.29315000  1.0
  H  H61  1  0.83463000  0.00397000  0.21576000  1.0
  H  H62  1  0.71598000  0.03031000  0.22864000  1.0
  H  H63  1  0.46235000  0.71679000  0.29245000  1.0
  H  H64  1  0.47260000  0.72604000  0.21027000  1.0
  H  H65  1  0.59722000  0.63880000  0.27553000  1.0
  H  H66  1  0.64336000  0.68157000  0.19499000  1.0
  H  H67  1  0.50354000  0.87231000  0.21465000  1.0
  H  H68  1  0.32152000  0.69597000  0.47627000  1.0
  H  H69  1  0.00027000  0.96052000  0.97511000  1.0
  C  C70  1  0.61423000  0.70995000  0.56912000  1.0
  C  C71  1  0.62020000  0.39463000  0.56205000  1.0
  C  C72  1  0.28595000  0.37484000  0.56671000  1.0
  C  C73  1  0.61655000  0.71643000  0.43593000  1.0
  C  C74  1  0.61036000  0.40042000  0.43312000  1.0
  C  C75  1  0.29038000  0.38743000  0.43384000  1.0
  C  C76  1  0.80105000  0.37251000  0.72462000  1.0
  C  C77  1  0.75760000  0.43116000  0.76180000  1.0
  C  C78  1  0.71419000  0.29578000  0.88418000  1.0
  C  C79  1  0.65230000  0.36240000  0.60593000  1.0
  C  C80  1  0.74172000  0.25622000  0.75349000  1.0
  C  C81  1  0.69764000  0.31444000  0.79211000  1.0
  C  C82  1  0.62383000  0.21288000  0.72560000  1.0
  C  C83  1  0.68332000  0.32892000  0.69505000  1.0
  C  C84  1  0.57950000  0.27088000  0.76274000  1.0
  C  C85  1  0.63994000  0.38701000  0.73408000  1.0
  C  C86  1  0.70594000  0.30502000  0.84166000  1.0
  C  C87  1  0.67009000  0.34324000  0.64640000  1.0
  C  C88  1  0.24022000  0.27004000  0.72975000  1.0
  C  C89  1  0.03788000  0.24177000  0.71384000  1.0
  C  C90  1  0.02196000  0.22240000  0.76777000  1.0
  C  C91  1  0.08886000  0.30063000  0.88578000  1.0
  C  C92  1  0.17101000  0.32083000  0.70283000  1.0
  C  C93  1  0.23649000  0.29030000  0.78313000  1.0
  C  C94  1  0.13372000  0.31579000  0.79363000  1.0
  C  C95  1  0.16464000  0.43670000  0.77290000  1.0
  C  C96  1  0.20951000  0.44519000  0.72190000  1.0
  C  C97  1  0.11064000  0.30954000  0.84378000  1.0
  C  C98  1  0.19692000  0.32750000  0.65286000  1.0
  C  C99  1  0.22806000  0.34135000  0.61180000  1.0
  C  C100  1  0.54351000  0.74381000  0.72751000  1.0
  C  C101  1  0.69381000  0.95388000  0.71451000  1.0
  C  C102  1  0.70239000  0.97442000  0.76844000  1.0
  C  C103  1  0.68532000  0.90917000  0.88782000  1.0
  C  C104  1  0.66580000  0.82710000  0.70481000  1.0
  C  C105  1  0.54340000  0.77156000  0.78015000  1.0
  C  C106  1  0.66946000  0.85975000  0.79618000  1.0
  C  C107  1  0.75705000  0.81640000  0.78256000  1.0
  C  C108  1  0.76294000  0.80804000  0.72845000  1.0
  C  C109  1  0.67489000  0.88376000  0.84628000  1.0
  C  C110  1  0.65883000  0.80068000  0.65485000  1.0
  C  C111  1  0.64653000  0.76777000  0.61417000  1.0
  C  C112  1  0.54546000  0.32531000  0.26887000  1.0
  C  C113  1  0.69015000  0.25329000  0.28442000  1.0
  C  C114  1  0.69516000  0.23651000  0.23056000  1.0
  C  C115  1  0.70231000  0.30366000  0.11077000  1.0
  C  C116  1  0.66277000  0.35386000  0.29419000  1.0
  C  C117  1  0.55799000  0.31728000  0.21483000  1.0
  C  C118  1  0.68114000  0.33149000  0.20294000  1.0
  C  C119  1  0.77796000  0.45328000  0.21972000  1.0
  C  C120  1  0.76369000  0.46832000  0.27309000  1.0
  C  C121  1  0.69189000  0.31701000  0.15266000  1.0
  C  C122  1  0.65020000  0.36624000  0.34451000  1.0
  C  C123  1  0.63717000  0.37803000  0.38631000  1.0
  C  C124  1  0.26752000  0.45784000  0.27220000  1.0
  C  C125  1  0.05670000  0.30113000  0.28648000  1.0
  C  C126  1  0.03472000  0.29834000  0.23278000  1.0
  C  C127  1  0.09858000  0.30991000  0.11320000  1.0
  C  C128  1  0.18797000  0.33763000  0.29588000  1.0
  C  C129  1  0.24793000  0.44848000  0.21827000  1.0
  C  C130  1  0.14805000  0.32422000  0.20486000  1.0
  C  C131  1  0.19231000  0.23869000  0.21982000  1.0
  C  C132  1  0.21495000  0.24577000  0.27331000  1.0
  C  C133  1  0.12385000  0.31777000  0.15476000  1.0
  C  C134  1  0.21236000  0.34593000  0.34602000  1.0
  C  C135  1  0.23884000  0.35763000  0.38752000  1.0
  C  C136  1  0.67425000  0.72595000  0.27010000  1.0
  C  C137  1  0.75502000  0.94034000  0.28522000  1.0
  C  C138  1  0.74742000  0.96677000  0.23271000  1.0
  C  C139  1  0.68028000  0.90690000  0.11506000  1.0
  C  C140  1  0.65331000  0.81706000  0.29771000  1.0
  C  C141  1  0.69538000  0.75836000  0.21722000  1.0
  C  C142  1  0.66023000  0.85317000  0.20644000  1.0
  C  C143  1  0.53404000  0.81132000  0.22574000  1.0
  C  C144  1  0.53340000  0.80097000  0.27987000  1.0
  C  C145  1  0.66755000  0.87868000  0.15642000  1.0
  C  C146  1  0.64873000  0.79283000  0.34783000  1.0
  C  C147  1  0.64182000  0.76682000  0.38933000  1.0
  C  C148  1  0.04253000  0.27373000  0.93294000  1.0
  C  C149  1  0.73454000  0.27545000  0.93238000  1.0
  C  C150  1  0.71102000  0.95572000  0.93484000  1.0
  C  C151  1  0.04655000  0.28247000  0.06694000  1.0
  C  C152  1  0.72548000  0.27673000  0.06415000  1.0
  C  C153  1  0.71331000  0.95954000  0.06897000  1.0
  Br  Br154  1  0.47637000  0.62820000  0.81957000  1.0
  Br  Br155  1  0.56907000  0.48053000  0.71834000  1.0
  Br  Br156  1  0.08118000  0.07649000  0.20029000  1.0
  Br  Br157  1  0.49353000  0.91330000  0.31059000  1.0
  O  O158  1  0.30601000  0.47216000  0.55004000  1.0
  O  O159  1  0.51071000  0.67860000  0.55503000  1.0
  O  O160  1  0.69193000  0.69135000  0.54809000  1.0
  O  O161  1  0.69085000  0.49657000  0.54582000  1.0
  O  O162  1  0.52119000  0.32160000  0.54392000  1.0
  O  O163  1  0.31708000  0.30412000  0.54802000  1.0
  O  O164  1  0.31660000  0.48741000  0.44908000  1.0
  O  O165  1  0.51850000  0.69344000  0.45402000  1.0
  O  O166  1  0.69466000  0.69424000  0.45437000  1.0
  O  O167  1  0.68403000  0.49650000  0.45258000  1.0
  O  O168  1  0.51146000  0.32448000  0.45098000  1.0
  O  O169  1  0.30981000  0.31101000  0.45486000  1.0
  O  O170  1  0.49781000  0.50537000  0.50095000  1.0
  O  O171  1  0.80673000  0.97234000  0.95313000  1.0
  O  O172  1  0.01334000  0.17286000  0.94841000  1.0
  O  O173  1  0.03004000  0.35324000  0.95492000  1.0
  O  O174  1  0.83314000  0.34954000  0.95069000  1.0
  O  O175  1  0.65584000  0.18247000  0.95245000  1.0
  O  O176  1  0.63556000  0.98133000  0.95351000  1.0
  O  O177  1  0.81545000  0.98557000  0.05462000  1.0
  O  O178  1  0.02455000  0.18555000  0.04967000  1.0
  O  O179  1  0.02213000  0.35810000  0.04825000  1.0
  O  O180  1  0.82301000  0.34953000  0.04452000  1.0
  O  O181  1  0.64934000  0.17867000  0.04660000  1.0
  O  O182  1  0.63743000  0.97961000  0.04719000  1.0
  O  O183  1  0.83638000  0.16271000  0.00069000  1.0
  O  O184  1  0.32585000  0.65959000  0.50536000  1.0
  O  O185  1  0.99558000  0.99561000  0.00440000  1.0
