# generated using pymatgen
data_MgH6(CO)6
_symmetry_space_group_name_H-M   'P 1'
_cell_length_a   8.76627000
_cell_length_b   13.36090000
_cell_length_c   13.36080000
_cell_angle_alpha   72.56280000
_cell_angle_beta   79.08300000
_cell_angle_gamma   79.08320000
_symmetry_Int_Tables_number   1
_chemical_formula_structural   MgH6(CO)6
_chemical_formula_sum   'Mg4 H24 C24 O24'
_cell_volume   1451.18790193
_cell_formula_units_Z   4
loop_
 _symmetry_equiv_pos_site_id
 _symmetry_equiv_pos_as_xyz
  1  'x, y, z'
loop_
 _atom_site_type_symbol
 _atom_site_label
 _atom_site_symmetry_multiplicity
 _atom_site_fract_x
 _atom_site_fract_y
 _atom_site_fract_z
 _atom_site_occupancy
  Mg  Mg0  1  0.25264000  0.10746000  0.25885000  1.0
  Mg  Mg1  1  0.24736000  0.74115000  0.89254000  1.0
  Mg  Mg2  1  0.74736000  0.89254000  0.74115000  1.0
  Mg  Mg3  1  0.75264000  0.25885000  0.10746000  1.0
  H  H4  1  0.67021000  0.14811000  0.41779000  1.0
  H  H5  1  0.82980000  0.58221000  0.85188000  1.0
  H  H6  1  0.32980000  0.85188000  0.58221000  1.0
  H  H7  1  0.17019000  0.41779000  0.14812000  1.0
  H  H8  1  0.55003000  0.87462000  0.06865000  1.0
  H  H9  1  0.94997000  0.93134000  0.12539000  1.0
  H  H10  1  0.44996000  0.12539000  0.93135000  1.0
  H  H11  1  0.05003000  0.06865000  0.87461000  1.0
  H  H12  1  0.41449000  0.21884000  0.07880000  1.0
  H  H13  1  0.08550000  0.92120000  0.78116000  1.0
  H  H14  1  0.58551000  0.78116000  0.92120000  1.0
  H  H15  1  0.91450000  0.07880000  0.21884000  1.0
  H  H16  1  0.23564000  0.27726000  0.07679000  1.0
  H  H17  1  0.26435000  0.92320000  0.72274000  1.0
  H  H18  1  0.76435000  0.72274000  0.92321000  1.0
  H  H19  1  0.73565000  0.07679000  0.27726000  1.0
  H  H20  1  0.00441000  0.19056000  0.37408000  1.0
  H  H21  1  0.49559000  0.62592000  0.80944000  1.0
  H  H22  1  0.99558000  0.80944000  0.62592000  1.0
  H  H23  1  0.50441000  0.37408000  0.19056000  1.0
  H  H24  1  0.01075000  0.25909000  0.25259000  1.0
  H  H25  1  0.48925000  0.74741000  0.74091000  1.0
  H  H26  1  0.98925000  0.74090000  0.74741000  1.0
  H  H27  1  0.51075000  0.25259000  0.25910000  1.0
  C  C28  1  0.33975000  0.94999000  0.14553000  1.0
  C  C29  1  0.16026000  0.85447000  0.05001000  1.0
  C  C30  1  0.66025000  0.05001000  0.85447000  1.0
  C  C31  1  0.83975000  0.14553000  0.94999000  1.0
  C  C32  1  0.59818000  0.08450000  0.45131000  1.0
  C  C33  1  0.90182000  0.54870000  0.91549000  1.0
  C  C34  1  0.40182000  0.91550000  0.54870000  1.0
  C  C35  1  0.09818000  0.45130000  0.08451000  1.0
  C  C36  1  0.46962000  0.08214000  0.40548000  1.0
  C  C37  1  0.03038000  0.59453000  0.91785000  1.0
  C  C38  1  0.53038000  0.91786000  0.59453000  1.0
  C  C39  1  0.96961000  0.40548000  0.08214000  1.0
  C  C40  1  0.36519000  0.99476000  0.45615000  1.0
  C  C41  1  0.13481000  0.54385000  0.00524000  1.0
  C  C42  1  0.63482000  0.00524000  0.54385000  1.0
  C  C43  1  0.86518000  0.45615000  0.99476000  1.0
  C  C44  1  0.15968000  0.96967000  0.15945000  1.0
  C  C45  1  0.34031000  0.84055000  0.03033000  1.0
  C  C46  1  0.84030000  0.03033000  0.84055000  1.0
  C  C47  1  0.65969000  0.15945000  0.96967000  1.0
  C  C48  1  0.42218000  0.88512000  0.08129000  1.0
  C  C49  1  0.07781000  0.91872000  0.11490000  1.0
  C  C50  1  0.57782000  0.11489000  0.91872000  1.0
  C  C51  1  0.92218000  0.08129000  0.88512000  1.0
  O  O52  1  0.40473000  0.99659000  0.19238000  1.0
  O  O53  1  0.09526000  0.80762000  0.00341000  1.0
  O  O54  1  0.59526000  0.00341000  0.80762000  1.0
  O  O55  1  0.90474000  0.19238000  0.99659000  1.0
  O  O56  1  0.42761000  0.14874000  0.32003000  1.0
  O  O57  1  0.07240000  0.67996000  0.85126000  1.0
  O  O58  1  0.57239000  0.85127000  0.67997000  1.0
  O  O59  1  0.92760000  0.32004000  0.14873000  1.0
  O  O60  1  0.24920000  0.99989000  0.41037000  1.0
  O  O61  1  0.25081000  0.58962000  0.00011000  1.0
  O  O62  1  0.75081000  0.00011000  0.58962000  1.0
  O  O63  1  0.74919000  0.41038000  0.99989000  1.0
  O  O64  1  0.09618000  0.03559000  0.21417000  1.0
  O  O65  1  0.40383000  0.78583000  0.96441000  1.0
  O  O66  1  0.90383000  0.96441000  0.78583000  1.0
  O  O67  1  0.59617000  0.21417000  0.03560000  1.0
  O  O68  1  0.07577000  0.21520000  0.30980000  1.0
  O  O69  1  0.42424000  0.69020000  0.78480000  1.0
  O  O70  1  0.92423000  0.78480000  0.69020000  1.0
  O  O71  1  0.57577000  0.30980000  0.21520000  1.0
  O  O72  1  0.30253000  0.21813000  0.11668000  1.0
  O  O73  1  0.19746000  0.88332000  0.78187000  1.0
  O  O74  1  0.69747000  0.78187000  0.88332000  1.0
  O  O75  1  0.80253000  0.11668000  0.21813000  1.0
