# generated using pymatgen
data_Al3H25C48S3Cl6O23
_symmetry_space_group_name_H-M   'P 1'
_cell_length_a   13.62130000
_cell_length_b   14.03270000
_cell_length_c   27.05180000
_cell_angle_alpha   90.68100000
_cell_angle_beta   91.08350000
_cell_angle_gamma   118.22350000
_symmetry_Int_Tables_number   1
_chemical_formula_structural   Al3H25C48S3Cl6O23
_chemical_formula_sum   'Al6 H50 C96 S6 Cl12 O46'
_cell_volume   4553.93479737
_cell_formula_units_Z   2
loop_
 _symmetry_equiv_pos_site_id
 _symmetry_equiv_pos_as_xyz
  1  'x, y, z'
loop_
 _atom_site_type_symbol
 _atom_site_label
 _atom_site_symmetry_multiplicity
 _atom_site_fract_x
 _atom_site_fract_y
 _atom_site_fract_z
 _atom_site_occupancy
  Al  Al0  1  0.15988000  0.56404000  0.49405000  1.0
  Al  Al1  1  0.37930000  0.79529000  0.49622000  1.0
  Al  Al2  1  0.40976000  0.59736000  0.49768000  1.0
  Al  Al3  1  0.17273000  0.07544000  0.98640000  1.0
  Al  Al4  1  0.92904000  0.87199000  0.98323000  1.0
  Al  Al5  1  0.94639000  0.09291000  0.98519000  1.0
  H  H6  1  0.78684000  0.78910000  0.22495000  1.0
  H  H7  1  0.51676000  0.63774000  0.62999000  1.0
  H  H8  1  0.13211000  0.49935000  0.63356000  1.0
  H  H9  1  0.35999000  0.88338000  0.62824000  1.0
  H  H10  1  0.55211000  0.60423000  0.80455000  1.0
  H  H11  1  0.03117000  0.45072000  0.80393000  1.0
  H  H12  1  0.40959000  0.98139000  0.80094000  1.0
  H  H13  1  0.49839000  0.57007000  0.71516000  1.0
  H  H14  1  0.06701000  0.51310000  0.71729000  1.0
  H  H15  1  0.43895000  0.95347000  0.71250000  1.0
  H  H16  1  0.87706000  0.06904000  0.84355000  1.0
  H  H17  1  0.99937000  0.26498000  0.21291000  1.0
  H  H18  1  0.17974000  0.12004000  0.84101000  1.0
  H  H19  1  0.92598000  0.81479000  0.83770000  1.0
  H  H20  1  0.92819000  0.11841000  0.75391000  1.0
  H  H21  1  0.19512000  0.07586000  0.75048000  1.0
  H  H22  1  0.86177000  0.79877000  0.74758000  1.0
  H  H23  1  0.67779000  0.71259000  0.29153000  1.0
  H  H24  1  0.01962000  0.27039000  0.29552000  1.0
  H  H25  1  0.32195000  0.88158000  0.27646000  1.0
  H  H26  1  0.79171000  0.01296000  0.30934000  1.0
  H  H27  1  0.21786000  0.17265000  0.29228000  1.0
  H  H28  1  0.30596000  0.90221000  0.19426000  1.0
  H  H29  1  0.06275000  0.89541000  0.28821000  1.0
  H  H30  1  0.82837000  0.90815000  0.30119000  1.0
  H  H31  1  0.07632000  0.14439000  0.29229000  1.0
  H  H32  1  0.20932000  0.96855000  0.28217000  1.0
  H  H33  1  0.88309000  0.97636000  0.22392000  1.0
  H  H34  1  0.07486000  0.12952000  0.20670000  1.0
  H  H35  1  0.18337000  0.97182000  0.19807000  1.0
  H  H36  1  0.48750000  0.82328000  0.26560000  1.0
  H  H37  1  0.32056000  0.47895000  0.28720000  1.0
  H  H38  1  0.06212000  0.62108000  0.27367000  1.0
  H  H39  1  0.60737000  0.96249000  0.18787000  1.0
  H  H40  1  0.53214000  0.82027000  0.18568000  1.0
  H  H41  1  0.29819000  0.47181000  0.20221000  1.0
  H  H42  1  0.04417000  0.62508000  0.18967000  1.0
  H  H43  1  0.79458000  0.16108000  0.62991000  1.0
  H  H44  1  0.49072000  0.34451000  0.66890000  1.0
  H  H45  1  0.87256000  0.52318000  0.66212000  1.0
  H  H46  1  0.59539000  0.11763000  0.23153000  1.0
  H  H47  1  0.54119000  0.50265000  0.24469000  1.0
  H  H48  1  0.98138000  0.64509000  0.36453000  1.0
  H  H49  1  0.35019000  0.37821000  0.19750000  1.0
  H  H50  1  0.95426000  0.68221000  0.19489000  1.0
  H  H51  1  0.65975000  0.73395000  0.87360000  1.0
  H  H52  1  0.04663000  0.33756000  0.87125000  1.0
  H  H53  1  0.27792000  0.95516000  0.86963000  1.0
  H  H54  1  0.98267000  0.43472000  0.46405000  1.0
  H  H55  1  0.35671000  0.17606000  0.01631000  1.0
  C  C56  1  0.25800000  0.44157000  0.43461000  1.0
  C  C57  1  0.74265000  0.90136000  0.14627000  1.0
  C  C58  1  0.15422000  0.28967000  0.14680000  1.0
  C  C59  1  0.11826000  0.81056000  0.13514000  1.0
  C  C60  1  0.61739000  0.83292000  0.34235000  1.0
  C  C61  1  0.21122000  0.33172000  0.35040000  1.0
  C  C62  1  0.15810000  0.79084000  0.33768000  1.0
  C  C63  1  0.58220000  0.80676000  0.38363000  1.0
  C  C64  1  0.23183000  0.36946000  0.39224000  1.0
  C  C65  1  0.17681000  0.77977000  0.38071000  1.0
  C  C66  1  0.07950000  0.89557000  0.91107000  1.0
  C  C67  1  0.20968000  0.74837000  0.42615000  1.0
  C  C68  1  0.80460000  0.92796000  0.91658000  1.0
  C  C69  1  0.10238000  0.19293000  0.91332000  1.0
  C  C70  1  0.08930000  0.87838000  0.04876000  1.0
  C  C71  1  0.81589000  0.93003000  0.05473000  1.0
  C  C72  1  0.10867000  0.21138000  0.05522000  1.0
  C  C73  1  0.56656000  0.71993000  0.64470000  1.0
  C  C74  1  0.16365000  0.44710000  0.64863000  1.0
  C  C75  1  0.27669000  0.85039000  0.64300000  1.0
  C  C76  1  0.59840000  0.73730000  0.69488000  1.0
  C  C77  1  0.14024000  0.41094000  0.69708000  1.0
  C  C78  1  0.52332000  0.77269000  0.42923000  1.0
  C  C79  1  0.26279000  0.87214000  0.69220000  1.0
  C  C80  1  0.66275000  0.77657000  0.79673000  1.0
  C  C81  1  0.09737000  0.33756000  0.79576000  1.0
  C  C82  1  0.22899000  0.90718000  0.79264000  1.0
  C  C83  1  0.25459000  0.47426000  0.56942000  1.0
  C  C84  1  0.21458000  0.75442000  0.56315000  1.0
  C  C85  1  0.53408000  0.77388000  0.56349000  1.0
  C  C86  1  0.58614000  0.66999000  0.77838000  1.0
  C  C87  1  0.06856000  0.41746000  0.77822000  1.0
  C  C88  1  0.33908000  0.94203000  0.77479000  1.0
  C  C89  1  0.60068000  0.88960000  0.20509000  1.0
  C  C90  1  0.55632000  0.65105000  0.72932000  1.0
  C  C91  1  0.08827000  0.45190000  0.73067000  1.0
  C  C92  1  0.35536000  0.92633000  0.72634000  1.0
  C  C93  1  0.69375000  0.79894000  0.84709000  1.0
  C  C94  1  0.08217000  0.30359000  0.84499000  1.0
  C  C95  1  0.20900000  0.91832000  0.84258000  1.0
  C  C96  1  0.76716000  0.90438000  0.86374000  1.0
  C  C97  1  0.11526000  0.22849000  0.86105000  1.0
  C  C98  1  0.09997000  0.88144000  0.85838000  1.0
  C  C99  1  0.66068000  0.91447000  0.63137000  1.0
  C  C100  1  0.28814000  0.39426000  0.21550000  1.0
  C  C101  1  0.26783000  0.34811000  0.63673000  1.0
  C  C102  1  0.07571000  0.74116000  0.63023000  1.0
  C  C103  1  0.71861000  0.93095000  0.67743000  1.0
  C  C104  1  0.22051000  0.28850000  0.67980000  1.0
  C  C105  1  0.05936000  0.78601000  0.67448000  1.0
  C  C106  1  0.67629000  0.84379000  0.71166000  1.0
  C  C107  1  0.16741000  0.32948000  0.71293000  1.0
  C  C108  1  0.15280000  0.84028000  0.70828000  1.0
  C  C109  1  0.81948000  0.02618000  0.69410000  1.0
  C  C110  1  0.21623000  0.18693000  0.69353000  1.0
  C  C111  1  0.03591000  0.69192000  0.20685000  1.0
  C  C112  1  0.95702000  0.78499000  0.68908000  1.0
  C  C113  1  0.85165000  0.04595000  0.74287000  1.0
  C  C114  1  0.19667000  0.15186000  0.74107000  1.0
  C  C115  1  0.93984000  0.80117000  0.73734000  1.0
  C  C116  1  0.79146000  0.96807000  0.77938000  1.0
  C  C117  1  0.16880000  0.20846000  0.77788000  1.0
  C  C118  1  0.02650000  0.83029000  0.77424000  1.0
  C  C119  1  0.64073000  0.74859000  0.26656000  1.0
  C  C120  1  0.09543000  0.33654000  0.28078000  1.0
  C  C121  1  0.25275000  0.80764000  0.26058000  1.0
  C  C122  1  0.57369000  0.88597000  0.26042000  1.0
  C  C123  1  0.71013000  0.86275000  0.76248000  1.0
  C  C124  1  0.14382000  0.29146000  0.76203000  1.0
  C  C125  1  0.13630000  0.85987000  0.75830000  1.0
  C  C126  1  0.81644000  0.98845000  0.83012000  1.0
  C  C127  1  0.15727000  0.18040000  0.82775000  1.0
  C  C128  1  0.00945000  0.83894000  0.82457000  1.0
  C  C129  1  0.59139000  0.80684000  0.61362000  1.0
  C  C130  1  0.23106000  0.42105000  0.61916000  1.0
  C  C131  1  0.18548000  0.78122000  0.61283000  1.0
  C  C132  1  0.77529000  0.94156000  0.28674000  1.0
  C  C133  1  0.30281000  0.39925000  0.27224000  1.0
  C  C134  1  0.15903000  0.19882000  0.27809000  1.0
  C  C135  1  0.13339000  0.89574000  0.26956000  1.0
  C  C136  1  0.80273000  0.97155000  0.23227000  1.0
  C  C137  1  0.15413000  0.19492000  0.22119000  1.0
  C  C138  1  0.11970000  0.89646000  0.21321000  1.0
  C  C139  1  0.76977000  0.91420000  0.10332000  1.0
  C  C140  1  0.13667000  0.26383000  0.10325000  1.0
  C  C141  1  0.10878000  0.83306000  0.09279000  1.0
  C  C142  1  0.65140000  0.85458000  0.29126000  1.0
  C  C143  1  0.19442000  0.31512000  0.29714000  1.0
  C  C144  1  0.04572000  0.68794000  0.26356000  1.0
  C  C145  1  0.14374000  0.79483000  0.28461000  1.0
  C  C146  1  0.70211000  0.77647000  0.21709000  1.0
  C  C147  1  0.08229000  0.33017000  0.22318000  1.0
  C  C148  1  0.24562000  0.81914000  0.20350000  1.0
  C  C149  1  0.71063000  0.88470000  0.19768000  1.0
  C  C150  1  0.17104000  0.30455000  0.20008000  1.0
  C  C151  1  0.12723000  0.80020000  0.18804000  1.0
  S  S152  1  0.64803000  0.02370000  0.60156000  1.0
  S  S153  1  0.39180000  0.35391000  0.61061000  1.0
  S  S154  1  0.96455000  0.61694000  0.60313000  1.0
  S  S155  1  0.56703000  0.00305000  0.28841000  1.0
  S  S156  1  0.42679000  0.38842000  0.29497000  1.0
  S  S157  1  0.91289000  0.65051000  0.29279000  1.0
  Cl  Cl158  1  0.49707000  0.65107000  0.25934000  1.0
  Cl  Cl159  1  0.82055000  0.10362000  0.21755000  1.0
  Cl  Cl160  1  0.25869000  0.16541000  0.19599000  1.0
  Cl  Cl161  1  0.99155000  0.89505000  0.19428000  1.0
  Cl  Cl162  1  0.10445000  0.45507000  0.30915000  1.0
  Cl  Cl163  1  0.28177000  0.70235000  0.27896000  1.0
  Cl  Cl164  1  0.64627000  0.66847000  0.17262000  1.0
  Cl  Cl165  1  0.08899000  0.44750000  0.19517000  1.0
  Cl  Cl166  1  0.28386000  0.73587000  0.16705000  1.0
  Cl  Cl167  1  0.91524000  0.10786000  0.65108000  1.0
  Cl  Cl168  1  0.21653000  0.09960000  0.64811000  1.0
  Cl  Cl169  1  0.86373000  0.78134000  0.64405000  1.0
  O  O170  1  0.15754000  0.64887000  0.43539000  1.0
  O  O171  1  0.14858000  0.66908000  0.53993000  1.0
  O  O172  1  0.50033000  0.83358000  0.54234000  1.0
  O  O173  1  0.34594000  0.49650000  0.54825000  1.0
  O  O174  1  0.17969000  0.49470000  0.55278000  1.0
  O  O175  1  0.31118000  0.82411000  0.54828000  1.0
  O  O176  1  0.51743000  0.68173000  0.54650000  1.0
  O  O177  1  0.31765000  0.65291000  0.49552000  1.0
  O  O178  1  0.16677000  0.15835000  0.92938000  1.0
  O  O179  1  0.97925000  0.83648000  0.92576000  1.0
  O  O180  1  0.83971000  0.02491000  0.93288000  1.0
  O  O181  1  0.48318000  0.83249000  0.44576000  1.0
  O  O182  1  0.15874000  0.96630000  0.93726000  1.0
  O  O183  1  0.80614000  0.85213000  0.94195000  1.0
  O  O184  1  0.02352000  0.19631000  0.93794000  1.0
  O  O185  1  0.01432000  0.01320000  0.98553000  1.0
  O  O186  1  0.15664000  0.97611000  0.04100000  1.0
  O  O187  1  0.83934000  0.85721000  0.03874000  1.0
  O  O188  1  0.01415000  0.19438000  0.03582000  1.0
  O  O189  1  0.69869000  0.04488000  0.55416000  1.0
  O  O190  1  0.53439000  0.99936000  0.60858000  1.0
  O  O191  1  0.71468000  0.12705000  0.63759000  1.0
  O  O192  1  0.35931000  0.48544000  0.45172000  1.0
  O  O193  1  0.36799000  0.29696000  0.56417000  1.0
  O  O194  1  0.47793000  0.46486000  0.61764000  1.0
  O  O195  1  0.42749000  0.28852000  0.64986000  1.0
  O  O196  1  0.92032000  0.63613000  0.55846000  1.0
  O  O197  1  0.00237000  0.53722000  0.60852000  1.0
  O  O198  1  0.86725000  0.58056000  0.64397000  1.0
  O  O199  1  0.47189000  0.95936000  0.31938000  1.0
  O  O200  1  0.67352000  0.08561000  0.30699000  1.0
  O  O201  1  0.53071000  0.05009000  0.24077000  1.0
  O  O202  1  0.47952000  0.46791000  0.33403000  1.0
  O  O203  1  0.17491000  0.18170000  0.03712000  1.0
  O  O204  1  0.39854000  0.27700000  0.30143000  1.0
  O  O205  1  0.50549000  0.42340000  0.24754000  1.0
  O  O206  1  0.90380000  0.74631000  0.30614000  1.0
  O  O207  1  0.82616000  0.56675000  0.26291000  1.0
  O  O208  1  0.92337000  0.59253000  0.34150000  1.0
  O  O209  1  0.00102000  0.81651000  0.02239000  1.0
  O  O210  1  0.83387000  0.01619000  0.03226000  1.0
  O  O211  1  0.18153000  0.46087000  0.44926000  1.0
  O  O212  1  0.29128000  0.82305000  0.45130000  1.0
  O  O213  1  0.51162000  0.68525000  0.44813000  1.0
  O  O214  1  0.01533000  0.48551000  0.49152000  1.0
  O  O215  1  0.31830000  0.13451000  0.98684000  1.0
