# generated using pymatgen
data_CoH11C9S2N3O2
_symmetry_space_group_name_H-M   'P 1'
_cell_length_a   8.20409000
_cell_length_b   8.91179000
_cell_length_c   9.17322000
_cell_angle_alpha   69.86000000
_cell_angle_beta   76.71700000
_cell_angle_gamma   89.97330000
_symmetry_Int_Tables_number   1
_chemical_formula_structural   CoH11C9S2N3O2
_chemical_formula_sum   'Co2 H22 C18 S4 N6 O4'
_cell_volume   610.55362405
_cell_formula_units_Z   2
loop_
 _symmetry_equiv_pos_site_id
 _symmetry_equiv_pos_as_xyz
  1  'x, y, z'
loop_
 _atom_site_type_symbol
 _atom_site_label
 _atom_site_symmetry_multiplicity
 _atom_site_fract_x
 _atom_site_fract_y
 _atom_site_fract_z
 _atom_site_occupancy
  Co  Co0  1  0.32071000  0.10736000  0.52375000  1.0
  Co  Co1  1  0.67929000  0.89263000  0.47625000  1.0
  H  H2  1  0.01988000  0.51605000  0.63161000  1.0
  H  H3  1  0.98012000  0.48395000  0.36838000  1.0
  H  H4  1  0.27524000  0.41834000  0.01296000  1.0
  H  H5  1  0.72475000  0.58166000  0.98704000  1.0
  H  H6  1  0.19505000  0.78116000  0.49604000  1.0
  H  H7  1  0.80495000  0.21884000  0.50395000  1.0
  H  H8  1  0.43629000  0.68876000  0.86384000  1.0
  H  H9  1  0.56371000  0.31124000  0.13617000  1.0
  H  H10  1  0.22211000  0.95042000  0.89334000  1.0
  H  H11  1  0.77788000  0.04959000  0.10666000  1.0
  H  H12  1  0.31946000  0.07434000  0.97230000  1.0
  H  H13  1  0.68055000  0.92566000  0.02770000  1.0
  H  H14  1  0.44081000  0.94109000  0.89227000  1.0
  H  H15  1  0.55919000  0.05891000  0.10773000  1.0
  H  H16  1  0.06857000  0.21665000  0.02841000  1.0
  H  H17  1  0.93144000  0.78334000  0.97159000  1.0
  H  H18  1  0.06681000  0.21008000  0.83610000  1.0
  H  H19  1  0.93318000  0.78992000  0.16389000  1.0
  H  H20  1  0.90321000  0.29535000  0.93352000  1.0
  H  H21  1  0.09679000  0.70466000  0.06648000  1.0
  H  H22  1  0.46762000  0.21818000  0.71383000  1.0
  H  H23  1  0.53238000  0.78182000  0.28617000  1.0
  C  C24  1  0.94187000  0.97892000  0.67818000  1.0
  C  C25  1  0.05815000  0.02109000  0.32182000  1.0
  C  C26  1  0.11129000  0.54839000  0.68743000  1.0
  C  C27  1  0.88873000  0.45163000  0.31256000  1.0
  C  C28  1  0.32939000  0.47815000  0.34277000  1.0
  C  C29  1  0.67061000  0.52186000  0.65723000  1.0
  C  C30  1  0.25298000  0.49400000  0.89862000  1.0
  C  C31  1  0.74702000  0.50601000  0.10138000  1.0
  C  C32  1  0.13504000  0.44231000  0.83330000  1.0
  C  C33  1  0.86496000  0.55769000  0.16669000  1.0
  C  C34  1  0.20381000  0.69522000  0.61074000  1.0
  C  C35  1  0.79618000  0.30475000  0.38927000  1.0
  C  C36  1  0.34328000  0.64210000  0.81957000  1.0
  C  C37  1  0.65671000  0.35789000  0.18045000  1.0
  C  C38  1  0.33808000  0.02009000  0.87943000  1.0
  C  C39  1  0.66192000  0.97991000  0.12057000  1.0
  C  C40  1  0.03865000  0.28171000  0.91392000  1.0
  C  C41  1  0.96135000  0.71828000  0.08608000  1.0
  S  S42  1  0.74397000  0.91487000  0.72513000  1.0
  S  S43  1  0.25603000  0.08512000  0.27488000  1.0
  S  S44  1  0.33912000  0.66552000  0.22979000  1.0
  S  S45  1  0.66088000  0.33448000  0.77021000  1.0
  N  N46  1  0.08567000  0.02547000  0.64430000  1.0
  N  N47  1  0.91431000  0.97453000  0.35571000  1.0
  N  N48  1  0.31865000  0.73886000  0.67724000  1.0
  N  N49  1  0.68135000  0.26115000  0.32275000  1.0
  N  N50  1  0.31881000  0.34089000  0.42444000  1.0
  N  N51  1  0.68119000  0.65911000  0.57556000  1.0
  O  O52  1  0.41328000  0.88010000  0.59899000  1.0
  O  O53  1  0.58672000  0.11990000  0.40101000  1.0
  O  O54  1  0.37341000  0.14207000  0.72337000  1.0
  O  O55  1  0.62659000  0.85793000  0.27663000  1.0
