# generated using pymatgen
data_Zr3H32C60N9O16
_symmetry_space_group_name_H-M   'P 1'
_cell_length_a   19.73450000
_cell_length_b   19.81780000
_cell_length_c   19.82990000
_cell_angle_alpha   91.25690000
_cell_angle_beta   91.75880000
_cell_angle_gamma   91.24210000
_symmetry_Int_Tables_number   1
_chemical_formula_structural   Zr3H32C60N9O16
_chemical_formula_sum   'Zr6 H64 C120 N18 O32'
_cell_volume   7747.90491377
_cell_formula_units_Z   2
loop_
 _symmetry_equiv_pos_site_id
 _symmetry_equiv_pos_as_xyz
  1  'x, y, z'
loop_
 _atom_site_type_symbol
 _atom_site_label
 _atom_site_symmetry_multiplicity
 _atom_site_fract_x
 _atom_site_fract_y
 _atom_site_fract_z
 _atom_site_occupancy
  Zr  Zr0  1  0.81350000  0.95740000  0.86271000  1.0
  Zr  Zr1  1  0.77016000  0.86341000  0.00533000  1.0
  Zr  Zr2  1  0.97973000  0.98261000  0.93093000  1.0
  Zr  Zr3  1  0.91081000  0.81714000  0.90963000  1.0
  Zr  Zr4  1  0.83910000  0.02844000  0.02679000  1.0
  Zr  Zr5  1  0.93684000  0.88853000  0.07336000  1.0
  H  H6  1  0.77196000  0.81967000  0.86792000  1.0
  H  H7  1  0.88113000  0.08081000  0.90332000  1.0
  H  H8  1  0.03482000  0.86056000  0.97546000  1.0
  H  H9  1  0.81375000  0.93182000  0.12701000  1.0
  H  H10  1  0.26781000  0.79007000  0.79850000  1.0
  H  H11  1  0.19109000  0.94553000  0.67096000  1.0
  H  H12  1  0.08430000  0.94690000  0.73591000  1.0
  H  H13  1  0.15586000  0.78185000  0.85442000  1.0
  H  H14  1  0.54437000  0.89819000  0.67112000  1.0
  H  H15  1  0.42891000  0.85534000  0.84588000  1.0
  H  H16  1  0.53566000  0.86123000  0.91838000  1.0
  H  H17  1  0.65025000  0.90732000  0.74353000  1.0
  H  H18  1  0.31795000  0.99899000  0.09135000  1.0
  H  H19  1  0.20327000  0.96167000  0.26790000  1.0
  H  H20  1  0.09669000  0.95201000  0.19615000  1.0
  H  H21  1  0.21067000  0.99284000  0.01962000  1.0
  H  H22  1  0.55905000  0.91280000  0.26734000  1.0
  H  H23  1  0.47559000  0.05460000  0.12830000  1.0
  H  H24  1  0.58534000  0.05925000  0.06842000  1.0
  H  H25  1  0.66447000  0.90834000  0.20070000  1.0
  H  H26  1  0.26974000  0.93981000  0.39748000  1.0
  H  H27  1  0.48721000  0.93958000  0.41553000  1.0
  H  H28  1  0.48000000  0.91649000  0.53893000  1.0
  H  H29  1  0.26253000  0.91649000  0.52082000  1.0
  H  H30  1  0.71719000  0.32261000  0.84633000  1.0
  H  H31  1  0.57121000  0.23858000  0.97928000  1.0
  H  H32  1  0.63315000  0.12972000  0.97901000  1.0
  H  H33  1  0.77300000  0.21079000  0.83746000  1.0
  H  H34  1  0.57921000  0.59298000  0.95608000  1.0
  H  H35  1  0.75326000  0.48079000  0.89961000  1.0
  H  H36  1  0.82471000  0.58744000  0.90556000  1.0
  H  H37  1  0.65091000  0.69858000  0.96545000  1.0
  H  H38  1  0.99822000  0.36229000  0.04265000  1.0
  H  H39  1  0.17489000  0.25049000  0.99376000  1.0
  H  H40  1  0.10414000  0.14395000  0.98503000  1.0
  H  H41  1  0.92776000  0.25499000  0.03735000  1.0
  H  H42  1  0.18567000  0.61131000  0.98145000  1.0
  H  H43  1  0.01872000  0.51436000  0.07757000  1.0
  H  H44  1  0.95812000  0.62364000  0.08214000  1.0
  H  H45  1  0.12362000  0.71972000  0.98120000  1.0
  H  H46  1  0.32259000  0.53397000  0.99631000  1.0
  H  H47  1  0.30377000  0.31846000  0.97149000  1.0
  H  H48  1  0.42793000  0.31280000  0.94932000  1.0
  H  H49  1  0.44676000  0.52835000  0.97409000  1.0
  H  H50  1  0.89214000  0.62265000  0.28700000  1.0
  H  H51  1  0.75337000  0.76560000  0.36742000  1.0
  H  H52  1  0.74686000  0.82259000  0.25618000  1.0
  H  H53  1  0.89502000  0.68647000  0.17961000  1.0
  H  H54  1  0.85657000  0.62510000  0.63981000  1.0
  H  H55  1  0.80468000  0.80000000  0.52665000  1.0
  H  H56  1  0.80963000  0.87088000  0.63342000  1.0
  H  H57  1  0.86540000  0.69626000  0.74563000  1.0
  H  H58  1  0.94874000  0.04744000  0.40712000  1.0
  H  H59  1  0.89603000  0.22291000  0.29522000  1.0
  H  H60  1  0.89133000  0.15310000  0.18821000  1.0
  H  H61  1  0.94767000  0.97806000  0.29941000  1.0
  H  H62  1  0.87052000  0.22657000  0.65384000  1.0
  H  H63  1  0.98498000  0.07027000  0.56013000  1.0
  H  H64  1  0.99151000  0.00917000  0.66906000  1.0
  H  H65  1  0.87041000  0.16242000  0.76087000  1.0
  H  H66  1  0.89065000  0.36793000  0.57959000  1.0
  H  H67  1  0.87527000  0.35219000  0.36325000  1.0
  H  H68  1  0.85496000  0.47640000  0.35785000  1.0
  H  H69  1  0.87044000  0.49218000  0.57420000  1.0
  C  C70  1  0.92105000  0.18614000  0.53536000  1.0
  C  C71  1  0.89795000  0.27942000  0.47468000  1.0
  C  C72  1  0.91914000  0.17977000  0.42077000  1.0
  C  C73  1  0.82836000  0.65787000  0.39975000  1.0
  C  C74  1  0.83076000  0.66638000  0.51422000  1.0
  C  C75  1  0.84963000  0.56524000  0.46202000  1.0
  C  C76  1  0.13923000  0.49066000  0.02219000  1.0
  C  C77  1  0.13175000  0.37599000  0.01720000  1.0
  C  C78  1  0.23248000  0.42975000  0.99908000  1.0
  C  C79  1  0.60947000  0.35366000  0.92142000  1.0
  C  C80  1  0.61952000  0.46805000  0.92740000  1.0
  C  C81  1  0.51799000  0.41623000  0.94667000  1.0
  C  C82  1  0.44505000  0.97821000  0.23446000  1.0
  C  C83  1  0.38293000  0.95546000  0.32626000  1.0
  C  C84  1  0.33003000  0.97823000  0.22581000  1.0
  C  C85  1  0.30275000  0.87558000  0.70036000  1.0
  C  C86  1  0.36617000  0.90060000  0.61007000  1.0
  C  C87  1  0.41765000  0.87782000  0.71126000  1.0
  C  C88  1  0.92427000  0.04119000  0.78355000  1.0
  C  C89  1  0.66384000  0.89526000  0.87605000  1.0
  C  C90  1  0.84708000  0.82793000  0.76014000  1.0
  C  C91  1  0.74779000  0.10166000  0.91571000  1.0
  C  C92  1  0.82750000  0.79898000  0.14930000  1.0
  C  C93  1  0.08359000  0.95838000  0.06291000  1.0
  C  C94  1  0.78242000  0.71353000  0.94505000  1.0
  C  C95  1  0.69247000  0.97543000  0.08879000  1.0
  C  C96  1  0.97107000  0.12977000  0.99872000  1.0
  C  C97  1  0.05312000  0.87149000  0.84151000  1.0
  C  C98  1  0.99665000  0.74079000  0.02256000  1.0
  C  C99  1  0.90941000  0.02119000  0.17365000  1.0
  C  C100  1  0.22616000  0.82211000  0.78317000  1.0
  C  C101  1  0.23599000  0.86820000  0.73150000  1.0
  C  C102  1  0.18311000  0.91046000  0.71171000  1.0
  C  C103  1  0.12329000  0.91020000  0.74685000  1.0
  C  C104  1  0.11353000  0.86402000  0.79847000  1.0
  C  C105  1  0.16417000  0.81824000  0.81483000  1.0
  C  C106  1  0.54303000  0.89018000  0.72521000  1.0
  C  C107  1  0.48029000  0.87661000  0.75420000  1.0
  C  C108  1  0.47791000  0.86553000  0.82393000  1.0
  C  C109  1  0.53713000  0.86912000  0.86418000  1.0
  C  C110  1  0.59922000  0.88531000  0.83529000  1.0
  C  C111  1  0.60169000  0.89511000  0.76541000  1.0
  C  C112  1  0.26898000  0.99007000  0.11382000  1.0
  C  C113  1  0.26692000  0.98032000  0.18376000  1.0
  C  C114  1  0.20426000  0.96847000  0.21360000  1.0
  C  C115  1  0.14528000  0.96327000  0.17388000  1.0
  C  C116  1  0.14758000  0.97117000  0.10374000  1.0
  C  C117  1  0.20950000  0.98632000  0.07406000  1.0
  C  C118  1  0.56519000  0.94424000  0.22344000  1.0
  C  C119  1  0.51094000  0.98367000  0.20139000  1.0
  C  C120  1  0.51839000  0.02493000  0.14536000  1.0
  C  C121  1  0.57925000  0.02688000  0.11168000  1.0
  C  C122  1  0.63157000  0.98417000  0.13108000  1.0
  C  C123  1  0.62417000  0.94278000  0.18700000  1.0
  C  C124  1  0.31549000  0.93465000  0.42891000  1.0
  C  C125  1  0.37893000  0.94110000  0.39898000  1.0
  C  C126  1  0.43827000  0.93440000  0.43912000  1.0
  C  C127  1  0.43422000  0.92165000  0.50755000  1.0
  C  C128  1  0.37077000  0.91518000  0.53745000  1.0
  C  C129  1  0.31145000  0.92182000  0.49727000  1.0
  C  C130  1  0.69769000  0.27928000  0.87320000  1.0
  C  C131  1  0.64091000  0.28716000  0.91325000  1.0
  C  C132  1  0.61564000  0.23196000  0.94874000  1.0
  C  C133  1  0.64943000  0.17122000  0.94762000  1.0
  C  C134  1  0.70627000  0.16351000  0.90769000  1.0
  C  C135  1  0.72902000  0.21709000  0.86881000  1.0
  C  C136  1  0.63294000  0.59230000  0.94530000  1.0
  C  C137  1  0.66197000  0.53056000  0.92756000  1.0
  C  C138  1  0.73123000  0.52902000  0.91294000  1.0
  C  C139  1  0.77093000  0.58810000  0.91659000  1.0
  C  C140  1  0.74204000  0.64914000  0.93641000  1.0
  C  C141  1  0.67269000  0.65078000  0.95033000  1.0
  C  C142  1  0.02098000  0.31397000  0.03119000  1.0
  C  C143  1  0.09057000  0.31274000  0.01813000  1.0
  C  C144  1  0.12082000  0.25091000  0.00309000  1.0
  C  C145  1  0.08167000  0.19195000  0.99843000  1.0
  C  C146  1  0.01185000  0.19348000  0.01004000  1.0
  C  C147  1  0.98191000  0.25454000  0.02796000  1.0
  C  C148  1  0.13604000  0.61476000  0.00373000  1.0
  C  C149  1  0.10576000  0.55627000  0.02927000  1.0
  C  C150  1  0.04190000  0.56013000  0.05826000  1.0
  C  C151  1  0.00827000  0.62109000  0.06066000  1.0
  C  C152  1  0.03731000  0.67849000  0.03224000  1.0
  C  C153  1  0.10154000  0.67517000  0.00423000  1.0
  C  C154  1  0.34619000  0.48582000  0.98587000  1.0
  C  C155  1  0.30565000  0.42659000  0.98533000  1.0
  C  C156  1  0.33553000  0.36411000  0.97208000  1.0
  C  C157  1  0.40432000  0.36093000  0.95984000  1.0
  C  C158  1  0.44491000  0.42014000  0.96047000  1.0
  C  C159  1  0.41503000  0.48266000  0.97361000  1.0
  C  C160  1  0.86093000  0.66676000  0.27981000  1.0
  C  C161  1  0.82272000  0.69051000  0.33361000  1.0
  C  C162  1  0.78199000  0.74701000  0.32500000  1.0
  C  C163  1  0.77901000  0.77904000  0.26321000  1.0
  C  C164  1  0.82020000  0.75758000  0.21101000  1.0
  C  C165  1  0.86150000  0.70155000  0.21972000  1.0
  C  C166  1  0.84648000  0.67887000  0.63895000  1.0
  C  C167  1  0.83024000  0.70832000  0.57691000  1.0
  C  C168  1  0.81666000  0.77766000  0.57515000  1.0
  C  C169  1  0.81980000  0.81703000  0.63432000  1.0
  C  C170  1  0.83827000  0.78773000  0.69572000  1.0
  C  C171  1  0.85117000  0.71832000  0.69757000  1.0
  C  C172  1  0.93747000  0.07022000  0.35870000  1.0
  C  C173  1  0.92225000  0.13918000  0.35747000  1.0
  C  C174  1  0.90721000  0.16936000  0.29551000  1.0
  C  C175  1  0.90485000  0.13076000  0.23633000  1.0
  C  C176  1  0.91880000  0.06156000  0.23775000  1.0
  C  C177  1  0.93659000  0.03173000  0.29904000  1.0
  C  C178  1  0.89693000  0.17904000  0.65785000  1.0
  C  C179  1  0.92771000  0.15212000  0.60064000  1.0
  C  C180  1  0.96199000  0.09097000  0.60511000  1.0
  C  C181  1  0.96534000  0.05698000  0.66576000  1.0
  C  C182  1  0.93188000  0.08245000  0.72174000  1.0
  C  C183  1  0.89772000  0.14358000  0.71754000  1.0
  C  C184  1  0.88264000  0.39217000  0.53130000  1.0
  C  C185  1  0.88433000  0.35247000  0.47176000  1.0
  C  C186  1  0.87414000  0.38328000  0.40916000  1.0
  C  C187  1  0.86297000  0.45214000  0.40613000  1.0
  C  C188  1  0.86169000  0.49193000  0.46564000  1.0
  C  C189  1  0.87149000  0.46107000  0.52829000  1.0
  N  N190  1  0.90442000  0.25162000  0.53583000  1.0
  N  N191  1  0.90336000  0.24522000  0.41584000  1.0
  N  N192  1  0.93060000  0.14846000  0.47932000  1.0
  N  N193  1  0.81909000  0.69674000  0.45510000  1.0
  N  N194  1  0.84494000  0.60060000  0.52024000  1.0
  N  N195  1  0.84429000  0.59228000  0.40041000  1.0
  N  N196  1  0.10067000  0.43453000  0.02925000  1.0
  N  N197  1  0.19754000  0.37100000  0.00241000  1.0
  N  N198  1  0.20528000  0.49098000  0.00720000  1.0
  N  N199  1  0.64900000  0.40899000  0.91343000  1.0
  N  N200  1  0.55407000  0.47426000  0.94325000  1.0
  N  N201  1  0.54409000  0.35450000  0.93842000  1.0
  N  N202  1  0.44476000  0.96026000  0.29949000  1.0
  N  N203  1  0.32432000  0.96259000  0.29107000  1.0
  N  N204  1  0.38932000  0.98947000  0.19589000  1.0
  N  N205  1  0.30394000  0.89463000  0.63575000  1.0
  N  N206  1  0.42426000  0.89423000  0.64625000  1.0
  N  N207  1  0.35797000  0.86476000  0.73989000  1.0
  O  O208  1  0.97334000  0.03419000  0.82521000  1.0
  O  O209  1  0.67184000  0.86949000  0.93377000  1.0
  O  O210  1  0.81999000  0.88515000  0.76728000  1.0
  O  O211  1  0.75571000  0.06030000  0.86725000  1.0
  O  O212  1  0.77387000  0.09796000  0.97565000  1.0
  O  O213  1  0.88298000  0.79868000  0.80572000  1.0
  O  O214  1  0.70889000  0.93082000  0.84627000  1.0
  O  O215  1  0.86401000  0.01641000  0.78819000  1.0
  O  O216  1  0.79075000  0.95629000  0.96418000  1.0
  O  O217  1  0.90775000  0.91809000  0.88439000  1.0
  O  O218  1  0.80110000  0.84900000  0.89645000  1.0
  O  O219  1  0.87903000  0.03564000  0.92103000  1.0
  O  O220  1  0.77776000  0.80724000  0.10868000  1.0
  O  O221  1  0.07575000  0.98224000  0.00429000  1.0
  O  O222  1  0.83963000  0.72091000  0.91810000  1.0
  O  O223  1  0.73364000  0.02399000  0.07959000  1.0
  O  O224  1  0.91292000  0.12265000  0.02383000  1.0
  O  O225  1  0.01301000  0.82227000  0.85170000  1.0
  O  O226  1  0.99052000  0.78381000  0.06992000  1.0
  O  O227  1  0.93566000  0.96351000  0.16685000  1.0
  O  O228  1  0.97138000  0.74413000  0.96236000  1.0
  O  O229  1  0.87192000  0.04972000  0.12887000  1.0
  O  O230  1  0.75318000  0.75900000  0.98045000  1.0
  O  O231  1  0.04907000  0.93153000  0.86671000  1.0
  O  O232  1  0.99974000  0.08567000  0.96120000  1.0
  O  O233  1  0.69707000  0.91480000  0.06527000  1.0
  O  O234  1  0.88749000  0.82457000  0.14463000  1.0
  O  O235  1  0.03998000  0.92093000  0.09242000  1.0
  O  O236  1  0.92956000  0.97755000  0.02103000  1.0
  O  O237  1  0.87202000  0.83977000  0.00297000  1.0
  O  O238  1  0.98918000  0.87768000  0.97330000  1.0
  O  O239  1  0.83068000  0.92922000  0.08167000  1.0
