# generated using pymatgen
data_UH8C14(BrO3)2
_symmetry_space_group_name_H-M   'P 1'
_cell_length_a   5.14189000
_cell_length_b   8.78534000
_cell_length_c   17.68530000
_cell_angle_alpha   90.00000000
_cell_angle_beta   90.00020000
_cell_angle_gamma   94.76480000
_symmetry_Int_Tables_number   1
_chemical_formula_structural   UH8C14(BrO3)2
_chemical_formula_sum   'U2 H16 C28 Br4 O12'
_cell_volume   796.14156786
_cell_formula_units_Z   2
loop_
 _symmetry_equiv_pos_site_id
 _symmetry_equiv_pos_as_xyz
  1  'x, y, z'
loop_
 _atom_site_type_symbol
 _atom_site_label
 _atom_site_symmetry_multiplicity
 _atom_site_fract_x
 _atom_site_fract_y
 _atom_site_fract_z
 _atom_site_occupancy
  U  U0  1  0.00000000  0.00000000  0.00000000  1.0
  U  U1  1  0.00000000  0.50000000  0.50000000  1.0
  H  H2  1  0.90099000  0.73047000  0.67213000  1.0
  H  H3  1  0.09901000  0.76953000  0.17213000  1.0
  H  H4  1  0.09901000  0.26953000  0.32787000  1.0
  H  H5  1  0.90099000  0.23047000  0.82788000  1.0
  H  H6  1  0.83881000  0.77299000  0.81085000  1.0
  H  H7  1  0.16119000  0.72701000  0.31085000  1.0
  H  H8  1  0.16119000  0.22701000  0.18915000  1.0
  H  H9  1  0.83881000  0.27299000  0.68915000  1.0
  H  H10  1  0.22156000  0.06107000  0.76041000  1.0
  H  H11  1  0.77844000  0.43893000  0.26041000  1.0
  H  H12  1  0.77844000  0.93893000  0.23959000  1.0
  H  H13  1  0.22156000  0.56107000  0.73959000  1.0
  H  H14  1  0.62959000  0.85352000  0.57895000  1.0
  H  H15  1  0.37041000  0.64648000  0.07895000  1.0
  H  H16  1  0.37041000  0.14648000  0.42105000  1.0
  H  H17  1  0.62959000  0.35352000  0.92105000  1.0
  C  C18  1  0.41007000  0.96505000  0.66418000  1.0
  C  C19  1  0.58993000  0.53495000  0.16418000  1.0
  C  C20  1  0.58993000  0.03495000  0.33582000  1.0
  C  C21  1  0.41006000  0.46505000  0.83582000  1.0
  C  C22  1  0.75233000  0.80224000  0.69219000  1.0
  C  C23  1  0.24768000  0.69776000  0.19219000  1.0
  C  C24  1  0.24768000  0.19776000  0.30781000  1.0
  C  C25  1  0.75232000  0.30224000  0.80781000  1.0
  C  C26  1  0.52427000  0.91789000  0.79369000  1.0
  C  C27  1  0.47573000  0.58211000  0.29369000  1.0
  C  C28  1  0.47573000  0.08211000  0.20631000  1.0
  C  C29  1  0.52426000  0.41789000  0.70631000  1.0
  C  C30  1  0.71883000  0.82620000  0.76927000  1.0
  C  C31  1  0.28118000  0.67380000  0.26926000  1.0
  C  C32  1  0.28117000  0.17380000  0.23074000  1.0
  C  C33  1  0.71883000  0.32620000  0.73074000  1.0
  C  C34  1  0.36749000  0.98720000  0.74094000  1.0
  C  C35  1  0.63251000  0.51280000  0.24093000  1.0
  C  C36  1  0.63250000  0.01279000  0.25906000  1.0
  C  C37  1  0.36749000  0.48721000  0.75906000  1.0
  C  C38  1  0.59903000  0.87132000  0.63908000  1.0
  C  C39  1  0.40098000  0.62868000  0.13908000  1.0
  C  C40  1  0.40098000  0.12868000  0.36092000  1.0
  C  C41  1  0.59902000  0.37132000  0.86092000  1.0
  C  C42  1  0.48715000  0.94608000  0.87531000  1.0
  C  C43  1  0.51285000  0.55392000  0.37531000  1.0
  C  C44  1  0.51285000  0.05392000  0.12469000  1.0
  C  C45  1  0.48715000  0.44607000  0.62469000  1.0
  Br  Br46  1  0.21887000  0.07049000  0.59188000  1.0
  Br  Br47  1  0.78113000  0.42951000  0.09188000  1.0
  Br  Br48  1  0.78113000  0.92951000  0.40812000  1.0
  Br  Br49  1  0.21887000  0.57049000  0.90812000  1.0
  O  O50  1  0.27875000  0.00259000  0.89713000  1.0
  O  O51  1  0.72125000  0.49741000  0.39713000  1.0
  O  O52  1  0.72125000  0.99741000  0.10287000  1.0
  O  O53  1  0.27875000  0.50259000  0.60287000  1.0
  O  O54  1  0.93917000  0.19463000  0.97783000  1.0
  O  O55  1  0.06083000  0.30536000  0.47782000  1.0
  O  O56  1  0.06083000  0.80537000  0.02218000  1.0
  O  O57  1  0.93917000  0.69464000  0.52218000  1.0
  O  O58  1  0.66635000  0.91470000  0.92164000  1.0
  O  O59  1  0.33365000  0.58530000  0.42164000  1.0
  O  O60  1  0.33365000  0.08530000  0.07836000  1.0
  O  O61  1  0.66635000  0.41470000  0.57836000  1.0
