# generated using pymatgen
data_CdH15C20N5O9
_symmetry_space_group_name_H-M   'P 1'
_cell_length_a   7.90090000
_cell_length_b   8.64075000
_cell_length_c   15.80940000
_cell_angle_alpha   94.96800000
_cell_angle_beta   99.71050000
_cell_angle_gamma   100.14800000
_symmetry_Int_Tables_number   1
_chemical_formula_structural   CdH15C20N5O9
_chemical_formula_sum   'Cd2 H30 C40 N10 O18'
_cell_volume   1039.64414641
_cell_formula_units_Z   2
loop_
 _symmetry_equiv_pos_site_id
 _symmetry_equiv_pos_as_xyz
  1  'x, y, z'
loop_
 _atom_site_type_symbol
 _atom_site_label
 _atom_site_symmetry_multiplicity
 _atom_site_fract_x
 _atom_site_fract_y
 _atom_site_fract_z
 _atom_site_occupancy
  Cd  Cd0  1  0.88200000  0.04591000  0.34659000  1.0
  Cd  Cd1  1  0.11800000  0.95410000  0.65341000  1.0
  H  H2  1  0.13344000  0.35337000  0.19157000  1.0
  H  H3  1  0.86657000  0.64663000  0.80844000  1.0
  H  H4  1  0.49033000  0.74594000  0.15960000  1.0
  H  H5  1  0.50968000  0.25406000  0.84040000  1.0
  H  H6  1  0.32244000  0.16388000  0.25052000  1.0
  H  H7  1  0.67755000  0.83610000  0.74948000  1.0
  H  H8  1  0.75122000  0.85616000  0.46459000  1.0
  H  H9  1  0.24878000  0.14385000  0.53541000  1.0
  H  H10  1  0.61037000  0.95094000  0.41619000  1.0
  H  H11  1  0.38963000  0.04906000  0.58381000  1.0
  H  H12  1  0.81447000  0.98494000  0.03379000  1.0
  H  H13  1  0.18554000  0.01506000  0.96621000  1.0
  H  H14  1  0.18334000  0.50325000  0.48809000  1.0
  H  H15  1  0.81666000  0.49676000  0.51190000  1.0
  H  H16  1  0.29588000  0.93190000  0.33798000  1.0
  H  H17  1  0.70411000  0.06809000  0.66202000  1.0
  H  H18  1  0.80894000  0.63349000  0.32998000  1.0
  H  H19  1  0.19105000  0.36650000  0.67002000  1.0
  H  H20  1  0.37349000  0.51685000  0.32994000  1.0
  H  H21  1  0.62653000  0.48316000  0.67007000  1.0
  H  H22  1  0.47367000  0.70991000  0.31114000  1.0
  H  H23  1  0.52633000  0.29009000  0.68887000  1.0
  H  H24  1  0.42744000  0.70093000  0.96623000  1.0
  H  H25  1  0.57256000  0.29907000  0.03377000  1.0
  H  H26  1  0.24893000  0.51589000  0.84042000  1.0
  H  H27  1  0.75108000  0.48410000  0.15958000  1.0
  H  H28  1  0.04899000  0.27243000  0.86232000  1.0
  H  H29  1  0.95103000  0.72756000  0.13769000  1.0
  H  H30  1  0.00717000  0.21384000  0.00872000  1.0
  H  H31  1  0.99284000  0.78617000  0.99128000  1.0
  C  C32  1  0.68035000  0.00547000  0.17611000  1.0
  C  C33  1  0.31965000  0.99453000  0.82389000  1.0
  C  C34  1  0.67673000  0.99306000  0.01891000  1.0
  C  C35  1  0.32327000  0.00693000  0.98109000  1.0
  C  C36  1  0.58577000  0.01181000  0.08632000  1.0
  C  C37  1  0.41423000  0.98817000  0.91369000  1.0
  C  C38  1  0.40698000  0.02007000  0.06743000  1.0
  C  C39  1  0.59302000  0.97992000  0.93257000  1.0
  C  C40  1  0.30076000  0.04983000  0.13523000  1.0
  C  C41  1  0.69923000  0.95017000  0.86477000  1.0
  C  C42  1  0.23508000  0.24849000  0.39735000  1.0
  C  C43  1  0.76492000  0.75151000  0.60264000  1.0
  C  C44  1  0.32228000  0.50107000  0.49384000  1.0
  C  C45  1  0.67772000  0.49893000  0.50615000  1.0
  C  C46  1  0.37614000  0.37479000  0.45126000  1.0
  C  C47  1  0.62387000  0.62522000  0.54874000  1.0
  C  C48  1  0.55510000  0.37203000  0.45807000  1.0
  C  C49  1  0.44490000  0.62798000  0.54192000  1.0
  C  C50  1  0.61488000  0.22893000  0.42086000  1.0
  C  C51  1  0.38512000  0.77108000  0.57914000  1.0
  C  C52  1  0.18909000  0.82998000  0.32975000  1.0
  C  C53  1  0.81091000  0.17002000  0.67025000  1.0
  C  C54  1  0.94478000  0.67426000  0.32593000  1.0
  C  C55  1  0.05521000  0.32573000  0.67407000  1.0
  C  C56  1  0.35596000  0.61614000  0.29285000  1.0
  C  C57  1  0.64404000  0.38385000  0.70715000  1.0
  C  C58  1  0.31984000  0.56085000  0.19855000  1.0
  C  C59  1  0.68017000  0.43915000  0.80145000  1.0
  C  C60  1  0.31408000  0.56137000  0.05788000  1.0
  C  C61  1  0.68592000  0.43863000  0.94212000  1.0
  C  C62  1  0.33678000  0.59628000  0.97547000  1.0
  C  C63  1  0.66322000  0.40372000  0.02453000  1.0
  C  C64  1  0.23757000  0.49109000  0.90588000  1.0
  C  C65  1  0.76245000  0.50891000  0.09413000  1.0
  C  C66  1  0.12191000  0.35426000  0.91815000  1.0
  C  C67  1  0.87811000  0.64574000  0.08185000  1.0
  C  C68  1  0.09789000  0.31903000  0.00017000  1.0
  C  C69  1  0.90212000  0.68096000  0.99983000  1.0
  C  C70  1  0.19533000  0.42562000  0.07001000  1.0
  C  C71  1  0.80467000  0.57438000  0.92999000  1.0
  N  N72  1  0.02328000  0.83075000  0.33686000  1.0
  N  N73  1  0.97672000  0.16924000  0.66314000  1.0
  N  N74  1  0.05176000  0.57680000  0.31165000  1.0
  N  N75  1  0.94824000  0.42319000  0.68835000  1.0
  N  N76  1  0.20675000  0.67811000  0.31491000  1.0
  N  N77  1  0.79325000  0.32188000  0.68510000  1.0
  N  N78  1  0.38824000  0.64054000  0.13948000  1.0
  N  N79  1  0.61176000  0.35946000  0.86052000  1.0
  N  N80  1  0.20390000  0.43060000  0.15889000  1.0
  N  N81  1  0.79609000  0.56940000  0.84112000  1.0
  O  O82  1  0.80426000  0.11760000  0.21128000  1.0
  O  O83  1  0.19571000  0.88241000  0.78873000  1.0
  O  O84  1  0.63313000  0.88015000  0.21038000  1.0
  O  O85  1  0.36688000  0.11984000  0.78962000  1.0
  O  O86  1  0.39718000  0.13613000  0.20681000  1.0
  O  O87  1  0.60281000  0.86385000  0.79319000  1.0
  O  O88  1  0.14102000  0.00360000  0.12310000  1.0
  O  O89  1  0.85897000  0.99642000  0.87689000  1.0
  O  O90  1  0.13213000  0.17006000  0.43957000  1.0
  O  O91  1  0.86787000  0.82994000  0.56042000  1.0
  O  O92  1  0.21327000  0.23414000  0.31546000  1.0
  O  O93  1  0.78674000  0.76585000  0.68453000  1.0
  O  O94  1  0.50697000  0.09782000  0.41112000  1.0
  O  O95  1  0.49302000  0.90219000  0.58886000  1.0
  O  O96  1  0.76963000  0.25015000  0.40539000  1.0
  O  O97  1  0.23037000  0.74986000  0.59461000  1.0
  O  O98  1  0.68860000  0.87283000  0.40678000  1.0
  O  O99  1  0.31140000  0.12718000  0.59322000  1.0
