# generated using pymatgen
data_AgH6C3N3O2
_symmetry_space_group_name_H-M   'P 1'
_cell_length_a   6.33793000
_cell_length_b   6.77622000
_cell_length_c   12.84450000
_cell_angle_alpha   89.99990000
_cell_angle_beta   89.99980000
_cell_angle_gamma   89.99970000
_symmetry_Int_Tables_number   1
_chemical_formula_structural   AgH6C3N3O2
_chemical_formula_sum   'Ag4 H24 C12 N12 O8'
_cell_volume   551.63541346
_cell_formula_units_Z   4
loop_
 _symmetry_equiv_pos_site_id
 _symmetry_equiv_pos_as_xyz
  1  'x, y, z'
loop_
 _atom_site_type_symbol
 _atom_site_label
 _atom_site_symmetry_multiplicity
 _atom_site_fract_x
 _atom_site_fract_y
 _atom_site_fract_z
 _atom_site_occupancy
  Ag  Ag0  1  0.50000000  0.34859000  0.75000000  1.0
  Ag  Ag1  1  0.50000000  0.65141000  0.24999000  1.0
  Ag  Ag2  1  0.00001000  0.00000000  0.50000000  1.0
  Ag  Ag3  1  0.00002000  0.00000000  0.00000000  1.0
  H  H4  1  0.66973000  0.79738000  0.65539000  1.0
  H  H5  1  0.33026000  0.79736000  0.84461000  1.0
  H  H6  1  0.66974000  0.20263000  0.34461000  1.0
  H  H7  1  0.33027000  0.20263000  0.15539000  1.0
  H  H8  1  0.33027000  0.20263000  0.34461000  1.0
  H  H9  1  0.66974000  0.20263000  0.15539000  1.0
  H  H10  1  0.33026000  0.79736000  0.65539000  1.0
  H  H11  1  0.66973000  0.79738000  0.84461000  1.0
  H  H12  1  0.80936000  0.60938000  0.58718000  1.0
  H  H13  1  0.19062000  0.60937000  0.91282000  1.0
  H  H14  1  0.80937000  0.39062000  0.41282000  1.0
  H  H15  1  0.19063000  0.39062000  0.08718000  1.0
  H  H16  1  0.19062000  0.39062000  0.41282000  1.0
  H  H17  1  0.80938000  0.39062000  0.08718000  1.0
  H  H18  1  0.19061000  0.60937000  0.58718000  1.0
  H  H19  1  0.80936000  0.60938000  0.91283000  1.0
  H  H20  1  0.99998000  0.36167000  0.81992000  1.0
  H  H21  1  0.99998000  0.36167000  0.68008000  1.0
  H  H22  1  0.00000000  0.63833000  0.18008000  1.0
  H  H23  1  0.00000000  0.63833000  0.31992000  1.0
  H  H24  1  0.14209000  0.04791000  0.75000000  1.0
  H  H25  1  0.85792000  0.04792000  0.75000000  1.0
  H  H26  1  0.14209000  0.95208000  0.25000000  1.0
  H  H27  1  0.85792000  0.95208000  0.25000000  1.0
  C  C28  1  0.80988000  0.70267000  0.65683000  1.0
  C  C29  1  0.19010000  0.70265000  0.84318000  1.0
  C  C30  1  0.80989000  0.29734000  0.34317000  1.0
  C  C31  1  0.19011000  0.29734000  0.15683000  1.0
  C  C32  1  0.19011000  0.29734000  0.34318000  1.0
  C  C33  1  0.80990000  0.29733000  0.15683000  1.0
  C  C34  1  0.19010000  0.70265000  0.65682000  1.0
  C  C35  1  0.80988000  0.70268000  0.84317000  1.0
  C  C36  1  0.99998000  0.45430000  0.75000000  1.0
  C  C37  1  0.00000000  0.54570000  0.25000000  1.0
  C  C38  1  0.99999000  0.95519000  0.75000000  1.0
  C  C39  1  0.00000000  0.04481000  0.25000000  1.0
  N  N40  1  0.80771000  0.57740000  0.75000000  1.0
  N  N41  1  0.19227000  0.57739000  0.75000000  1.0
  N  N42  1  0.80772000  0.42260000  0.25000000  1.0
  N  N43  1  0.19228000  0.42260000  0.25000000  1.0
  N  N44  1  0.00000000  0.83149000  0.65437000  1.0
  N  N45  1  0.00000000  0.83149000  0.84563000  1.0
  N  N46  1  0.00000000  0.16850000  0.34563000  1.0
  N  N47  1  0.00001000  0.16851000  0.15437000  1.0
  N  N48  1  0.50001000  0.20406000  0.53323000  1.0
  N  N49  1  0.50000000  0.20405000  0.96678000  1.0
  N  N50  1  0.50000000  0.79594000  0.46675000  1.0
  N  N51  1  0.50000000  0.79594000  0.03322000  1.0
  O  O52  1  0.33116000  0.22892000  0.58502000  1.0
  O  O53  1  0.66886000  0.22893000  0.91499000  1.0
  O  O54  1  0.33117000  0.77109000  0.41498000  1.0
  O  O55  1  0.66886000  0.77107000  0.08501000  1.0
  O  O56  1  0.66884000  0.77108000  0.41499000  1.0
  O  O57  1  0.33114000  0.77107000  0.08501000  1.0
  O  O58  1  0.66886000  0.22893000  0.58501000  1.0
  O  O59  1  0.33114000  0.22893000  0.91499000  1.0
