# generated using pymatgen
data_Sc2H10C18O17
_symmetry_space_group_name_H-M   'P 1'
_cell_length_a   8.71079000
_cell_length_b   10.56760000
_cell_length_c   11.91740000
_cell_angle_alpha   92.54630000
_cell_angle_beta   92.06910000
_cell_angle_gamma   105.11900000
_symmetry_Int_Tables_number   1
_chemical_formula_structural   Sc2H10C18O17
_chemical_formula_sum   'Sc4 H20 C36 O34'
_cell_volume   1056.71002879
_cell_formula_units_Z   2
loop_
 _symmetry_equiv_pos_site_id
 _symmetry_equiv_pos_as_xyz
  1  'x, y, z'
loop_
 _atom_site_type_symbol
 _atom_site_label
 _atom_site_symmetry_multiplicity
 _atom_site_fract_x
 _atom_site_fract_y
 _atom_site_fract_z
 _atom_site_occupancy
  Sc  Sc0  1  0.48500000  0.04711000  0.29433000  1.0
  Sc  Sc1  1  0.51500000  0.95289000  0.70567000  1.0
  Sc  Sc2  1  0.92279000  0.26911000  0.05858000  1.0
  Sc  Sc3  1  0.07721000  0.73088000  0.94142000  1.0
  H  H4  1  0.35936000  0.90780000  0.09388000  1.0
  H  H5  1  0.64064000  0.09220000  0.90612000  1.0
  H  H6  1  0.54315000  0.89387000  0.10320000  1.0
  H  H7  1  0.45686000  0.10613000  0.89680000  1.0
  H  H8  1  0.79741000  0.98935000  0.99681000  1.0
  H  H9  1  0.20259000  0.01065000  0.00319000  1.0
  H  H10  1  0.89568000  0.07394000  0.89469000  1.0
  H  H11  1  0.10432000  0.92607000  0.10531000  1.0
  H  H12  1  0.39852000  0.45131000  0.26797000  1.0
  H  H13  1  0.60148000  0.54869000  0.73203000  1.0
  H  H14  1  0.48656000  0.70828000  0.20837000  1.0
  H  H15  1  0.51343000  0.29171000  0.79163000  1.0
  H  H16  1  0.20681000  0.25161000  0.39350000  1.0
  H  H17  1  0.79320000  0.74839000  0.60650000  1.0
  H  H18  1  0.21871000  0.21761000  0.62103000  1.0
  H  H19  1  0.78129000  0.78239000  0.37897000  1.0
  H  H20  1  0.23959000  0.55147000  0.54558000  1.0
  H  H21  1  0.76042000  0.44854000  0.45442000  1.0
  H  H22  1  0.03425000  0.41578000  0.37401000  1.0
  H  H23  1  0.96575000  0.58421000  0.62599000  1.0
  C  C24  1  0.58239000  0.29166000  0.14633000  1.0
  C  C25  1  0.41761000  0.70833000  0.85367000  1.0
  C  C26  1  0.57593000  0.42932000  0.14783000  1.0
  C  C27  1  0.42407000  0.57067000  0.85217000  1.0
  C  C28  1  0.48652000  0.49528000  0.20921000  1.0
  C  C29  1  0.51348000  0.50472000  0.79078000  1.0
  C  C30  1  0.53210000  0.62742000  0.17874000  1.0
  C  C31  1  0.46789000  0.37257000  0.82126000  1.0
  C  C32  1  0.64645000  0.63462000  0.10046000  1.0
  C  C33  1  0.35354000  0.36538000  0.89953000  1.0
  C  C34  1  0.73728000  0.74616000  0.03942000  1.0
  C  C35  1  0.26272000  0.25383000  0.96058000  1.0
  C  C36  1  0.87428000  0.14211000  0.29485000  1.0
  C  C37  1  0.12573000  0.85789000  0.70516000  1.0
  C  C38  1  0.95328000  0.15373000  0.40728000  1.0
  C  C39  1  0.04673000  0.84628000  0.59272000  1.0
  C  C40  1  0.10933000  0.20829000  0.44553000  1.0
  C  C41  1  0.89068000  0.79171000  0.55447000  1.0
  C  C42  1  0.11574000  0.19053000  0.56253000  1.0
  C  C43  1  0.88426000  0.80948000  0.43747000  1.0
  C  C44  1  0.96369000  0.12503000  0.58922000  1.0
  C  C45  1  0.03632000  0.87498000  0.41079000  1.0
  C  C46  1  0.89930000  0.07479000  0.69652000  1.0
  C  C47  1  0.10071000  0.92522000  0.30349000  1.0
  C  C48  1  0.43561000  0.80925000  0.46489000  1.0
  C  C49  1  0.56438000  0.19075000  0.53510000  1.0
  C  C50  1  0.31017000  0.69576000  0.41726000  1.0
  C  C51  1  0.68983000  0.30424000  0.58273000  1.0
  C  C52  1  0.22481000  0.58087000  0.46066000  1.0
  C  C53  1  0.77520000  0.41914000  0.53934000  1.0
  C  C54  1  0.11855000  0.51110000  0.37230000  1.0
  C  C55  1  0.88145000  0.48890000  0.62770000  1.0
  C  C56  1  0.14482000  0.58753000  0.28051000  1.0
  C  C57  1  0.85517000  0.41247000  0.71949000  1.0
  C  C58  1  0.07853000  0.56756000  0.16387000  1.0
  C  C59  1  0.92145000  0.43243000  0.83614000  1.0
  O  O60  1  0.45851000  0.92527000  0.14197000  1.0
  O  O61  1  0.54149000  0.07473000  0.85803000  1.0
  O  O62  1  0.83555000  0.07936000  0.96621000  1.0
  O  O63  1  0.16445000  0.92064000  0.03379000  1.0
  O  O64  1  0.48170000  0.21590000  0.20438000  1.0
  O  O65  1  0.51829000  0.78410000  0.79563000  1.0
  O  O66  1  0.68573000  0.25583000  0.08891000  1.0
  O  O67  1  0.31426000  0.74417000  0.91109000  1.0
  O  O68  1  0.67428000  0.51396000  0.08104000  1.0
  O  O69  1  0.32572000  0.48603000  0.91895000  1.0
  O  O70  1  0.84960000  0.72807000  0.97998000  1.0
  O  O71  1  0.15041000  0.27193000  0.02001000  1.0
  O  O72  1  0.69784000  0.85313000  0.04841000  1.0
  O  O73  1  0.30217000  0.14686000  0.95160000  1.0
  O  O74  1  0.72849000  0.08041000  0.28073000  1.0
  O  O75  1  0.27151000  0.91960000  0.71927000  1.0
  O  O76  1  0.96012000  0.19729000  0.21729000  1.0
  O  O77  1  0.03989000  0.80271000  0.78272000  1.0
  O  O78  1  0.86376000  0.10205000  0.49482000  1.0
  O  O79  1  0.13625000  0.89795000  0.50518000  1.0
  O  O80  1  0.75379000  0.00540000  0.69427000  1.0
  O  O81  1  0.24621000  0.99461000  0.30573000  1.0
  O  O82  1  0.99137000  0.10102000  0.78264000  1.0
  O  O83  1  0.00863000  0.89899000  0.21736000  1.0
  O  O84  1  0.50245000  0.89713000  0.40033000  1.0
  O  O85  1  0.49755000  0.10287000  0.59967000  1.0
  O  O86  1  0.46938000  0.80947000  0.56957000  1.0
  O  O87  1  0.53061000  0.19053000  0.43042000  1.0
  O  O88  1  0.26084000  0.70061000  0.30773000  1.0
  O  O89  1  0.73916000  0.29939000  0.69227000  1.0
  O  O90  1  0.11809000  0.66250000  0.10074000  1.0
  O  O91  1  0.88190000  0.33750000  0.89925000  1.0
  O  O92  1  0.98628000  0.45515000  0.13607000  1.0
  O  O93  1  0.01372000  0.54485000  0.86394000  1.0
