# generated using pymatgen
data_MnH16C16(N5O3)2
_symmetry_space_group_name_H-M   'P 1'
_cell_length_a   7.16491000
_cell_length_b   8.71424000
_cell_length_c   8.93209000
_cell_angle_alpha   72.83350000
_cell_angle_beta   67.88580000
_cell_angle_gamma   66.58690000
_symmetry_Int_Tables_number   1
_chemical_formula_structural   MnH16C16(N5O3)2
_chemical_formula_sum   'Mn1 H16 C16 N10 O6'
_cell_volume   467.12277473
_cell_formula_units_Z   1
loop_
 _symmetry_equiv_pos_site_id
 _symmetry_equiv_pos_as_xyz
  1  'x, y, z'
loop_
 _atom_site_type_symbol
 _atom_site_label
 _atom_site_symmetry_multiplicity
 _atom_site_fract_x
 _atom_site_fract_y
 _atom_site_fract_z
 _atom_site_occupancy
  Mn  Mn0  1  0.00000000  0.00000000  0.00000000  1.0
  H  H1  1  0.59635000  0.09026000  0.18838000  1.0
  H  H2  1  0.40365000  0.90974000  0.81162000  1.0
  H  H3  1  0.76945000  0.00689000  0.28933000  1.0
  H  H4  1  0.23055000  0.99311000  0.71067000  1.0
  H  H5  1  0.06002000  0.76444000  0.63881000  1.0
  H  H6  1  0.93999000  0.23556000  0.36120000  1.0
  H  H7  1  0.17007000  0.60492000  0.89307000  1.0
  H  H8  1  0.82993000  0.39507000  0.10693000  1.0
  H  H9  1  0.48635000  0.15732000  0.70251000  1.0
  H  H10  1  0.51365000  0.84268000  0.29749000  1.0
  H  H11  1  0.38356000  0.29763000  0.44068000  1.0
  H  H12  1  0.61643000  0.70237000  0.55932000  1.0
  H  H13  1  0.37144000  0.38210000  0.02037000  1.0
  H  H14  1  0.62856000  0.61790000  0.97964000  1.0
  H  H15  1  0.56554000  0.22003000  0.90831000  1.0
  H  H16  1  0.43446000  0.77997000  0.09169000  1.0
  C  C17  1  0.17087000  0.62334000  0.36297000  1.0
  C  C18  1  0.82913000  0.37666000  0.63703000  1.0
  C  C19  1  0.21287000  0.54271000  0.51853000  1.0
  C  C20  1  0.78713000  0.45729000  0.48147000  1.0
  C  C21  1  0.15113000  0.62979000  0.64830000  1.0
  C  C22  1  0.84888000  0.37021000  0.35169000  1.0
  C  C23  1  0.20769000  0.54419000  0.78979000  1.0
  C  C24  1  0.79231000  0.45581000  0.21022000  1.0
  C  C25  1  0.38521000  0.28879000  0.68179000  1.0
  C  C26  1  0.61479000  0.71121000  0.31822000  1.0
  C  C27  1  0.33070000  0.36802000  0.53970000  1.0
  C  C28  1  0.66930000  0.63197000  0.46030000  1.0
  C  C29  1  0.39501000  0.28829000  0.95061000  1.0
  C  C30  1  0.60499000  0.71171000  0.04939000  1.0
  C  C31  1  0.29478000  0.15411000  0.06725000  1.0
  C  C32  1  0.70522000  0.84589000  0.93275000  1.0
  N  N33  1  0.08100000  0.79091000  0.31171000  1.0
  N  N34  1  0.91900000  0.20909000  0.68829000  1.0
  N  N35  1  0.09320000  0.79855000  0.15588000  1.0
  N  N36  1  0.90680000  0.20145000  0.84412000  1.0
  N  N37  1  0.18044000  0.64177000  0.11641000  1.0
  N  N38  1  0.81956000  0.35823000  0.88359000  1.0
  N  N39  1  0.23213000  0.53176000  0.24314000  1.0
  N  N40  1  0.76787000  0.46824000  0.75686000  1.0
  N  N41  1  0.32325000  0.37644000  0.80508000  1.0
  N  N42  1  0.67676000  0.62356000  0.19492000  1.0
  O  O43  1  0.15257000  0.13037000  0.03348000  1.0
  O  O44  1  0.84743000  0.86963000  0.96651000  1.0
  O  O45  1  0.36784000  0.08013000  0.18787000  1.0
  O  O46  1  0.63216000  0.91987000  0.81213000  1.0
  O  O47  1  0.73777000  0.08739000  0.19203000  1.0
  O  O48  1  0.26223000  0.91261000  0.80797000  1.0
