# generated using pymatgen
data_K2CuH6C6N4O9
_symmetry_space_group_name_H-M   'P 1'
_cell_length_a   8.83827000
_cell_length_b   12.36470000
_cell_length_c   13.22690000
_cell_angle_alpha   89.99970000
_cell_angle_beta   108.58700000
_cell_angle_gamma   89.99920000
_symmetry_Int_Tables_number   1
_chemical_formula_structural   K2CuH6C6N4O9
_chemical_formula_sum   'K8 Cu4 H24 C24 N16 O36'
_cell_volume   1370.07485876
_cell_formula_units_Z   4
loop_
 _symmetry_equiv_pos_site_id
 _symmetry_equiv_pos_as_xyz
  1  'x, y, z'
loop_
 _atom_site_type_symbol
 _atom_site_label
 _atom_site_symmetry_multiplicity
 _atom_site_fract_x
 _atom_site_fract_y
 _atom_site_fract_z
 _atom_site_occupancy
  K  K0  1  0.89981000  0.38548000  0.06268000  1.0
  K  K1  1  0.10018000  0.88548000  0.43731000  1.0
  K  K2  1  0.10021000  0.61452000  0.93734000  1.0
  K  K3  1  0.89980000  0.11452000  0.56266000  1.0
  K  K4  1  0.13835000  0.61297000  0.61430000  1.0
  K  K5  1  0.86164000  0.11297000  0.88571000  1.0
  K  K6  1  0.86163000  0.38703000  0.38568000  1.0
  K  K7  1  0.13836000  0.88702000  0.11432000  1.0
  Cu  Cu8  1  0.46732000  0.52782000  0.85930000  1.0
  Cu  Cu9  1  0.53268000  0.02782000  0.64071000  1.0
  Cu  Cu10  1  0.53268000  0.47218000  0.14070000  1.0
  Cu  Cu11  1  0.46732000  0.97218000  0.35930000  1.0
  H  H12  1  0.52777000  0.46422000  0.67511000  1.0
  H  H13  1  0.47223000  0.96422000  0.82488000  1.0
  H  H14  1  0.47223000  0.53578000  0.32488000  1.0
  H  H15  1  0.52777000  0.03577000  0.17511000  1.0
  H  H16  1  0.48888000  0.59240000  0.65906000  1.0
  H  H17  1  0.51112000  0.09240000  0.84094000  1.0
  H  H18  1  0.51112000  0.40760000  0.34094000  1.0
  H  H19  1  0.48888000  0.90760000  0.15906000  1.0
  H  H20  1  0.98508000  0.36747000  0.83130000  1.0
  H  H21  1  0.01492000  0.86747000  0.66869000  1.0
  H  H22  1  0.01492000  0.63253000  0.16870000  1.0
  H  H23  1  0.98509000  0.13253000  0.33130000  1.0
  H  H24  1  0.80110000  0.35195000  0.79600000  1.0
  H  H25  1  0.19890000  0.85195000  0.70401000  1.0
  H  H26  1  0.19890000  0.64805000  0.20400000  1.0
  H  H27  1  0.80111000  0.14805000  0.29601000  1.0
  H  H28  1  0.79874000  0.14811000  0.11689000  1.0
  H  H29  1  0.20126000  0.64811000  0.38311000  1.0
  H  H30  1  0.20126000  0.85189000  0.88311000  1.0
  H  H31  1  0.79874000  0.35190000  0.61688000  1.0
  H  H32  1  0.98271000  0.12886000  0.15210000  1.0
  H  H33  1  0.01730000  0.62886000  0.34790000  1.0
  H  H34  1  0.01730000  0.87114000  0.84790000  1.0
  H  H35  1  0.98270000  0.37114000  0.65210000  1.0
  C  C36  1  0.22776000  0.23401000  0.79815000  1.0
  C  C37  1  0.77223000  0.73402000  0.70185000  1.0
  C  C38  1  0.77223000  0.76599000  0.20186000  1.0
  C  C39  1  0.22776000  0.26599000  0.29814000  1.0
  C  C40  1  0.71386000  0.81737000  0.93692000  1.0
  C  C41  1  0.28614000  0.31738000  0.56308000  1.0
  C  C42  1  0.28613000  0.18262000  0.06308000  1.0
  C  C43  1  0.71387000  0.68262000  0.43691000  1.0
  C  C44  1  0.33317000  0.32218000  0.83286000  1.0
  C  C45  1  0.66683000  0.82217000  0.66714000  1.0
  C  C46  1  0.66683000  0.67783000  0.16714000  1.0
  C  C47  1  0.33317000  0.17782000  0.33286000  1.0
  C  C48  1  0.60238000  0.73249000  0.90360000  1.0
  C  C49  1  0.39763000  0.23249000  0.59640000  1.0
  C  C50  1  0.39762000  0.26751000  0.09640000  1.0
  C  C51  1  0.60237000  0.76751000  0.40360000  1.0
  C  C52  1  0.50778000  0.30688000  0.88695000  1.0
  C  C53  1  0.49222000  0.80690000  0.61304000  1.0
  C  C54  1  0.49222000  0.69310000  0.11305000  1.0
  C  C55  1  0.50777000  0.19312000  0.38696000  1.0
  C  C56  1  0.42891000  0.75078000  0.85339000  1.0
  C  C57  1  0.57109000  0.25076000  0.64661000  1.0
  C  C58  1  0.57108000  0.24923000  0.14661000  1.0
  C  C59  1  0.42891000  0.74922000  0.35339000  1.0
  N  N60  1  0.28282000  0.42403000  0.82031000  1.0
  N  N61  1  0.71718000  0.92404000  0.67968000  1.0
  N  N62  1  0.71720000  0.57596000  0.17967000  1.0
  N  N63  1  0.28281000  0.07597000  0.32033000  1.0
  N  N64  1  0.64808000  0.62860000  0.91872000  1.0
  N  N65  1  0.35193000  0.12859000  0.58128000  1.0
  N  N66  1  0.35190000  0.37141000  0.08126000  1.0
  N  N67  1  0.64809000  0.87141000  0.41875000  1.0
  N  N68  1  0.13775000  0.16264000  0.76808000  1.0
  N  N69  1  0.86225000  0.66263000  0.73192000  1.0
  N  N70  1  0.86225000  0.83736000  0.23192000  1.0
  N  N71  1  0.13775000  0.33736000  0.26808000  1.0
  N  N72  1  0.80851000  0.88628000  0.96554000  1.0
  N  N73  1  0.19149000  0.38629000  0.53446000  1.0
  N  N74  1  0.19149000  0.11372000  0.03446000  1.0
  N  N75  1  0.80851000  0.61372000  0.46554000  1.0
  O  O76  1  0.13480000  0.44892000  0.77687000  1.0
  O  O77  1  0.86520000  0.94892000  0.72313000  1.0
  O  O78  1  0.86522000  0.55108000  0.22313000  1.0
  O  O79  1  0.13479000  0.05109000  0.27687000  1.0
  O  O80  1  0.79195000  0.60131000  0.96216000  1.0
  O  O81  1  0.20804000  0.10131000  0.53784000  1.0
  O  O82  1  0.20803000  0.39869000  0.03783000  1.0
  O  O83  1  0.79195000  0.89868000  0.46217000  1.0
  O  O84  1  0.58922000  0.39455000  0.91611000  1.0
  O  O85  1  0.41077000  0.89456000  0.58388000  1.0
  O  O86  1  0.41078000  0.60543000  0.08391000  1.0
  O  O87  1  0.58922000  0.10544000  0.41610000  1.0
  O  O88  1  0.34018000  0.66566000  0.83190000  1.0
  O  O89  1  0.65983000  0.16566000  0.66810000  1.0
  O  O90  1  0.65980000  0.33435000  0.16811000  1.0
  O  O91  1  0.34018000  0.83435000  0.33188000  1.0
  O  O92  1  0.56644000  0.21371000  0.90278000  1.0
  O  O93  1  0.43354000  0.71371000  0.59721000  1.0
  O  O94  1  0.43355000  0.78628000  0.09721000  1.0
  O  O95  1  0.56643000  0.28628000  0.40279000  1.0
  O  O96  1  0.37423000  0.84597000  0.83367000  1.0
  O  O97  1  0.62578000  0.34598000  0.66633000  1.0
  O  O98  1  0.62579000  0.15403000  0.16633000  1.0
  O  O99  1  0.37423000  0.65403000  0.33368000  1.0
  O  O100  1  0.47001000  0.52539000  0.69444000  1.0
  O  O101  1  0.52999000  0.02539000  0.80555000  1.0
  O  O102  1  0.53000000  0.47461000  0.30555000  1.0
  O  O103  1  0.47000000  0.97461000  0.19444000  1.0
  O  O104  1  0.89884000  0.34231000  0.85725000  1.0
  O  O105  1  0.10118000  0.84231000  0.64275000  1.0
  O  O106  1  0.10117000  0.65769000  0.14276000  1.0
  O  O107  1  0.89885000  0.15769000  0.35725000  1.0
  O  O108  1  0.89326000  0.15739000  0.09345000  1.0
  O  O109  1  0.10675000  0.65739000  0.40655000  1.0
  O  O110  1  0.10676000  0.84260000  0.90656000  1.0
  O  O111  1  0.89326000  0.34260000  0.59345000  1.0
