# generated using pymatgen
data_ScH6(C2O)6
_symmetry_space_group_name_H-M   'P 1'
_cell_length_a   8.85371000
_cell_length_b   11.35930000
_cell_length_c   17.84512421
_cell_angle_alpha   84.45036617
_cell_angle_beta   75.64313462
_cell_angle_gamma   67.06400000
_symmetry_Int_Tables_number   1
_chemical_formula_structural   ScH6(C2O)6
_chemical_formula_sum   'Sc4 H24 C48 O24'
_cell_volume   1601.21204221
_cell_formula_units_Z   4
loop_
 _symmetry_equiv_pos_site_id
 _symmetry_equiv_pos_as_xyz
  1  'x, y, z'
loop_
 _atom_site_type_symbol
 _atom_site_label
 _atom_site_symmetry_multiplicity
 _atom_site_fract_x
 _atom_site_fract_y
 _atom_site_fract_z
 _atom_site_occupancy
  Sc  Sc0  1  0.36385000  0.75004000  0.77235000  1.0
  Sc  Sc1  1  0.88626000  0.75005000  0.72762000  1.0
  Sc  Sc2  1  0.63615000  0.24996000  0.22765000  1.0
  Sc  Sc3  1  0.11374000  0.24995000  0.27238000  1.0
  H  H4  1  0.26129000  0.94883000  0.98322000  1.0
  H  H5  1  0.19338000  0.55115000  0.51669000  1.0
  H  H6  1  0.78989000  0.94891000  0.51672000  1.0
  H  H7  1  0.25545000  0.55115000  0.98333000  1.0
  H  H8  1  0.73871000  0.05117000  0.01678000  1.0
  H  H9  1  0.80662000  0.44884000  0.48331000  1.0
  H  H10  1  0.21011000  0.05109000  0.48328000  1.0
  H  H11  1  0.74455000  0.44885000  0.01667000  1.0
  H  H12  1  0.76923000  0.92980000  0.90003000  1.0
  H  H13  1  0.59894000  0.57019000  0.60006000  1.0
  H  H14  1  0.30103000  0.92977000  0.60005000  1.0
  H  H15  1  0.83088000  0.57020000  0.89992000  1.0
  H  H16  1  0.23077000  0.07020000  0.09998000  1.0
  H  H17  1  0.40106000  0.42981000  0.39994000  1.0
  H  H18  1  0.69896000  0.07023000  0.39996000  1.0
  H  H19  1  0.16911000  0.42980000  0.10008000  1.0
  H  H20  1  0.17666000  0.13000000  0.75214000  1.0
  H  H21  1  0.05878000  0.37010000  0.74784000  1.0
  H  H22  1  0.69347000  0.13006000  0.74787000  1.0
  H  H23  1  0.57130000  0.37014000  0.75219000  1.0
  H  H24  1  0.82334000  0.87000000  0.24786000  1.0
  H  H25  1  0.94123000  0.62990000  0.25216000  1.0
  H  H26  1  0.30653000  0.86994000  0.25213000  1.0
  H  H27  1  0.42870000  0.62986000  0.24781000  1.0
  C  C28  1  0.53538000  0.86095000  0.86538000  1.0
  C  C29  1  0.26168000  0.63904000  0.63460000  1.0
  C  C30  1  0.60380000  0.86098000  0.63462000  1.0
  C  C31  1  0.09937000  0.63907000  0.86539000  1.0
  C  C32  1  0.46461000  0.13906000  0.13463000  1.0
  C  C33  1  0.73833000  0.36095000  0.36540000  1.0
  C  C34  1  0.39620000  0.13902000  0.36538000  1.0
  C  C35  1  0.90064000  0.36093000  0.13461000  1.0
  C  C36  1  0.51696000  0.93260000  0.93507000  1.0
  C  C37  1  0.38461000  0.56735000  0.56493000  1.0
  C  C38  1  0.55048000  0.93265000  0.56495000  1.0
  C  C39  1  0.04807000  0.56738000  0.93506000  1.0
  C  C40  1  0.48305000  0.06740000  0.06493000  1.0
  C  C41  1  0.61539000  0.43265000  0.43507000  1.0
  C  C42  1  0.44953000  0.06735000  0.43505000  1.0
  C  C43  1  0.95194000  0.43263000  0.06493000  1.0
  C  C44  1  0.36477000  0.97175000  0.99124000  1.0
  C  C45  1  0.32779000  0.52823000  0.50871000  1.0
  C  C46  1  0.66345000  0.97183000  0.50874000  1.0
  C  C47  1  0.14395000  0.52823000  0.99131000  1.0
  C  C48  1  0.63523000  0.02825000  0.00876000  1.0
  C  C49  1  0.67220000  0.47177000  0.49129000  1.0
  C  C50  1  0.33654000  0.02817000  0.49126000  1.0
  C  C51  1  0.85605000  0.47177000  0.00869000  1.0
  C  C52  1  0.65197000  0.96112000  0.94414000  1.0
  C  C53  1  0.55718000  0.53885000  0.55592000  1.0
  C  C54  1  0.38693000  0.96111000  0.55591000  1.0
  C  C55  1  0.90399000  0.53887000  0.94406000  1.0
  C  C56  1  0.34802000  0.03888000  0.05587000  1.0
  C  C57  1  0.44282000  0.46114000  0.44408000  1.0
  C  C58  1  0.61307000  0.03889000  0.44409000  1.0
  C  C59  1  0.09601000  0.46113000  0.05594000  1.0
  C  C60  1  0.01305000  0.97397000  0.74996000  1.0
  C  C61  1  0.73705000  0.52617000  0.74997000  1.0
  C  C62  1  0.98695000  0.02603000  0.25004000  1.0
  C  C63  1  0.26294000  0.47383000  0.25003000  1.0
  C  C64  1  0.94172000  0.11673000  0.75001000  1.0
  C  C65  1  0.80838000  0.38344000  0.75002000  1.0
  C  C66  1  0.05828000  0.88328000  0.24999000  1.0
  C  C67  1  0.19162000  0.61656000  0.24998000  1.0
  C  C68  1  0.04506000  0.18364000  0.75089000  1.0
  C  C69  1  0.97950000  0.31649000  0.74915000  1.0
  C  C70  1  0.77143000  0.18367000  0.74917000  1.0
  C  C71  1  0.70416000  0.31652000  0.75092000  1.0
  C  C72  1  0.95494000  0.81637000  0.24911000  1.0
  C  C73  1  0.02050000  0.68351000  0.25085000  1.0
  C  C74  1  0.22856000  0.81633000  0.25083000  1.0
  C  C75  1  0.29584000  0.68348000  0.24908000  1.0
  O  O76  1  0.41302000  0.83184000  0.86067000  1.0
  O  O77  1  0.10551000  0.66818000  0.63929000  1.0
  O  O78  1  0.75529000  0.83184000  0.63929000  1.0
  O  O79  1  0.22637000  0.66823000  0.86071000  1.0
  O  O80  1  0.58698000  0.16816000  0.13933000  1.0
  O  O81  1  0.89449000  0.33182000  0.36071000  1.0
  O  O82  1  0.24471000  0.16816000  0.36071000  1.0
  O  O83  1  0.77363000  0.33177000  0.13929000  1.0
  O  O84  1  0.67237000  0.83304000  0.81401000  1.0
  O  O85  1  0.31939000  0.66694000  0.68598000  1.0
  O  O86  1  0.49475000  0.83309000  0.68602000  1.0
  O  O87  1  0.01376000  0.66696000  0.81400000  1.0
  O  O88  1  0.32764000  0.16696000  0.18599000  1.0
  O  O89  1  0.68061000  0.33305000  0.31401000  1.0
  O  O90  1  0.50525000  0.16691000  0.31398000  1.0
  O  O91  1  0.98623000  0.33304000  0.18600000  1.0
  O  O92  1  0.14962000  0.91742000  0.77229000  1.0
  O  O93  1  0.83951000  0.58260000  0.72759000  1.0
  O  O94  1  0.93291000  0.91754000  0.72761000  1.0
  O  O95  1  0.57818000  0.58272000  0.77231000  1.0
  O  O96  1  0.85038000  0.08258000  0.22771000  1.0
  O  O97  1  0.16049000  0.41740000  0.27241000  1.0
  O  O98  1  0.06707000  0.08246000  0.27239000  1.0
  O  O99  1  0.42182000  0.41728000  0.22769000  1.0
