# generated using pymatgen
data_CuH16C24(N2O3)2
_symmetry_space_group_name_H-M   'P 1'
_cell_length_a   12.64970000
_cell_length_b   12.64980000
_cell_length_c   12.64970000
_cell_angle_alpha   95.38940000
_cell_angle_beta   95.38940000
_cell_angle_gamma   95.38970000
_symmetry_Int_Tables_number   1
_chemical_formula_structural   CuH16C24(N2O3)2
_chemical_formula_sum   'Cu3 H48 C72 N12 O18'
_cell_volume   1995.49049588
_cell_formula_units_Z   3
loop_
 _symmetry_equiv_pos_site_id
 _symmetry_equiv_pos_as_xyz
  1  'x, y, z'
loop_
 _atom_site_type_symbol
 _atom_site_label
 _atom_site_symmetry_multiplicity
 _atom_site_fract_x
 _atom_site_fract_y
 _atom_site_fract_z
 _atom_site_occupancy
  Cu  Cu0  1  0.00000000  0.00000000  0.50000000  1.0
  Cu  Cu1  1  0.50000000  0.00000000  1.00000000  1.0
  Cu  Cu2  1  0.00000000  0.50000000  0.00000000  1.0
  H  H3  1  0.35048000  0.27605000  0.89328000  1.0
  H  H4  1  0.89328000  0.35047000  0.27605000  1.0
  H  H5  1  0.27605000  0.89328000  0.35047000  1.0
  H  H6  1  0.64952000  0.72395000  0.10672000  1.0
  H  H7  1  0.10672000  0.64953000  0.72395000  1.0
  H  H8  1  0.72395000  0.10672000  0.64953000  1.0
  H  H9  1  0.00371000  0.20863000  0.25215000  1.0
  H  H10  1  0.25216000  0.00372000  0.20863000  1.0
  H  H11  1  0.20863000  0.25216000  0.00371000  1.0
  H  H12  1  0.99628000  0.79137000  0.74785000  1.0
  H  H13  1  0.74785000  0.99628000  0.79137000  1.0
  H  H14  1  0.79137000  0.74784000  0.99628000  1.0
  H  H15  1  0.10951000  0.38404000  0.65229000  1.0
  H  H16  1  0.65228000  0.10950000  0.38404000  1.0
  H  H17  1  0.38404000  0.65228000  0.10951000  1.0
  H  H18  1  0.89049000  0.61597000  0.34772000  1.0
  H  H19  1  0.34772000  0.89049000  0.61596000  1.0
  H  H20  1  0.61596000  0.34772000  0.89049000  1.0
  H  H21  1  0.00556000  0.23264000  0.53084000  1.0
  H  H22  1  0.53085000  0.00556000  0.23264000  1.0
  H  H23  1  0.23264000  0.53085000  0.00556000  1.0
  H  H24  1  0.99444000  0.76736000  0.46916000  1.0
  H  H25  1  0.46915000  0.99444000  0.76736000  1.0
  H  H26  1  0.76736000  0.46915000  0.99444000  1.0
  H  H27  1  0.18333000  0.01102000  0.66532000  1.0
  H  H28  1  0.66532000  0.18333000  0.01102000  1.0
  H  H29  1  0.01102000  0.66532000  0.18333000  1.0
  H  H30  1  0.81667000  0.98898000  0.33468000  1.0
  H  H31  1  0.33468000  0.81667000  0.98898000  1.0
  H  H32  1  0.98898000  0.33468000  0.81667000  1.0
  H  H33  1  0.29519000  0.15053000  0.78908000  1.0
  H  H34  1  0.78908000  0.29519000  0.15053000  1.0
  H  H35  1  0.15053000  0.78908000  0.29519000  1.0
  H  H36  1  0.70481000  0.84947000  0.21092000  1.0
  H  H37  1  0.21092000  0.70481000  0.84947000  1.0
  H  H38  1  0.84947000  0.21092000  0.70481000  1.0
  H  H39  1  0.44994000  0.32039000  0.05503000  1.0
  H  H40  1  0.05503000  0.44994000  0.32039000  1.0
  H  H41  1  0.32039000  0.05503000  0.44994000  1.0
  H  H42  1  0.55006000  0.67961000  0.94497000  1.0
  H  H43  1  0.94497000  0.55006000  0.67961000  1.0
  H  H44  1  0.67961000  0.94497000  0.55006000  1.0
  H  H45  1  0.41168000  0.55509000  0.83267000  1.0
  H  H46  1  0.83267000  0.41168000  0.55509000  1.0
  H  H47  1  0.55509000  0.83267000  0.41168000  1.0
  H  H48  1  0.58832000  0.44491000  0.16733000  1.0
  H  H49  1  0.16733000  0.58832000  0.44491000  1.0
  H  H50  1  0.44491000  0.16733000  0.58832000  1.0
  C  C51  1  0.09409000  0.04429000  0.33240000  1.0
  C  C52  1  0.33240000  0.09409000  0.04429000  1.0
  C  C53  1  0.04429000  0.33240000  0.09409000  1.0
  C  C54  1  0.90591000  0.95571000  0.66760000  1.0
  C  C55  1  0.66760000  0.90590000  0.95571000  1.0
  C  C56  1  0.95571000  0.66760000  0.90591000  1.0
  C  C57  1  0.12369000  0.09924000  0.23888000  1.0
  C  C58  1  0.23888000  0.12369000  0.09924000  1.0
  C  C59  1  0.09924000  0.23888000  0.12369000  1.0
  C  C60  1  0.87632000  0.90076000  0.76112000  1.0
  C  C61  1  0.76112000  0.87631000  0.90076000  1.0
  C  C62  1  0.90076000  0.76112000  0.87631000  1.0
  C  C63  1  0.06891000  0.18430000  0.20842000  1.0
  C  C64  1  0.20843000  0.06891000  0.18430000  1.0
  C  C65  1  0.18431000  0.20842000  0.06891000  1.0
  C  C66  1  0.93109000  0.81570000  0.79158000  1.0
  C  C67  1  0.79157000  0.93109000  0.81569000  1.0
  C  C68  1  0.81569000  0.79157000  0.93109000  1.0
  C  C69  1  0.12726000  0.30194000  0.65704000  1.0
  C  C70  1  0.65704000  0.12726000  0.30194000  1.0
  C  C71  1  0.30194000  0.65704000  0.12725000  1.0
  C  C72  1  0.87274000  0.69806000  0.34296000  1.0
  C  C73  1  0.34296000  0.87274000  0.69806000  1.0
  C  C74  1  0.69806000  0.34296000  0.87274000  1.0
  C  C75  1  0.07014000  0.21887000  0.58965000  1.0
  C  C76  1  0.58965000  0.07014000  0.21887000  1.0
  C  C77  1  0.21887000  0.58965000  0.07014000  1.0
  C  C78  1  0.92986000  0.78113000  0.41035000  1.0
  C  C79  1  0.41035000  0.92986000  0.78113000  1.0
  C  C80  1  0.78113000  0.41035000  0.92986000  1.0
  C  C81  1  0.17026000  0.09488000  0.66488000  1.0
  C  C82  1  0.66488000  0.17026000  0.09488000  1.0
  C  C83  1  0.09488000  0.66488000  0.17026000  1.0
  C  C84  1  0.82974000  0.90512000  0.33512000  1.0
  C  C85  1  0.33512000  0.82974000  0.90512000  1.0
  C  C86  1  0.90512000  0.33512000  0.82974000  1.0
  C  C87  1  0.23168000  0.17386000  0.73445000  1.0
  C  C88  1  0.73445000  0.23168000  0.17386000  1.0
  C  C89  1  0.17386000  0.73445000  0.23168000  1.0
  C  C90  1  0.76832000  0.82614000  0.26555000  1.0
  C  C91  1  0.26555000  0.76832000  0.82614000  1.0
  C  C92  1  0.82614000  0.26555000  0.76832000  1.0
  C  C93  1  0.20968000  0.28014000  0.73130000  1.0
  C  C94  1  0.73130000  0.20968000  0.28014000  1.0
  C  C95  1  0.28013000  0.73130000  0.20968000  1.0
  C  C96  1  0.79032000  0.71986000  0.26870000  1.0
  C  C97  1  0.26870000  0.79032000  0.71986000  1.0
  C  C98  1  0.71986000  0.26870000  0.79032000  1.0
  C  C99  1  0.27037000  0.37490000  0.79881000  1.0
  C  C100  1  0.79881000  0.27037000  0.37490000  1.0
  C  C101  1  0.37490000  0.79881000  0.27037000  1.0
  C  C102  1  0.72963000  0.62510000  0.20119000  1.0
  C  C103  1  0.20119000  0.72964000  0.62510000  1.0
  C  C104  1  0.62510000  0.20119000  0.72963000  1.0
  C  C105  1  0.42146000  0.42908000  0.93659000  1.0
  C  C106  1  0.93659000  0.42146000  0.42908000  1.0
  C  C107  1  0.42908000  0.93659000  0.42146000  1.0
  C  C108  1  0.57854000  0.57092000  0.06341000  1.0
  C  C109  1  0.06341000  0.57855000  0.57092000  1.0
  C  C110  1  0.57092000  0.06341000  0.57855000  1.0
  C  C111  1  0.47208000  0.39958000  0.03145000  1.0
  C  C112  1  0.03145000  0.47208000  0.39958000  1.0
  C  C113  1  0.39958000  0.03145000  0.47208000  1.0
  C  C114  1  0.52792000  0.60043000  0.96855000  1.0
  C  C115  1  0.96855000  0.52792000  0.60042000  1.0
  C  C116  1  0.60042000  0.96855000  0.52792000  1.0
  C  C117  1  0.45018000  0.53094000  0.90564000  1.0
  C  C118  1  0.90565000  0.45018000  0.53094000  1.0
  C  C119  1  0.53094000  0.90565000  0.45019000  1.0
  C  C120  1  0.54982000  0.46906000  0.09436000  1.0
  C  C121  1  0.09435000  0.54982000  0.46906000  1.0
  C  C122  1  0.46906000  0.09435000  0.54982000  1.0
  N  N123  1  0.09141000  0.11689000  0.59382000  1.0
  N  N124  1  0.59383000  0.09141000  0.11689000  1.0
  N  N125  1  0.11689000  0.59382000  0.09141000  1.0
  N  N126  1  0.90859000  0.88311000  0.40618000  1.0
  N  N127  1  0.40618000  0.90859000  0.88311000  1.0
  N  N128  1  0.88311000  0.40618000  0.90859000  1.0
  N  N129  1  0.34712000  0.35306000  0.87468000  1.0
  N  N130  1  0.87468000  0.34711000  0.35306000  1.0
  N  N131  1  0.35306000  0.87468000  0.34712000  1.0
  N  N132  1  0.65288000  0.64694000  0.12532000  1.0
  N  N133  1  0.12532000  0.65289000  0.64694000  1.0
  N  N134  1  0.64694000  0.12532000  0.65289000  1.0
  O  O135  1  0.01424000  0.07939000  0.37689000  1.0
  O  O136  1  0.37689000  0.01424000  0.07939000  1.0
  O  O137  1  0.07939000  0.37688000  0.01423000  1.0
  O  O138  1  0.98577000  0.92061000  0.62311000  1.0
  O  O139  1  0.62311000  0.98576000  0.92061000  1.0
  O  O140  1  0.92061000  0.62312000  0.98577000  1.0
  O  O141  1  0.14492000  0.97080000  0.36569000  1.0
  O  O142  1  0.36569000  0.14491000  0.97079000  1.0
  O  O143  1  0.97079000  0.36569000  0.14491000  1.0
  O  O144  1  0.85509000  0.02920000  0.63431000  1.0
  O  O145  1  0.63431000  0.85508000  0.02920000  1.0
  O  O146  1  0.02921000  0.63431000  0.85509000  1.0
  O  O147  1  0.25032000  0.46654000  0.78242000  1.0
  O  O148  1  0.78242000  0.25031000  0.46655000  1.0
  O  O149  1  0.46654000  0.78242000  0.25032000  1.0
  O  O150  1  0.74969000  0.53346000  0.21758000  1.0
  O  O151  1  0.21758000  0.74969000  0.53346000  1.0
  O  O152  1  0.53345000  0.21757000  0.74969000  1.0
