# generated using pymatgen
data_CdH8C6(N8O)2
_symmetry_space_group_name_H-M   'P 1'
_cell_length_a   7.72133000
_cell_length_b   14.70500000
_cell_length_c   15.32850000
_cell_angle_alpha   63.47810000
_cell_angle_beta   75.93750000
_cell_angle_gamma   74.99400000
_symmetry_Int_Tables_number   1
_chemical_formula_structural   CdH8C6(N8O)2
_chemical_formula_sum   'Cd4 H32 C24 N64 O8'
_cell_volume   1487.74679817
_cell_formula_units_Z   4
loop_
 _symmetry_equiv_pos_site_id
 _symmetry_equiv_pos_as_xyz
  1  'x, y, z'
loop_
 _atom_site_type_symbol
 _atom_site_label
 _atom_site_symmetry_multiplicity
 _atom_site_fract_x
 _atom_site_fract_y
 _atom_site_fract_z
 _atom_site_occupancy
  Cd  Cd0  1  0.70728000  0.75321000  0.71110000  1.0
  Cd  Cd1  1  0.17221000  0.74657000  0.78926000  1.0
  Cd  Cd2  1  0.29272000  0.24679000  0.28890000  1.0
  Cd  Cd3  1  0.82779000  0.25343000  0.21074000  1.0
  H  H4  1  0.80359000  0.60197000  0.29043000  1.0
  H  H5  1  0.69423000  0.89817000  0.20855000  1.0
  H  H6  1  0.19641000  0.39803000  0.70957000  1.0
  H  H7  1  0.30577000  0.10183000  0.79145000  1.0
  H  H8  1  0.71685000  0.60007000  0.19379000  1.0
  H  H9  1  0.50951000  0.90019000  0.30371000  1.0
  H  H10  1  0.28315000  0.39993000  0.80622000  1.0
  H  H11  1  0.49049000  0.09981000  0.69630000  1.0
  H  H12  1  0.96151000  0.89208000  0.60736000  1.0
  H  H13  1  0.46397000  0.60738000  0.89302000  1.0
  H  H14  1  0.03849000  0.10792000  0.39264000  1.0
  H  H15  1  0.53602000  0.39262000  0.10698000  1.0
  H  H16  1  0.76878000  0.96216000  0.63463000  1.0
  H  H17  1  0.36673000  0.53761000  0.86521000  1.0
  H  H18  1  0.23122000  0.03784000  0.36537000  1.0
  H  H19  1  0.63327000  0.46239000  0.13479000  1.0
  H  H20  1  0.82608000  0.87651000  0.80367000  1.0
  H  H21  1  0.50301000  0.62329000  0.69662000  1.0
  H  H22  1  0.17392000  0.12349000  0.19633000  1.0
  H  H23  1  0.49699000  0.37671000  0.30338000  1.0
  H  H24  1  0.97159000  0.95295000  0.72788000  1.0
  H  H25  1  0.65073000  0.54700000  0.77260000  1.0
  H  H26  1  0.02841000  0.04705000  0.27212000  1.0
  H  H27  1  0.34926000  0.45300000  0.22740000  1.0
  H  H28  1  0.18280000  0.61678000  0.31361000  1.0
  H  H29  1  0.11498000  0.88340000  0.18738000  1.0
  H  H30  1  0.81720000  0.38322000  0.68639000  1.0
  H  H31  1  0.88502000  0.11660000  0.81262000  1.0
  H  H32  1  0.26158000  0.61435000  0.41472000  1.0
  H  H33  1  0.29142000  0.88619000  0.08742000  1.0
  H  H34  1  0.73842000  0.38565000  0.58528000  1.0
  H  H35  1  0.70858000  0.11381000  0.91258000  1.0
  C  C36  1  0.90800000  0.61887000  0.00584000  1.0
  C  C37  1  0.53201000  0.88114000  0.49359000  1.0
  C  C38  1  0.09200000  0.38113000  0.99416000  1.0
  C  C39  1  0.46799000  0.11886000  0.50641000  1.0
  C  C40  1  0.02931000  0.61069000  0.06829000  1.0
  C  C41  1  0.70654000  0.88920000  0.43196000  1.0
  C  C42  1  0.97069000  0.38931000  0.93171000  1.0
  C  C43  1  0.29346000  0.11079000  0.56804000  1.0
  C  C44  1  0.98559000  0.60084000  0.16902000  1.0
  C  C45  1  0.75337000  0.89897000  0.33123000  1.0
  C  C46  1  0.01441000  0.39916000  0.83098000  1.0
  C  C47  1  0.24663000  0.10103000  0.66877000  1.0
  C  C48  1  0.04848000  0.63955000  0.58130000  1.0
  C  C49  1  0.27002000  0.86047000  0.91941000  1.0
  C  C50  1  0.95153000  0.36045000  0.41870000  1.0
  C  C51  1  0.72998000  0.13953000  0.08059000  1.0
  C  C52  1  0.93512000  0.63245000  0.52315000  1.0
  C  C53  1  0.09249000  0.86746000  0.97680000  1.0
  C  C54  1  0.06489000  0.36755000  0.47685000  1.0
  C  C55  1  0.90751000  0.13254000  0.02320000  1.0
  C  C56  1  0.99073000  0.62735000  0.42818000  1.0
  C  C57  1  0.04836000  0.87263000  0.07181000  1.0
  C  C58  1  0.00927000  0.37265000  0.57182000  1.0
  C  C59  1  0.95164000  0.12737000  0.92819000  1.0
  N  N60  1  0.94457000  0.65645000  0.90688000  1.0
  N  N61  1  0.50844000  0.84370000  0.59261000  1.0
  N  N62  1  0.05543000  0.34355000  0.09312000  1.0
  N  N63  1  0.49157000  0.15630000  0.40739000  1.0
  N  N64  1  0.79679000  0.65263000  0.87836000  1.0
  N  N65  1  0.32909000  0.84791000  0.62043000  1.0
  N  N66  1  0.20321000  0.34737000  0.12164000  1.0
  N  N67  1  0.67091000  0.15209000  0.37957000  1.0
  N  N68  1  0.67557000  0.61471000  0.95622000  1.0
  N  N69  1  0.24703000  0.88594000  0.54207000  1.0
  N  N70  1  0.32443000  0.38529000  0.04378000  1.0
  N  N71  1  0.75297000  0.11406000  0.45793000  1.0
  N  N72  1  0.74169000  0.59250000  0.03808000  1.0
  N  N73  1  0.37153000  0.90778000  0.46061000  1.0
  N  N74  1  0.25830000  0.40750000  0.96192000  1.0
  N  N75  1  0.62847000  0.09222000  0.53939000  1.0
  N  N76  1  0.20183000  0.61681000  0.03687000  1.0
  N  N77  1  0.85337000  0.88325000  0.46453000  1.0
  N  N78  1  0.79817000  0.38319000  0.96313000  1.0
  N  N79  1  0.14664000  0.11674000  0.53547000  1.0
  N  N80  1  0.13622000  0.60041000  0.19692000  1.0
  N  N81  1  0.93064000  0.89955000  0.30458000  1.0
  N  N82  1  0.86378000  0.39959000  0.80308000  1.0
  N  N83  1  0.06936000  0.10044000  0.69542000  1.0
  N  N84  1  0.82297000  0.59346000  0.22547000  1.0
  N  N85  1  0.64051000  0.90598000  0.27359000  1.0
  N  N86  1  0.17703000  0.40654000  0.77453000  1.0
  N  N87  1  0.35949000  0.09402000  0.72641000  1.0
  N  N88  1  0.13918000  0.66640000  0.68666000  1.0
  N  N89  1  0.49079000  0.83415000  0.81440000  1.0
  N  N90  1  0.86083000  0.33359000  0.31334000  1.0
  N  N91  1  0.50921000  0.16585000  0.18560000  1.0
  N  N92  1  0.28405000  0.63685000  0.63213000  1.0
  N  N93  1  0.55220000  0.86379000  0.86945000  1.0
  N  N94  1  0.71595000  0.36315000  0.36787000  1.0
  N  N95  1  0.44780000  0.13621000  0.13055000  1.0
  N  N96  1  0.23128000  0.61957000  0.56486000  1.0
  N  N97  1  0.41625000  0.88074000  0.93651000  1.0
  N  N98  1  0.76873000  0.38043000  0.43514000  1.0
  N  N99  1  0.58375000  0.11926000  0.06349000  1.0
  N  N100  1  0.85563000  0.89293000  0.66303000  1.0
  N  N101  1  0.41261000  0.60679000  0.83719000  1.0
  N  N102  1  0.14437000  0.10707000  0.33697000  1.0
  N  N103  1  0.58739000  0.39321000  0.16281000  1.0
  N  N104  1  0.92899000  0.88573000  0.74462000  1.0
  N  N105  1  0.55803000  0.61420000  0.75568000  1.0
  N  N106  1  0.07101000  0.11427000  0.25538000  1.0
  N  N107  1  0.44197000  0.38580000  0.24432000  1.0
  N  N108  1  0.98844000  0.66913000  0.65647000  1.0
  N  N109  1  0.31355000  0.83107000  0.84405000  1.0
  N  N110  1  0.01156000  0.33087000  0.34353000  1.0
  N  N111  1  0.68646000  0.16893000  0.15595000  1.0
  N  N112  1  0.75946000  0.63336000  0.54869000  1.0
  N  N113  1  0.94367000  0.86651000  0.95006000  1.0
  N  N114  1  0.24055000  0.36663000  0.45132000  1.0
  N  N115  1  0.05633000  0.13349000  0.04994000  1.0
  N  N116  1  0.84462000  0.62530000  0.39828000  1.0
  N  N117  1  0.87111000  0.87470000  0.10047000  1.0
  N  N118  1  0.15538000  0.37470000  0.60172000  1.0
  N  N119  1  0.12889000  0.12531000  0.89953000  1.0
  N  N120  1  0.15923000  0.62759000  0.37725000  1.0
  N  N121  1  0.16578000  0.87238000  0.12404000  1.0
  N  N122  1  0.84077000  0.37241000  0.62275000  1.0
  N  N123  1  0.83423000  0.12762000  0.87596000  1.0
  O  O124  1  0.27119000  0.61168000  0.11328000  1.0
  O  O125  1  0.99312000  0.88844000  0.38900000  1.0
  O  O126  1  0.72881000  0.38832000  0.88672000  1.0
  O  O127  1  0.00687000  0.11156000  0.61100000  1.0
  O  O128  1  0.69996000  0.62956000  0.47336000  1.0
  O  O129  1  0.80587000  0.87031000  0.02459000  1.0
  O  O130  1  0.30004000  0.37044000  0.52665000  1.0
  O  O131  1  0.19413000  0.12969000  0.97540000  1.0
