# generated using pymatgen
data_CdH14C12(NCl)2
_symmetry_space_group_name_H-M   'P 1'
_cell_length_a   3.88916000
_cell_length_b   11.27240000
_cell_length_c   14.68300000
_cell_angle_alpha   90.00010000
_cell_angle_beta   90.00010000
_cell_angle_gamma   88.17740000
_symmetry_Int_Tables_number   1
_chemical_formula_structural   CdH14C12(NCl)2
_chemical_formula_sum   'Cd2 H28 C24 N4 Cl4'
_cell_volume   643.37951969
_cell_formula_units_Z   2
loop_
 _symmetry_equiv_pos_site_id
 _symmetry_equiv_pos_as_xyz
  1  'x, y, z'
loop_
 _atom_site_type_symbol
 _atom_site_label
 _atom_site_symmetry_multiplicity
 _atom_site_fract_x
 _atom_site_fract_y
 _atom_site_fract_z
 _atom_site_occupancy
  Cd  Cd0  1  0.00000000  0.00000000  0.00000000  1.0
  Cd  Cd1  1  0.00000000  0.50000000  0.50000000  1.0
  H  H2  1  0.74062000  0.90811000  0.80435000  1.0
  H  H3  1  0.25937000  0.59189000  0.30435000  1.0
  H  H4  1  0.25936000  0.09190000  0.19565000  1.0
  H  H5  1  0.74064000  0.40811000  0.69565000  1.0
  H  H6  1  0.02126000  0.15104000  0.59085000  1.0
  H  H7  1  0.97875000  0.34896000  0.09085000  1.0
  H  H8  1  0.97873000  0.84896000  0.40915000  1.0
  H  H9  1  0.02126000  0.65104000  0.90915000  1.0
  H  H10  1  0.27923000  0.27569000  0.70923000  1.0
  H  H11  1  0.72078000  0.22430000  0.20923000  1.0
  H  H12  1  0.72077000  0.72430000  0.29076000  1.0
  H  H13  1  0.27922000  0.77570000  0.79077000  1.0
  H  H14  1  0.25756000  0.20874000  0.87406000  1.0
  H  H15  1  0.74244000  0.29126000  0.37405000  1.0
  H  H16  1  0.74244000  0.79126000  0.12594000  1.0
  H  H17  1  0.25756000  0.70874000  0.62594000  1.0
  H  H18  1  0.91405000  0.89495000  0.57332000  1.0
  H  H19  1  0.08595000  0.60505000  0.07332000  1.0
  H  H20  1  0.08593000  0.10505000  0.42668000  1.0
  H  H21  1  0.91407000  0.39495000  0.92668000  1.0
  H  H22  1  0.53116000  0.98429000  0.57355000  1.0
  H  H23  1  0.46885000  0.51571000  0.07355000  1.0
  H  H24  1  0.46883000  0.01571000  0.42645000  1.0
  H  H25  1  0.53117000  0.48429000  0.92645000  1.0
  H  H26  1  0.57879000  0.86255000  0.64978000  1.0
  H  H27  1  0.42121000  0.63745000  0.14978000  1.0
  H  H28  1  0.42120000  0.13745000  0.35023000  1.0
  H  H29  1  0.57880000  0.36255000  0.85023000  1.0
  C  C30  1  0.86082000  0.98819000  0.77964000  1.0
  C  C31  1  0.13918000  0.51181000  0.27964000  1.0
  C  C32  1  0.13917000  0.01181000  0.22035000  1.0
  C  C33  1  0.86084000  0.48820000  0.72035000  1.0
  C  C34  1  0.86513000  0.01612000  0.68691000  1.0
  C  C35  1  0.13488000  0.48388000  0.18691000  1.0
  C  C36  1  0.13486000  0.98388000  0.31309000  1.0
  C  C37  1  0.86513000  0.51612000  0.81309000  1.0
  C  C38  1  0.01556000  0.12254000  0.66185000  1.0
  C  C39  1  0.98445000  0.37745000  0.16185000  1.0
  C  C40  1  0.98444000  0.87746000  0.33814000  1.0
  C  C41  1  0.01556000  0.62254000  0.83814000  1.0
  C  C42  1  0.15747000  0.19379000  0.72851000  1.0
  C  C43  1  0.84254000  0.30621000  0.22850000  1.0
  C  C44  1  0.84253000  0.80621000  0.27149000  1.0
  C  C45  1  0.15746000  0.69379000  0.77150000  1.0
  C  C46  1  0.14445000  0.15803000  0.81908000  1.0
  C  C47  1  0.85556000  0.34197000  0.31908000  1.0
  C  C48  1  0.85556000  0.84197000  0.18092000  1.0
  C  C49  1  0.14444000  0.65802000  0.68092000  1.0
  C  C50  1  0.71414000  0.93522000  0.61757000  1.0
  C  C51  1  0.28587000  0.56478000  0.11757000  1.0
  C  C52  1  0.28585000  0.06478000  0.38243000  1.0
  C  C53  1  0.71414000  0.43522000  0.88243000  1.0
  N  N54  1  0.99708000  0.05695000  0.84423000  1.0
  N  N55  1  0.00292000  0.44305000  0.34423000  1.0
  N  N56  1  0.00291000  0.94305000  0.15577000  1.0
  N  N57  1  0.99709000  0.55695000  0.65577000  1.0
  Cl  Cl58  1  0.48415000  0.15936000  0.03372000  1.0
  Cl  Cl59  1  0.51584000  0.34064000  0.53372000  1.0
  Cl  Cl60  1  0.51584000  0.84064000  0.96628000  1.0
  Cl  Cl61  1  0.48416000  0.65937000  0.46628000  1.0
