# generated using pymatgen
data_ZnH16C20SN3O10
_symmetry_space_group_name_H-M   'P 1'
_cell_length_a   14.64100000
_cell_length_b   15.99140000
_cell_length_c   19.13230000
_cell_angle_alpha   90.25470000
_cell_angle_beta   89.96910000
_cell_angle_gamma   89.96700000
_symmetry_Int_Tables_number   1
_chemical_formula_structural   ZnH16C20SN3O10
_chemical_formula_sum   'Zn2 H32 C40 S2 N6 O20'
_cell_volume   4479.40141107
_cell_formula_units_Z   2
loop_
 _symmetry_equiv_pos_site_id
 _symmetry_equiv_pos_as_xyz
  1  'x, y, z'
loop_
 _atom_site_type_symbol
 _atom_site_label
 _atom_site_symmetry_multiplicity
 _atom_site_fract_x
 _atom_site_fract_y
 _atom_site_fract_z
 _atom_site_occupancy
  Zn  Zn0  1  0.40487000  0.50630000  0.50346000  1.0
  Zn  Zn1  1  0.59603000  0.49524000  0.50531000  1.0
  H  H2  1  0.35657000  0.51144000  0.28284000  1.0
  H  H3  1  0.06674000  0.56121000  0.40069000  1.0
  H  H4  1  0.92170000  0.63307000  0.49507000  1.0
  H  H5  1  0.07868000  0.63691000  0.46794000  1.0
  H  H6  1  0.35365000  0.48333000  0.15356000  1.0
  H  H7  1  0.64439000  0.44302000  0.15638000  1.0
  H  H8  1  0.35084000  0.44274000  0.85168000  1.0
  H  H9  1  0.64403000  0.46107000  0.85586000  1.0
  H  H10  1  0.35301000  0.46489000  0.72177000  1.0
  H  H11  1  0.64491000  0.48465000  0.72616000  1.0
  H  H12  1  0.63725000  0.09072000  0.49572000  1.0
  H  H13  1  0.64580000  0.46913000  0.28583000  1.0
  H  H14  1  0.34901000  0.04746000  0.48640000  1.0
  H  H15  1  0.65312000  0.95064000  0.47864000  1.0
  H  H16  1  0.36576000  0.90888000  0.51925000  1.0
  H  H17  1  0.43179000  0.07023000  0.38195000  1.0
  H  H18  1  0.55144000  0.07503000  0.38340000  1.0
  H  H19  1  0.27215000  0.93731000  0.40695000  1.0
  H  H20  1  0.54687000  0.80224000  0.34250000  1.0
  H  H21  1  0.97793000  0.39690000  0.36686000  1.0
  H  H22  1  0.15992000  0.37400000  0.41938000  1.0
  H  H23  1  0.45457000  0.87255000  0.61147000  1.0
  H  H24  1  0.07537000  0.37349000  0.51685000  1.0
  H  H25  1  0.59498000  0.95190000  0.61683000  1.0
  H  H26  1  0.40762000  0.04907000  0.62395000  1.0
  H  H27  1  0.55835000  0.13728000  0.59834000  1.0
  H  H28  1  0.92331000  0.36339000  0.48859000  1.0
  H  H29  1  0.90984000  0.54711000  0.60847000  1.0
  H  H30  1  0.06452000  0.58289000  0.59603000  1.0
  H  H31  1  0.93301000  0.43891000  0.60291000  1.0
  H  H32  1  0.08717000  0.47664000  0.61419000  1.0
  H  H33  1  0.90969000  0.58247000  0.41299000  1.0
  C  C34  1  0.48481000  0.33846000  0.49559000  1.0
  C  C35  1  0.58158000  0.05750000  0.52287000  1.0
  C  C36  1  0.59875000  0.96150000  0.51662000  1.0
  C  C37  1  0.42576000  0.94610000  0.53301000  1.0
  C  C38  1  0.51212000  0.75305000  0.50087000  1.0
  C  C39  1  0.49031000  0.08176000  0.48657000  1.0
  C  C40  1  0.50878000  0.91801000  0.48562000  1.0
  C  C41  1  0.50197000  0.50158000  0.36939000  1.0
  C  C42  1  0.49725000  0.95182000  0.40920000  1.0
  C  C43  1  0.49211000  0.04848000  0.41060000  1.0
  C  C44  1  0.51472000  0.82790000  0.49067000  1.0
  C  C45  1  0.49738000  0.44280000  0.07219000  1.0
  C  C46  1  0.48186000  0.17212000  0.48692000  1.0
  C  C47  1  0.48148000  0.24800000  0.49040000  1.0
  C  C48  1  0.95252000  0.42012000  0.46448000  1.0
  C  C49  1  0.05830000  0.41960000  0.47627000  1.0
  C  C50  1  0.94738000  0.49959000  0.57850000  1.0
  C  C51  1  0.05082000  0.51867000  0.57847000  1.0
  C  C52  1  0.91224000  0.49828000  0.50212000  1.0
  C  C53  1  0.08808000  0.50794000  0.50315000  1.0
  C  C54  1  0.04805000  0.57620000  0.45485000  1.0
  C  C55  1  0.94339000  0.57870000  0.46394000  1.0
  C  C56  1  0.41491000  0.45208000  0.82379000  1.0
  C  C57  1  0.18668000  0.51190000  0.50344000  1.0
  C  C58  1  0.81345000  0.49304000  0.50219000  1.0
  C  C59  1  0.50875000  0.66271000  0.50703000  1.0
  C  C60  1  0.50020000  0.48816000  0.63902000  1.0
  C  C61  1  0.41892000  0.49625000  0.25435000  1.0
  C  C62  1  0.58258000  0.47278000  0.25601000  1.0
  C  C63  1  0.41743000  0.48096000  0.18279000  1.0
  C  C64  1  0.58172000  0.45818000  0.18440000  1.0
  C  C65  1  0.49883000  0.46097000  0.14730000  1.0
  C  C66  1  0.50118000  0.49117000  0.29158000  1.0
  C  C67  1  0.58056000  0.46242000  0.82618000  1.0
  C  C68  1  0.49674000  0.43749000  0.93732000  1.0
  C  C69  1  0.41609000  0.46441000  0.75195000  1.0
  C  C70  1  0.58114000  0.47527000  0.75439000  1.0
  C  C71  1  0.49905000  0.47604000  0.71665000  1.0
  C  C72  1  0.49733000  0.45054000  0.86155000  1.0
  C  C73  1  0.40635000  0.04046000  0.52332000  1.0
  S  S74  1  0.39771000  0.90605000  0.35826000  1.0
  S  S75  1  0.59440000  0.92619000  0.34626000  1.0
  N  N76  1  0.57746000  0.42722000  0.03910000  1.0
  N  N77  1  0.41570000  0.43368000  0.03963000  1.0
  N  N78  1  0.57723000  0.42383000  0.97041000  1.0
  N  N79  1  0.41556000  0.43173000  0.97087000  1.0
  N  N80  1  0.26579000  0.51300000  0.50341000  1.0
  N  N81  1  0.73453000  0.48948000  0.50418000  1.0
  O  O82  1  0.41085000  0.37795000  0.48399000  1.0
  O  O83  1  0.42347000  0.82240000  0.33755000  1.0
  O  O84  1  0.31647000  0.89231000  0.41464000  1.0
  O  O85  1  0.56054000  0.94833000  0.27834000  1.0
  O  O86  1  0.67749000  0.96310000  0.37157000  1.0
  O  O87  1  0.60713000  0.82826000  0.35338000  1.0
  O  O88  1  0.92891000  0.42436000  0.39313000  1.0
  O  O89  1  0.09919000  0.39698000  0.41155000  1.0
  O  O90  1  0.44627000  0.93260000  0.60508000  1.0
  O  O91  1  0.62945000  0.92523000  0.57904000  1.0
  O  O92  1  0.37846000  0.07981000  0.58589000  1.0
  O  O93  1  0.56219000  0.36901000  0.51164000  1.0
  O  O94  1  0.58074000  0.07985000  0.59504000  1.0
  O  O95  1  0.42739000  0.52298000  0.39898000  1.0
  O  O96  1  0.57720000  0.48645000  0.40024000  1.0
  O  O97  1  0.43065000  0.63164000  0.52046000  1.0
  O  O98  1  0.58349000  0.62402000  0.49750000  1.0
  O  O99  1  0.42391000  0.48254000  0.60722000  1.0
  O  O100  1  0.57734000  0.50251000  0.61070000  1.0
  O  O101  1  0.36414000  0.96654000  0.30925000  1.0
