# generated using pymatgen
data_GaH4C4N2Cl3
_symmetry_space_group_name_H-M   'P 1'
_cell_length_a   6.35341000
_cell_length_b   6.37570000
_cell_length_c   11.70830000
_cell_angle_alpha   100.14800000
_cell_angle_beta   89.99490000
_cell_angle_gamma   119.88700000
_symmetry_Int_Tables_number   1
_chemical_formula_structural   GaH4C4N2Cl3
_chemical_formula_sum   'Ga2 H8 C8 N4 Cl6'
_cell_volume   402.62367013
_cell_formula_units_Z   2
loop_
 _symmetry_equiv_pos_site_id
 _symmetry_equiv_pos_as_xyz
  1  'x, y, z'
loop_
 _atom_site_type_symbol
 _atom_site_label
 _atom_site_symmetry_multiplicity
 _atom_site_fract_x
 _atom_site_fract_y
 _atom_site_fract_z
 _atom_site_occupancy
  Ga  Ga0  1  0.28281000  0.00002000  0.74998000  1.0
  Ga  Ga1  1  0.71720000  0.99997000  0.25001000  1.0
  H  H2  1  0.66191000  0.22211000  0.97017000  1.0
  H  H3  1  0.43979000  0.77781000  0.52981000  1.0
  H  H4  1  0.33809000  0.77788000  0.02984000  1.0
  H  H5  1  0.56021000  0.22222000  0.47018000  1.0
  H  H6  1  0.20091000  0.44191000  0.84937000  1.0
  H  H7  1  0.75902000  0.55827000  0.65060000  1.0
  H  H8  1  0.79910000  0.55808000  0.15063000  1.0
  H  H9  1  0.24096000  0.44175000  0.34939000  1.0
  C  C10  1  0.58849000  0.34575000  0.98396000  1.0
  C  C11  1  0.24271000  0.65418000  0.51603000  1.0
  C  C12  1  0.41154000  0.65424000  0.01605000  1.0
  C  C13  1  0.75726000  0.34584000  0.48397000  1.0
  C  C14  1  0.33473000  0.46800000  0.91672000  1.0
  C  C15  1  0.86670000  0.53211000  0.58328000  1.0
  C  C16  1  0.66530000  0.53199000  0.08330000  1.0
  C  C17  1  0.13326000  0.46789000  0.41672000  1.0
  N  N18  1  0.42403000  0.31482000  0.90118000  1.0
  N  N19  1  0.10916000  0.68519000  0.59879000  1.0
  N  N20  1  0.57602000  0.68516000  0.09883000  1.0
  N  N21  1  0.89081000  0.31483000  0.40120000  1.0
  Cl  Cl22  1  0.23390000  0.22321000  0.63916000  1.0
  Cl  Cl23  1  0.01078000  0.77687000  0.86082000  1.0
  Cl  Cl24  1  0.76610000  0.77682000  0.36085000  1.0
  Cl  Cl25  1  0.98921000  0.22310000  0.13918000  1.0
  Cl  Cl26  1  0.62923000  0.00004000  0.74996000  1.0
  Cl  Cl27  1  0.37078000  0.99995000  0.25001000  1.0
