# generated using pymatgen
data_Mn3H40C50(NO3)4
_symmetry_space_group_name_H-M   'P 1'
_cell_length_a   8.41495000
_cell_length_b   11.15630000
_cell_length_c   13.29440000
_cell_angle_alpha   111.63000000
_cell_angle_beta   100.28000000
_cell_angle_gamma   94.81950000
_symmetry_Int_Tables_number   1
_chemical_formula_structural   Mn3H40C50(NO3)4
_chemical_formula_sum   'Mn3 H40 C50 N4 O12'
_cell_volume   1126.15162509
_cell_formula_units_Z   1
loop_
 _symmetry_equiv_pos_site_id
 _symmetry_equiv_pos_as_xyz
  1  'x, y, z'
loop_
 _atom_site_type_symbol
 _atom_site_label
 _atom_site_symmetry_multiplicity
 _atom_site_fract_x
 _atom_site_fract_y
 _atom_site_fract_z
 _atom_site_occupancy
  Mn  Mn0  1  0.49923000  0.49986000  0.49922000  1.0
  Mn  Mn1  1  0.21821000  0.37209000  0.22658000  1.0
  Mn  Mn2  1  0.78173000  0.62777000  0.77374000  1.0
  H  H3  1  0.08026000  0.22246000  0.53314000  1.0
  H  H4  1  0.91952000  0.77745000  0.46679000  1.0
  H  H5  1  0.96461000  0.14959000  0.39347000  1.0
  H  H6  1  0.03505000  0.85014000  0.60650000  1.0
  H  H7  1  0.14105000  0.03424000  0.56777000  1.0
  H  H8  1  0.85883000  0.96569000  0.43224000  1.0
  H  H9  1  0.24949000  0.07834000  0.27844000  1.0
  H  H10  1  0.75027000  0.92152000  0.72150000  1.0
  H  H11  1  0.53375000  0.76339000  0.46306000  1.0
  H  H12  1  0.46613000  0.23654000  0.53701000  1.0
  H  H13  1  0.57027000  0.77475000  0.33889000  1.0
  H  H14  1  0.43000000  0.22553000  0.66139000  1.0
  H  H15  1  0.41378000  0.89825000  0.25187000  1.0
  H  H16  1  0.58621000  0.10179000  0.74817000  1.0
  H  H17  1  0.29745000  0.84884000  0.53663000  1.0
  H  H18  1  0.70259000  0.15120000  0.46344000  1.0
  H  H19  1  0.75657000  0.19204000  0.25633000  1.0
  H  H20  1  0.24347000  0.80832000  0.74350000  1.0
  H  H21  1  0.61545000  0.09134000  0.28685000  1.0
  H  H22  1  0.38528000  0.90853000  0.71302000  1.0
  H  H23  1  0.33871000  0.97880000  0.13277000  1.0
  H  H24  1  0.66146000  0.02118000  0.86709000  1.0
  H  H25  1  0.76911000  0.14586000  0.06800000  1.0
  H  H26  1  0.23107000  0.85411000  0.93187000  1.0
  H  H27  1  0.35182000  0.20843000  0.01824000  1.0
  H  H28  1  0.64832000  0.79174000  0.98191000  1.0
  H  H29  1  0.28026000  0.14173000  0.81132000  1.0
  H  H30  1  0.71979000  0.85832000  0.18884000  1.0
  H  H31  1  0.01955000  0.20009000  0.72573000  1.0
  H  H32  1  0.98046000  0.79994000  0.27442000  1.0
  H  H33  1  0.84781000  0.32136000  0.84891000  1.0
  H  H34  1  0.15235000  0.67886000  0.15127000  1.0
  H  H35  1  0.69670000  0.39118000  0.95596000  1.0
  H  H36  1  0.30353000  0.60897000  0.04420000  1.0
  H  H37  1  0.53997000  0.49405000  0.10104000  1.0
  H  H38  1  0.46014000  0.50597000  0.89907000  1.0
  H  H39  1  0.67289000  0.55182000  0.30238000  1.0
  H  H40  1  0.32729000  0.44836000  0.69778000  1.0
  H  H41  1  0.95305000  0.50475000  0.34929000  1.0
  H  H42  1  0.04721000  0.49569000  0.65091000  1.0
  C  C43  1  0.17179000  0.29048000  0.41858000  1.0
  C  C44  1  0.82777000  0.70916000  0.58114000  1.0
  C  C45  1  0.08943000  0.18299000  0.44593000  1.0
  C  C46  1  0.91026000  0.81684000  0.55397000  1.0
  C  C47  1  0.18364000  0.06931000  0.42512000  1.0
  C  C48  1  0.81614000  0.93055000  0.57484000  1.0
  C  C49  1  0.19845000  0.00301000  0.49690000  1.0
  C  C50  1  0.80143000  0.99691000  0.50310000  1.0
  C  C51  1  0.26006000  0.02832000  0.33546000  1.0
  C  C52  1  0.73976000  0.97157000  0.66451000  1.0
  C  C53  1  0.38080000  0.62145000  0.31308000  1.0
  C  C54  1  0.61940000  0.37872000  0.68667000  1.0
  C  C55  1  0.47472000  0.75824000  0.38107000  1.0
  C  C56  1  0.52537000  0.24187000  0.61902000  1.0
  C  C57  1  0.36743000  0.86197000  0.39277000  1.0
  C  C58  1  0.63256000  0.13806000  0.60728000  1.0
  C  C59  1  0.35155000  0.92700000  0.32044000  1.0
  C  C60  1  0.64841000  0.07297000  0.67959000  1.0
  C  C61  1  0.28666000  0.89964000  0.48018000  1.0
  C  C62  1  0.71331000  0.10034000  0.51986000  1.0
  C  C63  1  0.53454000  0.26535000  0.28342000  1.0
  C  C64  1  0.46496000  0.73408000  0.71648000  1.0
  C  C65  1  0.62598000  0.15091000  0.23748000  1.0
  C  C66  1  0.37420000  0.84906000  0.76239000  1.0
  C  C67  1  0.56323000  0.07068000  0.11556000  1.0
  C  C68  1  0.43700000  0.92925000  0.88429000  1.0
  C  C69  1  0.41160000  0.98752000  0.07508000  1.0
  C  C70  1  0.58860000  0.01241000  0.92477000  1.0
  C  C71  1  0.65067000  0.08190000  0.03839000  1.0
  C  C72  1  0.34954000  0.91803000  0.96147000  1.0
  C  C73  1  0.24121000  0.23070000  0.97667000  1.0
  C  C74  1  0.75895000  0.76950000  0.02349000  1.0
  C  C75  1  0.20038000  0.19462000  0.86193000  1.0
  C  C76  1  0.79971000  0.80550000  0.13822000  1.0
  C  C77  1  0.05682000  0.22680000  0.81512000  1.0
  C  C78  1  0.94326000  0.77330000  0.18503000  1.0
  C  C79  1  0.95895000  0.29357000  0.88402000  1.0
  C  C80  1  0.04120000  0.70661000  0.11615000  1.0
  C  C81  1  0.00645000  0.32538000  0.99838000  1.0
  C  C82  1  0.99378000  0.67487000  0.00181000  1.0
  C  C83  1  0.90733000  0.39252000  0.07746000  1.0
  C  C84  1  0.09294000  0.60776000  0.92274000  1.0
  C  C85  1  0.75001000  0.41706000  0.04371000  1.0
  C  C86  1  0.25021000  0.58313000  0.95647000  1.0
  C  C87  1  0.66347000  0.47524000  0.12415000  1.0
  C  C88  1  0.33668000  0.52488000  0.87600000  1.0
  C  C89  1  0.73531000  0.50822000  0.23599000  1.0
  C  C90  1  0.26486000  0.49197000  0.76416000  1.0
  C  C91  1  0.89222000  0.48188000  0.26312000  1.0
  C  C92  1  0.10802000  0.51846000  0.73706000  1.0
  N  N93  1  0.14653000  0.29408000  0.04338000  1.0
  N  N94  1  0.85371000  0.70620000  0.95682000  1.0
  N  N95  1  0.97630000  0.42587000  0.18608000  1.0
  N  N96  1  0.02401000  0.57450000  0.81412000  1.0
  O  O97  1  0.28029000  0.37847000  0.49438000  1.0
  O  O98  1  0.71916000  0.62138000  0.50520000  1.0
  O  O99  1  0.12654000  0.27990000  0.31814000  1.0
  O  O100  1  0.87327000  0.71941000  0.68144000  1.0
  O  O101  1  0.35276000  0.54572000  0.36442000  1.0
  O  O102  1  0.64715000  0.45417000  0.63518000  1.0
  O  O103  1  0.33052000  0.58249000  0.20947000  1.0
  O  O104  1  0.66996000  0.41791000  0.79037000  1.0
  O  O105  1  0.57502000  0.33161000  0.38719000  1.0
  O  O106  1  0.42371000  0.66748000  0.61280000  1.0
  O  O107  1  0.42540000  0.28459000  0.21384000  1.0
  O  O108  1  0.57396000  0.71476000  0.78608000  1.0
