# generated using pymatgen
data_HgH4C6Se(NCl)2
_symmetry_space_group_name_H-M   'P 1'
_cell_length_a   3.91255000
_cell_length_b   14.57510000
_cell_length_c   16.45140000
_cell_angle_alpha   89.99820000
_cell_angle_beta   89.99790000
_cell_angle_gamma   89.99830000
_symmetry_Int_Tables_number   1
_chemical_formula_structural   HgH4C6Se(NCl)2
_chemical_formula_sum   'Hg4 H16 C24 Se4 N8 Cl8'
_cell_volume   938.15436808
_cell_formula_units_Z   4
loop_
 _symmetry_equiv_pos_site_id
 _symmetry_equiv_pos_as_xyz
  1  'x, y, z'
loop_
 _atom_site_type_symbol
 _atom_site_label
 _atom_site_symmetry_multiplicity
 _atom_site_fract_x
 _atom_site_fract_y
 _atom_site_fract_z
 _atom_site_occupancy
  Hg  Hg0  1  0.87695000  0.77312000  0.22113000  1.0
  Hg  Hg1  1  0.62307000  0.22688000  0.72113000  1.0
  Hg  Hg2  1  0.12308000  0.27312000  0.27887000  1.0
  Hg  Hg3  1  0.37695000  0.72688000  0.77888000  1.0
  H  H4  1  0.34686000  0.20623000  0.06777000  1.0
  H  H5  1  0.15316000  0.79377000  0.56777000  1.0
  H  H6  1  0.65304000  0.70623000  0.43223000  1.0
  H  H7  1  0.84687000  0.29377000  0.93224000  1.0
  H  H8  1  0.54374000  0.12487000  0.94281000  1.0
  H  H9  1  0.95632000  0.87513000  0.44280000  1.0
  H  H10  1  0.45622000  0.62486000  0.55720000  1.0
  H  H11  1  0.04373000  0.37513000  0.05720000  1.0
  H  H12  1  0.43224000  0.95910000  0.92312000  1.0
  H  H13  1  0.06782000  0.04090000  0.42310000  1.0
  H  H14  1  0.56771000  0.45909000  0.57689000  1.0
  H  H15  1  0.93225000  0.54090000  0.07688000  1.0
  H  H16  1  0.12879000  0.86720000  0.02720000  1.0
  H  H17  1  0.37122000  0.13281000  0.52719000  1.0
  H  H18  1  0.87117000  0.36718000  0.47280000  1.0
  H  H19  1  0.62884000  0.63282000  0.97280000  1.0
  C  C20  1  0.29707000  0.13347000  0.05832000  1.0
  C  C21  1  0.20296000  0.86653000  0.55831000  1.0
  C  C22  1  0.70287000  0.63346000  0.44168000  1.0
  C  C23  1  0.79707000  0.36653000  0.94169000  1.0
  C  C24  1  0.40422000  0.08788000  0.98989000  1.0
  C  C25  1  0.09579000  0.91212000  0.48988000  1.0
  C  C26  1  0.59569000  0.58787000  0.51011000  1.0
  C  C27  1  0.90422000  0.41213000  0.01012000  1.0
  C  C28  1  0.34148000  0.99212000  0.97847000  1.0
  C  C29  1  0.15858000  0.00788000  0.47845000  1.0
  C  C30  1  0.65847000  0.49211000  0.52154000  1.0
  C  C31  1  0.84148000  0.50788000  0.02154000  1.0
  C  C32  1  0.17446000  0.94029000  0.03562000  1.0
  C  C33  1  0.32557000  0.05970000  0.53561000  1.0
  C  C34  1  0.82548000  0.44030000  0.46438000  1.0
  C  C35  1  0.67449000  0.55971000  0.96438000  1.0
  C  C36  1  0.12388000  0.08258000  0.11983000  1.0
  C  C37  1  0.37615000  0.91742000  0.61982000  1.0
  C  C38  1  0.87607000  0.58258000  0.38017000  1.0
  C  C39  1  0.62389000  0.41742000  0.88017000  1.0
  C  C40  1  0.06397000  0.98430000  0.10835000  1.0
  C  C41  1  0.43606000  0.01570000  0.60834000  1.0
  C  C42  1  0.93598000  0.48431000  0.39165000  1.0
  C  C43  1  0.56399000  0.51570000  0.89165000  1.0
  Se  Se44  1  0.82012000  0.02579000  0.24869000  1.0
  Se  Se45  1  0.67986000  0.97420000  0.74867000  1.0
  Se  Se46  1  0.17984000  0.52580000  0.25131000  1.0
  Se  Se47  1  0.32018000  0.47422000  0.75132000  1.0
  N  N48  1  0.90469000  0.94201000  0.16971000  1.0
  N  N49  1  0.59532000  0.05799000  0.66970000  1.0
  N  N50  1  0.09527000  0.44201000  0.33029000  1.0
  N  N51  1  0.40473000  0.55800000  0.83029000  1.0
  N  N52  1  0.01223000  0.11749000  0.19026000  1.0
  N  N53  1  0.48778000  0.88250000  0.69025000  1.0
  N  N54  1  0.98769000  0.61749000  0.30975000  1.0
  N  N55  1  0.51226000  0.38251000  0.80975000  1.0
  Cl  Cl56  1  0.49050000  0.83811000  0.32050000  1.0
  Cl  Cl57  1  0.00950000  0.16189000  0.82050000  1.0
  Cl  Cl58  1  0.50951000  0.33811000  0.17950000  1.0
  Cl  Cl59  1  0.99052000  0.66190000  0.67951000  1.0
  Cl  Cl60  1  0.27708000  0.70289000  0.12789000  1.0
  Cl  Cl61  1  0.22297000  0.29711000  0.62790000  1.0
  Cl  Cl62  1  0.72297000  0.20289000  0.37211000  1.0
  Cl  Cl63  1  0.77706000  0.79711000  0.87211000  1.0
