# generated using pymatgen
data_BaH21C25NO10
_symmetry_space_group_name_H-M   'P 1'
_cell_length_a   7.92270000
_cell_length_b   12.62020000
_cell_length_c   14.08270000
_cell_angle_alpha   115.68300000
_cell_angle_beta   94.35950000
_cell_angle_gamma   104.67500000
_symmetry_Int_Tables_number   1
_chemical_formula_structural   BaH21C25NO10
_chemical_formula_sum   'Ba2 H42 C50 N2 O20'
_cell_volume   1199.36358791
_cell_formula_units_Z   2
loop_
 _symmetry_equiv_pos_site_id
 _symmetry_equiv_pos_as_xyz
  1  'x, y, z'
loop_
 _atom_site_type_symbol
 _atom_site_label
 _atom_site_symmetry_multiplicity
 _atom_site_fract_x
 _atom_site_fract_y
 _atom_site_fract_z
 _atom_site_occupancy
  Ba  Ba0  1  0.53955000  0.66408000  0.17745000  1.0
  Ba  Ba1  1  0.46045000  0.33592000  0.82255000  1.0
  H  H2  1  0.71555000  0.88728000  0.10782000  1.0
  H  H3  1  0.28445000  0.11272000  0.89218000  1.0
  H  H4  1  0.48502000  0.53918000  0.72245000  1.0
  H  H5  1  0.51498000  0.46082000  0.27754000  1.0
  H  H6  1  0.22571000  0.75854000  0.17010000  1.0
  H  H7  1  0.77429000  0.24146000  0.82990000  1.0
  H  H8  1  0.10386000  0.68743000  0.22328000  1.0
  H  H9  1  0.89614000  0.31257000  0.77672000  1.0
  H  H10  1  0.46055000  0.28491000  0.12652000  1.0
  H  H11  1  0.53945000  0.71509000  0.87349000  1.0
  H  H12  1  0.62197000  0.14056000  0.12001000  1.0
  H  H13  1  0.37803000  0.85944000  0.87999000  1.0
  H  H14  1  0.03589000  0.47652000  0.07774000  1.0
  H  H15  1  0.96412000  0.52348000  0.92226000  1.0
  H  H16  1  0.60540000  0.21989000  0.46266000  1.0
  H  H17  1  0.39459000  0.78011000  0.53734000  1.0
  H  H18  1  0.90170000  0.58141000  0.41001000  1.0
  H  H19  1  0.09831000  0.41858000  0.58998000  1.0
  H  H20  1  0.00614000  0.22388000  0.26545000  1.0
  H  H21  1  0.99385000  0.77612000  0.73455000  1.0
  H  H22  1  0.75420000  0.61061000  0.56480000  1.0
  H  H23  1  0.24580000  0.38940000  0.43520000  1.0
  H  H24  1  0.73849000  0.18757000  0.30227000  1.0
  H  H25  1  0.26150000  0.81243000  0.69773000  1.0
  H  H26  1  0.13582000  0.88223000  0.10930000  1.0
  H  H27  1  0.86417000  0.11776000  0.89070000  1.0
  H  H28  1  0.97499000  0.02873000  0.11971000  1.0
  H  H29  1  0.02501000  0.97127000  0.88029000  1.0
  H  H30  1  0.98878000  0.85872000  0.28456000  1.0
  H  H31  1  0.01123000  0.14129000  0.71544000  1.0
  H  H32  1  0.00074000  0.20913000  0.43372000  1.0
  H  H33  1  0.99927000  0.79087000  0.56628000  1.0
  H  H34  1  0.08080000  0.19418000  0.54768000  1.0
  H  H35  1  0.91920000  0.80582000  0.45233000  1.0
  H  H36  1  0.85446000  0.10973000  0.47288000  1.0
  H  H37  1  0.14554000  0.89027000  0.52712000  1.0
  H  H38  1  0.25948000  0.97424000  0.34799000  1.0
  H  H39  1  0.74053000  0.02576000  0.65201000  1.0
  H  H40  1  0.31283000  0.10205000  0.48135000  1.0
  H  H41  1  0.68717000  0.89795000  0.51865000  1.0
  H  H42  1  0.28491000  0.12737000  0.36639000  1.0
  H  H43  1  0.71509000  0.87263000  0.63361000  1.0
  C  C44  1  0.22545000  0.32713000  0.00436000  1.0
  C  C45  1  0.77455000  0.67287000  0.99564000  1.0
  C  C46  1  0.12002000  0.33321000  0.09016000  1.0
  C  C47  1  0.87997000  0.66679000  0.90984000  1.0
  C  C48  1  0.48765000  0.91524000  0.11294000  1.0
  C  C49  1  0.51235000  0.08476000  0.88706000  1.0
  C  C50  1  0.66928000  0.41660000  0.52259000  1.0
  C  C51  1  0.33072000  0.58341000  0.47741000  1.0
  C  C52  1  0.81238000  0.51953000  0.20991000  1.0
  C  C53  1  0.18761000  0.48047000  0.79009000  1.0
  C  C54  1  0.10697000  0.25763000  0.14118000  1.0
  C  C55  1  0.89303000  0.74237000  0.85882000  1.0
  C  C56  1  0.38775000  0.19740000  0.12342000  1.0
  C  C57  1  0.61225000  0.80260000  0.87658000  1.0
  C  C58  1  0.57630000  0.42900000  0.61229000  1.0
  C  C59  1  0.42370000  0.57100000  0.38771000  1.0
  C  C60  1  0.48024000  0.11654000  0.12081000  1.0
  C  C61  1  0.51976000  0.88346000  0.87919000  1.0
  C  C62  1  0.02780000  0.41999000  0.11886000  1.0
  C  C63  1  0.97221000  0.58001000  0.88114000  1.0
  C  C64  1  0.66850000  0.29802000  0.44910000  1.0
  C  C65  1  0.33150000  0.70198000  0.55090000  1.0
  C  C66  1  0.82671000  0.38213000  0.34320000  1.0
  C  C67  1  0.17329000  0.61787000  0.65680000  1.0
  C  C68  1  0.83195000  0.50128000  0.41927000  1.0
  C  C69  1  0.16806000  0.49872000  0.58073000  1.0
  C  C70  1  0.00538000  0.27594000  0.22077000  1.0
  C  C71  1  0.99461000  0.72406000  0.77923000  1.0
  C  C72  1  0.39209000  0.00319000  0.11752000  1.0
  C  C73  1  0.60791000  0.99681000  0.88248000  1.0
  C  C74  1  0.91437000  0.36322000  0.25095000  1.0
  C  C75  1  0.08563000  0.63677000  0.74905000  1.0
  C  C76  1  0.92238000  0.43454000  0.19589000  1.0
  C  C77  1  0.07762000  0.56546000  0.80411000  1.0
  C  C78  1  0.75256000  0.51839000  0.50716000  1.0
  C  C79  1  0.24744000  0.48161000  0.49284000  1.0
  C  C80  1  0.74465000  0.28089000  0.36022000  1.0
  C  C81  1  0.25534000  0.71911000  0.63978000  1.0
  C  C82  1  0.20541000  0.16818000  0.12544000  1.0
  C  C83  1  0.79459000  0.83182000  0.87456000  1.0
  C  C84  1  0.20841000  0.97152000  0.11565000  1.0
  C  C85  1  0.79158000  0.02848000  0.88435000  1.0
  C  C86  1  0.11730000  0.05377000  0.12105000  1.0
  C  C87  1  0.88270000  0.94622000  0.87895000  1.0
  C  C88  1  0.92762000  0.92798000  0.33367000  1.0
  C  C89  1  0.07238000  0.07203000  0.66633000  1.0
  C  C90  1  0.99281000  0.14426000  0.46726000  1.0
  C  C91  1  0.00719000  0.85574000  0.53274000  1.0
  C  C92  1  0.23720000  0.06227000  0.39844000  1.0
  C  C93  1  0.76280000  0.93774000  0.60156000  1.0
  N  N94  1  0.04757000  0.04003000  0.39807000  1.0
  N  N95  1  0.95243000  0.95997000  0.60193000  1.0
  O  O96  1  0.32449000  0.42972000  0.01472000  1.0
  O  O97  1  0.67551000  0.57027000  0.98528000  1.0
  O  O98  1  0.20551000  0.22252000  0.92321000  1.0
  O  O99  1  0.79449000  0.77748000  0.07679000  1.0
  O  O100  1  0.64422000  0.47531000  0.20025000  1.0
  O  O101  1  0.35578000  0.52469000  0.79974000  1.0
  O  O102  1  0.66402000  0.95866000  0.12636000  1.0
  O  O103  1  0.33598000  0.04134000  0.87365000  1.0
  O  O104  1  0.88695000  0.62876000  0.22448000  1.0
  O  O105  1  0.11305000  0.37124000  0.77552000  1.0
  O  O106  1  0.40962000  0.80813000  0.09709000  1.0
  O  O107  1  0.59038000  0.19187000  0.90291000  1.0
  O  O108  1  0.56957000  0.54267000  0.67227000  1.0
  O  O109  1  0.43043000  0.45733000  0.32773000  1.0
  O  O110  1  0.50730000  0.33984000  0.62842000  1.0
  O  O111  1  0.49271000  0.66016000  0.37158000  1.0
  O  O112  1  0.22981000  0.72837000  0.22331000  1.0
  O  O113  1  0.77019000  0.27163000  0.77669000  1.0
  O  O114  1  0.76264000  0.90065000  0.32835000  1.0
  O  O115  1  0.23736000  0.09935000  0.67165000  1.0
