# generated using pymatgen
data_Cu3H20C18(NO6)2
_symmetry_space_group_name_H-M   'P 1'
_cell_length_a   7.20600000
_cell_length_b   8.34229000
_cell_length_c   10.81300000
_cell_angle_alpha   90.46990000
_cell_angle_beta   97.29340000
_cell_angle_gamma   114.85430000
_symmetry_Int_Tables_number   1
_chemical_formula_structural   Cu3H20C18(NO6)2
_chemical_formula_sum   'Cu3 H20 C18 N2 O12'
_cell_volume   583.67132819
_cell_formula_units_Z   1
loop_
 _symmetry_equiv_pos_site_id
 _symmetry_equiv_pos_as_xyz
  1  'x, y, z'
loop_
 _atom_site_type_symbol
 _atom_site_label
 _atom_site_symmetry_multiplicity
 _atom_site_fract_x
 _atom_site_fract_y
 _atom_site_fract_z
 _atom_site_occupancy
  Cu  Cu0  1  0.00002000  0.00001000  0.99999000  1.0
  Cu  Cu1  1  0.57899000  0.98395000  0.61038000  1.0
  Cu  Cu2  1  0.42094000  0.01603000  0.38963000  1.0
  H  H3  1  0.51274000  0.03800000  0.87278000  1.0
  H  H4  1  0.48724000  0.96197000  0.12728000  1.0
  H  H5  1  0.32203000  0.67307000  0.03051000  1.0
  H  H6  1  0.67802000  0.32695000  0.96947000  1.0
  H  H7  1  0.36560000  0.69687000  0.80411000  1.0
  H  H8  1  0.63443000  0.30315000  0.19587000  1.0
  H  H9  1  0.26291000  0.41854000  0.66960000  1.0
  H  H10  1  0.73710000  0.58149000  0.33037000  1.0
  H  H11  1  0.12060000  0.12841000  0.76722000  1.0
  H  H12  1  0.87939000  0.87161000  0.23275000  1.0
  H  H13  1  0.59100000  0.45460000  0.59181000  1.0
  H  H14  1  0.40898000  0.54537000  0.40825000  1.0
  H  H15  1  0.98751000  0.83272000  0.59754000  1.0
  H  H16  1  0.01242000  0.16724000  0.40246000  1.0
  H  H17  1  0.20155000  0.49749000  0.19987000  1.0
  H  H18  1  0.79854000  0.50253000  0.80012000  1.0
  H  H19  1  0.24726000  0.30201000  0.20018000  1.0
  H  H20  1  0.75278000  0.69800000  0.79981000  1.0
  H  H21  1  0.99422000  0.28493000  0.15575000  1.0
  H  H22  1  0.00582000  0.71511000  0.84423000  1.0
  C  C23  1  0.65456000  0.01565000  0.88781000  1.0
  C  C24  1  0.34546000  0.98434000  0.11222000  1.0
  C  C25  1  0.19541000  0.38917000  0.01834000  1.0
  C  C26  1  0.80464000  0.61085000  0.98164000  1.0
  C  C27  1  0.27999000  0.55523000  0.96950000  1.0
  C  C28  1  0.72005000  0.44479000  0.03048000  1.0
  C  C29  1  0.30512000  0.56853000  0.84387000  1.0
  C  C30  1  0.69490000  0.43149000  0.15611000  1.0
  C  C31  1  0.24867000  0.41437000  0.76858000  1.0
  C  C32  1  0.75134000  0.58564000  0.23139000  1.0
  C  C33  1  0.16923000  0.25289000  0.82208000  1.0
  C  C34  1  0.83079000  0.74713000  0.17789000  1.0
  C  C35  1  0.15847000  0.36829000  0.15144000  1.0
  C  C36  1  0.84158000  0.63173000  0.84855000  1.0
  C  C37  1  0.56188000  0.31704000  0.56341000  1.0
  C  C38  1  0.43808000  0.68294000  0.43664000  1.0
  C  C39  1  0.14237000  0.88198000  0.56783000  1.0
  C  C40  1  0.85755000  0.11798000  0.43217000  1.0
  N  N41  1  0.14227000  0.24119000  0.94326000  1.0
  N  N42  1  0.85776000  0.75882000  0.05671000  1.0
  O  O43  1  0.74547000  0.04190000  0.00068000  1.0
  O  O44  1  0.25456000  0.95810000  0.99934000  1.0
  O  O45  1  0.71499000  0.96470000  0.79711000  1.0
  O  O46  1  0.28499000  0.03531000  0.20291000  1.0
  O  O47  1  0.61782000  0.23443000  0.64689000  1.0
  O  O48  1  0.38227000  0.76557000  0.35313000  1.0
  O  O49  1  0.47643000  0.26358000  0.45141000  1.0
  O  O50  1  0.52340000  0.73637000  0.54867000  1.0
  O  O51  1  0.28918000  0.89403000  0.65141000  1.0
  O  O52  1  0.71077000  0.10604000  0.34860000  1.0
  O  O53  1  0.15006000  0.92021000  0.45478000  1.0
  O  O54  1  0.84984000  0.07966000  0.54519000  1.0
