# generated using pymatgen
data_CdH18C16N6O5
_symmetry_space_group_name_H-M   'P 1'
_cell_length_a   10.48350000
_cell_length_b   10.48440000
_cell_length_c   11.07570000
_cell_angle_alpha   80.75250000
_cell_angle_beta   63.99630000
_cell_angle_gamma   69.24790000
_symmetry_Int_Tables_number   1
_chemical_formula_structural   CdH18C16N6O5
_chemical_formula_sum   'Cd2 H36 C32 N12 O10'
_cell_volume   1023.12133654
_cell_formula_units_Z   2
loop_
 _symmetry_equiv_pos_site_id
 _symmetry_equiv_pos_as_xyz
  1  'x, y, z'
loop_
 _atom_site_type_symbol
 _atom_site_label
 _atom_site_symmetry_multiplicity
 _atom_site_fract_x
 _atom_site_fract_y
 _atom_site_fract_z
 _atom_site_occupancy
  Cd  Cd0  1  0.43896000  0.41438000  0.30744000  1.0
  Cd  Cd1  1  0.56105000  0.58562000  0.69256000  1.0
  H  H2  1  0.29232000  0.60089000  0.54570000  1.0
  H  H3  1  0.70769000  0.39911000  0.45430000  1.0
  H  H4  1  0.19345000  0.61830000  0.46379000  1.0
  H  H5  1  0.80655000  0.38170000  0.53621000  1.0
  H  H6  1  0.93423000  0.39434000  0.30925000  1.0
  H  H7  1  0.06577000  0.60567000  0.69076000  1.0
  H  H8  1  0.76220000  0.68718000  0.05238000  1.0
  H  H9  1  0.23781000  0.31283000  0.94762000  1.0
  H  H10  1  0.16173000  0.67848000  0.08132000  1.0
  H  H11  1  0.83827000  0.32152000  0.91868000  1.0
  H  H12  1  0.99384000  0.89299000  0.98356000  1.0
  H  H13  1  0.00616000  0.10701000  0.01645000  1.0
  H  H14  1  0.88794000  0.84684000  0.92065000  1.0
  H  H15  1  0.11206000  0.15316000  0.07936000  1.0
  H  H16  1  0.08567000  0.76757000  0.85683000  1.0
  H  H17  1  0.91433000  0.23244000  0.14317000  1.0
  H  H18  1  0.71852000  0.08672000  0.17205000  1.0
  H  H19  1  0.28148000  0.91328000  0.82795000  1.0
  H  H20  1  0.44837000  0.37725000  0.99799000  1.0
  H  H21  1  0.55163000  0.62275000  0.00201000  1.0
  H  H22  1  0.75086000  0.15197000  0.72667000  1.0
  H  H23  1  0.24914000  0.84803000  0.27333000  1.0
  H  H24  1  0.56278000  0.25977000  0.77290000  1.0
  H  H25  1  0.43722000  0.74023000  0.22710000  1.0
  H  H26  1  0.47046000  0.05959000  0.86838000  1.0
  H  H27  1  0.52953000  0.94041000  0.13161000  1.0
  H  H28  1  0.65440000  0.95282000  0.84189000  1.0
  H  H29  1  0.34559000  0.04718000  0.15811000  1.0
  H  H30  1  0.73465000  0.99022000  0.59097000  1.0
  H  H31  1  0.26535000  0.00978000  0.40903000  1.0
  H  H32  1  0.60331000  0.90113000  0.66929000  1.0
  H  H33  1  0.39669000  0.09886000  0.33071000  1.0
  H  H34  1  0.66861000  0.19542000  0.44657000  1.0
  H  H35  1  0.33140000  0.80457000  0.55342000  1.0
  H  H36  1  0.20994000  0.24934000  0.58766000  1.0
  H  H37  1  0.79007000  0.75066000  0.41234000  1.0
  C  C38  1  0.05651000  0.53336000  0.20366000  1.0
  C  C39  1  0.94348000  0.46665000  0.79635000  1.0
  C  C40  1  0.93872000  0.48135000  0.24103000  1.0
  C  C41  1  0.06128000  0.51866000  0.75898000  1.0
  C  C42  1  0.83114000  0.53883000  0.18830000  1.0
  C  C43  1  0.16886000  0.46117000  0.81170000  1.0
  C  C44  1  0.84531000  0.64561000  0.09444000  1.0
  C  C45  1  0.15469000  0.35440000  0.90557000  1.0
  C  C46  1  0.96426000  0.69686000  0.05314000  1.0
  C  C47  1  0.03575000  0.30314000  0.94687000  1.0
  C  C48  1  0.06773000  0.64085000  0.11058000  1.0
  C  C49  1  0.93227000  0.35915000  0.88942000  1.0
  C  C50  1  0.17297000  0.47344000  0.25987000  1.0
  C  C51  1  0.82703000  0.52657000  0.74014000  1.0
  C  C52  1  0.70150000  0.48821000  0.23015000  1.0
  C  C53  1  0.29850000  0.51179000  0.76985000  1.0
  C  C54  1  0.98341000  0.80678000  0.94800000  1.0
  C  C55  1  0.01659000  0.19323000  0.05201000  1.0
  C  C56  1  0.67044000  0.14028000  0.10185000  1.0
  C  C57  1  0.32956000  0.85972000  0.89815000  1.0
  C  C58  1  0.53001000  0.28858000  0.01781000  1.0
  C  C59  1  0.46998000  0.71142000  0.98219000  1.0
  C  C60  1  0.63452000  0.16531000  0.79891000  1.0
  C  C61  1  0.36547000  0.83469000  0.20109000  1.0
  C  C62  1  0.58947000  0.04100000  0.80133000  1.0
  C  C63  1  0.41053000  0.95899000  0.19866000  1.0
  C  C64  1  0.61896000  0.00030000  0.66313000  1.0
  C  C65  1  0.38104000  0.99970000  0.33686000  1.0
  C  C66  1  0.55796000  0.18546000  0.50214000  1.0
  C  C67  1  0.44204000  0.81454000  0.49786000  1.0
  C  C68  1  0.32532000  0.21042000  0.57630000  1.0
  C  C69  1  0.67468000  0.78958000  0.42370000  1.0
  N  N70  1  0.55725000  0.26194000  0.12829000  1.0
  N  N71  1  0.44275000  0.73807000  0.87170000  1.0
  N  N72  1  0.71377000  0.09031000  0.98230000  1.0
  N  N73  1  0.28623000  0.90969000  0.01769000  1.0
  N  N74  1  0.62326000  0.18596000  0.93058000  1.0
  N  N75  1  0.37674000  0.81404000  0.06942000  1.0
  N  N76  1  0.52177000  0.09845000  0.60470000  1.0
  N  N77  1  0.47823000  0.90155000  0.39530000  1.0
  N  N78  1  0.37314000  0.11253000  0.65354000  1.0
  N  N79  1  0.62686000  0.88747000  0.34646000  1.0
  N  N80  1  0.43578000  0.25804000  0.48112000  1.0
  N  N81  1  0.56423000  0.74196000  0.51888000  1.0
  O  O82  1  0.27175000  0.53502000  0.22254000  1.0
  O  O83  1  0.72825000  0.46498000  0.77747000  1.0
  O  O84  1  0.17126000  0.37058000  0.33652000  1.0
  O  O85  1  0.82873000  0.62943000  0.66350000  1.0
  O  O86  1  0.68313000  0.39604000  0.32236000  1.0
  O  O87  1  0.31687000  0.60396000  0.67764000  1.0
  O  O88  1  0.61025000  0.53742000  0.17494000  1.0
  O  O89  1  0.38975000  0.46258000  0.82507000  1.0
  O  O90  1  0.29366000  0.60895000  0.45286000  1.0
  O  O91  1  0.70634000  0.39105000  0.54713000  1.0
