# generated using pymatgen
data_ZnH12C22SNO7
_symmetry_space_group_name_H-M   'P 1'
_cell_length_a   13.33370000
_cell_length_b   16.55850000
_cell_length_c   17.71390000
_cell_angle_alpha   87.01090000
_cell_angle_beta   87.07500000
_cell_angle_gamma   68.03230000
_symmetry_Int_Tables_number   1
_chemical_formula_structural   ZnH12C22SNO7
_chemical_formula_sum   'Zn2 H24 C44 S2 N2 O14'
_cell_volume   3619.99181790
_cell_formula_units_Z   2
loop_
 _symmetry_equiv_pos_site_id
 _symmetry_equiv_pos_as_xyz
  1  'x, y, z'
loop_
 _atom_site_type_symbol
 _atom_site_label
 _atom_site_symmetry_multiplicity
 _atom_site_fract_x
 _atom_site_fract_y
 _atom_site_fract_z
 _atom_site_occupancy
  Zn  Zn0  1  0.49987000  0.58558000  0.49213000  1.0
  Zn  Zn1  1  0.51983000  0.40995000  0.50762000  1.0
  H  H2  1  0.86692000  0.29574000  0.42960000  1.0
  H  H3  1  0.36952000  0.62297000  0.27852000  1.0
  H  H4  1  0.55351000  0.37943000  0.10730000  1.0
  H  H5  1  0.39861000  0.65705000  0.87420000  1.0
  H  H6  1  0.43181000  0.65123000  0.73398000  1.0
  H  H7  1  0.48272000  0.37958000  0.74312000  1.0
  H  H8  1  0.44818000  0.38406000  0.88341000  1.0
  H  H9  1  0.38934000  0.87887000  0.60398000  1.0
  H  H10  1  0.41421000  0.72367000  0.58469000  1.0
  H  H11  1  0.21180000  0.32339000  0.39307000  1.0
  H  H12  1  0.58077000  0.86888000  0.39750000  1.0
  H  H13  1  0.33800000  0.19167000  0.58204000  1.0
  H  H14  1  0.36393000  0.33465000  0.58030000  1.0
  H  H15  1  0.63877000  0.24208000  0.44109000  1.0
  H  H16  1  0.62519000  0.09532000  0.43565000  1.0
  H  H17  1  0.06077000  0.27169000  0.39754000  1.0
  H  H18  1  0.81562000  0.54597000  0.51227000  1.0
  H  H19  1  0.14558000  0.71421000  0.53093000  1.0
  H  H20  1  0.87012000  0.63995000  0.52058000  1.0
  H  H21  1  0.94541000  0.75050000  0.54550000  1.0
  H  H22  1  0.28741000  0.43091000  0.42461000  1.0
  H  H23  1  0.32270000  0.63918000  0.14242000  1.0
  H  H24  1  0.68476000  0.23622000  0.16565000  1.0
  H  H25  1  0.77337000  0.71436000  0.34999000  1.0
  C  C26  1  0.48488000  0.50970000  0.64681000  1.0
  C  C27  1  0.02355000  0.54193000  0.48487000  1.0
  C  C28  1  0.13676000  0.52313000  0.47267000  1.0
  C  C29  1  0.98050000  0.47563000  0.47033000  1.0
  C  C30  1  0.04977000  0.39576000  0.43810000  1.0
  C  C31  1  0.16042000  0.38297000  0.42074000  1.0
  C  C32  1  0.20264000  0.44298000  0.43807000  1.0
  C  C33  1  0.87224000  0.48667000  0.48759000  1.0
  C  C34  1  0.90055000  0.34419000  0.44154000  1.0
  C  C35  1  0.17928000  0.58617000  0.49295000  1.0
  C  C36  1  0.38170000  0.57838000  0.16478000  1.0
  C  C37  1  0.29861000  0.56515000  0.49555000  1.0
  C  C38  1  0.40738000  0.56935000  0.24056000  1.0
  C  C39  1  0.48295000  0.49183000  0.27069000  1.0
  C  C40  1  0.53421000  0.42275000  0.22183000  1.0
  C  C41  1  0.51044000  0.43136000  0.14559000  1.0
  C  C42  1  0.43374000  0.50948000  0.11583000  1.0
  C  C43  1  0.41701000  0.51762000  0.03707000  1.0
  C  C44  1  0.41409000  0.52076000  0.96817000  1.0
  C  C45  1  0.41596000  0.59659000  0.84519000  1.0
  C  C46  1  0.43476000  0.59326000  0.76733000  1.0
  C  C47  1  0.46022000  0.51481000  0.73039000  1.0
  C  C48  1  0.50090000  0.48673000  0.35406000  1.0
  C  C49  1  0.46352000  0.43989000  0.77267000  1.0
  C  C50  1  0.44453000  0.44248000  0.85043000  1.0
  C  C51  1  0.42233000  0.52069000  0.88817000  1.0
  C  C52  1  0.43550000  0.84510000  0.55493000  1.0
  C  C53  1  0.44869000  0.75917000  0.54442000  1.0
  C  C54  1  0.55181000  0.75330000  0.43476000  1.0
  C  C55  1  0.54259000  0.83918000  0.44014000  1.0
  C  C56  1  0.48305000  0.88723000  0.50175000  1.0
  C  C57  1  0.47508000  0.97418000  0.50805000  1.0
  C  C58  1  0.47455000  0.04786000  0.50965000  1.0
  C  C59  1  0.71551000  0.44054000  0.49248000  1.0
  C  C60  1  0.40626000  0.19989000  0.55090000  1.0
  C  C61  1  0.42042000  0.27883000  0.55051000  1.0
  C  C62  1  0.57481000  0.22699000  0.47210000  1.0
  C  C63  1  0.56660000  0.14618000  0.46915000  1.0
  C  C64  1  0.48149000  0.13108000  0.51010000  1.0
  C  C65  1  0.00729000  0.33163000  0.42366000  1.0
  C  C66  1  0.83230000  0.42257000  0.47433000  1.0
  C  C67  1  0.11039000  0.66730000  0.51713000  1.0
  C  C68  1  0.99868000  0.68692000  0.52566000  1.0
  C  C69  1  0.95659000  0.62467000  0.51121000  1.0
  S  S70  1  0.63642000  0.32386000  0.25611000  1.0
  S  S71  1  0.62396000  0.69513000  0.35212000  1.0
  N  N72  1  0.50585000  0.71300000  0.48528000  1.0
  N  N73  1  0.50383000  0.29148000  0.51282000  1.0
  O  O74  1  0.46920000  0.58111000  0.60938000  1.0
  O  O75  1  0.51952000  0.43385000  0.61991000  1.0
  O  O76  1  0.33346000  0.62665000  0.48230000  1.0
  O  O77  1  0.35656000  0.48671000  0.51418000  1.0
  O  O78  1  0.50943000  0.55322000  0.38115000  1.0
  O  O79  1  0.50099000  0.41852000  0.39011000  1.0
  O  O80  1  0.65731000  0.51787000  0.51139000  1.0
  O  O81  1  0.68105000  0.37881000  0.48764000  1.0
  O  O82  1  0.70968000  0.34514000  0.30016000  1.0
  O  O83  1  0.58965000  0.26142000  0.28327000  1.0
  O  O84  1  0.70307000  0.28594000  0.17768000  1.0
  O  O85  1  0.69232000  0.60806000  0.37341000  1.0
  O  O86  1  0.54719000  0.71696000  0.29356000  1.0
  O  O87  1  0.70206000  0.74879000  0.33007000  1.0
