# generated using pymatgen
data_MnHC4O3
_symmetry_space_group_name_H-M   'P 1'
_cell_length_a   7.05374000
_cell_length_b   15.36360000
_cell_length_c   15.36370000
_cell_angle_alpha   117.70200000
_cell_angle_beta   98.80650000
_cell_angle_gamma   98.80380000
_symmetry_Int_Tables_number   1
_chemical_formula_structural   MnHC4O3
_chemical_formula_sum   'Mn6 H6 C24 O18'
_cell_volume   1408.10583420
_cell_formula_units_Z   6
loop_
 _symmetry_equiv_pos_site_id
 _symmetry_equiv_pos_as_xyz
  1  'x, y, z'
loop_
 _atom_site_type_symbol
 _atom_site_label
 _atom_site_symmetry_multiplicity
 _atom_site_fract_x
 _atom_site_fract_y
 _atom_site_fract_z
 _atom_site_occupancy
  Mn  Mn0  1  0.02056000  0.41091000  0.73860000  1.0
  Mn  Mn1  1  0.60971000  0.32770000  0.58910000  1.0
  Mn  Mn2  1  0.28197000  0.26140000  0.67229000  1.0
  Mn  Mn3  1  0.97944000  0.58909000  0.26140000  1.0
  Mn  Mn4  1  0.39029000  0.67231000  0.41090000  1.0
  Mn  Mn5  1  0.71802000  0.73860000  0.32771000  1.0
  H  H6  1  0.69193000  0.53055000  0.55301000  1.0
  H  H7  1  0.16137000  0.02245000  0.46945000  1.0
  H  H8  1  0.13888000  0.44701000  0.97756000  1.0
  H  H9  1  0.30807000  0.46945000  0.44699000  1.0
  H  H10  1  0.83863000  0.97755000  0.53055000  1.0
  H  H11  1  0.86112000  0.55299000  0.02244000  1.0
  C  C12  1  0.23931000  0.39263000  0.56363000  1.0
  C  C13  1  0.84665000  0.17100000  0.60739000  1.0
  C  C14  1  0.67564000  0.43639000  0.82900000  1.0
  C  C15  1  0.76069000  0.60737000  0.43637000  1.0
  C  C16  1  0.15335000  0.82900000  0.39261000  1.0
  C  C17  1  0.32436000  0.56361000  0.17100000  1.0
  C  C18  1  0.11406000  0.44859000  0.53439000  1.0
  C  C19  1  0.66546000  0.08580000  0.55142000  1.0
  C  C20  1  0.57967000  0.46563000  0.91420000  1.0
  C  C21  1  0.88594000  0.55141000  0.46561000  1.0
  C  C22  1  0.33454000  0.91420000  0.44858000  1.0
  C  C23  1  0.42033000  0.53437000  0.08580000  1.0
  C  C24  1  0.93635000  0.46623000  0.56595000  1.0
  C  C25  1  0.47010000  0.09972000  0.53377000  1.0
  C  C26  1  0.37038000  0.43407000  0.90027000  1.0
  C  C27  1  0.06365000  0.53377000  0.43405000  1.0
  C  C28  1  0.52990000  0.90028000  0.46623000  1.0
  C  C29  1  0.62962000  0.56593000  0.09973000  1.0
  C  C30  1  0.82783000  0.51699000  0.52983000  1.0
  C  C31  1  0.31083000  0.01284000  0.48300000  1.0
  C  C32  1  0.29798000  0.47018000  0.98716000  1.0
  C  C33  1  0.17217000  0.48301000  0.47017000  1.0
  C  C34  1  0.68917000  0.98716000  0.51700000  1.0
  C  C35  1  0.70202000  0.52982000  0.01284000  1.0
  O  O36  1  0.39204000  0.37652000  0.52975000  1.0
  O  O37  1  0.01547000  0.15325000  0.62352000  1.0
  O  O38  1  0.86222000  0.47031000  0.84678000  1.0
  O  O39  1  0.60797000  0.62348000  0.47025000  1.0
  O  O40  1  0.98453000  0.84675000  0.37648000  1.0
  O  O41  1  0.13778000  0.52969000  0.15322000  1.0
  O  O42  1  0.18936000  0.36072000  0.62338000  1.0
  O  O43  1  0.82861000  0.26267000  0.63929000  1.0
  O  O44  1  0.56593000  0.37660000  0.73734000  1.0
  O  O45  1  0.81064000  0.63928000  0.37662000  1.0
  O  O46  1  0.17139000  0.73733000  0.36071000  1.0
  O  O47  1  0.43407000  0.62340000  0.26266000  1.0
  O  O48  1  0.86760000  0.43721000  0.62838000  1.0
  O  O49  1  0.43035000  0.19116000  0.56277000  1.0
  O  O50  1  0.23917000  0.37163000  0.80883000  1.0
  O  O51  1  0.13240000  0.56279000  0.37162000  1.0
  O  O52  1  0.56965000  0.80884000  0.43723000  1.0
  O  O53  1  0.76083000  0.62837000  0.19117000  1.0
