# generated using pymatgen
data_TbH10C9S3N3O8
_symmetry_space_group_name_H-M   'P 1'
_cell_length_a   8.54867000
_cell_length_b   8.70341000
_cell_length_c   11.33750000
_cell_angle_alpha   104.97600000
_cell_angle_beta   97.36300000
_cell_angle_gamma   94.59550000
_symmetry_Int_Tables_number   1
_chemical_formula_structural   TbH10C9S3N3O8
_chemical_formula_sum   'Tb2 H20 C18 S6 N6 O16'
_cell_volume   802.50344548
_cell_formula_units_Z   2
loop_
 _symmetry_equiv_pos_site_id
 _symmetry_equiv_pos_as_xyz
  1  'x, y, z'
loop_
 _atom_site_type_symbol
 _atom_site_label
 _atom_site_symmetry_multiplicity
 _atom_site_fract_x
 _atom_site_fract_y
 _atom_site_fract_z
 _atom_site_occupancy
  Tb  Tb0  1  0.54496000  0.16543000  0.41548000  1.0
  Tb  Tb1  1  0.45505000  0.83457000  0.58452000  1.0
  H  H2  1  0.02137000  0.92239000  0.22171000  1.0
  H  H3  1  0.97863000  0.07760000  0.77828000  1.0
  H  H4  1  0.94781000  0.01651000  0.35691000  1.0
  H  H5  1  0.05218000  0.98349000  0.64308000  1.0
  H  H6  1  0.56758000  0.74399000  0.15732000  1.0
  H  H7  1  0.43241000  0.25602000  0.84268000  1.0
  H  H8  1  0.37177000  0.79807000  0.16480000  1.0
  H  H9  1  0.62821000  0.20194000  0.83521000  1.0
  H  H10  1  0.63695000  0.27619000  0.06484000  1.0
  H  H11  1  0.36305000  0.72380000  0.93516000  1.0
  H  H12  1  0.59681000  0.06861000  0.98584000  1.0
  H  H13  1  0.40319000  0.93138000  0.01416000  1.0
  H  H14  1  0.76571000  0.41666000  0.34434000  1.0
  H  H15  1  0.23430000  0.58334000  0.65567000  1.0
  H  H16  1  0.70011000  0.51134000  0.46687000  1.0
  H  H17  1  0.29989000  0.48866000  0.53314000  1.0
  H  H18  1  0.26348000  0.27788000  0.33510000  1.0
  H  H19  1  0.73652000  0.72211000  0.66491000  1.0
  H  H20  1  0.37739000  0.44426000  0.35624000  1.0
  H  H21  1  0.62261000  0.55574000  0.64377000  1.0
  C  C22  1  0.98188000  0.58911000  0.22630000  1.0
  C  C23  1  0.01811000  0.41089000  0.77369000  1.0
  C  C24  1  0.18667000  0.49657000  0.13423000  1.0
  C  C25  1  0.81333000  0.50342000  0.86577000  1.0
  C  C26  1  0.96469000  0.32879000  0.11787000  1.0
  C  C27  1  0.03531000  0.67121000  0.88213000  1.0
  C  C28  1  0.01442000  0.91784000  0.31669000  1.0
  C  C29  1  0.98558000  0.08215000  0.68330000  1.0
  C  C30  1  0.18184000  0.94566000  0.38927000  1.0
  C  C31  1  0.81816000  0.05433000  0.61072000  1.0
  C  C32  1  0.45391000  0.71526000  0.18715000  1.0
  C  C33  1  0.54608000  0.28475000  0.81285000  1.0
  C  C34  1  0.48054000  0.74627000  0.32587000  1.0
  C  C35  1  0.51945000  0.25373000  0.67413000  1.0
  C  C36  1  0.66697000  0.15626000  0.06670000  1.0
  C  C37  1  0.33303000  0.84373000  0.93330000  1.0
  C  C38  1  0.62275000  0.12441000  0.18369000  1.0
  C  C39  1  0.37727000  0.87559000  0.81631000  1.0
  S  S40  1  0.38106000  0.51258000  0.10223000  1.0
  S  S41  1  0.61894000  0.48742000  0.89777000  1.0
  S  S42  1  0.88864000  0.74005000  0.31284000  1.0
  S  S43  1  0.11135000  0.25995000  0.68715000  1.0
  S  S44  1  0.86808000  0.13896000  0.04207000  1.0
  S  S45  1  0.13192000  0.86103000  0.95792000  1.0
  N  N46  1  0.12540000  0.62425000  0.19732000  1.0
  N  N47  1  0.87459000  0.37575000  0.80267000  1.0
  N  N48  1  0.11147000  0.34805000  0.08842000  1.0
  N  N49  1  0.88854000  0.65195000  0.91159000  1.0
  N  N50  1  0.89762000  0.44141000  0.19411000  1.0
  N  N51  1  0.10237000  0.55859000  0.80588000  1.0
  O  O52  1  0.27195000  0.05461000  0.36620000  1.0
  O  O53  1  0.72805000  0.94537000  0.63379000  1.0
  O  O54  1  0.21936000  0.86626000  0.46547000  1.0
  O  O55  1  0.78065000  0.13375000  0.53454000  1.0
  O  O56  1  0.53501000  0.88864000  0.39016000  1.0
  O  O57  1  0.46500000  0.11137000  0.60985000  1.0
  O  O58  1  0.44712000  0.64013000  0.37949000  1.0
  O  O59  1  0.55287000  0.35987000  0.62051000  1.0
  O  O60  1  0.72662000  0.10494000  0.26743000  1.0
  O  O61  1  0.27340000  0.89508000  0.73257000  1.0
  O  O62  1  0.47600000  0.12470000  0.19634000  1.0
  O  O63  1  0.52402000  0.87530000  0.80366000  1.0
  O  O64  1  0.69873000  0.40628000  0.40666000  1.0
  O  O65  1  0.30126000  0.59373000  0.59334000  1.0
  O  O66  1  0.34701000  0.35494000  0.39193000  1.0
  O  O67  1  0.65299000  0.64506000  0.60807000  1.0
