# generated using pymatgen
data_YbH7C7SO8
_symmetry_space_group_name_H-M   'P 1'
_cell_length_a   8.51114000
_cell_length_b   9.20802000
_cell_length_c   13.65390000
_cell_angle_alpha   102.00200000
_cell_angle_beta   89.99940000
_cell_angle_gamma   89.99950000
_symmetry_Int_Tables_number   1
_chemical_formula_structural   YbH7C7SO8
_chemical_formula_sum   'Yb4 H28 C28 S4 O32'
_cell_volume   1046.67506333
_cell_formula_units_Z   4
loop_
 _symmetry_equiv_pos_site_id
 _symmetry_equiv_pos_as_xyz
  1  'x, y, z'
loop_
 _atom_site_type_symbol
 _atom_site_label
 _atom_site_symmetry_multiplicity
 _atom_site_fract_x
 _atom_site_fract_y
 _atom_site_fract_z
 _atom_site_occupancy
  Yb  Yb0  1  0.53717000  0.24339000  0.28305000  1.0
  Yb  Yb1  1  0.03717000  0.25661000  0.21694000  1.0
  Yb  Yb2  1  0.46283000  0.75662000  0.71695000  1.0
  Yb  Yb3  1  0.96283000  0.74339000  0.78306000  1.0
  H  H4  1  0.79429000  0.83150000  0.29485000  1.0
  H  H5  1  0.29427000  0.66849000  0.20515000  1.0
  H  H6  1  0.20572000  0.16849000  0.70514000  1.0
  H  H7  1  0.70574000  0.33153000  0.79487000  1.0
  H  H8  1  0.86511000  0.69291000  0.42659000  1.0
  H  H9  1  0.36510000  0.80709000  0.07341000  1.0
  H  H10  1  0.13489000  0.30708000  0.57340000  1.0
  H  H11  1  0.63490000  0.19293000  0.92660000  1.0
  H  H12  1  0.31517000  0.91210000  0.46101000  1.0
  H  H13  1  0.81516000  0.58790000  0.03899000  1.0
  H  H14  1  0.68483000  0.08790000  0.53899000  1.0
  H  H15  1  0.18483000  0.41209000  0.96100000  1.0
  H  H16  1  0.36314000  0.44569000  0.46341000  1.0
  H  H17  1  0.86313000  0.05430000  0.03658000  1.0
  H  H18  1  0.63686000  0.55431000  0.53658000  1.0
  H  H19  1  0.13686000  0.94569000  0.96341000  1.0
  H  H20  1  0.42112000  0.28981000  0.48051000  1.0
  H  H21  1  0.92112000  0.21019000  0.01949000  1.0
  H  H22  1  0.57888000  0.71019000  0.51948000  1.0
  H  H23  1  0.07887000  0.78981000  0.98051000  1.0
  H  H24  1  0.65310000  0.00582000  0.13268000  1.0
  H  H25  1  0.15309000  0.49417000  0.36731000  1.0
  H  H26  1  0.34690000  0.99418000  0.86731000  1.0
  H  H27  1  0.84691000  0.50583000  0.63268000  1.0
  H  H28  1  0.77920000  0.02245000  0.21988000  1.0
  H  H29  1  0.27920000  0.47754000  0.28012000  1.0
  H  H30  1  0.22080000  0.97755000  0.78012000  1.0
  H  H31  1  0.72080000  0.52246000  0.71988000  1.0
  C  C32  1  0.16423000  0.97065000  0.34956000  1.0
  C  C33  1  0.66424000  0.52932000  0.15044000  1.0
  C  C34  1  0.83577000  0.02933000  0.65044000  1.0
  C  C35  1  0.33577000  0.47067000  0.84956000  1.0
  C  C36  1  0.01326000  0.95274000  0.30280000  1.0
  C  C37  1  0.51328000  0.54725000  0.19720000  1.0
  C  C38  1  0.98673000  0.04725000  0.69720000  1.0
  C  C39  1  0.48673000  0.45275000  0.80280000  1.0
  C  C40  1  0.90869000  0.84810000  0.33140000  1.0
  C  C41  1  0.40869000  0.65190000  0.16861000  1.0
  C  C42  1  0.09131000  0.15190000  0.66860000  1.0
  C  C43  1  0.59132000  0.34812000  0.83140000  1.0
  C  C44  1  0.94712000  0.77193000  0.40522000  1.0
  C  C45  1  0.44711000  0.72807000  0.09479000  1.0
  C  C46  1  0.05289000  0.22807000  0.59478000  1.0
  C  C47  1  0.55290000  0.27194000  0.90522000  1.0
  C  C48  1  0.09384000  0.79705000  0.45344000  1.0
  C  C49  1  0.59382000  0.70295000  0.04656000  1.0
  C  C50  1  0.90616000  0.20295000  0.54655000  1.0
  C  C51  1  0.40618000  0.29705000  0.95344000  1.0
  C  C52  1  0.20109000  0.89300000  0.42466000  1.0
  C  C53  1  0.70108000  0.60700000  0.07535000  1.0
  C  C54  1  0.79891000  0.10700000  0.57534000  1.0
  C  C55  1  0.29892000  0.39300000  0.92466000  1.0
  C  C56  1  0.28866000  0.06765000  0.32483000  1.0
  C  C57  1  0.78867000  0.43234000  0.17518000  1.0
  C  C58  1  0.71133000  0.93236000  0.67518000  1.0
  C  C59  1  0.21133000  0.56765000  0.82482000  1.0
  S  S60  1  0.14736000  0.70307000  0.54772000  1.0
  S  S61  1  0.64736000  0.79693000  0.95228000  1.0
  S  S62  1  0.85264000  0.29692000  0.45228000  1.0
  S  S63  1  0.35264000  0.20307000  0.04772000  1.0
  O  O64  1  0.42442000  0.06650000  0.36324000  1.0
  O  O65  1  0.92441000  0.43350000  0.13676000  1.0
  O  O66  1  0.57558000  0.93351000  0.63676000  1.0
  O  O67  1  0.07558000  0.56650000  0.86324000  1.0
  O  O68  1  0.26551000  0.15711000  0.26335000  1.0
  O  O69  1  0.76550000  0.34288000  0.23665000  1.0
  O  O70  1  0.73450000  0.84289000  0.73665000  1.0
  O  O71  1  0.23450000  0.65712000  0.76335000  1.0
  O  O72  1  0.96785000  0.02926000  0.23596000  1.0
  O  O73  1  0.46785000  0.47074000  0.26405000  1.0
  O  O74  1  0.03215000  0.97074000  0.76404000  1.0
  O  O75  1  0.53216000  0.52927000  0.73596000  1.0
  O  O76  1  0.00865000  0.70465000  0.61273000  1.0
  O  O77  1  0.50864000  0.79534000  0.88727000  1.0
  O  O78  1  0.99136000  0.29535000  0.38727000  1.0
  O  O79  1  0.49135000  0.20465000  0.11273000  1.0
  O  O80  1  0.19152000  0.54978000  0.49998000  1.0
  O  O81  1  0.69150000  0.95023000  0.00003000  1.0
  O  O82  1  0.80848000  0.45022000  0.50003000  1.0
  O  O83  1  0.30848000  0.04978000  0.99997000  1.0
  O  O84  1  0.28025000  0.78785000  0.60067000  1.0
  O  O85  1  0.78025000  0.71214000  0.89933000  1.0
  O  O86  1  0.71975000  0.21214000  0.39932000  1.0
  O  O87  1  0.21975000  0.28786000  0.10067000  1.0
  O  O88  1  0.43691000  0.36288000  0.43924000  1.0
  O  O89  1  0.93691000  0.13711000  0.06075000  1.0
  O  O90  1  0.56310000  0.63712000  0.56075000  1.0
  O  O91  1  0.06309000  0.86289000  0.93924000  1.0
  O  O92  1  0.66309000  0.03114000  0.20624000  1.0
  O  O93  1  0.16308000  0.46885000  0.29376000  1.0
  O  O94  1  0.33692000  0.96886000  0.79376000  1.0
  O  O95  1  0.83692000  0.53115000  0.70624000  1.0
