# generated using pymatgen
data_CdH17C13S2N5
_symmetry_space_group_name_H-M   'P 1'
_cell_length_a   7.83481000
_cell_length_b   13.56500000
_cell_length_c   18.13260000
_cell_angle_alpha   106.91200000
_cell_angle_beta   101.57900000
_cell_angle_gamma   95.50130000
_symmetry_Int_Tables_number   1
_chemical_formula_structural   CdH17C13S2N5
_chemical_formula_sum   'Cd4 H68 C52 S8 N20'
_cell_volume   1781.62200540
_cell_formula_units_Z   4
loop_
 _symmetry_equiv_pos_site_id
 _symmetry_equiv_pos_as_xyz
  1  'x, y, z'
loop_
 _atom_site_type_symbol
 _atom_site_label
 _atom_site_symmetry_multiplicity
 _atom_site_fract_x
 _atom_site_fract_y
 _atom_site_fract_z
 _atom_site_occupancy
  Cd  Cd0  1  0.86358000  0.38890000  0.39131000  1.0
  Cd  Cd1  1  0.13643000  0.61109000  0.60869000  1.0
  Cd  Cd2  1  0.64982000  0.60870000  0.10939000  1.0
  Cd  Cd3  1  0.35019000  0.39129000  0.89061000  1.0
  H  H4  1  0.94385000  0.23688000  0.25904000  1.0
  H  H5  1  0.05615000  0.76311000  0.74095000  1.0
  H  H6  1  0.11351000  0.26711000  0.33693000  1.0
  H  H7  1  0.88650000  0.73288000  0.66306000  1.0
  H  H8  1  0.57229000  0.23604000  0.27608000  1.0
  H  H9  1  0.42773000  0.76396000  0.72392000  1.0
  H  H10  1  0.61597000  0.33372000  0.24271000  1.0
  H  H11  1  0.38405000  0.66628000  0.75729000  1.0
  H  H12  1  0.65142000  0.36914000  0.51980000  1.0
  H  H13  1  0.34859000  0.63086000  0.48020000  1.0
  H  H14  1  0.57758000  0.25128000  0.59534000  1.0
  H  H15  1  0.42241000  0.74874000  0.40466000  1.0
  H  H16  1  0.82429000  0.02126000  0.45284000  1.0
  H  H17  1  0.17569000  0.97873000  0.54716000  1.0
  H  H18  1  0.88433000  0.14669000  0.38183000  1.0
  H  H19  1  0.11567000  0.85330000  0.61817000  1.0
  H  H20  1  0.64626000  0.97572000  0.54758000  1.0
  H  H21  1  0.35370000  0.02429000  0.45242000  1.0
  H  H22  1  0.56812000  0.07720000  0.61279000  1.0
  H  H23  1  0.43184000  0.92281000  0.38720000  1.0
  H  H24  1  0.79688000  0.06859000  0.62879000  1.0
  H  H25  1  0.20307000  0.93142000  0.37121000  1.0
  H  H26  1  0.15073000  0.44699000  0.31327000  1.0
  H  H27  1  0.84928000  0.55300000  0.68672000  1.0
  H  H28  1  0.01788000  0.37385000  0.21896000  1.0
  H  H29  1  0.98214000  0.62613000  0.78103000  1.0
  H  H30  1  0.25340000  0.24664000  0.21589000  1.0
  H  H31  1  0.74662000  0.75336000  0.78410000  1.0
  H  H32  1  0.31315000  0.36722000  0.20151000  1.0
  H  H33  1  0.68688000  0.63277000  0.79849000  1.0
  H  H34  1  0.47966000  0.44438000  0.34053000  1.0
  H  H35  1  0.52036000  0.55561000  0.65946000  1.0
  H  H36  1  0.41295000  0.33055000  0.36300000  1.0
  H  H37  1  0.58707000  0.66945000  0.63700000  1.0
  H  H38  1  0.56699000  0.76107000  0.23990000  1.0
  H  H39  1  0.43302000  0.23893000  0.76009000  1.0
  H  H40  1  0.39729000  0.72866000  0.16182000  1.0
  H  H41  1  0.60272000  0.27134000  0.83817000  1.0
  H  H42  1  0.89760000  0.66486000  0.25804000  1.0
  H  H43  1  0.10240000  0.33514000  0.74196000  1.0
  H  H44  1  0.94188000  0.76201000  0.22416000  1.0
  H  H45  1  0.05812000  0.23799000  0.77584000  1.0
  H  H46  1  0.62542000  0.84965000  0.11877000  1.0
  H  H47  1  0.37454000  0.15034000  0.88121000  1.0
  H  H48  1  0.68111000  0.97549000  0.04756000  1.0
  H  H49  1  0.31884000  0.02451000  0.95243000  1.0
  H  H50  1  0.92433000  0.74625000  0.90232000  1.0
  H  H51  1  0.07568000  0.25377000  0.09769000  1.0
  H  H52  1  0.85568000  0.62809000  0.97846000  1.0
  H  H53  1  0.14434000  0.37193000  0.02154000  1.0
  H  H54  1  0.93253000  0.92126000  0.88599000  1.0
  H  H55  1  0.06747000  0.07875000  0.11401000  1.0
  H  H56  1  0.85563000  0.02207000  0.95240000  1.0
  H  H57  1  0.14436000  0.97794000  0.04760000  1.0
  H  H58  1  0.70375000  0.92986000  0.87133000  1.0
  H  H59  1  0.29625000  0.07016000  0.12866000  1.0
  H  H60  1  0.49652000  0.62490000  0.28142000  1.0
  H  H61  1  0.50349000  0.37511000  0.71858000  1.0
  H  H62  1  0.36325000  0.55026000  0.18758000  1.0
  H  H63  1  0.63675000  0.44975000  0.81242000  1.0
  H  H64  1  0.20135000  0.63095000  0.29920000  1.0
  H  H65  1  0.79866000  0.36906000  0.70081000  1.0
  H  H66  1  0.26063000  0.75126000  0.28419000  1.0
  H  H67  1  0.73938000  0.24875000  0.71581000  1.0
  H  H68  1  0.10001000  0.66620000  0.13724000  1.0
  H  H69  1  0.89999000  0.33381000  0.86276000  1.0
  H  H70  1  0.03318000  0.55310000  0.16059000  1.0
  H  H71  1  0.96683000  0.44691000  0.83941000  1.0
  C  C72  1  0.68955000  0.29171000  0.50745000  1.0
  C  C73  1  0.31045000  0.70829000  0.49255000  1.0
  C  C74  1  0.64981000  0.22581000  0.54975000  1.0
  C  C75  1  0.35018000  0.77420000  0.45025000  1.0
  C  C76  1  0.70248000  0.12761000  0.53375000  1.0
  C  C77  1  0.29749000  0.87240000  0.46625000  1.0
  C  C78  1  0.78530000  0.09811000  0.47077000  1.0
  C  C79  1  0.21469000  0.90189000  0.52924000  1.0
  C  C80  1  0.81817000  0.16780000  0.43037000  1.0
  C  C81  1  0.18183000  0.83219000  0.56963000  1.0
  C  C82  1  0.67508000  0.05860000  0.58283000  1.0
  C  C83  1  0.32487000  0.94141000  0.41716000  1.0
  C  C84  1  0.11528000  0.36786000  0.26972000  1.0
  C  C85  1  0.88474000  0.63213000  0.73027000  1.0
  C  C86  1  0.28035000  0.33178000  0.24544000  1.0
  C  C87  1  0.71966000  0.66821000  0.75455000  1.0
  C  C88  1  0.44165000  0.35890000  0.31514000  1.0
  C  C89  1  0.55837000  0.64109000  0.68486000  1.0
  C  C90  1  0.81008000  0.62159000  0.43704000  1.0
  C  C91  1  0.18993000  0.37840000  0.56298000  1.0
  C  C92  1  0.78252000  0.72744000  0.45773000  1.0
  C  C93  1  0.21749000  0.27254000  0.54229000  1.0
  C  C94  1  0.75845000  0.77820000  0.53362000  1.0
  C  C95  1  0.24155000  0.22178000  0.46641000  1.0
  C  C96  1  0.78125000  0.78392000  0.40365000  1.0
  C  C97  1  0.21875000  0.21607000  0.59637000  1.0
  C  C98  1  0.68981000  0.82882000  0.06961000  1.0
  C  C99  1  0.31016000  0.17118000  0.93038000  1.0
  C  C100  1  0.72019000  0.89874000  0.02910000  1.0
  C  C101  1  0.27978000  0.10126000  0.97089000  1.0
  C  C102  1  0.80102000  0.86965000  0.96542000  1.0
  C  C103  1  0.19898000  0.13035000  0.03458000  1.0
  C  C104  1  0.85391000  0.77148000  0.94865000  1.0
  C  C105  1  0.14610000  0.22853000  0.05136000  1.0
  C  C106  1  0.81695000  0.70540000  0.99123000  1.0
  C  C107  1  0.18306000  0.29461000  0.00877000  1.0
  C  C108  1  0.82649000  0.93938000  0.91664000  1.0
  C  C109  1  0.17350000  0.06063000  0.08336000  1.0
  C  C110  1  0.39825000  0.62979000  0.23052000  1.0
  C  C111  1  0.60176000  0.37022000  0.76948000  1.0
  C  C112  1  0.23347000  0.66603000  0.25497000  1.0
  C  C113  1  0.76654000  0.33398000  0.74504000  1.0
  C  C114  1  0.07161000  0.63860000  0.18549000  1.0
  C  C115  1  0.92839000  0.36140000  0.81451000  1.0
  C  C116  1  0.69252000  0.37505000  0.06164000  1.0
  C  C117  1  0.30748000  0.62494000  0.93836000  1.0
  C  C118  1  0.71548000  0.26840000  0.03963000  1.0
  C  C119  1  0.28451000  0.73160000  0.96037000  1.0
  C  C120  1  0.71964000  0.21202000  0.09390000  1.0
  C  C121  1  0.28035000  0.78797000  0.90610000  1.0
  C  C122  1  0.73494000  0.21742000  0.96292000  1.0
  C  C123  1  0.26505000  0.78258000  0.03708000  1.0
  S  S124  1  0.78752000  0.55184000  0.50161000  1.0
  S  S125  1  0.21249000  0.44816000  0.49841000  1.0
  S  S126  1  0.86139000  0.56371000  0.34914000  1.0
  S  S127  1  0.13863000  0.43628000  0.65088000  1.0
  S  S128  1  0.65077000  0.43394000  0.15160000  1.0
  S  S129  1  0.34924000  0.56606000  0.84840000  1.0
  S  S130  1  0.71123000  0.44512000  0.99701000  1.0
  S  S131  1  0.28878000  0.55488000  0.00299000  1.0
  N  N132  1  0.77520000  0.26429000  0.44930000  1.0
  N  N133  1  0.22480000  0.73570000  0.55070000  1.0
  N  N134  1  0.02393000  0.29816000  0.30428000  1.0
  N  N135  1  0.97609000  0.70183000  0.69572000  1.0
  N  N136  1  0.59574000  0.31576000  0.29207000  1.0
  N  N137  1  0.40428000  0.68423000  0.70793000  1.0
  N  N138  1  0.74370000  0.81942000  0.59818000  1.0
  N  N139  1  0.25628000  0.18058000  0.40183000  1.0
  N  N140  1  0.77402000  0.82994000  0.35750000  1.0
  N  N141  1  0.22599000  0.17004000  0.64253000  1.0
  N  N142  1  0.73351000  0.73255000  0.05021000  1.0
  N  N143  1  0.26648000  0.26745000  0.94979000  1.0
  N  N144  1  0.48794000  0.69892000  0.19503000  1.0
  N  N145  1  0.51207000  0.30108000  0.80496000  1.0
  N  N146  1  0.91793000  0.68233000  0.20852000  1.0
  N  N147  1  0.08207000  0.31768000  0.79148000  1.0
  N  N148  1  0.72949000  0.16635000  0.14033000  1.0
  N  N149  1  0.27052000  0.83365000  0.85966000  1.0
  N  N150  1  0.74644000  0.17646000  0.89777000  1.0
  N  N151  1  0.25355000  0.82354000  0.10222000  1.0
