# generated using pymatgen
data_Rb2H12C16Cl4O7
_symmetry_space_group_name_H-M   'P 1'
_cell_length_a   4.24061000
_cell_length_b   12.90160000
_cell_length_c   19.95323632
_cell_angle_alpha   81.91176134
_cell_angle_beta   83.89001539
_cell_angle_gamma   90.04640000
_symmetry_Int_Tables_number   1
_chemical_formula_structural   Rb2H12C16Cl4O7
_chemical_formula_sum   'Rb4 H24 C32 Cl8 O14'
_cell_volume   1074.51771702
_cell_formula_units_Z   2
loop_
 _symmetry_equiv_pos_site_id
 _symmetry_equiv_pos_as_xyz
  1  'x, y, z'
loop_
 _atom_site_type_symbol
 _atom_site_label
 _atom_site_symmetry_multiplicity
 _atom_site_fract_x
 _atom_site_fract_y
 _atom_site_fract_z
 _atom_site_occupancy
  Rb  Rb0  1  0.82325000  0.41040000  0.93497000  1.0
  Rb  Rb1  1  0.75775000  0.08970000  0.06509000  1.0
  Rb  Rb2  1  0.17676000  0.58960000  0.06503000  1.0
  Rb  Rb3  1  0.24226000  0.91030000  0.93491000  1.0
  H  H4  1  0.32982000  0.26690000  0.03806000  1.0
  H  H5  1  0.36842000  0.23315000  0.96191000  1.0
  H  H6  1  0.67019000  0.73310000  0.96194000  1.0
  H  H7  1  0.63158000  0.76685000  0.03809000  1.0
  H  H8  1  0.75811000  0.39039000  0.78155000  1.0
  H  H9  1  0.54064000  0.10958000  0.21868000  1.0
  H  H10  1  0.24188000  0.60961000  0.21845000  1.0
  H  H11  1  0.45936000  0.89043000  0.78132000  1.0
  H  H12  1  0.85796000  0.46288000  0.56227000  1.0
  H  H13  1  0.42176000  0.03704000  0.43796000  1.0
  H  H14  1  0.14203000  0.53712000  0.43773000  1.0
  H  H15  1  0.57824000  0.96296000  0.56204000  1.0
  H  H16  1  0.31673000  0.66137000  0.68059000  1.0
  H  H17  1  0.99824000  0.83879000  0.31948000  1.0
  H  H18  1  0.68326000  0.33863000  0.31941000  1.0
  H  H19  1  0.00176000  0.16121000  0.68052000  1.0
  H  H20  1  0.13231000  0.70880000  0.79405000  1.0
  H  H21  1  0.92529000  0.79127000  0.20599000  1.0
  H  H22  1  0.86769000  0.29120000  0.20595000  1.0
  H  H23  1  0.07472000  0.20874000  0.79401000  1.0
  H  H24  1  0.49642000  0.64553000  0.77318000  1.0
  H  H25  1  0.26923000  0.85449000  0.22669000  1.0
  H  H26  1  0.50358000  0.35446000  0.22682000  1.0
  H  H27  1  0.73077000  0.14551000  0.77331000  1.0
  C  C28  1  0.04308000  0.52932000  0.73909000  1.0
  C  C29  1  0.78293000  0.97073000  0.26106000  1.0
  C  C30  1  0.95691000  0.47067000  0.26092000  1.0
  C  C31  1  0.21707000  0.02927000  0.73894000  1.0
  C  C32  1  0.85304000  0.44147000  0.73560000  1.0
  C  C33  1  0.58975000  0.05855000  0.26463000  1.0
  C  C34  1  0.14695000  0.55853000  0.26440000  1.0
  C  C35  1  0.41025000  0.94145000  0.73537000  1.0
  C  C36  1  0.79087000  0.41998000  0.67184000  1.0
  C  C37  1  0.46414000  0.08002000  0.32841000  1.0
  C  C38  1  0.20912000  0.58002000  0.32816000  1.0
  C  C39  1  0.53585000  0.91998000  0.67159000  1.0
  C  C40  1  0.90955000  0.48201000  0.61134000  1.0
  C  C41  1  0.52239000  0.01797000  0.38887000  1.0
  C  C42  1  0.09045000  0.51799000  0.38866000  1.0
  C  C43  1  0.47761000  0.98203000  0.61113000  1.0
  C  C44  1  0.09768000  0.56825000  0.61681000  1.0
  C  C45  1  0.71582000  0.93181000  0.38334000  1.0
  C  C46  1  0.90232000  0.43175000  0.38319000  1.0
  C  C47  1  0.28418000  0.06819000  0.61666000  1.0
  C  C48  1  0.16554000  0.59375000  0.67957000  1.0
  C  C49  1  0.84616000  0.90636000  0.32056000  1.0
  C  C50  1  0.83444000  0.40625000  0.32044000  1.0
  C  C51  1  0.15384000  0.09365000  0.67944000  1.0
  C  C52  1  0.27605000  0.63963000  0.80812000  1.0
  C  C53  1  0.08346000  0.86042000  0.19185000  1.0
  C  C54  1  0.72396000  0.36037000  0.19188000  1.0
  C  C55  1  0.91655000  0.13958000  0.80814000  1.0
  C  C56  1  0.37066000  0.64060000  0.87984000  1.0
  C  C57  1  0.24920000  0.85949000  0.12007000  1.0
  C  C58  1  0.62934000  0.35940000  0.12016000  1.0
  C  C59  1  0.75080000  0.14052000  0.87993000  1.0
  Cl  Cl60  1  0.56224000  0.31036000  0.66674000  1.0
  Cl  Cl61  1  0.23062000  0.18952000  0.33357000  1.0
  Cl  Cl62  1  0.43775000  0.68964000  0.33326000  1.0
  Cl  Cl63  1  0.76937000  0.81047000  0.66643000  1.0
  Cl  Cl64  1  0.25966000  0.64670000  0.54357000  1.0
  Cl  Cl65  1  0.80446000  0.85337000  0.45654000  1.0
  Cl  Cl66  1  0.74033000  0.35330000  0.45643000  1.0
  Cl  Cl67  1  0.19554000  0.14663000  0.54346000  1.0
  O  O68  1  0.21260000  0.25011000  0.99992000  1.0
  O  O69  1  0.78740000  0.74989000  0.00008000  1.0
  O  O70  1  0.10149000  0.54588000  0.80313000  1.0
  O  O71  1  0.90458000  0.95419000  0.19696000  1.0
  O  O72  1  0.89850000  0.45412000  0.19687000  1.0
  O  O73  1  0.09544000  0.04582000  0.80303000  1.0
  O  O74  1  0.32391000  0.56010000  0.92391000  1.0
  O  O75  1  0.24653000  0.93999000  0.07602000  1.0
  O  O76  1  0.67609000  0.43990000  0.07609000  1.0
  O  O77  1  0.75348000  0.06002000  0.92398000  1.0
  O  O78  1  0.50132000  0.72631000  0.88770000  1.0
  O  O79  1  0.38736000  0.77380000  0.11216000  1.0
  O  O80  1  0.49867000  0.27369000  0.11230000  1.0
  O  O81  1  0.61265000  0.22620000  0.88784000  1.0
