# generated using pymatgen
data_MnH7C6N9O5
_symmetry_space_group_name_H-M   'P 1'
_cell_length_a   8.74672000
_cell_length_b   9.18269000
_cell_length_c   9.18269000
_cell_angle_alpha   113.91600000
_cell_angle_beta   106.27900000
_cell_angle_gamma   106.28000000
_symmetry_Int_Tables_number   1
_chemical_formula_structural   MnH7C6N9O5
_chemical_formula_sum   'Mn2 H14 C12 N18 O10'
_cell_volume   578.28806009
_cell_formula_units_Z   2
loop_
 _symmetry_equiv_pos_site_id
 _symmetry_equiv_pos_as_xyz
  1  'x, y, z'
loop_
 _atom_site_type_symbol
 _atom_site_label
 _atom_site_symmetry_multiplicity
 _atom_site_fract_x
 _atom_site_fract_y
 _atom_site_fract_z
 _atom_site_occupancy
  Mn  Mn0  1  0.17453000  0.68337000  0.41143000  1.0
  Mn  Mn1  1  0.67453000  0.41143000  0.68337000  1.0
  H  H2  1  0.38631000  0.22018000  0.95554000  1.0
  H  H3  1  0.88632000  0.95555000  0.22018000  1.0
  H  H4  1  0.75055000  0.10805000  0.65270000  1.0
  H  H5  1  0.25055000  0.65270000  0.10806000  1.0
  H  H6  1  0.65536000  0.92241000  0.42741000  1.0
  H  H7  1  0.15536000  0.42741000  0.92241000  1.0
  H  H8  1  0.84275000  0.25891000  0.18405000  1.0
  H  H9  1  0.34275000  0.18405000  0.25891000  1.0
  H  H10  1  0.66817000  0.32131000  0.16019000  1.0
  H  H11  1  0.16817000  0.16019000  0.32131000  1.0
  H  H12  1  0.03752000  0.39544000  0.46918000  1.0
  H  H13  1  0.53752000  0.46918000  0.39543000  1.0
  H  H14  1  0.07458000  0.58017000  0.62802000  1.0
  H  H15  1  0.57457000  0.62802000  0.58016000  1.0
  C  C16  1  0.17072000  0.02891000  0.71451000  1.0
  C  C17  1  0.67072000  0.71451000  0.02891000  1.0
  C  C18  1  0.45184000  0.02190000  0.81713000  1.0
  C  C19  1  0.95184000  0.81713000  0.02191000  1.0
  C  C20  1  0.83074000  0.39777000  0.03946000  1.0
  C  C21  1  0.33074000  0.03946000  0.39777000  1.0
  C  C22  1  0.77460000  0.04482000  0.53748000  1.0
  C  C23  1  0.27460000  0.53748000  0.04482000  1.0
  C  C24  1  0.82578000  0.17256000  0.47186000  1.0
  C  C25  1  0.32578000  0.47186000  0.17256000  1.0
  C  C26  1  0.74199000  0.26896000  0.09117000  1.0
  C  C27  1  0.24199000  0.09117000  0.26896000  1.0
  N  N28  1  0.91618000  0.99697000  0.58816000  1.0
  N  N29  1  0.41618000  0.58816000  0.99697000  1.0
  N  N30  1  0.08026000  0.86883000  0.55723000  1.0
  N  N31  1  0.58026000  0.55723000  0.86883000  1.0
  N  N32  1  0.06891000  0.11296000  0.73797000  1.0
  N  N33  1  0.56891000  0.73797000  0.11296000  1.0
  N  N34  1  0.91860000  0.85215000  0.47795000  1.0
  N  N35  1  0.41860000  0.47795000  0.85215000  1.0
  N  N36  1  0.41233000  0.86411000  0.68051000  1.0
  N  N37  1  0.91233000  0.68051000  0.86411000  1.0
  N  N38  1  0.34361000  0.10094000  0.83744000  1.0
  N  N39  1  0.84361000  0.83744000  0.10094000  1.0
  N  N40  1  0.56252000  0.84172000  0.71950000  1.0
  N  N41  1  0.06252000  0.71950000  0.84172000  1.0
  N  N42  1  0.62349000  0.09118000  0.93737000  1.0
  N  N43  1  0.12349000  0.93737000  0.09119000  1.0
  N  N44  1  0.69034000  0.97623000  0.87087000  1.0
  N  N45  1  0.19034000  0.87087000  0.97623000  1.0
  O  O46  1  0.78474000  0.33860000  0.87531000  1.0
  O  O47  1  0.28474000  0.87531000  0.33860000  1.0
  O  O48  1  0.92077000  0.15571000  0.38942000  1.0
  O  O49  1  0.42076000  0.38941000  0.15571000  1.0
  O  O50  1  0.76958000  0.28943000  0.50405000  1.0
  O  O51  1  0.26958000  0.50405000  0.28943000  1.0
  O  O52  1  0.94138000  0.55460000  0.16709000  1.0
  O  O53  1  0.44138000  0.16708000  0.55460000  1.0
  O  O54  1  0.10264000  0.52611000  0.52775000  1.0
  O  O55  1  0.60265000  0.52775000  0.52611000  1.0
