# generated using pymatgen
data_CuH13C16SN3O5
_symmetry_space_group_name_H-M   'P 1'
_cell_length_a   6.96155000
_cell_length_b   13.03120000
_cell_length_c   24.28270000
_cell_angle_alpha   89.99980000
_cell_angle_beta   90.00050000
_cell_angle_gamma   89.99990000
_symmetry_Int_Tables_number   1
_chemical_formula_structural   CuH13C16SN3O5
_chemical_formula_sum   'Cu4 H52 C64 S4 N12 O20'
_cell_volume   2202.86220349
_cell_formula_units_Z   4
loop_
 _symmetry_equiv_pos_site_id
 _symmetry_equiv_pos_as_xyz
  1  'x, y, z'
loop_
 _atom_site_type_symbol
 _atom_site_label
 _atom_site_symmetry_multiplicity
 _atom_site_fract_x
 _atom_site_fract_y
 _atom_site_fract_z
 _atom_site_occupancy
  Cu  Cu0  1  0.38615000  0.68818000  0.35860000  1.0
  Cu  Cu1  1  0.61385000  0.18818000  0.64140000  1.0
  Cu  Cu2  1  0.88614000  0.68817000  0.14140000  1.0
  Cu  Cu3  1  0.11383000  0.18819000  0.85860000  1.0
  H  H4  1  0.76602000  0.67587000  0.40546000  1.0
  H  H5  1  0.23398000  0.17587000  0.59454000  1.0
  H  H6  1  0.26600000  0.67587000  0.09455000  1.0
  H  H7  1  0.73396000  0.17588000  0.90545000  1.0
  H  H8  1  0.45093000  0.63782000  0.18514000  1.0
  H  H9  1  0.54906000  0.13783000  0.81486000  1.0
  H  H10  1  0.95095000  0.63781000  0.31486000  1.0
  H  H11  1  0.04906000  0.13782000  0.68514000  1.0
  H  H12  1  0.88856000  0.86721000  0.42166000  1.0
  H  H13  1  0.11147000  0.36721000  0.57834000  1.0
  H  H14  1  0.38853000  0.86719000  0.07833000  1.0
  H  H15  1  0.61143000  0.36721000  0.92167000  1.0
  H  H16  1  0.69119000  0.98628000  0.48938000  1.0
  H  H17  1  0.30882000  0.48628000  0.51062000  1.0
  H  H18  1  0.19118000  0.98628000  0.01061000  1.0
  H  H19  1  0.80879000  0.48628000  0.98939000  1.0
  H  H20  1  0.49037000  0.48331000  0.38625000  1.0
  H  H21  1  0.50966000  0.98330000  0.61376000  1.0
  H  H22  1  0.99034000  0.48330000  0.11376000  1.0
  H  H23  1  0.00965000  0.98330000  0.88625000  1.0
  H  H24  1  0.55935000  0.31604000  0.34085000  1.0
  H  H25  1  0.44072000  0.81603000  0.65916000  1.0
  H  H26  1  0.05933000  0.31602000  0.15916000  1.0
  H  H27  1  0.94070000  0.81603000  0.84084000  1.0
  H  H28  1  0.55242000  0.30905000  0.23603000  1.0
  H  H29  1  0.44766000  0.80905000  0.76398000  1.0
  H  H30  1  0.05243000  0.30903000  0.26398000  1.0
  H  H31  1  0.94764000  0.80904000  0.73603000  1.0
  H  H32  1  0.49004000  0.47144000  0.18417000  1.0
  H  H33  1  0.51000000  0.97145000  0.81584000  1.0
  H  H34  1  0.99007000  0.47144000  0.31583000  1.0
  H  H35  1  0.00998000  0.97144000  0.68417000  1.0
  H  H36  1  0.47230000  0.79749000  0.15716000  1.0
  H  H37  1  0.52767000  0.29749000  0.84283000  1.0
  H  H38  1  0.97231000  0.79747000  0.34284000  1.0
  H  H39  1  0.02770000  0.29748000  0.65716000  1.0
  H  H40  1  0.53364000  0.98032000  0.17966000  1.0
  H  H41  1  0.46632000  0.48032000  0.82034000  1.0
  H  H42  1  0.03364000  0.98031000  0.32034000  1.0
  H  H43  1  0.96635000  0.48032000  0.67966000  1.0
  H  H44  1  0.55326000  0.03231000  0.28061000  1.0
  H  H45  1  0.44674000  0.53231000  0.71938000  1.0
  H  H46  1  0.05322000  0.03230000  0.21938000  1.0
  H  H47  1  0.94674000  0.53231000  0.78061000  1.0
  H  H48  1  0.49202000  0.89787000  0.35173000  1.0
  H  H49  1  0.50800000  0.39787000  0.64827000  1.0
  H  H50  1  0.99197000  0.89785000  0.14827000  1.0
  H  H51  1  0.00797000  0.39787000  0.85172000  1.0
  H  H52  1  0.61111000  0.75581000  0.43362000  1.0
  H  H53  1  0.38890000  0.25582000  0.56638000  1.0
  H  H54  1  0.11109000  0.75581000  0.06638000  1.0
  H  H55  1  0.88888000  0.25582000  0.93362000  1.0
  C  C56  1  0.29550000  0.83713000  0.44570000  1.0
  C  C57  1  0.70451000  0.33713000  0.55431000  1.0
  C  C58  1  0.79549000  0.83711000  0.05430000  1.0
  C  C59  1  0.20448000  0.33713000  0.94569000  1.0
  C  C60  1  0.14142000  0.89913000  0.47177000  1.0
  C  C61  1  0.85859000  0.39914000  0.52823000  1.0
  C  C62  1  0.64141000  0.89912000  0.02823000  1.0
  C  C63  1  0.35855000  0.39914000  0.97177000  1.0
  C  C64  1  0.95027000  0.90836000  0.45640000  1.0
  C  C65  1  0.04975000  0.40837000  0.54360000  1.0
  C  C66  1  0.45026000  0.90835000  0.04360000  1.0
  C  C67  1  0.54971000  0.40837000  0.95640000  1.0
  C  C68  1  0.84453000  0.97130000  0.49262000  1.0
  C  C69  1  0.15549000  0.47130000  0.50738000  1.0
  C  C70  1  0.34452000  0.97129000  0.00738000  1.0
  C  C71  1  0.65545000  0.47130000  0.99262000  1.0
  C  C72  1  0.95701000  0.01004000  0.53491000  1.0
  C  C73  1  0.04300000  0.51003000  0.46508000  1.0
  C  C74  1  0.45700000  0.01003000  0.96508000  1.0
  C  C75  1  0.54297000  0.51003000  0.03492000  1.0
  C  C76  1  0.89753000  0.07573000  0.58128000  1.0
  C  C77  1  0.10247000  0.57573000  0.41872000  1.0
  C  C78  1  0.39752000  0.07573000  0.91871000  1.0
  C  C79  1  0.60246000  0.57572000  0.08129000  1.0
  C  C80  1  0.49437000  0.47643000  0.34161000  1.0
  C  C81  1  0.50568000  0.97642000  0.65840000  1.0
  C  C82  1  0.99434000  0.47641000  0.15840000  1.0
  C  C83  1  0.00567000  0.97642000  0.84161000  1.0
  C  C84  1  0.53034000  0.38365000  0.31589000  1.0
  C  C85  1  0.46970000  0.88365000  0.68411000  1.0
  C  C86  1  0.03033000  0.38363000  0.18411000  1.0
  C  C87  1  0.96970000  0.88364000  0.81589000  1.0
  C  C88  1  0.52660000  0.38054000  0.25818000  1.0
  C  C89  1  0.47345000  0.88054000  0.74183000  1.0
  C  C90  1  0.02660000  0.38052000  0.24183000  1.0
  C  C91  1  0.97344000  0.88054000  0.75817000  1.0
  C  C92  1  0.49254000  0.46960000  0.22901000  1.0
  C  C93  1  0.50749000  0.96961000  0.77100000  1.0
  C  C94  1  0.99256000  0.46959000  0.27100000  1.0
  C  C95  1  0.00749000  0.96960000  0.72900000  1.0
  C  C96  1  0.46166000  0.56227000  0.25801000  1.0
  C  C97  1  0.53835000  0.06228000  0.74199000  1.0
  C  C98  1  0.96166000  0.56227000  0.24199000  1.0
  C  C99  1  0.03835000  0.06227000  0.75801000  1.0
  C  C100  1  0.45281000  0.75175000  0.24246000  1.0
  C  C101  1  0.54718000  0.25175000  0.75754000  1.0
  C  C102  1  0.95280000  0.75174000  0.25755000  1.0
  C  C103  1  0.04719000  0.25175000  0.74246000  1.0
  C  C104  1  0.47526000  0.82372000  0.19964000  1.0
  C  C105  1  0.52472000  0.32373000  0.80036000  1.0
  C  C106  1  0.97527000  0.82372000  0.30037000  1.0
  C  C107  1  0.02473000  0.32372000  0.69963000  1.0
  C  C108  1  0.51098000  0.92497000  0.21274000  1.0
  C  C109  1  0.48900000  0.42498000  0.78725000  1.0
  C  C110  1  0.01099000  0.92497000  0.28726000  1.0
  C  C111  1  0.98901000  0.42497000  0.71274000  1.0
  C  C112  1  0.52101000  0.95392000  0.26824000  1.0
  C  C113  1  0.47897000  0.45392000  0.73175000  1.0
  C  C114  1  0.02101000  0.95391000  0.23176000  1.0
  C  C115  1  0.97897000  0.45392000  0.76824000  1.0
  C  C116  1  0.48931000  0.87998000  0.30804000  1.0
  C  C117  1  0.51068000  0.37998000  0.69196000  1.0
  C  C118  1  0.98929000  0.87997000  0.19196000  1.0
  C  C119  1  0.01067000  0.37998000  0.80804000  1.0
  S  S120  1  0.19123000  0.96778000  0.53052000  1.0
  S  S121  1  0.80878000  0.46778000  0.46948000  1.0
  S  S122  1  0.69122000  0.96777000  0.96947000  1.0
  S  S123  1  0.30875000  0.46779000  0.03053000  1.0
  N  N124  1  0.45773000  0.56425000  0.31365000  1.0
  N  N125  1  0.54229000  0.06425000  0.68635000  1.0
  N  N126  1  0.95772000  0.56423000  0.18635000  1.0
  N  N127  1  0.04228000  0.06425000  0.81365000  1.0
  N  N128  1  0.43656000  0.64999000  0.22734000  1.0
  N  N129  1  0.56344000  0.14999000  0.77266000  1.0
  N  N130  1  0.93656000  0.64998000  0.27267000  1.0
  N  N131  1  0.06344000  0.14998000  0.72734000  1.0
  N  N132  1  0.45237000  0.78072000  0.29573000  1.0
  N  N133  1  0.54762000  0.28073000  0.70427000  1.0
  N  N134  1  0.95235000  0.78071000  0.20427000  1.0
  N  N135  1  0.04762000  0.28073000  0.79573000  1.0
  O  O136  1  0.25120000  0.80212000  0.39742000  1.0
  O  O137  1  0.74882000  0.30211000  0.60258000  1.0
  O  O138  1  0.75118000  0.80209000  0.10258000  1.0
  O  O139  1  0.24878000  0.30212000  0.89742000  1.0
  O  O140  1  0.45170000  0.82509000  0.47100000  1.0
  O  O141  1  0.54831000  0.32510000  0.52900000  1.0
  O  O142  1  0.95169000  0.82507000  0.02899000  1.0
  O  O143  1  0.04828000  0.32509000  0.97100000  1.0
  O  O144  1  0.02399000  0.10395000  0.61599000  1.0
  O  O145  1  0.97601000  0.60396000  0.38401000  1.0
  O  O146  1  0.52397000  0.10397000  0.88400000  1.0
  O  O147  1  0.47599000  0.60396000  0.11599000  1.0
  O  O148  1  0.71797000  0.09766000  0.58322000  1.0
  O  O149  1  0.28204000  0.59767000  0.41678000  1.0
  O  O150  1  0.21795000  0.09767000  0.91678000  1.0
  O  O151  1  0.78201000  0.59765000  0.08322000  1.0
  O  O152  1  0.66630000  0.72789000  0.39865000  1.0
  O  O153  1  0.33371000  0.22789000  0.60135000  1.0
  O  O154  1  0.16628000  0.72789000  0.10135000  1.0
  O  O155  1  0.83368000  0.22790000  0.89865000  1.0
