# generated using pymatgen
data_CdH5C4N2ClO3
_symmetry_space_group_name_H-M   'P 1'
_cell_length_a   6.92819000
_cell_length_b   10.33220000
_cell_length_c   10.53610000
_cell_angle_alpha   89.99980000
_cell_angle_beta   104.98800000
_cell_angle_gamma   89.99950000
_symmetry_Int_Tables_number   1
_chemical_formula_structural   CdH5C4N2ClO3
_chemical_formula_sum   'Cd4 H20 C16 N8 Cl4 O12'
_cell_volume   728.55210544
_cell_formula_units_Z   4
loop_
 _symmetry_equiv_pos_site_id
 _symmetry_equiv_pos_as_xyz
  1  'x, y, z'
loop_
 _atom_site_type_symbol
 _atom_site_label
 _atom_site_symmetry_multiplicity
 _atom_site_fract_x
 _atom_site_fract_y
 _atom_site_fract_z
 _atom_site_occupancy
  Cd  Cd0  1  0.80896000  0.13740000  0.00012000  1.0
  Cd  Cd1  1  0.69103000  0.63739000  0.49988000  1.0
  Cd  Cd2  1  0.19103000  0.86261000  0.99988000  1.0
  Cd  Cd3  1  0.30897000  0.36260000  0.50012000  1.0
  H  H4  1  0.84200000  0.63794000  0.14174000  1.0
  H  H5  1  0.65799000  0.13794000  0.35826000  1.0
  H  H6  1  0.15799000  0.36207000  0.85826000  1.0
  H  H7  1  0.34202000  0.86206000  0.64174000  1.0
  H  H8  1  0.60526000  0.64041000  0.88595000  1.0
  H  H9  1  0.89472000  0.14040000  0.61405000  1.0
  H  H10  1  0.39474000  0.35959000  0.11405000  1.0
  H  H11  1  0.10528000  0.85959000  0.38595000  1.0
  H  H12  1  0.40445000  0.14744000  0.01923000  1.0
  H  H13  1  0.09555000  0.64744000  0.48077000  1.0
  H  H14  1  0.59555000  0.85256000  0.98077000  1.0
  H  H15  1  0.90445000  0.35256000  0.51923000  1.0
  H  H16  1  0.59866000  0.40006000  0.80936000  1.0
  H  H17  1  0.90133000  0.90006000  0.69064000  1.0
  H  H18  1  0.40133000  0.59994000  0.19064000  1.0
  H  H19  1  0.09867000  0.09994000  0.30936000  1.0
  H  H20  1  0.50918000  0.06740000  0.14183000  1.0
  H  H21  1  0.99082000  0.56740000  0.35817000  1.0
  H  H22  1  0.49082000  0.93260000  0.85817000  1.0
  H  H23  1  0.00918000  0.43260000  0.64183000  1.0
  C  C24  1  0.98658000  0.35745000  0.21100000  1.0
  C  C25  1  0.51341000  0.85746000  0.28899000  1.0
  C  C26  1  0.01342000  0.64255000  0.78900000  1.0
  C  C27  1  0.48659000  0.14254000  0.71101000  1.0
  C  C28  1  0.85688000  0.42619000  0.09680000  1.0
  C  C29  1  0.64312000  0.92618000  0.40320000  1.0
  C  C30  1  0.14312000  0.57381000  0.90320000  1.0
  C  C31  1  0.35689000  0.07382000  0.59679000  1.0
  C  C32  1  0.80134000  0.55719000  0.07450000  1.0
  C  C33  1  0.69865000  0.05718000  0.42551000  1.0
  C  C34  1  0.19866000  0.44281000  0.92550000  1.0
  C  C35  1  0.30136000  0.94281000  0.57450000  1.0
  C  C36  1  0.68372000  0.56154000  0.94569000  1.0
  C  C37  1  0.81628000  0.06154000  0.55432000  1.0
  C  C38  1  0.31628000  0.43846000  0.05431000  1.0
  C  C39  1  0.18372000  0.93846000  0.44569000  1.0
  N  N40  1  0.77704000  0.35652000  0.98772000  1.0
  N  N41  1  0.72295000  0.85652000  0.51228000  1.0
  N  N42  1  0.22296000  0.64348000  0.01228000  1.0
  N  N43  1  0.27705000  0.14348000  0.48771000  1.0
  N  N44  1  0.67431000  0.43915000  0.89846000  1.0
  N  N45  1  0.82568000  0.93915000  0.60154000  1.0
  N  N46  1  0.32568000  0.56085000  0.10154000  1.0
  N  N47  1  0.17432000  0.06085000  0.39846000  1.0
  Cl  Cl48  1  0.89481000  0.90895000  0.10923000  1.0
  Cl  Cl49  1  0.60518000  0.40895000  0.39077000  1.0
  Cl  Cl50  1  0.10519000  0.09105000  0.89077000  1.0
  Cl  Cl51  1  0.39482000  0.59105000  0.60923000  1.0
  O  O52  1  0.52786000  0.14640000  0.09134000  1.0
  O  O53  1  0.97214000  0.64640000  0.40866000  1.0
  O  O54  1  0.47214000  0.85360000  0.90866000  1.0
  O  O55  1  0.02785000  0.35360000  0.59134000  1.0
  O  O56  1  0.00874000  0.23595000  0.20179000  1.0
  O  O57  1  0.49124000  0.73596000  0.29821000  1.0
  O  O58  1  0.99125000  0.76405000  0.79822000  1.0
  O  O59  1  0.50875000  0.26405000  0.70179000  1.0
  O  O60  1  0.07112000  0.42603000  0.31115000  1.0
  O  O61  1  0.42887000  0.92604000  0.18886000  1.0
  O  O62  1  0.92888000  0.57397000  0.68886000  1.0
  O  O63  1  0.57112000  0.07396000  0.81114000  1.0
