# generated using pymatgen
data_AlH11C15O7
_symmetry_space_group_name_H-M   'P 1'
_cell_length_a   6.71903000
_cell_length_b   20.24160000
_cell_length_c   23.13230000
_cell_angle_alpha   93.43290000
_cell_angle_beta   90.99240000
_cell_angle_gamma   90.63450000
_symmetry_Int_Tables_number   1
_chemical_formula_structural   AlH11C15O7
_chemical_formula_sum   'Al4 H44 C60 O28'
_cell_volume   3139.73587293
_cell_formula_units_Z   4
loop_
 _symmetry_equiv_pos_site_id
 _symmetry_equiv_pos_as_xyz
  1  'x, y, z'
loop_
 _atom_site_type_symbol
 _atom_site_label
 _atom_site_symmetry_multiplicity
 _atom_site_fract_x
 _atom_site_fract_y
 _atom_site_fract_z
 _atom_site_occupancy
  Al  Al0  1  0.73933000  0.24795000  0.74869000  1.0
  Al  Al1  1  0.24504000  0.75328000  0.24898000  1.0
  Al  Al2  1  0.23816000  0.25193000  0.74898000  1.0
  Al  Al3  1  0.74456000  0.75162000  0.25034000  1.0
  H  H4  1  0.71504000  0.98565000  0.55473000  1.0
  H  H5  1  0.26814000  0.91839000  0.50789000  1.0
  H  H6  1  0.31948000  0.40191000  0.01615000  1.0
  H  H7  1  0.73450000  0.58575000  0.99299000  1.0
  H  H8  1  0.33170000  0.03723000  0.53465000  1.0
  H  H9  1  0.75253000  0.01491000  0.43854000  1.0
  H  H10  1  0.67301000  0.53484000  0.91804000  1.0
  H  H11  1  0.24558000  0.48135000  0.06841000  1.0
  H  H12  1  0.27287000  0.00138000  0.07173000  1.0
  H  H13  1  0.71415000  0.00228000  0.92749000  1.0
  H  H14  1  0.77893000  0.57898000  0.48950000  1.0
  H  H15  1  0.20642000  0.42400000  0.50952000  1.0
  H  H16  1  0.27829000  0.08089000  0.99356000  1.0
  H  H17  1  0.70902000  0.92264000  0.00560000  1.0
  H  H18  1  0.78031000  0.50098000  0.56887000  1.0
  H  H19  1  0.20468000  0.50207000  0.43020000  1.0
  H  H20  1  0.68879000  0.99518000  0.73882000  1.0
  H  H21  1  0.78163000  0.07854000  0.74278000  1.0
  H  H22  1  0.94011000  0.01193000  0.71826000  1.0
  H  H23  1  0.33126000  0.72988000  0.44207000  1.0
  H  H24  1  0.11264000  0.74310000  0.39981000  1.0
  H  H25  1  0.11466000  0.76409000  0.47658000  1.0
  H  H26  1  0.04560000  0.25709000  0.94550000  1.0
  H  H27  1  0.03587000  0.31599000  0.89055000  1.0
  H  H28  1  0.03475000  0.34391000  0.96588000  1.0
  H  H29  1  0.99490000  0.65509000  0.11565000  1.0
  H  H30  1  0.01933000  0.72263000  0.06948000  1.0
  H  H31  1  0.99926000  0.63944000  0.03843000  1.0
  H  H32  1  0.37265000  0.01395000  0.68838000  1.0
  H  H33  1  0.22100000  0.08010000  0.71747000  1.0
  H  H34  1  0.48209000  0.08892000  0.72040000  1.0
  H  H35  1  0.89566000  0.93011000  0.27386000  1.0
  H  H36  1  0.82378000  0.01250000  0.29716000  1.0
  H  H37  1  0.64455000  0.95510000  0.26317000  1.0
  H  H38  1  0.95194000  0.39630000  0.82781000  1.0
  H  H39  1  0.97735000  0.47712000  0.86472000  1.0
  H  H40  1  0.96002000  0.46897000  0.78719000  1.0
  H  H41  1  0.41894000  0.57378000  0.22765000  1.0
  H  H42  1  0.35483000  0.48940000  0.20624000  1.0
  H  H43  1  0.17713000  0.54248000  0.24268000  1.0
  H  H44  1  0.47848000  0.18027000  0.70855000  1.0
  H  H45  1  0.50047000  0.82905000  0.28509000  1.0
  H  H46  1  0.98234000  0.32808000  0.72378000  1.0
  H  H47  1  0.99257000  0.66961000  0.22396000  1.0
  C  C48  1  0.48987000  0.32854000  0.67289000  1.0
  C  C49  1  0.49476000  0.67175000  0.32362000  1.0
  C  C50  1  0.99570000  0.17546000  0.82652000  1.0
  C  C51  1  0.99015000  0.83116000  0.17510000  1.0
  C  C52  1  0.49824000  0.32987000  0.82967000  1.0
  C  C53  1  0.48814000  0.67361000  0.16741000  1.0
  C  C54  1  0.98650000  0.15681000  0.67640000  1.0
  C  C55  1  0.00028000  0.83106000  0.33214000  1.0
  C  C56  1  0.84039000  0.01874000  0.56622000  1.0
  C  C57  1  0.15648000  0.92387000  0.47385000  1.0
  C  C58  1  0.39580000  0.41461000  0.97713000  1.0
  C  C59  1  0.62580000  0.57989000  0.02670000  1.0
  C  C60  1  0.84605000  0.05257000  0.62057000  1.0
  C  C61  1  0.14957000  0.87691000  0.42729000  1.0
  C  C62  1  0.39683000  0.36748000  0.93062000  1.0
  C  C63  1  0.62163000  0.62811000  0.07235000  1.0
  C  C64  1  0.00414000  0.09716000  0.63665000  1.0
  C  C65  1  0.00420000  0.88033000  0.38261000  1.0
  C  C66  1  0.50252000  0.37926000  0.88027000  1.0
  C  C67  1  0.48576000  0.62316000  0.11774000  1.0
  C  C68  1  0.18710000  0.08220000  0.60881000  1.0
  C  C69  1  0.86235000  0.93154000  0.38790000  1.0
  C  C70  1  0.60511000  0.43984000  0.87763000  1.0
  C  C71  1  0.35267000  0.56852000  0.11485000  1.0
  C  C72  1  0.18988000  0.04657000  0.55559000  1.0
  C  C73  1  0.86562000  0.97671000  0.43592000  1.0
  C  C74  1  0.59949000  0.48750000  0.92364000  1.0
  C  C75  1  0.35486000  0.52147000  0.06847000  1.0
  C  C76  1  0.01181000  0.01762000  0.53243000  1.0
  C  C77  1  0.01335000  0.97347000  0.47914000  1.0
  C  C78  1  0.49559000  0.47567000  0.97432000  1.0
  C  C79  1  0.49207000  0.52604000  0.02356000  1.0
  C  C80  1  0.15441000  0.04608000  0.99643000  1.0
  C  C81  1  0.83285000  0.95746000  0.00268000  1.0
  C  C82  1  0.65500000  0.50151000  0.53836000  1.0
  C  C83  1  0.32989000  0.50162000  0.46077000  1.0
  C  C84  1  0.99659000  0.04675000  0.95537000  1.0
  C  C85  1  0.99041000  0.95690000  0.04385000  1.0
  C  C86  1  0.49340000  0.45740000  0.54433000  1.0
  C  C87  1  0.49181000  0.54559000  0.45464000  1.0
  C  C88  1  0.83588000  0.00172000  0.95919000  1.0
  C  C89  1  0.15134000  0.00184000  0.03995000  1.0
  C  C90  1  0.33071000  0.45820000  0.50491000  1.0
  C  C91  1  0.65422000  0.54493000  0.49421000  1.0
  C  C92  1  0.99867000  0.09185000  0.91094000  1.0
  C  C93  1  0.98735000  0.91240000  0.08874000  1.0
  C  C94  1  0.49382000  0.41277000  0.58906000  1.0
  C  C95  1  0.49182000  0.58943000  0.40923000  1.0
  C  C96  1  0.98667000  0.87476000  0.12792000  1.0
  C  C97  1  0.99862000  0.13058000  0.87258000  1.0
  C  C98  1  0.49248000  0.62714000  0.37008000  1.0
  C  C99  1  0.49227000  0.37403000  0.62735000  1.0
  C  C100  1  0.78688000  0.03030000  0.71850000  1.0
  C  C101  1  0.20405000  0.76252000  0.43702000  1.0
  C  C102  1  0.09290000  0.30655000  0.93412000  1.0
  C  C103  1  0.95028000  0.67396000  0.07384000  1.0
  C  C104  1  0.35756000  0.06790000  0.69456000  1.0
  C  C105  1  0.77467000  0.96029000  0.29238000  1.0
  C  C106  1  0.90928000  0.44854000  0.82728000  1.0
  C  C107  1  0.29786000  0.54026000  0.21141000  1.0
  O  O108  1  0.32714000  0.31418000  0.80842000  1.0
  O  O109  1  0.65748000  0.69035000  0.18944000  1.0
  O  O110  1  0.81287000  0.17708000  0.69101000  1.0
  O  O111  1  0.16682000  0.81403000  0.31070000  1.0
  O  O112  1  0.65960000  0.30961000  0.69082000  1.0
  O  O113  1  0.32530000  0.68885000  0.30433000  1.0
  O  O114  1  0.16335000  0.19507000  0.80903000  1.0
  O  O115  1  0.82196000  0.81402000  0.19424000  1.0
  O  O116  1  0.66363000  0.30836000  0.81131000  1.0
  O  O117  1  0.32159000  0.69530000  0.18521000  1.0
  O  O118  1  0.14794000  0.18757000  0.69126000  1.0
  O  O119  1  0.83090000  0.80957000  0.31360000  1.0
  O  O120  1  0.82431000  0.19030000  0.80706000  1.0
  O  O121  1  0.16218000  0.81526000  0.19320000  1.0
  O  O122  1  0.31857000  0.31219000  0.69066000  1.0
  O  O123  1  0.66599000  0.68848000  0.30646000  1.0
  O  O124  1  0.48590000  0.21028000  0.74309000  1.0
  O  O125  1  0.49696000  0.79279000  0.25549000  1.0
  O  O126  1  0.98694000  0.29083000  0.74834000  1.0
  O  O127  1  0.99453000  0.71203000  0.24585000  1.0
  O  O128  1  0.71275000  0.03345000  0.65988000  1.0
  O  O129  1  0.28654000  0.82700000  0.42844000  1.0
  O  O130  1  0.30715000  0.30647000  0.93497000  1.0
  O  O131  1  0.73862000  0.68401000  0.07160000  1.0
  O  O132  1  0.36231000  0.09612000  0.63822000  1.0
  O  O133  1  0.71277000  0.93815000  0.34719000  1.0
  O  O134  1  0.69571000  0.45455000  0.82680000  1.0
  O  O135  1  0.21457000  0.55992000  0.15749000  1.0
