# generated using pymatgen
data_ZnH2C6SO4
_symmetry_space_group_name_H-M   'P 1'
_cell_length_a   19.65680000
_cell_length_b   19.70610000
_cell_length_c   33.34760000
_cell_angle_alpha   79.08440000
_cell_angle_beta   79.22770000
_cell_angle_gamma   63.97700000
_symmetry_Int_Tables_number   1
_chemical_formula_structural   ZnH2C6SO4
_chemical_formula_sum   'Zn16 H32 C96 S16 O64'
_cell_volume   11318.68514276
_cell_formula_units_Z   16
loop_
 _symmetry_equiv_pos_site_id
 _symmetry_equiv_pos_as_xyz
  1  'x, y, z'
loop_
 _atom_site_type_symbol
 _atom_site_label
 _atom_site_symmetry_multiplicity
 _atom_site_fract_x
 _atom_site_fract_y
 _atom_site_fract_z
 _atom_site_occupancy
  Zn  Zn0  1  0.05716000  0.39992000  0.47878000  1.0
  Zn  Zn1  1  0.98386000  0.48273000  0.56070000  1.0
  Zn  Zn2  1  0.05822000  0.56094000  0.48209000  1.0
  Zn  Zn3  1  0.90076000  0.55540000  0.48006000  1.0
  Zn  Zn4  1  0.69493000  0.35035000  0.27138000  1.0
  Zn  Zn5  1  0.68976000  0.19054000  0.26707000  1.0
  Zn  Zn6  1  0.76970000  0.26648000  0.19066000  1.0
  Zn  Zn7  1  0.84896000  0.19554000  0.27296000  1.0
  Zn  Zn8  1  0.26637000  0.76637000  0.68929000  1.0
  Zn  Zn9  1  0.34856000  0.69491000  0.77159000  1.0
  Zn  Zn10  1  0.19257000  0.84666000  0.77133000  1.0
  Zn  Zn11  1  0.19071000  0.68703000  0.76654000  1.0
  Zn  Zn12  1  0.56067000  0.06009000  0.98349000  1.0
  Zn  Zn13  1  0.40107000  0.05486000  0.97799000  1.0
  Zn  Zn14  1  0.55401000  0.90188000  0.97791000  1.0
  Zn  Zn15  1  0.48425000  0.98360000  0.06039000  1.0
  H  H16  1  0.95363000  0.24906000  0.35137000  1.0
  H  H17  1  0.74676000  0.45579000  0.35116000  1.0
  H  H18  1  0.00103000  0.29781000  0.39950000  1.0
  H  H19  1  0.09769000  0.59741000  0.70003000  1.0
  H  H20  1  0.20142000  0.70125000  0.59662000  1.0
  H  H21  1  0.04997000  0.55021000  0.65118000  1.0
  H  H22  1  0.46255000  0.24073000  0.34124000  1.0
  H  H23  1  0.47962000  0.70249000  0.60125000  1.0
  H  H24  1  0.20243000  0.97960000  0.60169000  1.0
  H  H25  1  0.94874000  0.96959000  0.34826000  1.0
  H  H26  1  0.54986000  0.04998000  0.15273000  1.0
  H  H27  1  0.65327000  0.15342000  0.04896000  1.0
  H  H28  1  0.59860000  0.09848000  0.20029000  1.0
  H  H29  1  0.54794000  0.76965000  0.14849000  1.0
  H  H30  1  0.16265000  0.14126000  0.04072000  1.0
  H  H31  1  0.50119000  0.79612000  0.89881000  1.0
  H  H32  1  0.29459000  0.00316000  0.89878000  1.0
  H  H33  1  0.45171000  0.74958000  0.85062000  1.0
  H  H34  1  0.30098000  0.28022000  0.90193000  1.0
  H  H35  1  0.78747000  0.00907000  0.90884000  1.0
  H  H36  1  0.81049000  0.52726000  0.41898000  1.0
  H  H37  1  0.13571000  0.63598000  0.52654000  1.0
  H  H38  1  0.72334000  0.22314000  0.11455000  1.0
  H  H39  1  0.22199000  0.93996000  0.83114000  1.0
  H  H40  1  0.32578000  0.54264000  0.39854000  1.0
  H  H41  1  0.75650000  0.53973000  0.68446000  1.0
  H  H42  1  0.04026000  0.25621000  0.68420000  1.0
  H  H43  1  0.74293000  0.81525000  0.38797000  1.0
  H  H44  1  0.71025000  0.49315000  0.06555000  1.0
  H  H45  1  0.14858000  0.07574000  0.22083000  1.0
  H  H46  1  0.50689000  0.43405000  0.86216000  1.0
  H  H47  1  0.92414000  0.70693000  0.85182000  1.0
  C  C48  1  0.06165000  0.31596000  0.56226000  1.0
  C  C49  1  0.06945000  0.57023000  0.56940000  1.0
  C  C50  1  0.18409000  0.44059000  0.43863000  1.0
  C  C51  1  0.93603000  0.68439000  0.43872000  1.0
  C  C52  1  0.93087000  0.42995000  0.43085000  1.0
  C  C53  1  0.81637000  0.56082000  0.56257000  1.0
  C  C54  1  0.56585000  0.31136000  0.31121000  1.0
  C  C55  1  0.68088000  0.18009000  0.18070000  1.0
  C  C56  1  0.68946000  0.43329000  0.18756000  1.0
  C  C57  1  0.93574000  0.18715000  0.18986000  1.0
  C  C58  1  0.81847000  0.32105000  0.31992000  1.0
  C  C59  1  0.81134000  0.06628000  0.31167000  1.0
  C  C60  1  0.43354000  0.68964000  0.68828000  1.0
  C  C61  1  0.31906000  0.82001000  0.81935000  1.0
  C  C62  1  0.18889000  0.93342000  0.68862000  1.0
  C  C63  1  0.06563000  0.80901000  0.81130000  1.0
  C  C64  1  0.18128000  0.68029000  0.67976000  1.0
  C  C65  1  0.31371000  0.56535000  0.81139000  1.0
  C  C66  1  0.43831000  0.18375000  0.93868000  1.0
  C  C67  1  0.42953000  0.93106000  0.93024000  1.0
  C  C68  1  0.68374000  0.93891000  0.93861000  1.0
  C  C69  1  0.56122000  0.81643000  0.06142000  1.0
  C  C70  1  0.57021000  0.07006000  0.06933000  1.0
  C  C71  1  0.31625000  0.06151000  0.06122000  1.0
  C  C72  1  0.90119000  0.40331000  0.40233000  1.0
  C  C73  1  0.84737000  0.34967000  0.34853000  1.0
  C  C74  1  0.82848000  0.44865000  0.38851000  1.0
  C  C75  1  0.91951000  0.30448000  0.36203000  1.0
  C  C76  1  0.80248000  0.42088000  0.36160000  1.0
  C  C77  1  0.94548000  0.33154000  0.38858000  1.0
  C  C78  1  0.09864000  0.59896000  0.59703000  1.0
  C  C79  1  0.15233000  0.65200000  0.65104000  1.0
  C  C80  1  0.14197000  0.64204000  0.58126000  1.0
  C  C81  1  0.10946000  0.60931000  0.66689000  1.0
  C  C82  1  0.16832000  0.66821000  0.60877000  1.0
  C  C83  1  0.08324000  0.58340000  0.63991000  1.0
  C  C84  1  0.30446000  0.45597000  0.40104000  1.0
  C  C85  1  0.44582000  0.29746000  0.34906000  1.0
  C  C86  1  0.25852000  0.41644000  0.41394000  1.0
  C  C87  1  0.49114000  0.33678000  0.33629000  1.0
  C  C88  1  0.37777000  0.34061000  0.37266000  1.0
  C  C89  1  0.37274000  0.41223000  0.37738000  1.0
  C  C90  1  0.72644000  0.57555000  0.63037000  1.0
  C  C91  1  0.52429000  0.67360000  0.62136000  1.0
  C  C92  1  0.74241000  0.58522000  0.58761000  1.0
  C  C93  1  0.50861000  0.66405000  0.66371000  1.0
  C  C94  1  0.60357000  0.64142000  0.60906000  1.0
  C  C95  1  0.64671000  0.60790000  0.64251000  1.0
  C  C96  1  0.07584000  0.22604000  0.63019000  1.0
  C  C97  1  0.17363000  0.02420000  0.62169000  1.0
  C  C98  1  0.08566000  0.24198000  0.58740000  1.0
  C  C99  1  0.16387000  0.00853000  0.66405000  1.0
  C  C100  1  0.14166000  0.10333000  0.60922000  1.0
  C  C101  1  0.10808000  0.14644000  0.64253000  1.0
  C  C102  1  0.84189000  0.80068000  0.39714000  1.0
  C  C103  1  0.90420000  0.94941000  0.35264000  1.0
  C  C104  1  0.91084000  0.75842000  0.41370000  1.0
  C  C105  1  0.83578000  0.99123000  0.33637000  1.0
  C  C106  1  0.90676000  0.87988000  0.37475000  1.0
  C  C107  1  0.83987000  0.87026000  0.37482000  1.0
  C  C108  1  0.65289000  0.15271000  0.15170000  1.0
  C  C109  1  0.59878000  0.09891000  0.09804000  1.0
  C  C110  1  0.66849000  0.16859000  0.10842000  1.0
  C  C111  1  0.58297000  0.08308000  0.14088000  1.0
  C  C112  1  0.64101000  0.14119000  0.08205000  1.0
  C  C113  1  0.60995000  0.10993000  0.16704000  1.0
  C  C114  1  0.67454000  0.52341000  0.11957000  1.0
  C  C115  1  0.57674000  0.72523000  0.12838000  1.0
  C  C116  1  0.66478000  0.50723000  0.16235000  1.0
  C  C117  1  0.58638000  0.74124000  0.08603000  1.0
  C  C118  1  0.60869000  0.64601000  0.14071000  1.0
  C  C119  1  0.64224000  0.60308000  0.10733000  1.0
  C  C120  1  0.08251000  0.12315000  0.17869000  1.0
  C  C121  1  0.17041000  0.12467000  0.07312000  1.0
  C  C122  1  0.01035000  0.16215000  0.16535000  1.0
  C  C123  1  0.24176000  0.08603000  0.08649000  1.0
  C  C124  1  0.11217000  0.13834000  0.10658000  1.0
  C  C125  1  0.14064000  0.10966000  0.14490000  1.0
  C  C126  1  0.34624000  0.84952000  0.84769000  1.0
  C  C127  1  0.40069000  0.90248000  0.90154000  1.0
  C  C128  1  0.30117000  0.92201000  0.86144000  1.0
  C  C129  1  0.44564000  0.83052000  0.88810000  1.0
  C  C130  1  0.32932000  0.94762000  0.88835000  1.0
  C  C131  1  0.41821000  0.80499000  0.86151000  1.0
  C  C132  1  0.40795000  0.44893000  0.85289000  1.0
  C  C133  1  0.34555000  0.30037000  0.89752000  1.0
  C  C134  1  0.33900000  0.49118000  0.83632000  1.0
  C  C135  1  0.41395000  0.25860000  0.91382000  1.0
  C  C136  1  0.34309000  0.36975000  0.87529000  1.0
  C  C137  1  0.41000000  0.37934000  0.87518000  1.0
  C  C138  1  0.94529000  0.79373000  0.84905000  1.0
  C  C139  1  0.80410000  0.95238000  0.90101000  1.0
  C  C140  1  0.99130000  0.83316000  0.83611000  1.0
  C  C141  1  0.75861000  0.91323000  0.91371000  1.0
  C  C142  1  0.87215000  0.90908000  0.87745000  1.0
  C  C143  1  0.87707000  0.83751000  0.87274000  1.0
  S  S144  1  0.29888000  0.32664000  0.39723000  1.0
  S  S145  1  0.45159000  0.42647000  0.35281000  1.0
  S  S146  1  0.66052000  0.63333000  0.56266000  1.0
  S  S147  1  0.58984000  0.61586000  0.68902000  1.0
  S  S148  1  0.13379000  0.16017000  0.56271000  1.0
  S  S149  1  0.11576000  0.08966000  0.68915000  1.0
  S  S150  1  0.97237000  0.80366000  0.40196000  1.0
  S  S151  1  0.77395000  0.94658000  0.34770000  1.0
  S  S152  1  0.61653000  0.58894000  0.18715000  1.0
  S  S153  1  0.63439000  0.66022000  0.06080000  1.0
  S  S154  1  0.01403000  0.18194000  0.11188000  1.0
  S  S155  1  0.23886000  0.06589000  0.13979000  1.0
  S  S156  1  0.27750000  0.44593000  0.84805000  1.0
  S  S157  1  0.47591000  0.30308000  0.90234000  1.0
  S  S158  1  0.95108000  0.92293000  0.85287000  1.0
  S  S159  1  0.79806000  0.82350000  0.89725000  1.0
  O  O160  1  0.00048000  0.49890000  0.50025000  1.0
  O  O161  1  0.07828000  0.31482000  0.52317000  1.0
  O  O162  1  0.03156000  0.53161000  0.58531000  1.0
  O  O163  1  0.15539000  0.50687000  0.45009000  1.0
  O  O164  1  0.02665000  0.37474000  0.58117000  1.0
  O  O165  1  0.15416000  0.39247000  0.44656000  1.0
  O  O166  1  0.08464000  0.58668000  0.53017000  1.0
  O  O167  1  0.00280000  0.65833000  0.45016000  1.0
  O  O168  1  0.88699000  0.49616000  0.44277000  1.0
  O  O169  1  0.89035000  0.65207000  0.44714000  1.0
  O  O170  1  0.99641000  0.38749000  0.44201000  1.0
  O  O171  1  0.87560000  0.52643000  0.58135000  1.0
  O  O172  1  0.81474000  0.57660000  0.52344000  1.0
  O  O173  1  0.75011000  0.25044000  0.25070000  1.0
  O  O174  1  0.59673000  0.35837000  0.30289000  1.0
  O  O175  1  0.66470000  0.16469000  0.21908000  1.0
  O  O176  1  0.72545000  0.37415000  0.16890000  1.0
  O  O177  1  0.59282000  0.24494000  0.30008000  1.0
  O  O178  1  0.67252000  0.43473000  0.22660000  1.0
  O  O179  1  0.72072000  0.21857000  0.16484000  1.0
  O  O180  1  0.87787000  0.22212000  0.16948000  1.0
  O  O181  1  0.86173000  0.25491000  0.30947000  1.0
  O  O182  1  0.93412000  0.17246000  0.22889000  1.0
  O  O183  1  0.75315000  0.36472000  0.30825000  1.0
  O  O184  1  0.74488000  0.09360000  0.29998000  1.0
  O  O185  1  0.85822000  0.09706000  0.30422000  1.0
  O  O186  1  0.24989000  0.74907000  0.74963000  1.0
  O  O187  1  0.37550000  0.72505000  0.66856000  1.0
  O  O188  1  0.36217000  0.75519000  0.80780000  1.0
  O  O189  1  0.17233000  0.93313000  0.72767000  1.0
  O  O190  1  0.43375000  0.67388000  0.72731000  1.0
  O  O191  1  0.22457000  0.87569000  0.66893000  1.0
  O  O192  1  0.25195000  0.86294000  0.80799000  1.0
  O  O193  1  0.09537000  0.85742000  0.80362000  1.0
  O  O194  1  0.16598000  0.66301000  0.71819000  1.0
  O  O195  1  0.09452000  0.74313000  0.79949000  1.0
  O  O196  1  0.21904000  0.71943000  0.66351000  1.0
  O  O197  1  0.35956000  0.59750000  0.80329000  1.0
  O  O198  1  0.24709000  0.59145000  0.79988000  1.0
  O  O199  1  0.49991000  0.00019000  0.99997000  1.0
  O  O200  1  0.50512000  0.15605000  0.94987000  1.0
  O  O201  1  0.38623000  0.99663000  0.94141000  1.0
  O  O202  1  0.65266000  0.89201000  0.94671000  1.0
  O  O203  1  0.39090000  0.15348000  0.94675000  1.0
  O  O204  1  0.65679000  0.00521000  0.94979000  1.0
  O  O205  1  0.49537000  0.88745000  0.94132000  1.0
  O  O206  1  0.57703000  0.81653000  0.02238000  1.0
  O  O207  1  0.53186000  0.03155000  0.08566000  1.0
  O  O208  1  0.52615000  0.87432000  0.08108000  1.0
  O  O209  1  0.58641000  0.08610000  0.03082000  1.0
  O  O210  1  0.31561000  0.07798000  0.02234000  1.0
  O  O211  1  0.37483000  0.02581000  0.08074000  1.0
  O  O212  1  0.78242000  0.51798000  0.40000000  1.0
  O  O213  1  0.15939000  0.65923000  0.54070000  1.0
  O  O214  1  0.70886000  0.20923000  0.09109000  1.0
  O  O215  1  0.23173000  0.96817000  0.84978000  1.0
  O  O216  1  0.28507000  0.52673000  0.41033000  1.0
  O  O217  1  0.78095000  0.53977000  0.65621000  1.0
  O  O218  1  0.04006000  0.28048000  0.65588000  1.0
  O  O219  1  0.78528000  0.77703000  0.40224000  1.0
  O  O220  1  0.71038000  0.46898000  0.09388000  1.0
  O  O221  1  0.09399000  0.10160000  0.21887000  1.0
  O  O222  1  0.46466000  0.47249000  0.84787000  1.0
  O  O223  1  0.96467000  0.72297000  0.83975000  1.0
