# generated using pymatgen
data_Mn3H20C22S3O17
_symmetry_space_group_name_H-M   'P 1'
_cell_length_a   12.66780000
_cell_length_b   17.27020000
_cell_length_c   17.46910000
_cell_angle_alpha   89.99990000
_cell_angle_beta   94.39590000
_cell_angle_gamma   89.99980000
_symmetry_Int_Tables_number   1
_chemical_formula_structural   Mn3H20C22S3O17
_chemical_formula_sum   'Mn12 H80 C88 S12 O68'
_cell_volume   3810.56718168
_cell_formula_units_Z   4
loop_
 _symmetry_equiv_pos_site_id
 _symmetry_equiv_pos_as_xyz
  1  'x, y, z'
loop_
 _atom_site_type_symbol
 _atom_site_label
 _atom_site_symmetry_multiplicity
 _atom_site_fract_x
 _atom_site_fract_y
 _atom_site_fract_z
 _atom_site_occupancy
  Mn  Mn0  1  0.49272000  0.32264000  0.76641000  1.0
  Mn  Mn1  1  0.00727000  0.82264000  0.73359000  1.0
  Mn  Mn2  1  0.50728000  0.67736000  0.23359000  1.0
  Mn  Mn3  1  0.99272000  0.17736000  0.26641000  1.0
  Mn  Mn4  1  0.62417000  0.31655000  0.56503000  1.0
  Mn  Mn5  1  0.87583000  0.81655000  0.93497000  1.0
  Mn  Mn6  1  0.37583000  0.68345000  0.43497000  1.0
  Mn  Mn7  1  0.12417000  0.18345000  0.06503000  1.0
  Mn  Mn8  1  0.34448000  0.34766000  0.92521000  1.0
  Mn  Mn9  1  0.15551000  0.84767000  0.57479000  1.0
  Mn  Mn10  1  0.65551000  0.65233000  0.07479000  1.0
  Mn  Mn11  1  0.84448000  0.15233000  0.42521000  1.0
  H  H12  1  0.65269000  0.25118000  0.41147000  1.0
  H  H13  1  0.84732000  0.75118000  0.08853000  1.0
  H  H14  1  0.34732000  0.74882000  0.58853000  1.0
  H  H15  1  0.15268000  0.24882000  0.91147000  1.0
  H  H16  1  0.53699000  0.23385000  0.44273000  1.0
  H  H17  1  0.96301000  0.73385000  0.05727000  1.0
  H  H18  1  0.46301000  0.76615000  0.55727000  1.0
  H  H19  1  0.03700000  0.26615000  0.94273000  1.0
  H  H20  1  0.84891000  0.31051000  0.50794000  1.0
  H  H21  1  0.65109000  0.81051000  0.99206000  1.0
  H  H22  1  0.15109000  0.68949000  0.49205000  1.0
  H  H23  1  0.34891000  0.18949000  0.00794000  1.0
  H  H24  1  0.82181000  0.36108000  0.57971000  1.0
  H  H25  1  0.67819000  0.86108000  0.92029000  1.0
  H  H26  1  0.17820000  0.63892000  0.42029000  1.0
  H  H27  1  0.32181000  0.13892000  0.07971000  1.0
  H  H28  1  0.20233000  0.41587000  0.99918000  1.0
  H  H29  1  0.29767000  0.91587000  0.50081000  1.0
  H  H30  1  0.79767000  0.58413000  0.00082000  1.0
  H  H31  1  0.70233000  0.08413000  0.49918000  1.0
  H  H32  1  0.22688000  0.34630000  0.06042000  1.0
  H  H33  1  0.27311000  0.84630000  0.43957000  1.0
  H  H34  1  0.77312000  0.65369000  0.93958000  1.0
  H  H35  1  0.72689000  0.15369000  0.56043000  1.0
  H  H36  1  0.83656000  0.49847000  0.62565000  1.0
  H  H37  1  0.66344000  0.99847000  0.87435000  1.0
  H  H38  1  0.16344000  0.50153000  0.37434000  1.0
  H  H39  1  0.33656000  0.00153000  0.12566000  1.0
  H  H40  1  0.92279000  0.63026000  0.67894000  1.0
  H  H41  1  0.57721000  0.13026000  0.82107000  1.0
  H  H42  1  0.07720000  0.36974000  0.32105000  1.0
  H  H43  1  0.42279000  0.86974000  0.17894000  1.0
  H  H44  1  0.20528000  0.33908000  0.67548000  1.0
  H  H45  1  0.29473000  0.83908000  0.82451000  1.0
  H  H46  1  0.79473000  0.66091000  0.32451000  1.0
  H  H47  1  0.70528000  0.16092000  0.17549000  1.0
  H  H48  1  0.02281000  0.30130000  0.59796000  1.0
  H  H49  1  0.47719000  0.80129000  0.90204000  1.0
  H  H50  1  0.97719000  0.69871000  0.40204000  1.0
  H  H51  1  0.52281000  0.19871000  0.09796000  1.0
  H  H52  1  0.42583000  0.49504000  0.69435000  1.0
  H  H53  1  0.07417000  0.99504000  0.80564000  1.0
  H  H54  1  0.57417000  0.50496000  0.30565000  1.0
  H  H55  1  0.92583000  0.00496000  0.19435000  1.0
  H  H56  1  0.37779000  0.62977000  0.62500000  1.0
  H  H57  1  0.12221000  0.12977000  0.87500000  1.0
  H  H58  1  0.62221000  0.37023000  0.37500000  1.0
  H  H59  1  0.87779000  0.87023000  0.12500000  1.0
  H  H60  1  0.42770000  0.38044000  0.44800000  1.0
  H  H61  1  0.07230000  0.88043000  0.05200000  1.0
  H  H62  1  0.57230000  0.61956000  0.55200000  1.0
  H  H63  1  0.92770000  0.11956000  0.94800000  1.0
  H  H64  1  0.47314000  0.46167000  0.39552000  1.0
  H  H65  1  0.02685000  0.96167000  0.10448000  1.0
  H  H66  1  0.52685000  0.53833000  0.60448000  1.0
  H  H67  1  0.97315000  0.03833000  0.89552000  1.0
  H  H68  1  0.62728000  0.53041000  0.44969000  1.0
  H  H69  1  0.87272000  0.03041000  0.05032000  1.0
  H  H70  1  0.37272000  0.46959000  0.55032000  1.0
  H  H71  1  0.12728000  0.96959000  0.94968000  1.0
  H  H72  1  0.68581000  0.49828000  0.54103000  1.0
  H  H73  1  0.81419000  0.99828000  0.95897000  1.0
  H  H74  1  0.31419000  0.50172000  0.45897000  1.0
  H  H75  1  0.18581000  0.00171000  0.04103000  1.0
  H  H76  1  0.56634000  0.44245000  0.08719000  1.0
  H  H77  1  0.93366000  0.94245000  0.41281000  1.0
  H  H78  1  0.43366000  0.55756000  0.91281000  1.0
  H  H79  1  0.06634000  0.05756000  0.58719000  1.0
  H  H80  1  0.43345000  0.40669000  0.08680000  1.0
  H  H81  1  0.06654000  0.90669000  0.41319000  1.0
  H  H82  1  0.56654000  0.59331000  0.91319000  1.0
  H  H83  1  0.93346000  0.09331000  0.58681000  1.0
  H  H84  1  0.55660000  0.44966000  0.88091000  1.0
  H  H85  1  0.94340000  0.94966000  0.61909000  1.0
  H  H86  1  0.44340000  0.55034000  0.11908000  1.0
  H  H87  1  0.05660000  0.05034000  0.38092000  1.0
  H  H88  1  0.63664000  0.46875000  0.96795000  1.0
  H  H89  1  0.86336000  0.96875000  0.53205000  1.0
  H  H90  1  0.36336000  0.53125000  0.03205000  1.0
  H  H91  1  0.13664000  0.03125000  0.46795000  1.0
  C  C92  1  0.67292000  0.42954000  0.71001000  1.0
  C  C93  1  0.82708000  0.92954000  0.79000000  1.0
  C  C94  1  0.32709000  0.57045000  0.29000000  1.0
  C  C95  1  0.17292000  0.07046000  0.21001000  1.0
  C  C96  1  0.73767000  0.50073000  0.72215000  1.0
  C  C97  1  0.76233000  0.00073000  0.77785000  1.0
  C  C98  1  0.26234000  0.49927000  0.27785000  1.0
  C  C99  1  0.23767000  0.99927000  0.22215000  1.0
  C  C100  1  0.81495000  0.52844000  0.67696000  1.0
  C  C101  1  0.68505000  0.02844000  0.82304000  1.0
  C  C102  1  0.18505000  0.47156000  0.32303000  1.0
  C  C103  1  0.31495000  0.97156000  0.17697000  1.0
  C  C104  1  0.86094000  0.59806000  0.70490000  1.0
  C  C105  1  0.63906000  0.09806000  0.79511000  1.0
  C  C106  1  0.13906000  0.40195000  0.29510000  1.0
  C  C107  1  0.36093000  0.90194000  0.20490000  1.0
  C  C108  1  0.81888000  0.62323000  0.77167000  1.0
  C  C109  1  0.68112000  0.12323000  0.72834000  1.0
  C  C110  1  0.18112000  0.37678000  0.22833000  1.0
  C  C111  1  0.31887000  0.87677000  0.27167000  1.0
  C  C112  1  0.85241000  0.69429000  0.81401000  1.0
  C  C113  1  0.64759000  0.19429000  0.68599000  1.0
  C  C114  1  0.14758000  0.30571000  0.18599000  1.0
  C  C115  1  0.35241000  0.80571000  0.31401000  1.0
  C  C116  1  0.39588000  0.31554000  0.59912000  1.0
  C  C117  1  0.10413000  0.81554000  0.90088000  1.0
  C  C118  1  0.60413000  0.68446000  0.40088000  1.0
  C  C119  1  0.89587000  0.18446000  0.09912000  1.0
  C  C120  1  0.28342000  0.30164000  0.57549000  1.0
  C  C121  1  0.21658000  0.80164000  0.92451000  1.0
  C  C122  1  0.71658000  0.69836000  0.42451000  1.0
  C  C123  1  0.78342000  0.19836000  0.07549000  1.0
  C  C124  1  0.19673000  0.31608000  0.61735000  1.0
  C  C125  1  0.30328000  0.81608000  0.88265000  1.0
  C  C126  1  0.80328000  0.68392000  0.38265000  1.0
  C  C127  1  0.69672000  0.18392000  0.11735000  1.0
  C  C128  1  0.10062000  0.29673000  0.57601000  1.0
  C  C129  1  0.39939000  0.79672000  0.92398000  1.0
  C  C130  1  0.89939000  0.70328000  0.42398000  1.0
  C  C131  1  0.60062000  0.20328000  0.07601000  1.0
  C  C132  1  0.11485000  0.26899000  0.50280000  1.0
  C  C133  1  0.38516000  0.76899000  0.99721000  1.0
  C  C134  1  0.88516000  0.73101000  0.49720000  1.0
  C  C135  1  0.61485000  0.23101000  0.00279000  1.0
  C  C136  1  0.03325000  0.24146000  0.44483000  1.0
  C  C137  1  0.46675000  0.74146000  0.05518000  1.0
  C  C138  1  0.96675000  0.75854000  0.55517000  1.0
  C  C139  1  0.53325000  0.25854000  0.94482000  1.0
  C  C140  1  0.31307000  0.45726000  0.82551000  1.0
  C  C141  1  0.18694000  0.95726000  0.67449000  1.0
  C  C142  1  0.68693000  0.54274000  0.17449000  1.0
  C  C143  1  0.81306000  0.04274000  0.32551000  1.0
  C  C144  1  0.30542000  0.52201000  0.77174000  1.0
  C  C145  1  0.19458000  0.02201000  0.72826000  1.0
  C  C146  1  0.69458000  0.47799000  0.22826000  1.0
  C  C147  1  0.80542000  0.97799000  0.27174000  1.0
  C  C148  1  0.36670000  0.53623000  0.71077000  1.0
  C  C149  1  0.13330000  0.03623000  0.78923000  1.0
  C  C150  1  0.63330000  0.46377000  0.28923000  1.0
  C  C151  1  0.86670000  0.96377000  0.21077000  1.0
  C  C152  1  0.34132000  0.60748000  0.67480000  1.0
  C  C153  1  0.15867000  0.10748000  0.82520000  1.0
  C  C154  1  0.65868000  0.39252000  0.32520000  1.0
  C  C155  1  0.84132000  0.89252000  0.17480000  1.0
  C  C156  1  0.26149000  0.64640000  0.70927000  1.0
  C  C157  1  0.23851000  0.14640000  0.79073000  1.0
  C  C158  1  0.73850000  0.35360000  0.29073000  1.0
  C  C159  1  0.76149000  0.85360000  0.20927000  1.0
  C  C160  1  0.21140000  0.72176000  0.69023000  1.0
  C  C161  1  0.28860000  0.22176000  0.80976000  1.0
  C  C162  1  0.78860000  0.27824000  0.30977000  1.0
  C  C163  1  0.71140000  0.77824000  0.19024000  1.0
  C  C164  1  0.46095000  0.43894000  0.45318000  1.0
  C  C165  1  0.03905000  0.93894000  0.04682000  1.0
  C  C166  1  0.53905000  0.56106000  0.54682000  1.0
  C  C167  1  0.96095000  0.06106000  0.95318000  1.0
  C  C168  1  0.61105000  0.50722000  0.50639000  1.0
  C  C169  1  0.88895000  0.00722000  0.99361000  1.0
  C  C170  1  0.38894000  0.49278000  0.49361000  1.0
  C  C171  1  0.11105000  0.99278000  0.00639000  1.0
  C  C172  1  0.48572000  0.44641000  0.05880000  1.0
  C  C173  1  0.01428000  0.94641000  0.44119000  1.0
  C  C174  1  0.51427000  0.55360000  0.94119000  1.0
  C  C175  1  0.98573000  0.05359000  0.55881000  1.0
  C  C176  1  0.55583000  0.47149000  0.93959000  1.0
  C  C177  1  0.94417000  0.97148000  0.56040000  1.0
  C  C178  1  0.44416000  0.52852000  0.06040000  1.0
  C  C179  1  0.05583000  0.02852000  0.43960000  1.0
  S  S180  1  0.72267000  0.56065000  0.79922000  1.0
  S  S181  1  0.77733000  0.06066000  0.70079000  1.0
  S  S182  1  0.27733000  0.43935000  0.20078000  1.0
  S  S183  1  0.22266000  0.93935000  0.29922000  1.0
  S  S184  1  0.24664000  0.26471000  0.48591000  1.0
  S  S185  1  0.25336000  0.76471000  0.01409000  1.0
  S  S186  1  0.75336000  0.73529000  0.51409000  1.0
  S  S187  1  0.74664000  0.23529000  0.98591000  1.0
  S  S188  1  0.21664000  0.59524000  0.78477000  1.0
  S  S189  1  0.28336000  0.09524000  0.71524000  1.0
  S  S190  1  0.78336000  0.40476000  0.21523000  1.0
  S  S191  1  0.71663000  0.90476000  0.28476000  1.0
  O  O192  1  0.60772000  0.41329000  0.75929000  1.0
  O  O193  1  0.89228000  0.91329000  0.74071000  1.0
  O  O194  1  0.39228000  0.58671000  0.24071000  1.0
  O  O195  1  0.10772000  0.08671000  0.25929000  1.0
  O  O196  1  0.60257000  0.26247000  0.45230000  1.0
  O  O197  1  0.89744000  0.76247000  0.04770000  1.0
  O  O198  1  0.39744000  0.73754000  0.54770000  1.0
  O  O199  1  0.10256000  0.23753000  0.95230000  1.0
  O  O200  1  0.68945000  0.39070000  0.64975000  1.0
  O  O201  1  0.81055000  0.89069000  0.85025000  1.0
  O  O202  1  0.31056000  0.60930000  0.35025000  1.0
  O  O203  1  0.18945000  0.10931000  0.14975000  1.0
  O  O204  1  0.79356000  0.34289000  0.52945000  1.0
  O  O205  1  0.70644000  0.84289000  0.97055000  1.0
  O  O206  1  0.20644000  0.65710000  0.47055000  1.0
  O  O207  1  0.29356000  0.15711000  0.02945000  1.0
  O  O208  1  0.81398000  0.70983000  0.87891000  1.0
  O  O209  1  0.68603000  0.20983000  0.62110000  1.0
  O  O210  1  0.18602000  0.29016000  0.12109000  1.0
  O  O211  1  0.31397000  0.79016000  0.37891000  1.0
  O  O212  1  0.25625000  0.37944000  0.01887000  1.0
  O  O213  1  0.24374000  0.87944000  0.48113000  1.0
  O  O214  1  0.74375000  0.62056000  0.98113000  1.0
  O  O215  1  0.75625000  0.12056000  0.51887000  1.0
  O  O216  1  0.91852000  0.73719000  0.78480000  1.0
  O  O217  1  0.58148000  0.23719000  0.71520000  1.0
  O  O218  1  0.08147000  0.26282000  0.21519000  1.0
  O  O219  1  0.41852000  0.76281000  0.28481000  1.0
  O  O220  1  0.41849000  0.35613000  0.65876000  1.0
  O  O221  1  0.08152000  0.85613000  0.84124000  1.0
  O  O222  1  0.58152000  0.64386000  0.34124000  1.0
  O  O223  1  0.91849000  0.14387000  0.15876000  1.0
  O  O224  1  0.46353000  0.28733000  0.55579000  1.0
  O  O225  1  0.03647000  0.78733000  0.94420000  1.0
  O  O226  1  0.53648000  0.71267000  0.44420000  1.0
  O  O227  1  0.96353000  0.21267000  0.05579000  1.0
  O  O228  1  0.93612000  0.24585000  0.46338000  1.0
  O  O229  1  0.56389000  0.74585000  0.03663000  1.0
  O  O230  1  0.06389000  0.75415000  0.53663000  1.0
  O  O231  1  0.43611000  0.25415000  0.96337000  1.0
  O  O232  1  0.06106000  0.21355000  0.38253000  1.0
  O  O233  1  0.43894000  0.71356000  0.11748000  1.0
  O  O234  1  0.93894000  0.78645000  0.61747000  1.0
  O  O235  1  0.56106000  0.28645000  0.88252000  1.0
  O  O236  1  0.38812000  0.40673000  0.82165000  1.0
  O  O237  1  0.11187000  0.90674000  0.67835000  1.0
  O  O238  1  0.61187000  0.59327000  0.17835000  1.0
  O  O239  1  0.88813000  0.09327000  0.32165000  1.0
  O  O240  1  0.24960000  0.45251000  0.87825000  1.0
  O  O241  1  0.25041000  0.95250000  0.62176000  1.0
  O  O242  1  0.75040000  0.54749000  0.12176000  1.0
  O  O243  1  0.74959000  0.04749000  0.37824000  1.0
  O  O244  1  0.25317000  0.76607000  0.64107000  1.0
  O  O245  1  0.24683000  0.26608000  0.85893000  1.0
  O  O246  1  0.74683000  0.23393000  0.35893000  1.0
  O  O247  1  0.75317000  0.73392000  0.14107000  1.0
  O  O248  1  0.12978000  0.73843000  0.72400000  1.0
  O  O249  1  0.37022000  0.23842000  0.77600000  1.0
  O  O250  1  0.87022000  0.26158000  0.27600000  1.0
  O  O251  1  0.62979000  0.76157000  0.22401000  1.0
  O  O252  1  0.56248000  0.43184000  0.49633000  1.0
  O  O253  1  0.93752000  0.93184000  0.00367000  1.0
  O  O254  1  0.43752000  0.56816000  0.50367000  1.0
  O  O255  1  0.06248000  0.06815000  0.99633000  1.0
  O  O256  1  0.48878000  0.42038000  0.98038000  1.0
  O  O257  1  0.01122000  0.92037000  0.51962000  1.0
  O  O258  1  0.51122000  0.57963000  0.01962000  1.0
  O  O259  1  0.98878000  0.07963000  0.48038000  1.0
