# generated using pymatgen
data_CdH28C26(N2Cl)2
_symmetry_space_group_name_H-M   'P 1'
_cell_length_a   17.44710000
_cell_length_b   17.44730000
_cell_length_c   24.78405777
_cell_angle_alpha   110.60985865
_cell_angle_beta   110.60144504
_cell_angle_gamma   89.99590000
_symmetry_Int_Tables_number   1
_chemical_formula_structural   CdH28C26(N2Cl)2
_chemical_formula_sum   'Cd8 H224 C208 N32 Cl16'
_cell_volume   6543.65191662
_cell_formula_units_Z   8
loop_
 _symmetry_equiv_pos_site_id
 _symmetry_equiv_pos_as_xyz
  1  'x, y, z'
loop_
 _atom_site_type_symbol
 _atom_site_label
 _atom_site_symmetry_multiplicity
 _atom_site_fract_x
 _atom_site_fract_y
 _atom_site_fract_z
 _atom_site_occupancy
  Cd  Cd0  1  0.46842000  0.71839000  0.93685000  1.0
  Cd  Cd1  1  0.71847000  0.46840000  0.43689000  1.0
  Cd  Cd2  1  0.53158000  0.28161000  0.06315000  1.0
  Cd  Cd3  1  0.28153000  0.53160000  0.56311000  1.0
  Cd  Cd4  1  0.34470000  0.09467000  0.68934000  1.0
  Cd  Cd5  1  0.09467000  0.34461000  0.18934000  1.0
  Cd  Cd6  1  0.65530000  0.90533000  0.31066000  1.0
  Cd  Cd7  1  0.90533000  0.65539000  0.81066000  1.0
  H  H8  1  0.43583000  0.55016000  0.81613000  1.0
  H  H9  1  0.38040000  0.76595000  0.81621000  1.0
  H  H10  1  0.76600000  0.43591000  0.31621000  1.0
  H  H11  1  0.55027000  0.38032000  0.31619000  1.0
  H  H12  1  0.56417000  0.44984000  0.18387000  1.0
  H  H13  1  0.61960000  0.23405000  0.18379000  1.0
  H  H14  1  0.23400000  0.56409000  0.68379000  1.0
  H  H15  1  0.44973000  0.61968000  0.68381000  1.0
  H  H16  1  0.32508000  0.43200000  0.73843000  1.0
  H  H17  1  0.41348000  0.80628000  0.73844000  1.0
  H  H18  1  0.80635000  0.32510000  0.23842000  1.0
  H  H19  1  0.43218000  0.41345000  0.23846000  1.0
  H  H20  1  0.67493000  0.56800000  0.26158000  1.0
  H  H21  1  0.58652000  0.19372000  0.26156000  1.0
  H  H22  1  0.19365000  0.67490000  0.76158000  1.0
  H  H23  1  0.56782000  0.58655000  0.76154000  1.0
  H  H24  1  0.15820000  0.55355000  0.82450000  1.0
  H  H25  1  0.66638000  0.77080000  0.82454000  1.0
  H  H26  1  0.77074000  0.15819000  0.32442000  1.0
  H  H27  1  0.55376000  0.66634000  0.32459000  1.0
  H  H28  1  0.84180000  0.44645000  0.17550000  1.0
  H  H29  1  0.33362000  0.22920000  0.17546000  1.0
  H  H30  1  0.22926000  0.84181000  0.67558000  1.0
  H  H31  1  0.44624000  0.33366000  0.67541000  1.0
  H  H32  1  0.27636000  0.66761000  0.89757000  1.0
  H  H33  1  0.62126000  0.72991000  0.89766000  1.0
  H  H34  1  0.72999000  0.27643000  0.39763000  1.0
  H  H35  1  0.66778000  0.62117000  0.39766000  1.0
  H  H36  1  0.72364000  0.33239000  0.10243000  1.0
  H  H37  1  0.37874000  0.27009000  0.10234000  1.0
  H  H38  1  0.27001000  0.72357000  0.60237000  1.0
  H  H39  1  0.33222000  0.37883000  0.60234000  1.0
  H  H40  1  0.13745000  0.38944000  0.75692000  1.0
  H  H41  1  0.61959000  0.86734000  0.75696000  1.0
  H  H42  1  0.86731000  0.13744000  0.25693000  1.0
  H  H43  1  0.38966000  0.61961000  0.25704000  1.0
  H  H44  1  0.86255000  0.61056000  0.24308000  1.0
  H  H45  1  0.38042000  0.13266000  0.24305000  1.0
  H  H46  1  0.13269000  0.86256000  0.74307000  1.0
  H  H47  1  0.61034000  0.38039000  0.74296000  1.0
  H  H48  1  0.18791000  0.36215000  0.70340000  1.0
  H  H49  1  0.51560000  0.84118000  0.70348000  1.0
  H  H50  1  0.84119000  0.18786000  0.20339000  1.0
  H  H51  1  0.36232000  0.51563000  0.20353000  1.0
  H  H52  1  0.81209000  0.63785000  0.29660000  1.0
  H  H53  1  0.48440000  0.15882000  0.29652000  1.0
  H  H54  1  0.15881000  0.81214000  0.79661000  1.0
  H  H55  1  0.63768000  0.48437000  0.79647000  1.0
  H  H56  1  0.11732000  0.46361000  0.65837000  1.0
  H  H57  1  0.54108000  0.69468000  0.65838000  1.0
  H  H58  1  0.69470000  0.11730000  0.15830000  1.0
  H  H59  1  0.46368000  0.54107000  0.15841000  1.0
  H  H60  1  0.88268000  0.53640000  0.34163000  1.0
  H  H61  1  0.45894000  0.30532000  0.34163000  1.0
  H  H62  1  0.30530000  0.88270000  0.84170000  1.0
  H  H63  1  0.53632000  0.45893000  0.84159000  1.0
  H  H64  1  0.06865000  0.49140000  0.71383000  1.0
  H  H65  1  0.64520000  0.72227000  0.71379000  1.0
  H  H66  1  0.72226000  0.06869000  0.21378000  1.0
  H  H67  1  0.49156000  0.64520000  0.21384000  1.0
  H  H68  1  0.93135000  0.50860000  0.28617000  1.0
  H  H69  1  0.35480000  0.27773000  0.28621000  1.0
  H  H70  1  0.27774000  0.93131000  0.78622000  1.0
  H  H71  1  0.50844000  0.35480000  0.78616000  1.0
  H  H72  1  0.04965000  0.31745000  0.61683000  1.0
  H  H73  1  0.56722000  0.79934000  0.61687000  1.0
  H  H74  1  0.79938000  0.04953000  0.11685000  1.0
  H  H75  1  0.31757000  0.56731000  0.11693000  1.0
  H  H76  1  0.95035000  0.68255000  0.38317000  1.0
  H  H77  1  0.43279000  0.20066000  0.38313000  1.0
  H  H78  1  0.20062000  0.95047000  0.88315000  1.0
  H  H79  1  0.68243000  0.43269000  0.88307000  1.0
  H  H80  1  0.99952000  0.34561000  0.67075000  1.0
  H  H81  1  0.67127000  0.82501000  0.67075000  1.0
  H  H82  1  0.82505000  0.99948000  0.17081000  1.0
  H  H83  1  0.34577000  0.67134000  0.17084000  1.0
  H  H84  1  0.00048000  0.65439000  0.32925000  1.0
  H  H85  1  0.32873000  0.17499000  0.32925000  1.0
  H  H86  1  0.17495000  0.00052000  0.82919000  1.0
  H  H87  1  0.65423000  0.32866000  0.82916000  1.0
  H  H88  1  0.02800000  0.41384000  0.54828000  1.0
  H  H89  1  0.52027000  0.63439000  0.54824000  1.0
  H  H90  1  0.63445000  0.02793000  0.04830000  1.0
  H  H91  1  0.41387000  0.52032000  0.04832000  1.0
  H  H92  1  0.97200000  0.58616000  0.45172000  1.0
  H  H93  1  0.47973000  0.36561000  0.45176000  1.0
  H  H94  1  0.36555000  0.97207000  0.95170000  1.0
  H  H95  1  0.58613000  0.47968000  0.95168000  1.0
  H  H96  1  0.90979000  0.45547000  0.47572000  1.0
  H  H97  1  0.56590000  0.52022000  0.47564000  1.0
  H  H98  1  0.52028000  0.90974000  0.97570000  1.0
  H  H99  1  0.45538000  0.56587000  0.97567000  1.0
  H  H100  1  0.09021000  0.54453000  0.52428000  1.0
  H  H101  1  0.43410000  0.47978000  0.52436000  1.0
  H  H102  1  0.47972000  0.09026000  0.02430000  1.0
  H  H103  1  0.54462000  0.43413000  0.02433000  1.0
  H  H104  1  0.75070000  0.41885000  0.55716000  1.0
  H  H105  1  0.80641000  0.63825000  0.55704000  1.0
  H  H106  1  0.63831000  0.75059000  0.05709000  1.0
  H  H107  1  0.41872000  0.80641000  0.05703000  1.0
  H  H108  1  0.24930000  0.58116000  0.44284000  1.0
  H  H109  1  0.19359000  0.36175000  0.44296000  1.0
  H  H110  1  0.36170000  0.24941000  0.94292000  1.0
  H  H111  1  0.58128000  0.19359000  0.94297000  1.0
  H  H112  1  0.86231000  0.37998000  0.63563000  1.0
  H  H113  1  0.77326000  0.75558000  0.63553000  1.0
  H  H114  1  0.75562000  0.86218000  0.13558000  1.0
  H  H115  1  0.37999000  0.77336000  0.13560000  1.0
  H  H116  1  0.13770000  0.62002000  0.36438000  1.0
  H  H117  1  0.22674000  0.24442000  0.36447000  1.0
  H  H118  1  0.24438000  0.13782000  0.86442000  1.0
  H  H119  1  0.62001000  0.22664000  0.86440000  1.0
  H  H120  1  0.19182000  0.14707000  0.72571000  1.0
  H  H121  1  0.53397000  0.07856000  0.72579000  1.0
  H  H122  1  0.07860000  0.19179000  0.22574000  1.0
  H  H123  1  0.14725000  0.53385000  0.22580000  1.0
  H  H124  1  0.80818000  0.85292000  0.27429000  1.0
  H  H125  1  0.46603000  0.92145000  0.27421000  1.0
  H  H126  1  0.92140000  0.80821000  0.77426000  1.0
  H  H127  1  0.85275000  0.46615000  0.77420000  1.0
  H  H128  1  0.14346000  0.26102000  0.79614000  1.0
  H  H129  1  0.65273000  0.03515000  0.79629000  1.0
  H  H130  1  0.03523000  0.14353000  0.29626000  1.0
  H  H131  1  0.26114000  0.65262000  0.29628000  1.0
  H  H132  1  0.85654000  0.73898000  0.20386000  1.0
  H  H133  1  0.34727000  0.96485000  0.20371000  1.0
  H  H134  1  0.96477000  0.85647000  0.70374000  1.0
  H  H135  1  0.73886000  0.34738000  0.70372000  1.0
  H  H136  1  0.39546000  0.38426000  0.88784000  1.0
  H  H137  1  0.49234000  0.00355000  0.88794000  1.0
  H  H138  1  0.00371000  0.39558000  0.38796000  1.0
  H  H139  1  0.38443000  0.49226000  0.38792000  1.0
  H  H140  1  0.60453000  0.61574000  0.11215000  1.0
  H  H141  1  0.50766000  0.99645000  0.11206000  1.0
  H  H142  1  0.99629000  0.60442000  0.61204000  1.0
  H  H143  1  0.61557000  0.50774000  0.61208000  1.0
  H  H144  1  0.43178000  0.26725000  0.81123000  1.0
  H  H145  1  0.37944000  0.04385000  0.81126000  1.0
  H  H146  1  0.04401000  0.43181000  0.31128000  1.0
  H  H147  1  0.26746000  0.37935000  0.31128000  1.0
  H  H148  1  0.56822000  0.73275000  0.18877000  1.0
  H  H149  1  0.62056000  0.95615000  0.18874000  1.0
  H  H150  1  0.95599000  0.56819000  0.68872000  1.0
  H  H151  1  0.73254000  0.62065000  0.68872000  1.0
  H  H152  1  0.28917000  0.45453000  0.91806000  1.0
  H  H153  1  0.62896000  0.96353000  0.91819000  1.0
  H  H154  1  0.96356000  0.28922000  0.41814000  1.0
  H  H155  1  0.45465000  0.62892000  0.41817000  1.0
  H  H156  1  0.71083000  0.54547000  0.08194000  1.0
  H  H157  1  0.37105000  0.03647000  0.08181000  1.0
  H  H158  1  0.03644000  0.71078000  0.58186000  1.0
  H  H159  1  0.54535000  0.37108000  0.58183000  1.0
  H  H160  1  0.18546000  0.42308000  0.86498000  1.0
  H  H161  1  0.67950000  0.94188000  0.86503000  1.0
  H  H162  1  0.94199000  0.18552000  0.36503000  1.0
  H  H163  1  0.42314000  0.67940000  0.36498000  1.0
  H  H164  1  0.81454000  0.57692000  0.13502000  1.0
  H  H165  1  0.32050000  0.05812000  0.13497000  1.0
  H  H166  1  0.05801000  0.81448000  0.63497000  1.0
  H  H167  1  0.57686000  0.32060000  0.63502000  1.0
  H  H168  1  0.16878000  0.32023000  0.91233000  1.0
  H  H169  1  0.74355000  0.09201000  0.91232000  1.0
  H  H170  1  0.09214000  0.16881000  0.41244000  1.0
  H  H171  1  0.32021000  0.74346000  0.41223000  1.0
  H  H172  1  0.83122000  0.67977000  0.08767000  1.0
  H  H173  1  0.25644000  0.90799000  0.08767000  1.0
  H  H174  1  0.90786000  0.83119000  0.58756000  1.0
  H  H175  1  0.67979000  0.25654000  0.58777000  1.0
  H  H176  1  0.27183000  0.35599000  0.96691000  1.0
  H  H177  1  0.69511000  0.11093000  0.96694000  1.0
  H  H178  1  0.11095000  0.27188000  0.46701000  1.0
  H  H179  1  0.35596000  0.69509000  0.46689000  1.0
  H  H180  1  0.72817000  0.64401000  0.03309000  1.0
  H  H181  1  0.30490000  0.88907000  0.03306000  1.0
  H  H182  1  0.88905000  0.72812000  0.53299000  1.0
  H  H183  1  0.64403000  0.30491000  0.53311000  1.0
  H  H184  1  0.23623000  0.49862000  0.00498000  1.0
  H  H185  1  0.76866000  0.00632000  0.00499000  1.0
  H  H186  1  0.00626000  0.23633000  0.50500000  1.0
  H  H187  1  0.49854000  0.76875000  0.50495000  1.0
  H  H188  1  0.76377000  0.50139000  0.99502000  1.0
  H  H189  1  0.23134000  0.99368000  0.99501000  1.0
  H  H190  1  0.99374000  0.76367000  0.49500000  1.0
  H  H191  1  0.50146000  0.23125000  0.49505000  1.0
  H  H192  1  0.13307000  0.46482000  0.95098000  1.0
  H  H193  1  0.81782000  0.98607000  0.95097000  1.0
  H  H194  1  0.98613000  0.13315000  0.45102000  1.0
  H  H195  1  0.46479000  0.81785000  0.45090000  1.0
  H  H196  1  0.86693000  0.53518000  0.04902000  1.0
  H  H197  1  0.18218000  0.01393000  0.04903000  1.0
  H  H198  1  0.01387000  0.86685000  0.54898000  1.0
  H  H199  1  0.53522000  0.18215000  0.54910000  1.0
  H  H200  1  0.03664000  0.44032000  0.99320000  1.0
  H  H201  1  0.95644000  0.05275000  0.99314000  1.0
  H  H202  1  0.05279000  0.03679000  0.49328000  1.0
  H  H203  1  0.44025000  0.95654000  0.49311000  1.0
  H  H204  1  0.96336000  0.55968000  0.00680000  1.0
  H  H205  1  0.04356000  0.94725000  0.00686000  1.0
  H  H206  1  0.94720000  0.96321000  0.50672000  1.0
  H  H207  1  0.55975000  0.04346000  0.50689000  1.0
  H  H208  1  0.00675000  0.40279000  0.07377000  1.0
  H  H209  1  0.06691000  0.17082000  0.07372000  1.0
  H  H210  1  0.17094000  0.00688000  0.57380000  1.0
  H  H211  1  0.40278000  0.06702000  0.57372000  1.0
  H  H212  1  0.99324000  0.59721000  0.92622000  1.0
  H  H213  1  0.93309000  0.82918000  0.92628000  1.0
  H  H214  1  0.82905000  0.99311000  0.42619000  1.0
  H  H215  1  0.59722000  0.93297000  0.42628000  1.0
  H  H216  1  0.24461000  0.35278000  0.14506000  1.0
  H  H217  1  0.90031000  0.29230000  0.14491000  1.0
  H  H218  1  0.29229000  0.24469000  0.64500000  1.0
  H  H219  1  0.35272000  0.90047000  0.64500000  1.0
  H  H220  1  0.75539000  0.64722000  0.85494000  1.0
  H  H221  1  0.09969000  0.70770000  0.85509000  1.0
  H  H222  1  0.70772000  0.75530000  0.35500000  1.0
  H  H223  1  0.64728000  0.09953000  0.35500000  1.0
  H  H224  1  0.28759000  0.39436000  0.07150000  1.0
  H  H225  1  0.78380000  0.17714000  0.07143000  1.0
  H  H226  1  0.17711000  0.28770000  0.57150000  1.0
  H  H227  1  0.39429000  0.78392000  0.57144000  1.0
  H  H228  1  0.71241000  0.60564000  0.92850000  1.0
  H  H229  1  0.21620000  0.82286000  0.92857000  1.0
  H  H230  1  0.82289000  0.71230000  0.42850000  1.0
  H  H231  1  0.60571000  0.21608000  0.42856000  1.0
  C  C232  1  0.37315000  0.54838000  0.81579000  1.0
  C  C233  1  0.44272000  0.76735000  0.81585000  1.0
  C  C234  1  0.76740000  0.37321000  0.31583000  1.0
  C  C235  1  0.54852000  0.44267000  0.31585000  1.0
  C  C236  1  0.62685000  0.45162000  0.18421000  1.0
  C  C237  1  0.55728000  0.23265000  0.18415000  1.0
  C  C238  1  0.23260000  0.62679000  0.68417000  1.0
  C  C239  1  0.45148000  0.55733000  0.68415000  1.0
  C  C240  1  0.31130000  0.48281000  0.77303000  1.0
  C  C241  1  0.46183000  0.79010000  0.77306000  1.0
  C  C242  1  0.79013000  0.31133000  0.27302000  1.0
  C  C243  1  0.48297000  0.46180000  0.27308000  1.0
  C  C244  1  0.68870000  0.51719000  0.22697000  1.0
  C  C245  1  0.53816000  0.20989000  0.22693000  1.0
  C  C246  1  0.20987000  0.68867000  0.72698000  1.0
  C  C247  1  0.51703000  0.53820000  0.72692000  1.0
  C  C248  1  0.23224000  0.48265000  0.77522000  1.0
  C  C249  1  0.54308000  0.79245000  0.77526000  1.0
  C  C250  1  0.79243000  0.23224000  0.27518000  1.0
  C  C251  1  0.48283000  0.54306000  0.27530000  1.0
  C  C252  1  0.76776000  0.51736000  0.22478000  1.0
  C  C253  1  0.45692000  0.20755000  0.22474000  1.0
  C  C254  1  0.20757000  0.76776000  0.72482000  1.0
  C  C255  1  0.51716000  0.45694000  0.72470000  1.0
  C  C256  1  0.21892000  0.55037000  0.82084000  1.0
  C  C257  1  0.60200000  0.77035000  0.82088000  1.0
  C  C258  1  0.77031000  0.21893000  0.32078000  1.0
  C  C259  1  0.55055000  0.60196000  0.32092000  1.0
  C  C260  1  0.78108000  0.44964000  0.17916000  1.0
  C  C261  1  0.39800000  0.22965000  0.17912000  1.0
  C  C262  1  0.22969000  0.78107000  0.67922000  1.0
  C  C263  1  0.44944000  0.39805000  0.67908000  1.0
  C  C264  1  0.28388000  0.61343000  0.86162000  1.0
  C  C265  1  0.57780000  0.74812000  0.86169000  1.0
  C  C266  1  0.74815000  0.28393000  0.36164000  1.0
  C  C267  1  0.61360000  0.57774000  0.36171000  1.0
  C  C268  1  0.71612000  0.38657000  0.13838000  1.0
  C  C269  1  0.42220000  0.25188000  0.13831000  1.0
  C  C270  1  0.25185000  0.71607000  0.63836000  1.0
  C  C271  1  0.38640000  0.42226000  0.63829000  1.0
  C  C272  1  0.16344000  0.41343000  0.73043000  1.0
  C  C273  1  0.56709000  0.81689000  0.73047000  1.0
  C  C274  1  0.81687000  0.16342000  0.23040000  1.0
  C  C275  1  0.41361000  0.56711000  0.23053000  1.0
  C  C276  1  0.83656000  0.58657000  0.26957000  1.0
  C  C277  1  0.43291000  0.18311000  0.26953000  1.0
  C  C278  1  0.18313000  0.83658000  0.76960000  1.0
  C  C279  1  0.58639000  0.43289000  0.76947000  1.0
  C  C280  1  0.09329000  0.44082000  0.68630000  1.0
  C  C281  1  0.59306000  0.74536000  0.68629000  1.0
  C  C282  1  0.74537000  0.09326000  0.18625000  1.0
  C  C283  1  0.44096000  0.59307000  0.18635000  1.0
  C  C284  1  0.90671000  0.55918000  0.31370000  1.0
  C  C285  1  0.40694000  0.25464000  0.31371000  1.0
  C  C286  1  0.25463000  0.90674000  0.81375000  1.0
  C  C287  1  0.55904000  0.40693000  0.81365000  1.0
  C  C288  1  0.02357000  0.36847000  0.64284000  1.0
  C  C289  1  0.61929000  0.77429000  0.64284000  1.0
  C  C290  1  0.77432000  0.02350000  0.14286000  1.0
  C  C291  1  0.36860000  0.61936000  0.14292000  1.0
  C  C292  1  0.97643000  0.63153000  0.35716000  1.0
  C  C293  1  0.38071000  0.22571000  0.35716000  1.0
  C  C294  1  0.22568000  0.97650000  0.85714000  1.0
  C  C295  1  0.63140000  0.38064000  0.85708000  1.0
  C  C296  1  0.95434000  0.39210000  0.59775000  1.0
  C  C297  1  0.64338000  0.70558000  0.59770000  1.0
  C  C298  1  0.70563000  0.95426000  0.09775000  1.0
  C  C299  1  0.39217000  0.64346000  0.09779000  1.0
  C  C300  1  0.04566000  0.60791000  0.40225000  1.0
  C  C301  1  0.35662000  0.29442000  0.40230000  1.0
  C  C302  1  0.29437000  0.04574000  0.90225000  1.0
  C  C303  1  0.60783000  0.35654000  0.90221000  1.0
  C  C304  1  0.96729000  0.41389000  0.55189000  1.0
  C  C305  1  0.58458000  0.63796000  0.55184000  1.0
  C  C306  1  0.63800000  0.96721000  0.05189000  1.0
  C  C307  1  0.41394000  0.58463000  0.05192000  1.0
  C  C308  1  0.03270000  0.58611000  0.44811000  1.0
  C  C309  1  0.41542000  0.36204000  0.44816000  1.0
  C  C310  1  0.36200000  0.03279000  0.94811000  1.0
  C  C311  1  0.58606000  0.41537000  0.94808000  1.0
  C  C312  1  0.90232000  0.43666000  0.51144000  1.0
  C  C313  1  0.60910000  0.57473000  0.51137000  1.0
  C  C314  1  0.57480000  0.90225000  0.01143000  1.0
  C  C315  1  0.43662000  0.60910000  0.01141000  1.0
  C  C316  1  0.09768000  0.56334000  0.48856000  1.0
  C  C317  1  0.39090000  0.42527000  0.48863000  1.0
  C  C318  1  0.42520000  0.09775000  0.98857000  1.0
  C  C319  1  0.56338000  0.39090000  0.98859000  1.0
  C  C320  1  0.81341000  0.41760000  0.55753000  1.0
  C  C321  1  0.74407000  0.63987000  0.55743000  1.0
  C  C322  1  0.63992000  0.81332000  0.05748000  1.0
  C  C323  1  0.41754000  0.74410000  0.05746000  1.0
  C  C324  1  0.18659000  0.58240000  0.44247000  1.0
  C  C325  1  0.25592000  0.36013000  0.44256000  1.0
  C  C326  1  0.36008000  0.18668000  0.94252000  1.0
  C  C327  1  0.58246000  0.25590000  0.94254000  1.0
  C  C328  1  0.87550000  0.39505000  0.60036000  1.0
  C  C329  1  0.72482000  0.70525000  0.60028000  1.0
  C  C330  1  0.70529000  0.87540000  0.10033000  1.0
  C  C331  1  0.39507000  0.72489000  0.10034000  1.0
  C  C332  1  0.12450000  0.60495000  0.39964000  1.0
  C  C333  1  0.27518000  0.29474000  0.39972000  1.0
  C  C334  1  0.29471000  0.12460000  0.89967000  1.0
  C  C335  1  0.60493000  0.27511000  0.89966000  1.0
  C  C336  1  0.23416000  0.20176000  0.76201000  1.0
  C  C337  1  0.52789000  0.06019000  0.76210000  1.0
  C  C338  1  0.06028000  0.23418000  0.26208000  1.0
  C  C339  1  0.20192000  0.52778000  0.26211000  1.0
  C  C340  1  0.76584000  0.79824000  0.23799000  1.0
  C  C341  1  0.47211000  0.93981000  0.23790000  1.0
  C  C342  1  0.93973000  0.76582000  0.73793000  1.0
  C  C343  1  0.79808000  0.47222000  0.73789000  1.0
  C  C344  1  0.20843000  0.26471000  0.80180000  1.0
  C  C345  1  0.59341000  0.03709000  0.80193000  1.0
  C  C346  1  0.03719000  0.20850000  0.30191000  1.0
  C  C347  1  0.26483000  0.59329000  0.30191000  1.0
  C  C348  1  0.79157000  0.73529000  0.19820000  1.0
  C  C349  1  0.40660000  0.96291000  0.19807000  1.0
  C  C350  1  0.96281000  0.79150000  0.69809000  1.0
  C  C351  1  0.73517000  0.40671000  0.69809000  1.0
  C  C352  1  0.26584000  0.33285000  0.84837000  1.0
  C  C353  1  0.58254000  0.01552000  0.84848000  1.0
  C  C354  1  0.01564000  0.26592000  0.34848000  1.0
  C  C355  1  0.33297000  0.58245000  0.34846000  1.0
  C  C356  1  0.73416000  0.66715000  0.15163000  1.0
  C  C357  1  0.41746000  0.98448000  0.15152000  1.0
  C  C358  1  0.98436000  0.73409000  0.65152000  1.0
  C  C359  1  0.66703000  0.41755000  0.65154000  1.0
  C  C360  1  0.34792000  0.33326000  0.85242000  1.0
  C  C361  1  0.50449000  0.01914000  0.85252000  1.0
  C  C362  1  0.01928000  0.34801000  0.35253000  1.0
  C  C363  1  0.33340000  0.50440000  0.35250000  1.0
  C  C364  1  0.65208000  0.66674000  0.14758000  1.0
  C  C365  1  0.49552000  0.98086000  0.14748000  1.0
  C  C366  1  0.98071000  0.65199000  0.64747000  1.0
  C  C367  1  0.66660000  0.49560000  0.64750000  1.0
  C  C368  1  0.36882000  0.26820000  0.81038000  1.0
  C  C369  1  0.44157000  0.04211000  0.81045000  1.0
  C  C370  1  0.04225000  0.36886000  0.31046000  1.0
  C  C371  1  0.26838000  0.44148000  0.31046000  1.0
  C  C372  1  0.63118000  0.73180000  0.18962000  1.0
  C  C373  1  0.55843000  0.95789000  0.18955000  1.0
  C  C374  1  0.95775000  0.63114000  0.68954000  1.0
  C  C375  1  0.73162000  0.55852000  0.68954000  1.0
  C  C376  1  0.23955000  0.40145000  0.89206000  1.0
  C  C377  1  0.65251000  0.99059000  0.89214000  1.0
  C  C378  1  0.99067000  0.23961000  0.39214000  1.0
  C  C379  1  0.40154000  0.65245000  0.39211000  1.0
  C  C380  1  0.76045000  0.59855000  0.10794000  1.0
  C  C381  1  0.34750000  0.00941000  0.10786000  1.0
  C  C382  1  0.00933000  0.76039000  0.60786000  1.0
  C  C383  1  0.59846000  0.34755000  0.60789000  1.0
  C  C384  1  0.21718000  0.37461000  0.93796000  1.0
  C  C385  1  0.72078000  0.06333000  0.93799000  1.0
  C  C386  1  0.06339000  0.21724000  0.43805000  1.0
  C  C387  1  0.37460000  0.72076000  0.43794000  1.0
  C  C388  1  0.78282000  0.62539000  0.06204000  1.0
  C  C389  1  0.27922000  0.93666000  0.06201000  1.0
  C  C390  1  0.93661000  0.78276000  0.56195000  1.0
  C  C391  1  0.62540000  0.27924000  0.56206000  1.0
  C  C392  1  0.18684000  0.44500000  0.97983000  1.0
  C  C393  1  0.79293000  0.03476000  0.97984000  1.0
  C  C394  1  0.03477000  0.18694000  0.47989000  1.0
  C  C395  1  0.44495000  0.79298000  0.47978000  1.0
  C  C396  1  0.81316000  0.55500000  0.02017000  1.0
  C  C397  1  0.20707000  0.96524000  0.02016000  1.0
  C  C398  1  0.96523000  0.81306000  0.52011000  1.0
  C  C399  1  0.55505000  0.20702000  0.52022000  1.0
  C  C400  1  0.16507000  0.42149000  0.02602000  1.0
  C  C401  1  0.86086000  0.10446000  0.02598000  1.0
  C  C402  1  0.10446000  0.16520000  0.52608000  1.0
  C  C403  1  0.42140000  0.86094000  0.52593000  1.0
  C  C404  1  0.83493000  0.57851000  0.97398000  1.0
  C  C405  1  0.13914000  0.89554000  0.97402000  1.0
  C  C406  1  0.89554000  0.83480000  0.47392000  1.0
  C  C407  1  0.57860000  0.13906000  0.47407000  1.0
  C  C408  1  0.08514000  0.42232000  0.02666000  1.0
  C  C409  1  0.94143000  0.10423000  0.02661000  1.0
  C  C410  1  0.10427000  0.08527000  0.52672000  1.0
  C  C411  1  0.42224000  0.94152000  0.52657000  1.0
  C  C412  1  0.91486000  0.57767000  0.97334000  1.0
  C  C413  1  0.05857000  0.89577000  0.97339000  1.0
  C  C414  1  0.89573000  0.91473000  0.47328000  1.0
  C  C415  1  0.57776000  0.05848000  0.47343000  1.0
  C  C416  1  0.06751000  0.40030000  0.07033000  1.0
  C  C417  1  0.00272000  0.16992000  0.07026000  1.0
  C  C418  1  0.16999000  0.06764000  0.57036000  1.0
  C  C419  1  0.40025000  0.00282000  0.57026000  1.0
  C  C420  1  0.93249000  0.59970000  0.92967000  1.0
  C  C421  1  0.99728000  0.83008000  0.92974000  1.0
  C  C422  1  0.83001000  0.93236000  0.42964000  1.0
  C  C423  1  0.59975000  0.99718000  0.42974000  1.0
  C  C424  1  0.20120000  0.37415000  0.11105000  1.0
  C  C425  1  0.90974000  0.23689000  0.11094000  1.0
  C  C426  1  0.23690000  0.20130000  0.61104000  1.0
  C  C427  1  0.37409000  0.90986000  0.61099000  1.0
  C  C428  1  0.79879000  0.62585000  0.88894000  1.0
  C  C429  1  0.09026000  0.76311000  0.88906000  1.0
  C  C430  1  0.76311000  0.79870000  0.38896000  1.0
  C  C431  1  0.62592000  0.09014000  0.38901000  1.0
  C  C432  1  0.22418000  0.39670000  0.06982000  1.0
  C  C433  1  0.84554000  0.17309000  0.06975000  1.0
  C  C434  1  0.17308000  0.22430000  0.56984000  1.0
  C  C435  1  0.39662000  0.84565000  0.56974000  1.0
  C  C436  1  0.77582000  0.60329000  0.93018000  1.0
  C  C437  1  0.15446000  0.82691000  0.93025000  1.0
  C  C438  1  0.82692000  0.77570000  0.43016000  1.0
  C  C439  1  0.60338000  0.15435000  0.43026000  1.0
  N  N440  1  0.35988000  0.61255000  0.85948000  1.0
  N  N441  1  0.49967000  0.74689000  0.85955000  1.0
  N  N442  1  0.74696000  0.35994000  0.35954000  1.0
  N  N443  1  0.61268000  0.49959000  0.35955000  1.0
  N  N444  1  0.64012000  0.38745000  0.14052000  1.0
  N  N445  1  0.50033000  0.25311000  0.14045000  1.0
  N  N446  1  0.25304000  0.64006000  0.64046000  1.0
  N  N447  1  0.38732000  0.50041000  0.64045000  1.0
  N  N448  1  0.82648000  0.43812000  0.51381000  1.0
  N  N449  1  0.68731000  0.57564000  0.51373000  1.0
  N  N450  1  0.57570000  0.82639000  0.01377000  1.0
  N  N451  1  0.43804000  0.68729000  0.01373000  1.0
  N  N452  1  0.17352000  0.56188000  0.48619000  1.0
  N  N453  1  0.31269000  0.42436000  0.48627000  1.0
  N  N454  1  0.42430000  0.17361000  0.98623000  1.0
  N  N455  1  0.56196000  0.31271000  0.98627000  1.0
  N  N456  1  0.31305000  0.20359000  0.76597000  1.0
  N  N457  1  0.45293000  0.06228000  0.76602000  1.0
  N  N458  1  0.06238000  0.31306000  0.26601000  1.0
  N  N459  1  0.20377000  0.45283000  0.26604000  1.0
  N  N460  1  0.68695000  0.79641000  0.23403000  1.0
  N  N461  1  0.54707000  0.93772000  0.23398000  1.0
  N  N462  1  0.93762000  0.68694000  0.73399000  1.0
  N  N463  1  0.79623000  0.54717000  0.73396000  1.0
  N  N464  1  0.12449000  0.37626000  0.11175000  1.0
  N  N465  1  0.98715000  0.23542000  0.11165000  1.0
  N  N466  1  0.23547000  0.12459000  0.61174000  1.0
  N  N467  1  0.37621000  0.98728000  0.61168000  1.0
  N  N468  1  0.87550000  0.62373000  0.88824000  1.0
  N  N469  1  0.01285000  0.76458000  0.88835000  1.0
  N  N470  1  0.76453000  0.87541000  0.38826000  1.0
  N  N471  1  0.62379000  0.01272000  0.38832000  1.0
  Cl  Cl472  1  0.57565000  0.61246000  0.93819000  1.0
  Cl  Cl473  1  0.36258000  0.82571000  0.93820000  1.0
  Cl  Cl474  1  0.82571000  0.57560000  0.43817000  1.0
  Cl  Cl475  1  0.61250000  0.36250000  0.43817000  1.0
  Cl  Cl476  1  0.42435000  0.38754000  0.06181000  1.0
  Cl  Cl477  1  0.63741000  0.17429000  0.06180000  1.0
  Cl  Cl478  1  0.17429000  0.42440000  0.56183000  1.0
  Cl  Cl479  1  0.38750000  0.63750000  0.56183000  1.0
  Cl  Cl480  1  0.23497000  0.99091000  0.68939000  1.0
  Cl  Cl481  1  0.45451000  0.19847000  0.68942000  1.0
  Cl  Cl482  1  0.19841000  0.23482000  0.18936000  1.0
  Cl  Cl483  1  0.99099000  0.45447000  0.18946000  1.0
  Cl  Cl484  1  0.76503000  0.00910000  0.31061000  1.0
  Cl  Cl485  1  0.54549000  0.80153000  0.31058000  1.0
  Cl  Cl486  1  0.80159000  0.76518000  0.81064000  1.0
  Cl  Cl487  1  0.00901000  0.54553000  0.81054000  1.0
