# generated using pymatgen
data_CuH24C24(N6Cl)2
_symmetry_space_group_name_H-M   'P 1'
_cell_length_a   7.59041000
_cell_length_b   8.46432000
_cell_length_c   21.32700000
_cell_angle_alpha   90.00000000
_cell_angle_beta   90.00000000
_cell_angle_gamma   106.51700000
_symmetry_Int_Tables_number   1
_chemical_formula_structural   CuH24C24(N6Cl)2
_chemical_formula_sum   'Cu2 H48 C48 N24 Cl4'
_cell_volume   1313.66869907
_cell_formula_units_Z   2
loop_
 _symmetry_equiv_pos_site_id
 _symmetry_equiv_pos_as_xyz
  1  'x, y, z'
loop_
 _atom_site_type_symbol
 _atom_site_label
 _atom_site_symmetry_multiplicity
 _atom_site_fract_x
 _atom_site_fract_y
 _atom_site_fract_z
 _atom_site_occupancy
  Cu  Cu0  1  0.50000000  0.50000000  0.50000000  1.0
  Cu  Cu1  1  0.50000000  0.00000000  0.00000000  1.0
  H  H2  1  0.84518000  0.37839000  0.44059000  1.0
  H  H3  1  0.15482000  0.12160000  0.94059000  1.0
  H  H4  1  0.15482000  0.62160000  0.55941000  1.0
  H  H5  1  0.84518000  0.87840000  0.05941000  1.0
  H  H6  1  0.34454000  0.39814000  0.35934000  1.0
  H  H7  1  0.65546000  0.10186000  0.85934000  1.0
  H  H8  1  0.65546000  0.60186000  0.64067000  1.0
  H  H9  1  0.34454000  0.89815000  0.14066000  1.0
  H  H10  1  0.74826000  0.07365000  0.32100000  1.0
  H  H11  1  0.25174000  0.42635000  0.82100000  1.0
  H  H12  1  0.25174000  0.92635000  0.67900000  1.0
  H  H13  1  0.74826000  0.57365000  0.17900000  1.0
  H  H14  1  0.93472000  0.20467000  0.36396000  1.0
  H  H15  1  0.06529000  0.29533000  0.86396000  1.0
  H  H16  1  0.06528000  0.79533000  0.63604000  1.0
  H  H17  1  0.93471000  0.70467000  0.13604000  1.0
  H  H18  1  0.72690000  0.09876000  0.20937000  1.0
  H  H19  1  0.27310000  0.40124000  0.70937000  1.0
  H  H20  1  0.27310000  0.90124000  0.79063000  1.0
  H  H21  1  0.72690000  0.59877000  0.29063000  1.0
  H  H22  1  0.88137000  0.21119000  0.10877000  1.0
  H  H23  1  0.11863000  0.28880000  0.60877000  1.0
  H  H24  1  0.11863000  0.78880000  0.89123000  1.0
  H  H25  1  0.88137000  0.71120000  0.39123000  1.0
  H  H26  1  0.28810000  0.57804000  0.21206000  1.0
  H  H27  1  0.71190000  0.92196000  0.71206000  1.0
  H  H28  1  0.71189000  0.42196000  0.78794000  1.0
  H  H29  1  0.28811000  0.07804000  0.28794000  1.0
  H  H30  1  0.13003000  0.46805000  0.31164000  1.0
  H  H31  1  0.86997000  0.03196000  0.81165000  1.0
  H  H32  1  0.86997000  0.53195000  0.68836000  1.0
  H  H33  1  0.13003000  0.96805000  0.18836000  1.0
  H  H34  1  0.08704000  0.43860000  0.05425000  1.0
  H  H35  1  0.91296000  0.06140000  0.55425000  1.0
  H  H36  1  0.91296000  0.56141000  0.94575000  1.0
  H  H37  1  0.08704000  0.93859000  0.44575000  1.0
  H  H38  1  0.25804000  0.59471000  0.09334000  1.0
  H  H39  1  0.74196000  0.90529000  0.59334000  1.0
  H  H40  1  0.74196000  0.40529000  0.90666000  1.0
  H  H41  1  0.25804000  0.09471000  0.40666000  1.0
  H  H42  1  0.16414000  0.13573000  0.04925000  1.0
  H  H43  1  0.83586000  0.36427000  0.54925000  1.0
  H  H44  1  0.83586000  0.86427000  0.95075000  1.0
  H  H45  1  0.16414000  0.63573000  0.45075000  1.0
  H  H46  1  0.73320000  0.36741000  0.04999000  1.0
  H  H47  1  0.26680000  0.13259000  0.54999000  1.0
  H  H48  1  0.26680000  0.63259000  0.95001000  1.0
  H  H49  1  0.73320000  0.86741000  0.45001000  1.0
  C  C50  1  0.72761000  0.36675000  0.40970000  1.0
  C  C51  1  0.27239000  0.13325000  0.90970000  1.0
  C  C52  1  0.27239000  0.63325000  0.59030000  1.0
  C  C53  1  0.72761000  0.86675000  0.09030000  1.0
  C  C54  1  0.47657000  0.37508000  0.36601000  1.0
  C  C55  1  0.52344000  0.12492000  0.86601000  1.0
  C  C56  1  0.52344000  0.62492000  0.63399000  1.0
  C  C57  1  0.47657000  0.87508000  0.13399000  1.0
  C  C58  1  0.83158000  0.20181000  0.32744000  1.0
  C  C59  1  0.16842000  0.29819000  0.82743000  1.0
  C  C60  1  0.16842000  0.79819000  0.67257000  1.0
  C  C61  1  0.83158000  0.70181000  0.17256000  1.0
  C  C62  1  0.92082000  0.27408000  0.26684000  1.0
  C  C63  1  0.07918000  0.22592000  0.76684000  1.0
  C  C64  1  0.07918000  0.72592000  0.73316000  1.0
  C  C65  1  0.92082000  0.77408000  0.23316000  1.0
  C  C66  1  0.84946000  0.20410000  0.20957000  1.0
  C  C67  1  0.15054000  0.29590000  0.70957000  1.0
  C  C68  1  0.15054000  0.79590000  0.79043000  1.0
  C  C69  1  0.84945000  0.70410000  0.29043000  1.0
  C  C70  1  0.93579000  0.26689000  0.15352000  1.0
  C  C71  1  0.06421000  0.23310000  0.65352000  1.0
  C  C72  1  0.06421000  0.73310000  0.84648000  1.0
  C  C73  1  0.93579000  0.76690000  0.34648000  1.0
  C  C74  1  0.09473000  0.40074000  0.15396000  1.0
  C  C75  1  0.90527000  0.09925000  0.65396000  1.0
  C  C76  1  0.90526000  0.59925000  0.84604000  1.0
  C  C77  1  0.09473000  0.90075000  0.34604000  1.0
  C  C78  1  0.16513000  0.47287000  0.21123000  1.0
  C  C79  1  0.83487000  0.02713000  0.71123000  1.0
  C  C80  1  0.83487000  0.52713000  0.78877000  1.0
  C  C81  1  0.16513000  0.97287000  0.28877000  1.0
  C  C82  1  0.07751000  0.40992000  0.26710000  1.0
  C  C83  1  0.92249000  0.09008000  0.76710000  1.0
  C  C84  1  0.92249000  0.59008000  0.73290000  1.0
  C  C85  1  0.07751000  0.90992000  0.23290000  1.0
  C  C86  1  0.18791000  0.46254000  0.09258000  1.0
  C  C87  1  0.81209000  0.03746000  0.59258000  1.0
  C  C88  1  0.81209000  0.53745000  0.90742000  1.0
  C  C89  1  0.18791000  0.96254000  0.40742000  1.0
  C  C90  1  0.29782000  0.22447000  0.05578000  1.0
  C  C91  1  0.70219000  0.27553000  0.55578000  1.0
  C  C92  1  0.70218000  0.77553000  0.94422000  1.0
  C  C93  1  0.29782000  0.72447000  0.44422000  1.0
  C  C94  1  0.58674000  0.34654000  0.05676000  1.0
  C  C95  1  0.41326000  0.15346000  0.55676000  1.0
  C  C96  1  0.41326000  0.65346000  0.94324000  1.0
  C  C97  1  0.58674000  0.84654000  0.44324000  1.0
  N  N98  1  0.57974000  0.42030000  0.41895000  1.0
  N  N99  1  0.42027000  0.07971000  0.91895000  1.0
  N  N100  1  0.42026000  0.57970000  0.58106000  1.0
  N  N101  1  0.57974000  0.92030000  0.08106000  1.0
  N  N102  1  0.55221000  0.29628000  0.32480000  1.0
  N  N103  1  0.44779000  0.20372000  0.82480000  1.0
  N  N104  1  0.44779000  0.70372000  0.67520000  1.0
  N  N105  1  0.55221000  0.79628000  0.17520000  1.0
  N  N106  1  0.71104000  0.29246000  0.35369000  1.0
  N  N107  1  0.28895000  0.20754000  0.85369000  1.0
  N  N108  1  0.28895000  0.70754000  0.64631000  1.0
  N  N109  1  0.71105000  0.79246000  0.14631000  1.0
  N  N110  1  0.32687000  0.37997000  0.07574000  1.0
  N  N111  1  0.67314000  0.12003000  0.57574000  1.0
  N  N112  1  0.67314000  0.62003000  0.92426000  1.0
  N  N113  1  0.32686000  0.87997000  0.42426000  1.0
  N  N114  1  0.46073000  0.19967000  0.04320000  1.0
  N  N115  1  0.53927000  0.30033000  0.54320000  1.0
  N  N116  1  0.53927000  0.80033000  0.95680000  1.0
  N  N117  1  0.46073000  0.69967000  0.45680000  1.0
  N  N118  1  0.51021000  0.45981000  0.07712000  1.0
  N  N119  1  0.48980000  0.04019000  0.57713000  1.0
  N  N120  1  0.48979000  0.54019000  0.92287000  1.0
  N  N121  1  0.51020000  0.95981000  0.42288000  1.0
  Cl  Cl122  1  0.87788000  0.67927000  0.52474000  1.0
  Cl  Cl123  1  0.12212000  0.82074000  0.02473000  1.0
  Cl  Cl124  1  0.12212000  0.32074000  0.47527000  1.0
  Cl  Cl125  1  0.87788000  0.17926000  0.97527000  1.0
