# generated using pymatgen
data_Cd3H28C32(N3O7)2
_symmetry_space_group_name_H-M   'P 1'
_cell_length_a   7.89323000
_cell_length_b   8.73199000
_cell_length_c   14.19780000
_cell_angle_alpha   84.39510000
_cell_angle_beta   80.09080000
_cell_angle_gamma   72.47790000
_symmetry_Int_Tables_number   1
_chemical_formula_structural   Cd3H28C32(N3O7)2
_chemical_formula_sum   'Cd3 H28 C32 N6 O14'
_cell_volume   918.14199548
_cell_formula_units_Z   1
loop_
 _symmetry_equiv_pos_site_id
 _symmetry_equiv_pos_as_xyz
  1  'x, y, z'
loop_
 _atom_site_type_symbol
 _atom_site_label
 _atom_site_symmetry_multiplicity
 _atom_site_fract_x
 _atom_site_fract_y
 _atom_site_fract_z
 _atom_site_occupancy
  Cd  Cd0  1  0.50000000  0.50000000  0.00000000  1.0
  Cd  Cd1  1  0.84096000  0.86249000  0.82293000  1.0
  Cd  Cd2  1  0.15904000  0.13750000  0.17707000  1.0
  H  H3  1  0.41485000  0.85700000  0.95469000  1.0
  H  H4  1  0.58516000  0.14301000  0.04532000  1.0
  H  H5  1  0.24665000  0.84056000  0.03024000  1.0
  H  H6  1  0.75336000  0.15945000  0.96976000  1.0
  H  H7  1  0.41006000  0.36089000  0.49201000  1.0
  H  H8  1  0.58993000  0.63910000  0.50799000  1.0
  H  H9  1  0.82767000  0.86047000  0.60063000  1.0
  H  H10  1  0.17233000  0.13953000  0.39937000  1.0
  H  H11  1  0.01072000  0.72431000  0.45666000  1.0
  H  H12  1  0.98927000  0.27569000  0.54334000  1.0
  H  H13  1  0.34388000  0.39521000  0.64651000  1.0
  H  H14  1  0.65612000  0.60479000  0.35349000  1.0
  H  H15  1  0.13851000  0.54112000  0.78310000  1.0
  H  H16  1  0.86150000  0.45888000  0.21690000  1.0
  H  H17  1  0.23084000  0.71086000  0.16993000  1.0
  H  H18  1  0.76914000  0.28913000  0.83007000  1.0
  H  H19  1  0.16785000  0.71941000  0.34336000  1.0
  H  H20  1  0.83213000  0.28059000  0.65664000  1.0
  H  H21  1  0.53861000  0.23729000  0.35534000  1.0
  H  H22  1  0.46139000  0.76271000  0.64466000  1.0
  H  H23  1  0.59915000  0.25823000  0.17972000  1.0
  H  H24  1  0.40086000  0.74178000  0.82028000  1.0
  H  H25  1  0.34941000  0.29590000  0.80422000  1.0
  H  H26  1  0.65059000  0.70409000  0.19578000  1.0
  H  H27  1  0.29600000  0.18288000  0.72040000  1.0
  H  H28  1  0.70400000  0.81713000  0.27959000  1.0
  H  H29  1  0.98394000  0.22534000  0.99023000  1.0
  H  H30  1  0.01607000  0.77465000  0.00977000  1.0
  C  C31  1  0.94389000  0.75580000  0.60704000  1.0
  C  C32  1  0.05611000  0.24420000  0.39296000  1.0
  C  C33  1  0.04924000  0.68017000  0.52625000  1.0
  C  C34  1  0.95077000  0.31982000  0.47375000  1.0
  C  C35  1  0.19974000  0.54740000  0.53827000  1.0
  C  C36  1  0.80026000  0.45259000  0.46173000  1.0
  C  C37  1  0.22954000  0.49719000  0.63304000  1.0
  C  C38  1  0.77046000  0.50281000  0.36696000  1.0
  C  C39  1  0.11628000  0.57804000  0.70932000  1.0
  C  C40  1  0.88372000  0.42196000  0.29068000  1.0
  C  C41  1  0.29527000  0.60656000  0.21321000  1.0
  C  C42  1  0.70472000  0.39344000  0.78679000  1.0
  C  C43  1  0.25603000  0.60933000  0.31250000  1.0
  C  C44  1  0.74395000  0.39067000  0.68750000  1.0
  C  C45  1  0.34091000  0.47427000  0.36729000  1.0
  C  C46  1  0.65907000  0.52573000  0.63272000  1.0
  C  C47  1  0.46455000  0.34485000  0.31749000  1.0
  C  C48  1  0.53545000  0.65515000  0.68251000  1.0
  C  C49  1  0.49835000  0.35488000  0.21855000  1.0
  C  C50  1  0.50165000  0.64513000  0.78145000  1.0
  C  C51  1  0.50362000  0.05515000  0.79928000  1.0
  C  C52  1  0.49638000  0.94485000  0.20071000  1.0
  C  C53  1  0.32475000  0.18174000  0.79334000  1.0
  C  C54  1  0.67526000  0.81826000  0.20665000  1.0
  C  C55  1  0.16553000  0.16546000  0.86355000  1.0
  C  C56  1  0.83448000  0.83455000  0.13645000  1.0
  C  C57  1  0.07364000  0.05026000  0.83891000  1.0
  C  C58  1  0.92636000  0.94973000  0.16109000  1.0
  C  C59  1  0.10149000  0.24630000  0.94455000  1.0
  C  C60  1  0.89852000  0.75370000  0.05545000  1.0
  C  C61  1  0.18392000  0.35264000  0.98569000  1.0
  C  C62  1  0.81608000  0.64735000  0.01431000  1.0
  N  N63  1  0.97550000  0.70770000  0.69681000  1.0
  N  N64  1  0.02450000  0.29230000  0.30319000  1.0
  N  N65  1  0.32023000  0.45955000  0.46669000  1.0
  N  N66  1  0.67976000  0.54045000  0.53331000  1.0
  N  N67  1  0.41331000  0.48325000  0.16611000  1.0
  N  N68  1  0.58669000  0.51675000  0.83389000  1.0
  O  O69  1  0.53154000  0.97261000  0.87770000  1.0
  O  O70  1  0.46846000  0.02740000  0.12229000  1.0
  O  O71  1  0.62574000  0.04323000  0.72672000  1.0
  O  O72  1  0.37426000  0.95676000  0.27327000  1.0
  O  O73  1  0.92168000  0.04653000  0.89064000  1.0
  O  O74  1  0.07832000  0.95347000  0.10936000  1.0
  O  O75  1  0.14310000  0.96237000  0.76904000  1.0
  O  O76  1  0.85691000  0.03763000  0.23096000  1.0
  O  O77  1  0.26858000  0.43890000  0.93217000  1.0
  O  O78  1  0.73143000  0.56109000  0.06784000  1.0
  O  O79  1  0.16296000  0.35138000  0.07731000  1.0
  O  O80  1  0.83704000  0.64862000  0.92269000  1.0
  O  O81  1  0.35011000  0.77930000  0.98532000  1.0
  O  O82  1  0.64991000  0.22071000  0.01469000  1.0
