# generated using pymatgen
data_CdH14C16Se2(N2O)2
_symmetry_space_group_name_H-M   'P 1'
_cell_length_a   5.79291000
_cell_length_b   12.19594555
_cell_length_c   14.64163389
_cell_angle_alpha   69.70234280
_cell_angle_beta   78.60408943
_cell_angle_gamma   76.34745885
_symmetry_Int_Tables_number   1
_chemical_formula_structural   CdH14C16Se2(N2O)2
_chemical_formula_sum   'Cd2 H28 C32 Se4 N8 O4'
_cell_volume   935.15505317
_cell_formula_units_Z   2
loop_
 _symmetry_equiv_pos_site_id
 _symmetry_equiv_pos_as_xyz
  1  'x, y, z'
loop_
 _atom_site_type_symbol
 _atom_site_label
 _atom_site_symmetry_multiplicity
 _atom_site_fract_x
 _atom_site_fract_y
 _atom_site_fract_z
 _atom_site_occupancy
  Cd  Cd0  1  0.99998000  0.00000000  0.00000000  1.0
  Cd  Cd1  1  0.99996000  0.50001000  0.50002000  1.0
  H  H2  1  0.44508000  0.79925000  0.11331000  1.0
  H  H3  1  0.35745000  0.70102000  0.38654000  1.0
  H  H4  1  0.55489000  0.20076000  0.88671000  1.0
  H  H5  1  0.64246000  0.29898000  0.61349000  1.0
  H  H6  1  0.59265000  0.58142000  0.16535000  1.0
  H  H7  1  0.33971000  0.91891000  0.33452000  1.0
  H  H8  1  0.40734000  0.41859000  0.83466000  1.0
  H  H9  1  0.66024000  0.08107000  0.66550000  1.0
  H  H10  1  0.00720000  0.54790000  0.03957000  1.0
  H  H11  1  0.59575000  0.95173000  0.46083000  1.0
  H  H12  1  0.99287000  0.45209000  0.96042000  1.0
  H  H13  1  0.40423000  0.04829000  0.53917000  1.0
  H  H14  1  0.88980000  0.76817000  0.98862000  1.0
  H  H15  1  0.64704000  0.73129000  0.51163000  1.0
  H  H16  1  0.11020000  0.23183000  0.01138000  1.0
  H  H17  1  0.35289000  0.26872000  0.48839000  1.0
  H  H18  1  0.63563000  0.25668000  0.19496000  1.0
  H  H19  1  0.08778000  0.24355000  0.30479000  1.0
  H  H20  1  0.36451000  0.74333000  0.80499000  1.0
  H  H21  1  0.91228000  0.75643000  0.69520000  1.0
  H  H22  1  0.55765000  0.36167000  0.26132000  1.0
  H  H23  1  0.17953000  0.13860000  0.23837000  1.0
  H  H24  1  0.44250000  0.63834000  0.73864000  1.0
  H  H25  1  0.82051000  0.86136000  0.76165000  1.0
  H  H26  1  0.75878000  0.39003000  0.15206000  1.0
  H  H27  1  0.30059000  0.11002000  0.34744000  1.0
  H  H28  1  0.24133000  0.60999000  0.84789000  1.0
  H  H29  1  0.69942000  0.88996000  0.65258000  1.0
  C  C30  1  0.44351000  0.00659000  0.12238000  1.0
  C  C31  1  0.57265000  0.49378000  0.37739000  1.0
  C  C32  1  0.55640000  0.99341000  0.87763000  1.0
  C  C33  1  0.42736000  0.50621000  0.62263000  1.0
  C  C34  1  0.35399000  0.74044000  0.09741000  1.0
  C  C35  1  0.19190000  0.75968000  0.40251000  1.0
  C  C36  1  0.64602000  0.25955000  0.90260000  1.0
  C  C37  1  0.80800000  0.24032000  0.59750000  1.0
  C  C38  1  0.43539000  0.61780000  0.12651000  1.0
  C  C39  1  0.18003000  0.88235000  0.37341000  1.0
  C  C40  1  0.56462000  0.38221000  0.87349000  1.0
  C  C41  1  0.81992000  0.11764000  0.62659000  1.0
  C  C42  1  0.31280000  0.54513000  0.10546000  1.0
  C  C43  1  0.96388000  0.95475000  0.39461000  1.0
  C  C44  1  0.68727000  0.45487000  0.89452000  1.0
  C  C45  1  0.03607000  0.04526000  0.60539000  1.0
  C  C46  1  0.11100000  0.60019000  0.05645000  1.0
  C  C47  1  0.76830000  0.89947000  0.44385000  1.0
  C  C48  1  0.88907000  0.39980000  0.94353000  1.0
  C  C49  1  0.23164000  0.10055000  0.55616000  1.0
  C  C50  1  0.04319000  0.72286000  0.02867000  1.0
  C  C51  1  0.79502000  0.77684000  0.47150000  1.0
  C  C52  1  0.95683000  0.27714000  0.97133000  1.0
  C  C53  1  0.20492000  0.22317000  0.52850000  1.0
  C  C54  1  0.38908000  0.41216000  0.13094000  1.0
  C  C55  1  0.93207000  0.08780000  0.36892000  1.0
  C  C56  1  0.61099000  0.58785000  0.86904000  1.0
  C  C57  1  0.06792000  0.91221000  0.63108000  1.0
  C  C58  1  0.59782000  0.35133000  0.18776000  1.0
  C  C59  1  0.13658000  0.14888000  0.31195000  1.0
  C  C60  1  0.40231000  0.64868000  0.81220000  1.0
  C  C61  1  0.86346000  0.85109000  0.68806000  1.0
  Se  Se62  1  0.70655000  0.96412000  0.18302000  1.0
  Se  Se63  1  0.85437000  0.53568000  0.31677000  1.0
  Se  Se64  1  0.29339000  0.03586000  0.81699000  1.0
  Se  Se65  1  0.14560000  0.46428000  0.68326000  1.0
  N  N66  1  0.26976000  0.03450000  0.08284000  1.0
  N  N67  1  0.38695000  0.46611000  0.41694000  1.0
  N  N68  1  0.73014000  0.96553000  0.91715000  1.0
  N  N69  1  0.61303000  0.53391000  0.58308000  1.0
  N  N70  1  0.16236000  0.79232000  0.04885000  1.0
  N  N71  1  0.00361000  0.70762000  0.45115000  1.0
  N  N72  1  0.83763000  0.20767000  0.95116000  1.0
  N  N73  1  0.99629000  0.29238000  0.54886000  1.0
  O  O74  1  0.27750000  0.35642000  0.10438000  1.0
  O  O75  1  0.73804000  0.14323000  0.39536000  1.0
  O  O76  1  0.72255000  0.64357000  0.89562000  1.0
  O  O77  1  0.26196000  0.85678000  0.60464000  1.0
