# generated using pymatgen
data_GdH12(C5O3)3
_symmetry_space_group_name_H-M   'P 1'
_cell_length_a   10.05930000
_cell_length_b   12.42340000
_cell_length_c   12.82330000
_cell_angle_alpha   78.87000000
_cell_angle_beta   89.99900000
_cell_angle_gamma   89.99940000
_symmetry_Int_Tables_number   1
_chemical_formula_structural   GdH12(C5O3)3
_chemical_formula_sum   'Gd4 H48 C60 O36'
_cell_volume   1572.39592085
_cell_formula_units_Z   4
loop_
 _symmetry_equiv_pos_site_id
 _symmetry_equiv_pos_as_xyz
  1  'x, y, z'
loop_
 _atom_site_type_symbol
 _atom_site_label
 _atom_site_symmetry_multiplicity
 _atom_site_fract_x
 _atom_site_fract_y
 _atom_site_fract_z
 _atom_site_occupancy
  Gd  Gd0  1  0.27545000  0.40092000  0.07655000  1.0
  Gd  Gd1  1  0.77544000  0.59908000  0.42345000  1.0
  Gd  Gd2  1  0.72456000  0.59910000  0.92346000  1.0
  Gd  Gd3  1  0.22455000  0.40090000  0.57654000  1.0
  H  H4  1  0.12217000  0.69402000  0.88760000  1.0
  H  H5  1  0.62216000  0.30598000  0.61240000  1.0
  H  H6  1  0.87783000  0.30599000  0.11240000  1.0
  H  H7  1  0.37783000  0.69402000  0.38760000  1.0
  H  H8  1  0.99960000  0.78934000  0.72606000  1.0
  H  H9  1  0.49958000  0.21067000  0.77394000  1.0
  H  H10  1  0.00041000  0.21067000  0.27394000  1.0
  H  H11  1  0.50040000  0.78935000  0.22606000  1.0
  H  H12  1  0.35496000  0.79294000  0.53925000  1.0
  H  H13  1  0.85494000  0.20705000  0.96075000  1.0
  H  H14  1  0.64504000  0.20705000  0.46074000  1.0
  H  H15  1  0.14504000  0.79295000  0.03926000  1.0
  H  H16  1  0.47948000  0.70353000  0.70089000  1.0
  H  H17  1  0.97947000  0.29647000  0.79911000  1.0
  H  H18  1  0.52051000  0.29647000  0.29911000  1.0
  H  H19  1  0.02052000  0.70353000  0.20089000  1.0
  H  H20  1  0.01985000  0.86255000  0.34138000  1.0
  H  H21  1  0.51984000  0.13744000  0.15863000  1.0
  H  H22  1  0.98014000  0.13745000  0.65862000  1.0
  H  H23  1  0.48015000  0.86255000  0.84138000  1.0
  H  H24  1  0.08426000  0.02127000  0.19803000  1.0
  H  H25  1  0.58426000  0.97873000  0.30198000  1.0
  H  H26  1  0.91573000  0.97874000  0.80197000  1.0
  H  H27  1  0.41573000  0.02126000  0.69803000  1.0
  H  H28  1  0.30962000  0.15767000  0.42780000  1.0
  H  H29  1  0.80962000  0.84233000  0.07220000  1.0
  H  H30  1  0.69039000  0.84234000  0.57220000  1.0
  H  H31  1  0.19039000  0.15767000  0.92781000  1.0
  H  H32  1  0.25006000  0.99975000  0.56739000  1.0
  H  H33  1  0.75005000  0.00025000  0.93261000  1.0
  H  H34  1  0.74995000  0.00025000  0.43261000  1.0
  H  H35  1  0.24995000  0.99975000  0.06740000  1.0
  H  H36  1  0.30610000  0.32077000  0.86300000  1.0
  H  H37  1  0.80609000  0.67923000  0.63700000  1.0
  H  H38  1  0.69390000  0.67923000  0.13701000  1.0
  H  H39  1  0.19390000  0.32076000  0.36299000  1.0
  H  H40  1  0.43873000  0.30001000  0.93338000  1.0
  H  H41  1  0.93873000  0.69997000  0.56662000  1.0
  H  H42  1  0.56127000  0.69999000  0.06662000  1.0
  H  H43  1  0.06127000  0.30000000  0.43338000  1.0
  H  H44  1  0.42506000  0.49080000  0.25229000  1.0
  H  H45  1  0.92509000  0.50918000  0.24773000  1.0
  H  H46  1  0.57498000  0.50922000  0.74770000  1.0
  H  H47  1  0.07499000  0.49077000  0.75231000  1.0
  H  H48  1  0.29187000  0.55638000  0.23255000  1.0
  H  H49  1  0.79187000  0.44364000  0.26743000  1.0
  H  H50  1  0.70817000  0.44363000  0.76745000  1.0
  H  H51  1  0.20816000  0.55637000  0.73253000  1.0
  C  C52  1  0.37920000  0.62941000  0.89844000  1.0
  C  C53  1  0.87919000  0.37059000  0.60156000  1.0
  C  C54  1  0.62081000  0.37060000  0.10156000  1.0
  C  C55  1  0.12081000  0.62940000  0.39844000  1.0
  C  C56  1  0.30791000  0.69204000  0.80409000  1.0
  C  C57  1  0.80790000  0.30796000  0.69592000  1.0
  C  C58  1  0.69209000  0.30796000  0.19591000  1.0
  C  C59  1  0.19209000  0.69204000  0.30409000  1.0
  C  C60  1  0.17290000  0.71706000  0.81154000  1.0
  C  C61  1  0.67288000  0.28295000  0.68846000  1.0
  C  C62  1  0.82711000  0.28295000  0.18846000  1.0
  C  C63  1  0.32710000  0.71706000  0.31154000  1.0
  C  C64  1  0.10420000  0.76943000  0.72227000  1.0
  C  C65  1  0.60418000  0.23057000  0.77773000  1.0
  C  C66  1  0.89581000  0.23057000  0.27773000  1.0
  C  C67  1  0.39580000  0.76944000  0.22228000  1.0
  C  C68  1  0.16991000  0.79493000  0.62492000  1.0
  C  C69  1  0.66989000  0.20507000  0.87508000  1.0
  C  C70  1  0.83009000  0.20508000  0.37508000  1.0
  C  C71  1  0.33009000  0.79493000  0.12492000  1.0
  C  C72  1  0.30536000  0.77307000  0.61607000  1.0
  C  C73  1  0.80534000  0.22693000  0.88392000  1.0
  C  C74  1  0.69464000  0.22693000  0.38392000  1.0
  C  C75  1  0.19464000  0.77308000  0.11608000  1.0
  C  C76  1  0.37427000  0.72265000  0.70634000  1.0
  C  C77  1  0.87426000  0.27735000  0.79366000  1.0
  C  C78  1  0.62573000  0.27735000  0.29366000  1.0
  C  C79  1  0.12573000  0.72265000  0.20634000  1.0
  C  C80  1  0.13465000  0.92077000  0.46060000  1.0
  C  C81  1  0.63464000  0.07923000  0.03940000  1.0
  C  C82  1  0.86535000  0.07924000  0.53940000  1.0
  C  C83  1  0.36535000  0.92077000  0.96060000  1.0
  C  C84  1  0.08598000  0.92671000  0.35750000  1.0
  C  C85  1  0.58597000  0.07328000  0.14249000  1.0
  C  C86  1  0.91401000  0.07329000  0.64249000  1.0
  C  C87  1  0.41402000  0.92671000  0.85751000  1.0
  C  C88  1  0.12260000  0.01484000  0.27853000  1.0
  C  C89  1  0.62259000  0.98516000  0.22147000  1.0
  C  C90  1  0.87739000  0.98517000  0.72147000  1.0
  C  C91  1  0.37740000  0.01484000  0.77853000  1.0
  C  C92  1  0.20391000  0.09883000  0.30256000  1.0
  C  C93  1  0.70390000  0.90117000  0.19745000  1.0
  C  C94  1  0.79609000  0.90118000  0.69744000  1.0
  C  C95  1  0.29609000  0.09883000  0.80256000  1.0
  C  C96  1  0.24992000  0.09177000  0.40709000  1.0
  C  C97  1  0.74991000  0.90823000  0.09291000  1.0
  C  C98  1  0.75008000  0.90824000  0.59291000  1.0
  C  C99  1  0.25008000  0.09177000  0.90709000  1.0
  C  C100  1  0.21661000  0.00280000  0.48613000  1.0
  C  C101  1  0.71660000  0.99720000  0.01387000  1.0
  C  C102  1  0.78340000  0.99721000  0.51386000  1.0
  C  C103  1  0.28340000  0.00280000  0.98614000  1.0
  C  C104  1  0.22834000  0.20011000  0.22203000  1.0
  C  C105  1  0.72833000  0.79989000  0.27797000  1.0
  C  C106  1  0.77166000  0.79990000  0.77797000  1.0
  C  C107  1  0.27165000  0.20010000  0.72203000  1.0
  C  C108  1  0.00630000  0.47549000  0.94884000  1.0
  C  C109  1  0.50629000  0.52451000  0.55116000  1.0
  C  C110  1  0.99370000  0.52453000  0.05118000  1.0
  C  C111  1  0.49370000  0.47546000  0.44882000  1.0
  O  O112  1  0.31032000  0.57266000  0.97187000  1.0
  O  O113  1  0.81032000  0.42733000  0.52813000  1.0
  O  O114  1  0.68969000  0.42734000  0.02813000  1.0
  O  O115  1  0.18968000  0.57265000  0.47187000  1.0
  O  O116  1  0.50529000  0.63633000  0.89857000  1.0
  O  O117  1  0.00528000  0.36366000  0.60143000  1.0
  O  O118  1  0.49472000  0.36367000  0.10142000  1.0
  O  O119  1  0.99472000  0.63632000  0.39858000  1.0
  O  O120  1  0.09122000  0.83343000  0.53687000  1.0
  O  O121  1  0.59120000  0.16656000  0.96313000  1.0
  O  O122  1  0.90878000  0.16657000  0.46313000  1.0
  O  O123  1  0.40878000  0.83343000  0.03687000  1.0
  O  O124  1  0.21375000  0.20297000  0.12284000  1.0
  O  O125  1  0.71372000  0.79702000  0.37716000  1.0
  O  O126  1  0.78625000  0.79704000  0.87716000  1.0
  O  O127  1  0.28625000  0.20296000  0.62284000  1.0
  O  O128  1  0.26038000  0.28890000  0.25488000  1.0
  O  O129  1  0.76038000  0.71109000  0.24512000  1.0
  O  O130  1  0.73963000  0.71111000  0.74512000  1.0
  O  O131  1  0.23962000  0.28890000  0.75488000  1.0
  O  O132  1  0.09777000  0.40627000  0.94724000  1.0
  O  O133  1  0.59776000  0.59372000  0.55276000  1.0
  O  O134  1  0.90224000  0.59375000  0.05277000  1.0
  O  O135  1  0.40224000  0.40625000  0.44723000  1.0
  O  O136  1  0.92433000  0.50975000  0.87418000  1.0
  O  O137  1  0.42431000  0.49025000  0.62582000  1.0
  O  O138  1  0.07568000  0.49026000  0.12585000  1.0
  O  O139  1  0.57568000  0.50973000  0.37416000  1.0
  O  O140  1  0.35661000  0.34221000  0.92331000  1.0
  O  O141  1  0.85660000  0.65779000  0.57669000  1.0
  O  O142  1  0.64339000  0.65780000  0.07669000  1.0
  O  O143  1  0.14338000  0.34220000  0.42331000  1.0
  O  O144  1  0.35377000  0.51186000  0.20034000  1.0
  O  O145  1  0.85378000  0.48814000  0.29966000  1.0
  O  O146  1  0.64626000  0.48815000  0.79966000  1.0
  O  O147  1  0.14625000  0.51186000  0.70033000  1.0
