# generated using pymatgen
data_AlH10C16O5F
_symmetry_space_group_name_H-M   'P 1'
_cell_length_a   6.63317000
_cell_length_b   15.36918086
_cell_length_c   17.68460000
_cell_angle_alpha   92.51306967
_cell_angle_beta   99.64220000
_cell_angle_gamma   102.33279111
_symmetry_Int_Tables_number   1
_chemical_formula_structural   AlH10C16O5F
_chemical_formula_sum   'Al2 H20 C32 O10 F2'
_cell_volume   1730.45137053
_cell_formula_units_Z   2
loop_
 _symmetry_equiv_pos_site_id
 _symmetry_equiv_pos_as_xyz
  1  'x, y, z'
loop_
 _atom_site_type_symbol
 _atom_site_label
 _atom_site_symmetry_multiplicity
 _atom_site_fract_x
 _atom_site_fract_y
 _atom_site_fract_z
 _atom_site_occupancy
  Al  Al0  1  0.00148000  0.49866000  0.49965000  1.0
  Al  Al1  1  0.50125000  0.49860000  0.49933000  1.0
  H  H2  1  0.32546000  0.57425000  0.58294000  1.0
  H  H3  1  0.67729000  0.41972000  0.41777000  1.0
  H  H4  1  0.81627000  0.43857000  0.26755000  1.0
  H  H5  1  0.73927000  0.44047000  0.12447000  1.0
  H  H6  1  0.46499000  0.55660000  0.26864000  1.0
  H  H7  1  0.53565000  0.44161000  0.72940000  1.0
  H  H8  1  0.18134000  0.56801000  0.73377000  1.0
  H  H9  1  0.25148000  0.56986000  0.87720000  1.0
  H  H10  1  0.42011000  0.22790000  0.48184000  1.0
  H  H11  1  0.59793000  0.76958000  0.53027000  1.0
  H  H12  1  0.17268000  0.76824000  0.44867000  1.0
  H  H13  1  0.25101000  0.93133000  0.45406000  1.0
  H  H14  1  0.81618000  0.22860000  0.53958000  1.0
  H  H15  1  0.73591000  0.06561000  0.53347000  1.0
  H  H16  1  0.58952000  0.59743000  0.15327000  1.0
  H  H17  1  0.40192000  0.63614000  0.08651000  1.0
  H  H18  1  0.45219000  0.53014000  0.06787000  1.0
  H  H19  1  0.53754000  0.47119000  0.92983000  1.0
  H  H20  1  0.59324000  0.36602000  0.91195000  1.0
  H  H21  1  0.40581000  0.40335000  0.84410000  1.0
  C  C22  1  0.83556000  0.65786000  0.49027000  1.0
  C  C23  1  0.80914000  0.50495000  0.63813000  1.0
  C  C24  1  0.16743000  0.33928000  0.50888000  1.0
  C  C25  1  0.19321000  0.49388000  0.36112000  1.0
  C  C26  1  0.14596000  0.49677000  0.27614000  1.0
  C  C27  1  0.94025000  0.46493000  0.23590000  1.0
  C  C28  1  0.89764000  0.46651000  0.15657000  1.0
  C  C29  1  0.05854000  0.50205000  0.11599000  1.0
  C  C30  1  0.26685000  0.53645000  0.15657000  1.0
  C  C31  1  0.30647000  0.53177000  0.23607000  1.0
  C  C32  1  0.01270000  0.50321000  0.03512000  1.0
  C  C33  1  0.97715000  0.50406000  0.96508000  1.0
  C  C34  1  0.93371000  0.50411000  0.88408000  1.0
  C  C35  1  0.72805000  0.46659000  0.84252000  1.0
  C  C36  1  0.69208000  0.46907000  0.76277000  1.0
  C  C37  1  0.85361000  0.50495000  0.72341000  1.0
  C  C38  1  0.05658000  0.54052000  0.76473000  1.0
  C  C39  1  0.09537000  0.54109000  0.84428000  1.0
  C  C40  1  0.12255000  0.24023000  0.51066000  1.0
  C  C41  1  0.88082000  0.75698000  0.48935000  1.0
  C  C42  1  0.26930000  0.19282000  0.49375000  1.0
  C  C43  1  0.22160000  0.10046000  0.49083000  1.0
  C  C44  1  0.74282000  0.80457000  0.51370000  1.0
  C  C45  1  0.79239000  0.89701000  0.51861000  1.0
  C  C46  1  0.06398000  0.80467000  0.46789000  1.0
  C  C47  1  0.10778000  0.89739000  0.47157000  1.0
  C  C48  1  0.93133000  0.19231000  0.52583000  1.0
  C  C49  1  0.88722000  0.09963000  0.52243000  1.0
  C  C50  1  0.02909000  0.04819000  0.50395000  1.0
  C  C51  1  0.97618000  0.94903000  0.49835000  1.0
  C  C52  1  0.43758000  0.57714000  0.11431000  1.0
  C  C53  1  0.55623000  0.42463000  0.88384000  1.0
  O  O54  1  0.97970000  0.61884000  0.47813000  1.0
  O  O55  1  0.61735000  0.48948000  0.60520000  1.0
  O  O56  1  0.34502000  0.37690000  0.49343000  1.0
  O  O57  1  0.03711000  0.47650000  0.39588000  1.0
  O  O58  1  0.02313000  0.37839000  0.52072000  1.0
  O  O59  1  0.38533000  0.50824000  0.39353000  1.0
  O  O60  1  0.65788000  0.62012000  0.50556000  1.0
  O  O61  1  0.96619000  0.52113000  0.60373000  1.0
  O  O62  1  0.28766000  0.54168000  0.53266000  1.0
  O  O63  1  0.71522000  0.45548000  0.46656000  1.0
  F  F64  1  0.37765000  0.06148000  0.47346000  1.0
  F  F65  1  0.64891000  0.93605000  0.54620000  1.0
