# generated using pymatgen
data_CuH40C34N8(ClO2)2
_symmetry_space_group_name_H-M   'P 1'
_cell_length_a   12.66226136
_cell_length_b   12.66480000
_cell_length_c   20.29550000
_cell_angle_alpha   89.98910000
_cell_angle_beta   90.00040016
_cell_angle_gamma   119.99389190
_symmetry_Int_Tables_number   1
_chemical_formula_structural   CuH40C34N8(ClO2)2
_chemical_formula_sum   'Cu3 H120 C102 N24 Cl6 O12'
_cell_volume   2818.81590463
_cell_formula_units_Z   3
loop_
 _symmetry_equiv_pos_site_id
 _symmetry_equiv_pos_as_xyz
  1  'x, y, z'
loop_
 _atom_site_type_symbol
 _atom_site_label
 _atom_site_symmetry_multiplicity
 _atom_site_fract_x
 _atom_site_fract_y
 _atom_site_fract_z
 _atom_site_occupancy
  Cu  Cu0  1  0.62172000  0.00000000  1.00000000  1.0
  Cu  Cu1  1  0.37840000  0.37833000  0.33333333  1.0
  Cu  Cu2  1  0.00006000  0.62166000  0.66663000  1.0
  H  H3  1  0.88083000  0.11595000  0.95435000  1.0
  H  H4  1  0.23551000  0.11929000  0.28773000  1.0
  H  H5  1  0.88411000  0.76466000  0.62109000  1.0
  H  H6  1  0.76488000  0.88405000  0.04565000  1.0
  H  H7  1  0.11621000  0.88073000  0.71226000  1.0
  H  H8  1  0.11947000  0.23537000  0.37891000  1.0
  H  H9  1  0.98170000  0.11033000  0.84869000  1.0
  H  H10  1  0.12884000  0.01823000  0.18217000  1.0
  H  H11  1  0.88946000  0.87132000  0.51557000  1.0
  H  H12  1  0.87137000  0.88967000  0.15132000  1.0
  H  H13  1  0.11061000  0.98178000  0.81782000  1.0
  H  H14  1  0.01814000  0.12870000  0.48443000  1.0
  H  H15  1  0.85792000  0.95333000  0.76290000  1.0
  H  H16  1  0.09527000  0.14172000  0.09633000  1.0
  H  H17  1  0.04640000  0.90492000  0.42962000  1.0
  H  H18  1  0.90459000  0.04667000  0.23710000  1.0
  H  H19  1  0.95357000  0.85829000  0.90367000  1.0
  H  H20  1  0.14148000  0.09509000  0.57038000  1.0
  H  H21  1  0.55579000  0.81249000  0.89985000  1.0
  H  H22  1  0.25670000  0.44411000  0.23305000  1.0
  H  H23  1  0.18759000  0.74332000  0.56616000  1.0
  H  H24  1  0.74329000  0.18750000  0.10015000  1.0
  H  H25  1  0.81258000  0.55590000  0.76696000  1.0
  H  H26  1  0.44427000  0.25668000  0.43384000  1.0
  H  H27  1  0.52947000  0.73130000  0.79425000  1.0
  H  H28  1  0.20175000  0.47028000  0.12753000  1.0
  H  H29  1  0.26865000  0.79853000  0.46066000  1.0
  H  H30  1  0.79815000  0.26868000  0.20575000  1.0
  H  H31  1  0.73148000  0.52973000  0.87247000  1.0
  H  H32  1  0.47011000  0.20144000  0.53933000  1.0
  H  H33  1  0.46538000  0.64521000  0.68611000  1.0
  H  H34  1  0.17994000  0.53453000  0.01932000  1.0
  H  H35  1  0.35440000  0.82022000  0.35255000  1.0
  H  H36  1  0.82016000  0.35479000  0.31389000  1.0
  H  H37  1  0.64542000  0.46548000  0.98068000  1.0
  H  H38  1  0.53416000  0.17976000  0.64746000  1.0
  H  H39  1  0.48302000  0.53105000  0.78604000  1.0
  H  H40  1  0.04824000  0.51701000  0.11927000  1.0
  H  H41  1  0.46884000  0.95189000  0.45241000  1.0
  H  H42  1  0.95195000  0.46894000  0.21396000  1.0
  H  H43  1  0.53123000  0.48298000  0.88073000  1.0
  H  H44  1  0.51694000  0.04810000  0.54759000  1.0
  H  H45  1  0.58046000  0.49746000  0.73851000  1.0
  H  H46  1  0.91720000  0.41964000  0.07179000  1.0
  H  H47  1  0.50255000  0.08297000  0.40495000  1.0
  H  H48  1  0.08299000  0.50253000  0.26149000  1.0
  H  H49  1  0.49757000  0.58037000  0.92821000  1.0
  H  H50  1  0.41957000  0.91702000  0.59506000  1.0
  H  H51  1  0.40749000  0.38983000  0.65652000  1.0
  H  H52  1  0.98235000  0.59261000  0.98981000  1.0
  H  H53  1  0.61038000  0.01785000  0.32295000  1.0
  H  H54  1  0.01765000  0.61016000  0.34348000  1.0
  H  H55  1  0.38974000  0.40739000  0.01019000  1.0
  H  H56  1  0.59252000  0.98214000  0.67705000  1.0
  H  H57  1  0.19633000  0.32582000  0.69353000  1.0
  H  H58  1  0.12948000  0.80371000  0.02679000  1.0
  H  H59  1  0.67437000  0.87070000  0.35990000  1.0
  H  H60  1  0.87051000  0.67418000  0.30647000  1.0
  H  H61  1  0.32577000  0.19630000  0.97321000  1.0
  H  H62  1  0.80366000  0.12930000  0.64010000  1.0
  H  H63  1  0.28513000  0.48738000  0.69018000  1.0
  H  H64  1  0.20237000  0.71495000  0.02342000  1.0
  H  H65  1  0.51272000  0.79780000  0.35656000  1.0
  H  H66  1  0.79774000  0.51261000  0.30981000  1.0
  H  H67  1  0.48742000  0.28505000  0.97658000  1.0
  H  H68  1  0.71492000  0.20220000  0.64344000  1.0
  H  H69  1  0.25347000  0.41154000  0.76733000  1.0
  H  H70  1  0.15818000  0.74661000  0.10059000  1.0
  H  H71  1  0.58856000  0.84195000  0.43369000  1.0
  H  H72  1  0.84193000  0.58847000  0.23266000  1.0
  H  H73  1  0.41157000  0.25339000  0.89942000  1.0
  H  H74  1  0.74660000  0.15805000  0.56631000  1.0
  H  H75  1  0.36081000  0.28802000  0.79734000  1.0
  H  H76  1  0.92747000  0.63901000  0.13075000  1.0
  H  H77  1  0.71163000  0.07255000  0.46391000  1.0
  H  H78  1  0.07279000  0.71198000  0.20266000  1.0
  H  H79  1  0.28846000  0.36098000  0.86925000  1.0
  H  H80  1  0.63908000  0.92746000  0.53609000  1.0
  H  H81  1  0.46241000  0.28091000  0.73978000  1.0
  H  H82  1  0.81865000  0.53745000  0.07324000  1.0
  H  H83  1  0.71891000  0.18142000  0.40641000  1.0
  H  H84  1  0.18150000  0.71909000  0.26022000  1.0
  H  H85  1  0.28120000  0.46255000  0.92676000  1.0
  H  H86  1  0.53749000  0.81859000  0.59359000  1.0
  H  H87  1  0.30243000  0.20123000  0.72409000  1.0
  H  H88  1  0.89873000  0.69738000  0.05759000  1.0
  H  H89  1  0.79875000  0.10127000  0.39076000  1.0
  H  H90  1  0.10120000  0.79877000  0.27591000  1.0
  H  H91  1  0.20135000  0.30262000  0.94241000  1.0
  H  H92  1  0.69748000  0.89873000  0.60924000  1.0
  H  H93  1  0.64064000  0.58114000  0.62614000  1.0
  H  H94  1  0.94050000  0.35942000  0.95944000  1.0
  H  H95  1  0.41894000  0.05964000  0.29254000  1.0
  H  H96  1  0.05949000  0.41886000  0.37386000  1.0
  H  H97  1  0.58109000  0.64059000  0.04056000  1.0
  H  H98  1  0.35928000  0.94034000  0.70745000  1.0
  H  H99  1  0.73985000  0.63908000  0.54070000  1.0
  H  H100  1  0.89928000  0.26019000  0.87402000  1.0
  H  H101  1  0.36087000  0.10082000  0.20714000  1.0
  H  H102  1  0.10077000  0.36093000  0.45930000  1.0
  H  H103  1  0.63909000  0.73982000  0.12597000  1.0
  H  H104  1  0.26004000  0.89917000  0.79286000  1.0
  H  H105  1  0.79993000  0.58812000  0.43287000  1.0
  H  H106  1  0.78823000  0.20005000  0.76620000  1.0
  H  H107  1  0.41175000  0.21188000  0.09932000  1.0
  H  H108  1  0.21181000  0.41190000  0.56713000  1.0
  H  H109  1  0.58818000  0.79996000  0.23380000  1.0
  H  H110  1  0.19986000  0.78812000  0.90068000  1.0
  H  H111  1  0.63754000  0.47813000  0.34771000  1.0
  H  H112  1  0.84051000  0.36244000  0.68103000  1.0
  H  H113  1  0.52205000  0.15971000  0.01418000  1.0
  H  H114  1  0.15940000  0.52186000  0.65229000  1.0
  H  H115  1  0.47807000  0.63754000  0.31897000  1.0
  H  H116  1  0.36233000  0.84028000  0.98582000  1.0
  H  H117  1  0.37622000  0.49506000  0.46258000  1.0
  H  H118  1  0.11865000  0.62381000  0.79590000  1.0
  H  H119  1  0.50522000  0.88153000  0.12907000  1.0
  H  H120  1  0.88114000  0.50494000  0.53741000  1.0
  H  H121  1  0.49486000  0.37621000  0.20410000  1.0
  H  H122  1  0.62369000  0.11846000  0.87092000  1.0
  C  C123  1  0.83204000  0.04731000  0.91654000  1.0
  C  C124  1  0.21557000  0.16800000  0.24990000  1.0
  C  C125  1  0.95272000  0.78463000  0.58325000  1.0
  C  C126  1  0.78473000  0.95269000  0.08346000  1.0
  C  C127  1  0.04757000  0.83200000  0.75009000  1.0
  C  C128  1  0.16809000  0.21537000  0.41675000  1.0
  C  C129  1  0.88625000  0.04343000  0.85762000  1.0
  C  C130  1  0.15731000  0.11366000  0.19106000  1.0
  C  C131  1  0.95649000  0.84289000  0.52440000  1.0
  C  C132  1  0.84282000  0.95657000  0.14238000  1.0
  C  C133  1  0.04365000  0.88636000  0.80894000  1.0
  C  C134  1  0.11360000  0.15713000  0.47560000  1.0
  C  C135  1  0.81851000  0.95687000  0.80980000  1.0
  C  C136  1  0.13832000  0.18125000  0.14319000  1.0
  C  C137  1  0.04298000  0.86188000  0.47647000  1.0
  C  C138  1  0.86163000  0.04311000  0.19021000  1.0
  C  C139  1  0.95708000  0.81877000  0.85681000  1.0
  C  C140  1  0.18110000  0.13812000  0.52353000  1.0
  C  C141  1  0.69674000  0.87050000  0.82405000  1.0
  C  C142  1  0.17378000  0.30308000  0.15732000  1.0
  C  C143  1  0.12949000  0.82656000  0.49057000  1.0
  C  C144  1  0.82623000  0.12949000  0.17595000  1.0
  C  C145  1  0.87070000  0.69693000  0.84268000  1.0
  C  C146  1  0.30293000  0.17343000  0.50942000  1.0
  C  C147  1  0.64900000  0.87837000  0.88500000  1.0
  C  C148  1  0.22941000  0.35090000  0.21825000  1.0
  C  C149  1  0.12168000  0.77069000  0.55144000  1.0
  C  C150  1  0.77063000  0.12163000  0.11500000  1.0
  C  C151  1  0.87852000  0.64911000  0.78175000  1.0
  C  C152  1  0.35098000  0.22930000  0.44856000  1.0
  C  C153  1  0.64959000  0.73949000  0.72407000  1.0
  C  C154  1  0.08995000  0.35035000  0.05728000  1.0
  C  C155  1  0.26051000  0.91056000  0.39053000  1.0
  C  C156  1  0.91009000  0.26051000  0.27593000  1.0
  C  C157  1  0.73961000  0.64966000  0.94272000  1.0
  C  C158  1  0.34994000  0.08943000  0.60947000  1.0
  C  C159  1  0.54159000  0.62734000  0.69235000  1.0
  C  C160  1  0.08585000  0.45841000  0.02556000  1.0
  C  C161  1  0.37251000  0.91437000  0.35874000  1.0
  C  C162  1  0.91424000  0.37266000  0.30765000  1.0
  C  C163  1  0.62745000  0.54160000  0.97444000  1.0
  C  C164  1  0.45813000  0.08561000  0.64126000  1.0
  C  C165  1  0.50251000  0.51318000  0.73566000  1.0
  C  C166  1  0.01087000  0.49756000  0.06889000  1.0
  C  C167  1  0.48676000  0.98929000  0.40203000  1.0
  C  C168  1  0.98932000  0.48681000  0.26434000  1.0
  C  C169  1  0.51331000  0.50243000  0.93111000  1.0
  C  C170  1  0.49746000  0.01070000  0.59797000  1.0
  C  C171  1  0.39092000  0.39784000  0.70921000  1.0
  C  C172  1  0.00708000  0.60917000  0.04248000  1.0
  C  C173  1  0.60219000  0.99307000  0.37562000  1.0
  C  C174  1  0.99308000  0.60216000  0.29079000  1.0
  C  C175  1  0.39791000  0.39083000  0.95752000  1.0
  C  C176  1  0.60911000  0.00692000  0.62438000  1.0
  C  C177  1  0.27501000  0.40615000  0.71531000  1.0
  C  C178  1  0.13127000  0.72509000  0.04856000  1.0
  C  C179  1  0.59395000  0.86890000  0.38167000  1.0
  C  C180  1  0.86885000  0.59384000  0.28469000  1.0
  C  C181  1  0.40618000  0.27491000  0.95144000  1.0
  C  C182  1  0.72504000  0.13109000  0.61833000  1.0
  C  C183  1  0.37840000  0.28547000  0.74441000  1.0
  C  C184  1  0.90721000  0.62146000  0.07783000  1.0
  C  C185  1  0.71437000  0.09286000  0.41100000  1.0
  C  C186  1  0.09293000  0.71453000  0.25559000  1.0
  C  C187  1  0.28574000  0.37854000  0.92217000  1.0
  C  C188  1  0.62151000  0.90714000  0.58901000  1.0
  C  C189  1  0.50709000  0.59498000  0.57357000  1.0
  C  C190  1  0.08786000  0.49289000  0.90680000  1.0
  C  C191  1  0.40498000  0.91223000  0.23999000  1.0
  C  C192  1  0.91209000  0.40501000  0.42643000  1.0
  C  C193  1  0.59498000  0.50712000  0.09320000  1.0
  C  C194  1  0.49274000  0.08776000  0.76001000  1.0
  C  C195  1  0.55261000  0.56945000  0.51075000  1.0
  C  C196  1  0.01677000  0.44739000  0.84402000  1.0
  C  C197  1  0.43066000  0.98338000  0.17719000  1.0
  C  C198  1  0.98315000  0.43056000  0.48925000  1.0
  C  C199  1  0.56938000  0.55262000  0.15598000  1.0
  C  C200  1  0.44727000  0.01661000  0.82281000  1.0
  C  C201  1  0.67339000  0.59745000  0.50139000  1.0
  C  C202  1  0.92409000  0.32661000  0.83468000  1.0
  C  C203  1  0.40254000  0.07605000  0.16782000  1.0
  C  C204  1  0.07593000  0.40255000  0.49861000  1.0
  C  C205  1  0.59748000  0.67339000  0.16532000  1.0
  C  C206  1  0.32648000  0.92394000  0.83217000  1.0
  C  C207  1  0.70750000  0.56949000  0.44171000  1.0
  C  C208  1  0.86199000  0.29251000  0.77502000  1.0
  C  C209  1  0.43049000  0.13815000  0.10814000  1.0
  C  C210  1  0.13800000  0.43053000  0.55829000  1.0
  C  C211  1  0.56949000  0.70749000  0.22498000  1.0
  C  C212  1  0.29233000  0.86185000  0.89186000  1.0
  C  C213  1  0.61898000  0.51001000  0.39368000  1.0
  C  C214  1  0.89091000  0.38103000  0.72701000  1.0
  C  C215  1  0.49014000  0.10928000  0.06014000  1.0
  C  C216  1  0.10897000  0.49000000  0.60633000  1.0
  C  C217  1  0.50990000  0.61898000  0.27299000  1.0
  C  C218  1  0.38085000  0.89071000  0.93986000  1.0
  C  C219  1  0.47016000  0.51439000  0.45911000  1.0
  C  C220  1  0.04407000  0.52986000  0.79242000  1.0
  C  C221  1  0.48584000  0.95610000  0.12558000  1.0
  C  C222  1  0.95575000  0.48560000  0.54089000  1.0
  C  C223  1  0.51421000  0.47014000  0.20758000  1.0
  C  C224  1  0.52974000  0.04389000  0.87441000  1.0
  N  N225  1  0.71400000  0.96672000  0.92863000  1.0
  N  N226  1  0.25291000  0.28601000  0.26193000  1.0
  N  N227  1  0.03334000  0.74714000  0.59517000  1.0
  N  N228  1  0.74728000  0.03328000  0.07137000  1.0
  N  N229  1  0.96691000  0.71399000  0.73807000  1.0
  N  N230  1  0.28619000  0.25284000  0.40483000  1.0
  N  N231  1  0.61896000  0.77755000  0.78100000  1.0
  N  N232  1  0.15855000  0.38084000  0.11425000  1.0
  N  N233  1  0.22244000  0.84185000  0.44746000  1.0
  N  N234  1  0.84140000  0.22244000  0.21900000  1.0
  N  N235  1  0.77773000  0.61917000  0.88576000  1.0
  N  N236  1  0.38059000  0.15813000  0.55253000  1.0
  N  N237  1  0.57619000  0.60895000  0.62741000  1.0
  N  N238  1  0.03277000  0.42385000  0.96065000  1.0
  N  N239  1  0.39099000  0.96736000  0.29380000  1.0
  N  N240  1  0.96723000  0.39106000  0.37260000  1.0
  N  N241  1  0.60893000  0.57616000  0.03935000  1.0
  N  N242  1  0.42361000  0.03263000  0.70620000  1.0
  N  N243  1  0.50288000  0.48329000  0.40260000  1.0
  N  N244  1  0.98024000  0.49712000  0.73591000  1.0
  N  N245  1  0.51697000  0.01998000  0.06910000  1.0
  N  N246  1  0.01958000  0.51671000  0.59740000  1.0
  N  N247  1  0.48314000  0.50289000  0.26409000  1.0
  N  N248  1  0.49698000  0.98000000  0.93090000  1.0
  Cl  Cl249  1  0.49140000  0.74545000  0.02742000  1.0
  Cl  Cl250  1  0.25410000  0.50862000  0.36069000  1.0
  Cl  Cl251  1  0.25449000  0.74584000  0.69405000  1.0
  Cl  Cl252  1  0.74594000  0.25454000  0.97259000  1.0
  Cl  Cl253  1  0.74548000  0.49138000  0.63931000  1.0
  Cl  Cl254  1  0.50864000  0.25415000  0.30594000  1.0
  O  O255  1  0.75405000  0.78878000  0.70174000  1.0
  O  O256  1  0.03479000  0.24592000  0.03494000  1.0
  O  O257  1  0.21129000  0.96586000  0.36829000  1.0
  O  O258  1  0.96527000  0.21122000  0.29826000  1.0
  O  O259  1  0.78887000  0.75408000  0.96506000  1.0
  O  O260  1  0.24542000  0.03415000  0.63171000  1.0
  O  O261  1  0.41280000  0.60257000  0.57423000  1.0
  O  O262  1  0.18979000  0.58712000  0.90740000  1.0
  O  O263  1  0.39730000  0.81032000  0.24064000  1.0
  O  O264  1  0.81022000  0.39744000  0.42577000  1.0
  O  O265  1  0.60268000  0.41290000  0.09260000  1.0
  O  O266  1  0.58697000  0.18966000  0.75935000  1.0
