# generated using pymatgen
data_Na2CaH26C20O17
_symmetry_space_group_name_H-M   'P 1'
_cell_length_a   9.43158000
_cell_length_b   10.51390000
_cell_length_c   14.16390000
_cell_angle_alpha   102.50900000
_cell_angle_beta   104.80700000
_cell_angle_gamma   91.63710000
_symmetry_Int_Tables_number   1
_chemical_formula_structural   Na2CaH26C20O17
_chemical_formula_sum   'Na4 Ca2 H52 C40 O34'
_cell_volume   1320.40473997
_cell_formula_units_Z   2
loop_
 _symmetry_equiv_pos_site_id
 _symmetry_equiv_pos_as_xyz
  1  'x, y, z'
loop_
 _atom_site_type_symbol
 _atom_site_label
 _atom_site_symmetry_multiplicity
 _atom_site_fract_x
 _atom_site_fract_y
 _atom_site_fract_z
 _atom_site_occupancy
  Na  Na0  1  0.86928000  0.44238000  0.62331000  1.0
  Na  Na1  1  0.13072000  0.55762000  0.37669000  1.0
  Na  Na2  1  0.91754000  0.82798000  0.89667000  1.0
  Na  Na3  1  0.08246000  0.17202000  0.10333000  1.0
  Ca  Ca4  1  0.36644000  0.14302000  0.76411000  1.0
  Ca  Ca5  1  0.63356000  0.85699000  0.23589000  1.0
  H  H6  1  0.74707000  0.16490000  0.10143000  1.0
  H  H7  1  0.25293000  0.83509000  0.89857000  1.0
  H  H8  1  0.76183000  0.34040000  0.25091000  1.0
  H  H9  1  0.23817000  0.65959000  0.74910000  1.0
  H  H10  1  0.56403000  0.49560000  0.24977000  1.0
  H  H11  1  0.43598000  0.50440000  0.75023000  1.0
  H  H12  1  0.36422000  0.48141000  0.09832000  1.0
  H  H13  1  0.63579000  0.51859000  0.90169000  1.0
  H  H14  1  0.28743000  0.49372000  0.93859000  1.0
  H  H15  1  0.71258000  0.50629000  0.06142000  1.0
  H  H16  1  0.15407000  0.38149000  0.95539000  1.0
  H  H17  1  0.84593000  0.61852000  0.04461000  1.0
  H  H18  1  0.74494000  0.07679000  0.93966000  1.0
  H  H19  1  0.25505000  0.92322000  0.06034000  1.0
  H  H20  1  0.63423000  0.97877000  0.98626000  1.0
  H  H21  1  0.36577000  0.02123000  0.01374000  1.0
  H  H22  1  0.04453000  0.81096000  0.44913000  1.0
  H  H23  1  0.95547000  0.18904000  0.55087000  1.0
  H  H24  1  0.07719000  0.79880000  0.28026000  1.0
  H  H25  1  0.92280000  0.20120000  0.71974000  1.0
  H  H26  1  0.25821000  0.95901000  0.25570000  1.0
  H  H27  1  0.74178000  0.04098000  0.74429000  1.0
  H  H28  1  0.40743000  0.12450000  0.39766000  1.0
  H  H29  1  0.59257000  0.87549000  0.60234000  1.0
  H  H30  1  0.44748000  0.31662000  0.54419000  1.0
  H  H31  1  0.55251000  0.68337000  0.45580000  1.0
  H  H32  1  0.57249000  0.19123000  0.54492000  1.0
  H  H33  1  0.42750000  0.80877000  0.45507000  1.0
  H  H34  1  0.99107000  0.88721000  0.58805000  1.0
  H  H35  1  0.00893000  0.11280000  0.41196000  1.0
  H  H36  1  0.14736000  0.79390000  0.61294000  1.0
  H  H37  1  0.85264000  0.20610000  0.38706000  1.0
  H  H38  1  0.91813000  0.72982000  0.67407000  1.0
  H  H39  1  0.08187000  0.27018000  0.32593000  1.0
  H  H40  1  0.75008000  0.68955000  0.62728000  1.0
  H  H41  1  0.24992000  0.31045000  0.37271000  1.0
  H  H42  1  0.65347000  0.35471000  0.39502000  1.0
  H  H43  1  0.34652000  0.64529000  0.60498000  1.0
  H  H44  1  0.79326000  0.45620000  0.42475000  1.0
  H  H45  1  0.20674000  0.54380000  0.57524000  1.0
  H  H46  1  0.05612000  0.85244000  0.11067000  1.0
  H  H47  1  0.94387000  0.14756000  0.88933000  1.0
  H  H48  1  0.92081000  0.93254000  0.11396000  1.0
  H  H49  1  0.07919000  0.06747000  0.88604000  1.0
  H  H50  1  0.08512000  0.63031000  0.98628000  1.0
  H  H51  1  0.91488000  0.36969000  0.01373000  1.0
  H  H52  1  0.00785000  0.55848000  0.87575000  1.0
  H  H53  1  0.99215000  0.44153000  0.12426000  1.0
  H  H54  1  0.12197000  0.35684000  0.50698000  1.0
  H  H55  1  0.87803000  0.64316000  0.49302000  1.0
  H  H56  1  0.14625000  0.35610000  0.62485000  1.0
  H  H57  1  0.85375000  0.64390000  0.37515000  1.0
  C  C58  1  0.44244000  0.31581000  0.01082000  1.0
  C  C59  1  0.55757000  0.68419000  0.98918000  1.0
  C  C60  1  0.54951000  0.22438000  0.01310000  1.0
  C  C61  1  0.45049000  0.77562000  0.98690000  1.0
  C  C62  1  0.66392000  0.23427000  0.09920000  1.0
  C  C63  1  0.33608000  0.76573000  0.90080000  1.0
  C  C64  1  0.67028000  0.33288000  0.18460000  1.0
  C  C65  1  0.32973000  0.66711000  0.81540000  1.0
  C  C66  1  0.56156000  0.41926000  0.18375000  1.0
  C  C67  1  0.43844000  0.58074000  0.81625000  1.0
  C  C68  1  0.44723000  0.41175000  0.09663000  1.0
  C  C69  1  0.55278000  0.58825000  0.90337000  1.0
  C  C70  1  0.23159000  0.39393000  0.91088000  1.0
  C  C71  1  0.76842000  0.60608000  0.08913000  1.0
  C  C72  1  0.63344000  0.02969000  0.92600000  1.0
  C  C73  1  0.36655000  0.97032000  0.07400000  1.0
  C  C74  1  0.15041000  0.37949000  0.80068000  1.0
  C  C75  1  0.84960000  0.62052000  0.19932000  1.0
  C  C76  1  0.59406000  0.93080000  0.82381000  1.0
  C  C77  1  0.40594000  0.06920000  0.17618000  1.0
  C  C78  1  0.30937000  0.06557000  0.50646000  1.0
  C  C79  1  0.69063000  0.93442000  0.49354000  1.0
  C  C80  1  0.20658000  0.97545000  0.52022000  1.0
  C  C81  1  0.79342000  0.02455000  0.47978000  1.0
  C  C82  1  0.12366000  0.88027000  0.43877000  1.0
  C  C83  1  0.87633000  0.11973000  0.56123000  1.0
  C  C84  1  0.14172000  0.87453000  0.34299000  1.0
  C  C85  1  0.85827000  0.12546000  0.65701000  1.0
  C  C86  1  0.24234000  0.96310000  0.32946000  1.0
  C  C87  1  0.75766000  0.03689000  0.67054000  1.0
  C  C88  1  0.32689000  0.05893000  0.41082000  1.0
  C  C89  1  0.67311000  0.94107000  0.58917000  1.0
  C  C90  1  0.49870000  0.24453000  0.58524000  1.0
  C  C91  1  0.50130000  0.75546000  0.41475000  1.0
  C  C92  1  0.10523000  0.88986000  0.63385000  1.0
  C  C93  1  0.89477000  0.11015000  0.36615000  1.0
  C  C94  1  0.59113000  0.31565000  0.69069000  1.0
  C  C95  1  0.40888000  0.68434000  0.30930000  1.0
  C  C96  1  0.10231000  0.91859000  0.74262000  1.0
  C  C97  1  0.89770000  0.08141000  0.25738000  1.0
  O  O98  1  0.33847000  0.29987000  0.91964000  1.0
  O  O99  1  0.66154000  0.70014000  0.08036000  1.0
  O  O100  1  0.52957000  0.12746000  0.92648000  1.0
  O  O101  1  0.47042000  0.87255000  0.07352000  1.0
  O  O102  1  0.19704000  0.30351000  0.73400000  1.0
  O  O103  1  0.80297000  0.69650000  0.26601000  1.0
  O  O104  1  0.48387000  0.94829000  0.75606000  1.0
  O  O105  1  0.51612000  0.05171000  0.24394000  1.0
  O  O106  1  0.04155000  0.44615000  0.78238000  1.0
  O  O107  1  0.95846000  0.55386000  0.21762000  1.0
  O  O108  1  0.68049000  0.84243000  0.81620000  1.0
  O  O109  1  0.31951000  0.15757000  0.18380000  1.0
  O  O110  1  0.38600000  0.15419000  0.59235000  1.0
  O  O111  1  0.61400000  0.84581000  0.40765000  1.0
  O  O112  1  0.19569000  0.98993000  0.61691000  1.0
  O  O113  1  0.80431000  0.01007000  0.38309000  1.0
  O  O114  1  0.56507000  0.28114000  0.76586000  1.0
  O  O115  1  0.43494000  0.71886000  0.23414000  1.0
  O  O116  1  0.17365000  0.02135000  0.80339000  1.0
  O  O117  1  0.82635000  0.97866000  0.19662000  1.0
  O  O118  1  0.68574000  0.40273000  0.69201000  1.0
  O  O119  1  0.31426000  0.59726000  0.30798000  1.0
  O  O120  1  0.02537000  0.83571000  0.76597000  1.0
  O  O121  1  0.97463000  0.16429000  0.23403000  1.0
  O  O122  1  0.84525000  0.66495000  0.61793000  1.0
  O  O123  1  0.15475000  0.33505000  0.38207000  1.0
  O  O124  1  0.74762000  0.38281000  0.44462000  1.0
  O  O125  1  0.25237000  0.61719000  0.55538000  1.0
  O  O126  1  0.99248000  0.90565000  0.07289000  1.0
  O  O127  1  0.00752000  0.09435000  0.92711000  1.0
  O  O128  1  0.99653000  0.62962000  0.93287000  1.0
  O  O129  1  0.00347000  0.37039000  0.06713000  1.0
  O  O130  1  0.10189000  0.40183000  0.57068000  1.0
  O  O131  1  0.89811000  0.59817000  0.42932000  1.0
