# generated using pymatgen
data_AlH9C15(SO2)3
_symmetry_space_group_name_H-M   'P 1'
_cell_length_a   3.96483000
_cell_length_b   20.10590000
_cell_length_c   20.10590000
_cell_angle_alpha   60.00000000
_cell_angle_beta   89.99970000
_cell_angle_gamma   90.00000000
_symmetry_Int_Tables_number   1
_chemical_formula_structural   AlH9C15(SO2)3
_chemical_formula_sum   'Al2 H18 C30 S6 O12'
_cell_volume   1388.04082218
_cell_formula_units_Z   2
loop_
 _symmetry_equiv_pos_site_id
 _symmetry_equiv_pos_as_xyz
  1  'x, y, z'
loop_
 _atom_site_type_symbol
 _atom_site_label
 _atom_site_symmetry_multiplicity
 _atom_site_fract_x
 _atom_site_fract_y
 _atom_site_fract_z
 _atom_site_occupancy
  Al  Al0  1  0.00195000  0.00000000  0.50000000  1.0
  Al  Al1  1  0.00190000  0.66666000  0.16667000  1.0
  H  H2  1  0.71406000  0.18869000  0.26811000  1.0
  H  H3  1  0.48706000  0.27252000  0.20297000  1.0
  H  H4  1  0.26968000  0.18736000  0.26970000  1.0
  H  H5  1  0.71409000  0.47798000  0.39856000  1.0
  H  H6  1  0.48705000  0.39414000  0.46371000  1.0
  H  H7  1  0.26971000  0.47932000  0.39697000  1.0
  H  H8  1  0.71406000  0.76812000  0.54320000  1.0
  H  H9  1  0.48707000  0.70297000  0.52451000  1.0
  H  H10  1  0.26968000  0.76969000  0.54295000  1.0
  H  H11  1  0.71408000  0.89856000  0.12346000  1.0
  H  H12  1  0.48704000  0.96370000  0.14215000  1.0
  H  H13  1  0.26970000  0.89697000  0.12371000  1.0
  H  H14  1  0.71406000  0.04320000  0.68868000  1.0
  H  H15  1  0.48706000  0.02451000  0.77252000  1.0
  H  H16  1  0.26968000  0.04294000  0.68736000  1.0
  H  H17  1  0.71409000  0.62346000  0.97798000  1.0
  H  H18  1  0.48705000  0.64214000  0.89415000  1.0
  H  H19  1  0.26970000  0.62371000  0.97932000  1.0
  C  C20  1  0.50255000  0.94105000  0.61798000  1.0
  C  C21  1  0.50256000  0.11798000  0.44097000  1.0
  C  C22  1  0.50256000  0.94097000  0.44105000  1.0
  C  C23  1  0.50252000  0.54868000  0.22570000  1.0
  C  C24  1  0.50253000  0.72570000  0.22562000  1.0
  C  C25  1  0.50252000  0.72562000  0.04868000  1.0
  C  C26  1  0.49375000  0.25032000  0.31931000  1.0
  C  C27  1  0.49375000  0.41634000  0.34737000  1.0
  C  C28  1  0.50261000  0.20275000  0.39844000  1.0
  C  C29  1  0.50258000  0.46391000  0.26824000  1.0
  C  C30  1  0.50952000  0.33854000  0.36540000  1.0
  C  C31  1  0.50952000  0.32813000  0.30128000  1.0
  C  C32  1  0.49375000  0.81930000  0.43037000  1.0
  C  C33  1  0.49375000  0.84737000  0.23629000  1.0
  C  C34  1  0.50261000  0.89844000  0.39881000  1.0
  C  C35  1  0.50259000  0.76823000  0.26785000  1.0
  C  C36  1  0.50951000  0.86540000  0.29606000  1.0
  C  C37  1  0.50951000  0.80128000  0.37060000  1.0
  C  C38  1  0.49374000  0.93036000  0.75033000  1.0
  C  C39  1  0.49375000  0.73629000  0.91634000  1.0
  C  C40  1  0.50260000  0.89881000  0.70275000  1.0
  C  C41  1  0.50258000  0.76784000  0.96392000  1.0
  C  C42  1  0.50951000  0.79607000  0.83854000  1.0
  C  C43  1  0.50950000  0.87060000  0.82812000  1.0
  C  C44  1  0.49012000  0.22355000  0.26182000  1.0
  C  C45  1  0.49013000  0.44311000  0.40486000  1.0
  C  C46  1  0.49012000  0.76182000  0.51463000  1.0
  C  C47  1  0.49013000  0.90485000  0.15203000  1.0
  C  C48  1  0.49012000  0.01463000  0.72355000  1.0
  C  C49  1  0.49013000  0.65202000  0.94312000  1.0
  S  S50  1  0.52582000  0.25144000  0.44942000  1.0
  S  S51  1  0.52579000  0.41522000  0.21726000  1.0
  S  S52  1  0.52581000  0.94941000  0.29914000  1.0
  S  S53  1  0.52580000  0.71726000  0.36752000  1.0
  S  S54  1  0.52580000  0.79913000  0.75145000  1.0
  S  S55  1  0.52579000  0.86752000  0.91522000  1.0
  O  O56  1  0.73596000  0.99051000  0.42544000  1.0
  O  O57  1  0.73595000  0.92543000  0.58405000  1.0
  O  O58  1  0.73596000  0.08404000  0.49052000  1.0
  O  O59  1  0.26834000  0.92544000  0.49036000  1.0
  O  O60  1  0.26835000  0.08420000  0.42544000  1.0
  O  O61  1  0.26834000  0.99037000  0.58420000  1.0
  O  O62  1  0.73592000  0.74123000  0.08262000  1.0
  O  O63  1  0.73592000  0.58262000  0.17615000  1.0
  O  O64  1  0.73592000  0.67615000  0.24123000  1.0
  O  O65  1  0.26830000  0.67630000  0.08247000  1.0
  O  O66  1  0.26830000  0.74122000  0.17631000  1.0
  O  O67  1  0.26829000  0.58247000  0.24123000  1.0
