# generated using pymatgen
data_Co2H23C34(NO2)5
_symmetry_space_group_name_H-M   'P 1'
_cell_length_a   13.62300000
_cell_length_b   14.95032062
_cell_length_c   19.32070000
_cell_angle_alpha   83.96173645
_cell_angle_beta   69.40550000
_cell_angle_gamma   62.91704228
_symmetry_Int_Tables_number   1
_chemical_formula_structural   Co2H23C34(NO2)5
_chemical_formula_sum   'Co8 H92 C136 N20 O40'
_cell_volume   3272.49584272
_cell_formula_units_Z   4
loop_
 _symmetry_equiv_pos_site_id
 _symmetry_equiv_pos_as_xyz
  1  'x, y, z'
loop_
 _atom_site_type_symbol
 _atom_site_label
 _atom_site_symmetry_multiplicity
 _atom_site_fract_x
 _atom_site_fract_y
 _atom_site_fract_z
 _atom_site_occupancy
  Co  Co0  1  0.88724000  0.08553000  0.49356000  1.0
  Co  Co1  1  0.07743000  0.15210000  0.43618000  1.0
  Co  Co2  1  0.97362000  0.41637000  0.00565000  1.0
  Co  Co3  1  0.17099000  0.35058000  0.05652000  1.0
  Co  Co4  1  0.10424000  0.91659000  0.50606000  1.0
  Co  Co5  1  0.92173000  0.85090000  0.55669000  1.0
  Co  Co6  1  0.03328000  0.58577000  0.99407000  1.0
  Co  Co7  1  0.83415000  0.65241000  0.93643000  1.0
  H  H8  1  0.13385000  0.18438000  0.56500000  1.0
  H  H9  1  0.30921000  0.17355000  0.58435000  1.0
  H  H10  1  0.47691000  0.13933000  0.34558000  1.0
  H  H11  1  0.29575000  0.15264000  0.33658000  1.0
  H  H12  1  0.60025000  0.17260000  0.36257000  1.0
  H  H13  1  0.78686000  0.13918000  0.37830000  1.0
  H  H14  1  0.67822000  0.06001000  0.59365000  1.0
  H  H15  1  0.48821000  0.08934000  0.58828000  1.0
  H  H16  1  0.60115000  0.20308000  0.68908000  1.0
  H  H17  1  0.41960000  0.31554000  0.79087000  1.0
  H  H18  1  0.42001000  0.45594000  0.84919000  1.0
  H  H19  1  0.60021000  0.48096000  0.80887000  1.0
  H  H20  1  0.17103000  0.36989000  0.59755000  1.0
  H  H21  1  0.37606000  0.34056000  0.56840000  1.0
  H  H22  1  0.42741000  0.40568000  0.65822000  1.0
  H  H23  1  0.26915000  0.50665000  0.77224000  1.0
  H  H24  1  0.61694000  0.35845000  0.52324000  1.0
  H  H25  1  0.45059000  0.52179000  0.58641000  1.0
  H  H26  1  0.49300000  0.65528000  0.61652000  1.0
  H  H27  1  0.69987000  0.62824000  0.57927000  1.0
  H  H28  1  0.86741000  0.31835000  0.65671000  1.0
  H  H29  1  0.93203000  0.50554000  0.76855000  1.0
  H  H30  1  0.95071000  0.39978000  0.47265000  1.0
  H  H31  1  0.39273000  0.30440000  0.93420000  1.0
  H  H32  1  0.57555000  0.31641000  0.91612000  1.0
  H  H33  1  0.46051000  0.36308000  0.15473000  1.0
  H  H34  1  0.28536000  0.34692000  0.16250000  1.0
  H  H35  1  0.63207000  0.33183000  0.13960000  1.0
  H  H36  1  0.79584000  0.37256000  0.12451000  1.0
  H  H37  1  0.82901000  0.44108000  0.90699000  1.0
  H  H38  1  0.66804000  0.40443000  0.91149000  1.0
  H  H39  1  0.99347000  0.30370000  0.81532000  1.0
  H  H40  1  0.02109000  0.19215000  0.71478000  1.0
  H  H41  1  0.21789000  0.04942000  0.65592000  1.0
  H  H42  1  0.38565000  0.02163000  0.69389000  1.0
  H  H43  1  0.64712000  0.12128000  0.90109000  1.0
  H  H44  1  0.79525000  0.14732000  0.93074000  1.0
  H  H45  1  0.99931000  0.08705000  0.83864000  1.0
  H  H46  1  0.05150000  0.99592000  0.72102000  1.0
  H  H47  1  0.00117000  0.13873000  0.97801000  1.0
  H  H48  1  0.06215000  0.97554000  0.91395000  1.0
  H  H49  1  0.26896000  0.84355000  0.88231000  1.0
  H  H50  1  0.41114000  0.87099000  0.91983000  1.0
  H  H51  1  0.34786000  0.18069000  0.84436000  1.0
  H  H52  1  0.70814000  0.99597000  0.72715000  1.0
  H  H53  1  0.32574000  0.10012000  0.02671000  1.0
  H  H54  1  0.86842000  0.80399000  0.43476000  1.0
  H  H55  1  0.69181000  0.81561000  0.41668000  1.0
  H  H56  1  0.52218000  0.86224000  0.65533000  1.0
  H  H57  1  0.70565000  0.84647000  0.66303000  1.0
  H  H58  1  0.39671000  0.83101000  0.64013000  1.0
  H  H59  1  0.20718000  0.87236000  0.62497000  1.0
  H  H60  1  0.32275000  0.94146000  0.40761000  1.0
  H  H61  1  0.51598000  0.90419000  0.41216000  1.0
  H  H62  1  0.38754000  0.80393000  0.31585000  1.0
  H  H63  1  0.57195000  0.69242000  0.21544000  1.0
  H  H64  1  0.57703000  0.54941000  0.15661000  1.0
  H  H65  1  0.39933000  0.52134000  0.19437000  1.0
  H  H66  1  0.83123000  0.62089000  0.40100000  1.0
  H  H67  1  0.62761000  0.64659000  0.43052000  1.0
  H  H68  1  0.57620000  0.58584000  0.33834000  1.0
  H  H69  1  0.73272000  0.49482000  0.22082000  1.0
  H  H70  1  0.38178000  0.63914000  0.47864000  1.0
  H  H71  1  0.54786000  0.47609000  0.41440000  1.0
  H  H72  1  0.50467000  0.34458000  0.38182000  1.0
  H  H73  1  0.29774000  0.37169000  0.41945000  1.0
  H  H74  1  0.12752000  0.68075000  0.34445000  1.0
  H  H75  1  0.06948000  0.49548000  0.22723000  1.0
  H  H76  1  0.04748000  0.60039000  0.52681000  1.0
  H  H77  1  0.61714000  0.68421000  0.06545000  1.0
  H  H78  1  0.43342000  0.67314000  0.08487000  1.0
  H  H79  1  0.53825000  0.63852000  0.84611000  1.0
  H  H80  1  0.71463000  0.65260000  0.83706000  1.0
  H  H81  1  0.36536000  0.67116000  0.86287000  1.0
  H  H82  1  0.19618000  0.63820000  0.87854000  1.0
  H  H83  1  0.16721000  0.56103000  0.09442000  1.0
  H  H84  1  0.33351000  0.58995000  0.08911000  1.0
  H  H85  1  0.00546000  0.70350000  0.19029000  1.0
  H  H86  1  0.97212000  0.81590000  0.29241000  1.0
  H  H87  1  0.77290000  0.95614000  0.35044000  1.0
  H  H88  1  0.60849000  0.98083000  0.30963000  1.0
  H  H89  1  0.36082000  0.86925000  0.09742000  1.0
  H  H90  1  0.21436000  0.83946000  0.06843000  1.0
  H  H91  1  0.00841000  0.90423000  0.15835000  1.0
  H  H92  1  0.95188000  0.00539000  0.27234000  1.0
  H  H93  1  0.00080000  0.85923000  0.02372000  1.0
  H  H94  1  0.94070000  0.02261000  0.08686000  1.0
  H  H95  1  0.73476000  0.15603000  0.11686000  1.0
  H  H96  1  0.59225000  0.12873000  0.07954000  1.0
  H  H97  1  0.65701000  0.81841000  0.15687000  1.0
  H  H98  1  0.29347000  0.00485000  0.26854000  1.0
  H  H99  1  0.67686000  0.90003000  0.97280000  1.0
  C  C100  1  0.21282000  0.17322000  0.51814000  1.0
  C  C101  1  0.31190000  0.16694000  0.52810000  1.0
  C  C102  1  0.41273000  0.15194000  0.46650000  1.0
  C  C103  1  0.40364000  0.15072000  0.39650000  1.0
  C  C104  1  0.30180000  0.15786000  0.39051000  1.0
  C  C105  1  0.52422000  0.13498000  0.47425000  1.0
  C  C106  1  0.61241000  0.14770000  0.41524000  1.0
  C  C107  1  0.71740000  0.12928000  0.42288000  1.0
  C  C108  1  0.65747000  0.08461000  0.54333000  1.0
  C  C109  1  0.54980000  0.10263000  0.53961000  1.0
  C  C110  1  0.80825000  0.20425000  0.63246000  1.0
  C  C111  1  0.70244000  0.27469000  0.69433000  1.0
  C  C112  1  0.59949000  0.26333000  0.71729000  1.0
  C  C113  1  0.49841000  0.32649000  0.77323000  1.0
  C  C114  1  0.49877000  0.40524000  0.80585000  1.0
  C  C115  1  0.59914000  0.41979000  0.78388000  1.0
  C  C116  1  0.70192000  0.35487000  0.72836000  1.0
  C  C117  1  0.83153000  0.42729000  0.73223000  1.0
  C  C118  1  0.95432000  0.41662000  0.68553000  1.0
  C  C119  1  0.10441000  0.45467000  0.70072000  1.0
  C  C120  1  0.19377000  0.39969000  0.63518000  1.0
  C  C121  1  0.30862000  0.38301000  0.61968000  1.0
  C  C122  1  0.33728000  0.42064000  0.66887000  1.0
  C  C123  1  0.24906000  0.47686000  0.73277000  1.0
  C  C124  1  0.13200000  0.49592000  0.75019000  1.0
  C  C125  1  0.04683000  0.55632000  0.82165000  1.0
  C  C126  1  0.84441000  0.30137000  0.47827000  1.0
  C  C127  1  0.75031000  0.40269000  0.51237000  1.0
  C  C128  1  0.63323000  0.41924000  0.53479000  1.0
  C  C129  1  0.54079000  0.50969000  0.57096000  1.0
  C  C130  1  0.56504000  0.58459000  0.58744000  1.0
  C  C131  1  0.67987000  0.57064000  0.56669000  1.0
  C  C132  1  0.77364000  0.48045000  0.52790000  1.0
  C  C133  1  0.93223000  0.52282000  0.52043000  1.0
  C  C134  1  0.41159000  0.31810000  0.98128000  1.0
  C  C135  1  0.51357000  0.32502000  0.97198000  1.0
  C  C136  1  0.53396000  0.34428000  0.03400000  1.0
  C  C137  1  0.45188000  0.34820000  0.10381000  1.0
  C  C138  1  0.35230000  0.33986000  0.10906000  1.0
  C  C139  1  0.63378000  0.36408000  0.02670000  1.0
  C  C140  1  0.67213000  0.35626000  0.08674000  1.0
  C  C141  1  0.76312000  0.37903000  0.07933000  1.0
  C  C142  1  0.78254000  0.41715000  0.95775000  1.0
  C  C143  1  0.69231000  0.39513000  0.96072000  1.0
  C  C144  1  0.14869000  0.29844000  0.87034000  1.0
  C  C145  1  0.17225000  0.22908000  0.80897000  1.0
  C  C146  1  0.07917000  0.24237000  0.78702000  1.0
  C  C147  1  0.09435000  0.17982000  0.73170000  1.0
  C  C148  1  0.20481000  0.09986000  0.69869000  1.0
  C  C149  1  0.29943000  0.08367000  0.71943000  1.0
  C  C150  1  0.28480000  0.14795000  0.77428000  1.0
  C  C151  1  0.49266000  0.07327000  0.76692000  1.0
  C  C152  1  0.56091000  0.08167000  0.81250000  1.0
  C  C153  1  0.76511000  0.04291000  0.79529000  1.0
  C  C154  1  0.73632000  0.09342000  0.86238000  1.0
  C  C155  1  0.81990000  0.10839000  0.87818000  1.0
  C  C156  1  0.93404000  0.07359000  0.82762000  1.0
  C  C157  1  0.96349000  0.02251000  0.76179000  1.0
  C  C158  1  0.88198000  0.00514000  0.74408000  1.0
  C  C159  1  0.92547000  0.95110000  0.67038000  1.0
  C  C160  1  0.12580000  0.19720000  0.02184000  1.0
  C  C161  1  0.16820000  0.09552000  0.98788000  1.0
  C  C162  1  0.09013000  0.07839000  0.96579000  1.0
  C  C163  1  0.12475000  0.98811000  0.92916000  1.0
  C  C164  1  0.24080000  0.91398000  0.91195000  1.0
  C  C165  1  0.32080000  0.92825000  0.93270000  1.0
  C  C166  1  0.28509000  0.01831000  0.97193000  1.0
  C  C167  1  0.47782000  0.97614000  0.98036000  1.0
  C  C168  1  0.78888000  0.81763000  0.48182000  1.0
  C  C169  1  0.68937000  0.82433000  0.47254000  1.0
  C  C170  1  0.58785000  0.84362000  0.53458000  1.0
  C  C171  1  0.59640000  0.84753000  0.60438000  1.0
  C  C172  1  0.69901000  0.83938000  0.60961000  1.0
  C  C173  1  0.47549000  0.86356000  0.52731000  1.0
  C  C174  1  0.38500000  0.85569000  0.58730000  1.0
  C  C175  1  0.27859000  0.87883000  0.57985000  1.0
  C  C176  1  0.34245000  0.91728000  0.45836000  1.0
  C  C177  1  0.45180000  0.89489000  0.46135000  1.0
  C  C178  1  0.18285000  0.79838000  0.37065000  1.0
  C  C179  1  0.28997000  0.72908000  0.30934000  1.0
  C  C180  1  0.39155000  0.74254000  0.28750000  1.0
  C  C181  1  0.49421000  0.67999000  0.23227000  1.0
  C  C182  1  0.49687000  0.59989000  0.19925000  1.0
  C  C183  1  0.39787000  0.58351000  0.21989000  1.0
  C  C184  1  0.29336000  0.64785000  0.27460000  1.0
  C  C185  1  0.16782000  0.57280000  0.26723000  1.0
  C  C186  1  0.04550000  0.58143000  0.31258000  1.0
  C  C187  1  0.89748000  0.54246000  0.29517000  1.0
  C  C188  1  0.80866000  0.59297000  0.36223000  1.0
  C  C189  1  0.69445000  0.60767000  0.37798000  1.0
  C  C190  1  0.66582000  0.57261000  0.32739000  1.0
  C  C191  1  0.75329000  0.52158000  0.26160000  1.0
  C  C192  1  0.86972000  0.50450000  0.24392000  1.0
  C  C193  1  0.95395000  0.45048000  0.17024000  1.0
  C  C194  1  0.15495000  0.69757000  0.52209000  1.0
  C  C195  1  0.24816000  0.59595000  0.48809000  1.0
  C  C196  1  0.36536000  0.57889000  0.46618000  1.0
  C  C197  1  0.45753000  0.48875000  0.42938000  1.0
  C  C198  1  0.43284000  0.41477000  0.41177000  1.0
  C  C199  1  0.31796000  0.42892000  0.43245000  1.0
  C  C200  1  0.22447000  0.51875000  0.47196000  1.0
  C  C201  1  0.06564000  0.47630000  0.48044000  1.0
  C  C202  1  0.59609000  0.67301000  0.01861000  1.0
  C  C203  1  0.49333333  0.66666667  0.02861000  1.0
  C  C204  1  0.46902000  0.65143000  0.96705000  1.0
  C  C205  1  0.54919000  0.65018000  0.89702000  1.0
  C  C206  1  0.64969000  0.65765000  0.89100000  1.0
  C  C207  1  0.36670000  0.63449000  0.97481000  1.0
  C  C208  1  0.32512000  0.64674000  0.91566000  1.0
  C  C209  1  0.23071000  0.62863000  0.92327000  1.0
  C  C210  1  0.21408000  0.58508000  0.04399000  1.0
  C  C211  1  0.30767000  0.60280000  0.04028000  1.0
  C  C212  1  0.85449000  0.70452000  0.13293000  1.0
  C  C213  1  0.82765000  0.77494000  0.19498000  1.0
  C  C214  1  0.91861000  0.76365000  0.21836000  1.0
  C  C215  1  0.90022000  0.82679000  0.27452000  1.0
  C  C216  1  0.78845000  0.90544000  0.30696000  1.0
  C  C217  1  0.69580000  0.91984000  0.28467000  1.0
  C  C218  1  0.71386000  0.85493000  0.22892000  1.0
  C  C219  1  0.50822000  0.92688000  0.23246000  1.0
  C  C220  1  0.44300000  0.91638000  0.18545000  1.0
  C  C221  1  0.23979000  0.95397000  0.20061000  1.0
  C  C222  1  0.27079000  0.89888000  0.13511000  1.0
  C  C223  1  0.18818000  0.88191000  0.11971000  1.0
  C  C224  1  0.07289000  0.91937000  0.16895000  1.0
  C  C225  1  0.04109000  0.97575000  0.23280000  1.0
  C  C226  1  0.12160000  0.99514000  0.25010000  1.0
  C  C227  1  0.07499000  0.05564000  0.32157000  1.0
  C  C228  1  0.87556000  0.80189000  0.97867000  1.0
  C  C229  1  0.83422000  0.90328000  0.01273000  1.0
  C  C230  1  0.91222000  0.91996000  0.03522000  1.0
  C  C231  1  0.87807000  0.01047000  0.07136000  1.0
  C  C232  1  0.76245000  0.08530000  0.08780000  1.0
  C  C233  1  0.68241000  0.07121000  0.06699000  1.0
  C  C234  1  0.71766000  0.98097000  0.02819000  1.0
  C  C235  1  0.52454000  0.02295000  0.02040000  1.0
  N  N236  1  0.20867000  0.16569000  0.45016000  1.0
  N  N237  1  0.74037000  0.09760000  0.48594000  1.0
  N  N238  1  0.80356000  0.36800000  0.70292000  1.0
  N  N239  1  0.99095000  0.46468000  0.71936000  1.0
  N  N240  1  0.88858000  0.46583000  0.50418000  1.0
  N  N241  1  0.33005000  0.32859000  0.04882000  1.0
  N  N242  1  0.81739000  0.41000000  0.01607000  1.0
  N  N243  1  0.37641000  0.13287000  0.79809000  1.0
  N  N244  1  0.67899000  0.03447000  0.77702000  1.0
  N  N245  1  0.36119000  0.03339000  0.99593000  1.0
  N  N246  1  0.79250000  0.82829000  0.54934000  1.0
  N  N247  1  0.25650000  0.91011000  0.51662000  1.0
  N  N248  1  0.19307000  0.63277000  0.29827000  1.0
  N  N249  1  0.01020000  0.53412000  0.27702000  1.0
  N  N250  1  0.10941000  0.53364000  0.49605000  1.0
  N  N251  1  0.67544000  0.66564000  0.95061000  1.0
  N  N252  1  0.17576000  0.59771000  0.98650000  1.0
  N  N253  1  0.62478000  0.86798000  0.20318000  1.0
  N  N254  1  0.32454000  0.96415000  0.21926000  1.0
  N  N255  1  0.64130000  0.96612000  0.00433000  1.0
  O  O256  1  0.94641000  0.95072000  0.50356000  1.0
  O  O257  1  0.79561000  0.13579000  0.60658000  1.0
  O  O258  1  0.89944000  0.21768000  0.60869000  1.0
  O  O259  1  0.93500000  0.58605000  0.83591000  1.0
  O  O260  1  0.08685000  0.57717000  0.86391000  1.0
  O  O261  1  0.01011000  0.36600000  0.62552000  1.0
  O  O262  1  0.77146000  0.48268000  0.79049000  1.0
  O  O263  1  0.95197000  0.28734000  0.44907000  1.0
  O  O264  1  0.81303000  0.23297000  0.48073000  1.0
  O  O265  1  0.87781000  0.60129000  0.56107000  1.0
  O  O266  1  0.91434000  0.56240000  0.99078000  1.0
  O  O267  1  0.04203000  0.36826000  0.89723000  1.0
  O  O268  1  0.23028000  0.28407000  0.89348000  1.0
  O  O269  1  0.86149000  0.91617000  0.65732000  1.0
  O  O270  1  0.02377000  0.94086000  0.62541000  1.0
  O  O271  1  0.50799000  0.13009000  0.87340000  1.0
  O  O272  1  0.54368000  0.01927000  0.70813000  1.0
  O  O273  1  0.19294000  0.21454000  0.04664000  1.0
  O  O274  1  0.02591000  0.26442000  0.02341000  1.0
  O  O275  1  0.54246000  0.89720000  0.94025000  1.0
  O  O276  1  0.03259000  0.06239000  0.49066000  1.0
  O  O277  1  0.19273000  0.86824000  0.39761000  1.0
  O  O278  1  0.09261000  0.78387000  0.39368000  1.0
  O  O279  1  0.06583000  0.41589000  0.15722000  1.0
  O  O280  1  0.91097000  0.43998000  0.12523000  1.0
  O  O281  1  0.98892000  0.63012000  0.37335000  1.0
  O  O282  1  0.22991000  0.51827000  0.20871000  1.0
  O  O283  1  0.04574000  0.71492000  0.54666000  1.0
  O  O284  1  0.18600000  0.76477000  0.52393000  1.0
  O  O285  1  0.12002000  0.39738000  0.44029000  1.0
  O  O286  1  0.09945000  0.45078000  0.00359000  1.0
  O  O287  1  0.96144000  0.63618000  0.10713000  1.0
  O  O288  1  0.77377000  0.71781000  0.10904000  1.0
  O  O289  1  0.14261000  0.08570000  0.33581000  1.0
  O  O290  1  0.97204000  0.07621000  0.36384000  1.0
  O  O291  1  0.49784000  0.86614000  0.12529000  1.0
  O  O292  1  0.45442000  0.98180000  0.29097000  1.0
  O  O293  1  0.81144000  0.78781000  0.94923000  1.0
  O  O294  1  0.97267000  0.73350000  0.98139000  1.0
  O  O295  1  0.45980000  0.10148000  0.06095000  1.0
