# generated using pymatgen
data_AlH15C27(SO5)3
_symmetry_space_group_name_H-M   'P 1'
_cell_length_a   4.22120000
_cell_length_b   15.76500491
_cell_length_c   15.80880000
_cell_angle_alpha   60.12136917
_cell_angle_beta   84.44220000
_cell_angle_gamma   88.45377013
_symmetry_Int_Tables_number   1
_chemical_formula_structural   AlH15C27(SO5)3
_chemical_formula_sum   'Al1 H15 C27 S3 O15'
_cell_volume   907.63476455
_cell_formula_units_Z   1
loop_
 _symmetry_equiv_pos_site_id
 _symmetry_equiv_pos_as_xyz
  1  'x, y, z'
loop_
 _atom_site_type_symbol
 _atom_site_label
 _atom_site_symmetry_multiplicity
 _atom_site_fract_x
 _atom_site_fract_y
 _atom_site_fract_z
 _atom_site_occupancy
  Al  Al0  1  0.86207000  0.49989000  0.00211000  1.0
  H  H1  1  0.56693000  0.93389000  0.15039000  1.0
  H  H2  1  0.51820000  0.65418000  0.41549000  1.0
  H  H3  1  0.62899000  0.91749000  0.42776000  1.0
  H  H4  1  0.60162000  0.25431000  0.01027000  1.0
  H  H5  1  0.73181000  0.08002000  0.08759000  1.0
  H  H6  1  0.36784000  0.04254000  0.36977000  1.0
  H  H7  1  0.36725000  0.87048000  0.08943000  1.0
  H  H8  1  0.52246000  0.51368000  0.23425000  1.0
  H  H9  1  0.64082000  0.59380000  0.32706000  1.0
  H  H10  1  0.80877000  0.59732000  0.54600000  1.0
  H  H11  1  0.22788000  0.72566000  0.74418000  1.0
  H  H12  1  0.29467000  0.82912000  0.56375000  1.0
  H  H13  1  0.66030000  0.29187000  0.31041000  1.0
  H  H14  1  0.72649000  0.80939000  0.90059000  1.0
  H  H15  1  0.32937000  0.39986000  0.79551000  1.0
  C  C16  1  0.34154000  0.59340000  0.05325000  1.0
  C  C17  1  0.41325000  0.54971000  0.85722000  1.0
  C  C18  1  0.35424000  0.35552000  0.09485000  1.0
  C  C19  1  0.55570000  0.78779000  0.27493000  1.0
  C  C20  1  0.57511000  0.89027000  0.22935000  1.0
  C  C21  1  0.59024000  0.93849000  0.28317000  1.0
  C  C22  1  0.60291000  0.88180000  0.38482000  1.0
  C  C23  1  0.58018000  0.77951000  0.43265000  1.0
  C  C24  1  0.55506000  0.73335000  0.37722000  1.0
  C  C25  1  0.55351000  0.20749000  0.08941000  1.0
  C  C26  1  0.62577000  0.10862000  0.13372000  1.0
  C  C27  1  0.56053000  0.04607000  0.23536000  1.0
  C  C28  1  0.43363000  0.08760000  0.29140000  1.0
  C  C29  1  0.36906000  0.18687000  0.24732000  1.0
  C  C30  1  0.42008000  0.24808000  0.14547000  1.0
  C  C31  1  0.41301000  0.79266000  0.12255000  1.0
  C  C32  1  0.35905000  0.74726000  0.06881000  1.0
  C  C33  1  0.38904000  0.64598000  0.10855000  1.0
  C  C34  1  0.49014000  0.59219000  0.20265000  1.0
  C  C35  1  0.55484000  0.63808000  0.25513000  1.0
  C  C36  1  0.51172000  0.73908000  0.21714000  1.0
  C  C37  1  0.68236000  0.62702000  0.58845000  1.0
  C  C38  1  0.64980000  0.56939000  0.69042000  1.0
  C  C39  1  0.48194000  0.60454000  0.74810000  1.0
  C  C40  1  0.36019000  0.69906000  0.69970000  1.0
  C  C41  1  0.39968000  0.75699000  0.59839000  1.0
  C  C42  1  0.55848000  0.72134000  0.54070000  1.0
  S  S43  1  0.18078000  0.22782000  0.32582000  1.0
  S  S44  1  0.23015000  0.82430000  0.95051000  1.0
  S  S45  1  0.82580000  0.45087000  0.73323000  1.0
  O  O46  1  0.11433000  0.38407000  0.04595000  1.0
  O  O47  1  0.08533000  0.54374000  0.07455000  1.0
  O  O48  1  0.15021000  0.56983000  0.88945000  1.0
  O  O49  1  0.55725000  0.40885000  0.10304000  1.0
  O  O50  1  0.61794000  0.49071000  0.90890000  1.0
  O  O51  1  0.57492000  0.60058000  0.99239000  1.0
  O  O52  1  0.43457000  0.27579000  0.35263000  1.0
  O  O53  1  0.03263000  0.14534000  0.41251000  1.0
  O  O54  1  0.96816000  0.30634000  0.26469000  1.0
  O  O55  1  0.52287000  0.85206000  0.87513000  1.0
  O  O56  1  0.09639000  0.91073000  0.94676000  1.0
  O  O57  1  0.01782000  0.76278000  0.93310000  1.0
  O  O58  1  0.04707000  0.43666000  0.80584000  1.0
  O  O59  1  0.96878000  0.44696000  0.64896000  1.0
  O  O60  1  0.56247000  0.37261000  0.78897000  1.0
