# generated using pymatgen
data_Zn2H2C12S2Br2O7
_symmetry_space_group_name_H-M   'P 1'
_cell_length_a   19.65140000
_cell_length_b   19.74500000
_cell_length_c   33.32530000
_cell_angle_alpha   78.94890000
_cell_angle_beta   79.21200000
_cell_angle_gamma   63.98920000
_symmetry_Int_Tables_number   1
_chemical_formula_structural   Zn2H2C12S2Br2O7
_chemical_formula_sum   'Zn16 H16 C96 S16 Br16 O56'
_cell_volume   11327.34094598
_cell_formula_units_Z   8
loop_
 _symmetry_equiv_pos_site_id
 _symmetry_equiv_pos_as_xyz
  1  'x, y, z'
loop_
 _atom_site_type_symbol
 _atom_site_label
 _atom_site_symmetry_multiplicity
 _atom_site_fract_x
 _atom_site_fract_y
 _atom_site_fract_z
 _atom_site_occupancy
  Zn  Zn0  1  0.05642000  0.39995000  0.47827000  1.0
  Zn  Zn1  1  0.98495000  0.48321000  0.56034000  1.0
  Zn  Zn2  1  0.05808000  0.56113000  0.48237000  1.0
  Zn  Zn3  1  0.90069000  0.55432000  0.47975000  1.0
  Zn  Zn4  1  0.69331000  0.35007000  0.27182000  1.0
  Zn  Zn5  1  0.69118000  0.18844000  0.26672000  1.0
  Zn  Zn6  1  0.76908000  0.26597000  0.19047000  1.0
  Zn  Zn7  1  0.84780000  0.19741000  0.27284000  1.0
  Zn  Zn8  1  0.26514000  0.76575000  0.68991000  1.0
  Zn  Zn9  1  0.34926000  0.69635000  0.77129000  1.0
  Zn  Zn10  1  0.19267000  0.84819000  0.77122000  1.0
  Zn  Zn11  1  0.19082000  0.68744000  0.76660000  1.0
  Zn  Zn12  1  0.55877000  0.06191000  0.98345000  1.0
  Zn  Zn13  1  0.40271000  0.05269000  0.97755000  1.0
  Zn  Zn14  1  0.55589000  0.90058000  0.97827000  1.0
  Zn  Zn15  1  0.48262000  0.98522000  0.06053000  1.0
  H  H16  1  0.95355000  0.24959000  0.35145000  1.0
  H  H17  1  0.74646000  0.45550000  0.35039000  1.0
  H  H18  1  0.00014000  0.29874000  0.39967000  1.0
  H  H19  1  0.09681000  0.59664000  0.70020000  1.0
  H  H20  1  0.20156000  0.70097000  0.59753000  1.0
  H  H21  1  0.04976000  0.55018000  0.65079000  1.0
  H  H22  1  0.54974000  0.05021000  0.15309000  1.0
  H  H23  1  0.65233000  0.15319000  0.04862000  1.0
  H  H24  1  0.59951000  0.09836000  0.20022000  1.0
  H  H25  1  0.50223000  0.79493000  0.89853000  1.0
  H  H26  1  0.29658000  0.00221000  0.89909000  1.0
  H  H27  1  0.45146000  0.74974000  0.85039000  1.0
  H  H28  1  0.80881000  0.52782000  0.41833000  1.0
  H  H29  1  0.13683000  0.63711000  0.52642000  1.0
  H  H30  1  0.72372000  0.22284000  0.11343000  1.0
  H  H31  1  0.22191000  0.94145000  0.83149000  1.0
  C  C32  1  0.06186000  0.31634000  0.56190000  1.0
  C  C33  1  0.07025000  0.57049000  0.56911000  1.0
  C  C34  1  0.18352000  0.44000000  0.43863000  1.0
  C  C35  1  0.93659000  0.68393000  0.43873000  1.0
  C  C36  1  0.92967000  0.43052000  0.43057000  1.0
  C  C37  1  0.81678000  0.56070000  0.56233000  1.0
  C  C38  1  0.56613000  0.30995000  0.31117000  1.0
  C  C39  1  0.68171000  0.17957000  0.18011000  1.0
  C  C40  1  0.68941000  0.43306000  0.18794000  1.0
  C  C41  1  0.93494000  0.18816000  0.18960000  1.0
  C  C42  1  0.81857000  0.32104000  0.31966000  1.0
  C  C43  1  0.81247000  0.06652000  0.31156000  1.0
  C  C44  1  0.43300000  0.68968000  0.68819000  1.0
  C  C45  1  0.31882000  0.82095000  0.81938000  1.0
  C  C46  1  0.18849000  0.93294000  0.68830000  1.0
  C  C47  1  0.06583000  0.80947000  0.81118000  1.0
  C  C48  1  0.18051000  0.67961000  0.68043000  1.0
  C  C49  1  0.31308000  0.56605000  0.81104000  1.0
  C  C50  1  0.43730000  0.18375000  0.93856000  1.0
  C  C51  1  0.43131000  0.92955000  0.93023000  1.0
  C  C52  1  0.68320000  0.94028000  0.93870000  1.0
  C  C53  1  0.56072000  0.81735000  0.06200000  1.0
  C  C54  1  0.56896000  0.07064000  0.06956000  1.0
  C  C55  1  0.31602000  0.06166000  0.06076000  1.0
  C  C56  1  0.90020000  0.40397000  0.40207000  1.0
  C  C57  1  0.84721000  0.34991000  0.34822000  1.0
  C  C58  1  0.82760000  0.44905000  0.38800000  1.0
  C  C59  1  0.91924000  0.30495000  0.36194000  1.0
  C  C60  1  0.80207000  0.42102000  0.36105000  1.0
  C  C61  1  0.94475000  0.33223000  0.38854000  1.0
  C  C62  1  0.09900000  0.59907000  0.59690000  1.0
  C  C63  1  0.15192000  0.65141000  0.65153000  1.0
  C  C64  1  0.14236000  0.64223000  0.58145000  1.0
  C  C65  1  0.10896000  0.60878000  0.66708000  1.0
  C  C66  1  0.16835000  0.66796000  0.60929000  1.0
  C  C67  1  0.08314000  0.58326000  0.63978000  1.0
  C  C68  1  0.30520000  0.45436000  0.40065000  1.0
  C  C69  1  0.44461000  0.29542000  0.34946000  1.0
  C  C70  1  0.25844000  0.41610000  0.41390000  1.0
  C  C71  1  0.49126000  0.33370000  0.33612000  1.0
  C  C72  1  0.37674000  0.33940000  0.37293000  1.0
  C  C73  1  0.37301000  0.41047000  0.37710000  1.0
  C  C74  1  0.72544000  0.57605000  0.63035000  1.0
  C  C75  1  0.52430000  0.67388000  0.62012000  1.0
  C  C76  1  0.74264000  0.58503000  0.58775000  1.0
  C  C77  1  0.50723000  0.66497000  0.66272000  1.0
  C  C78  1  0.60389000  0.64144000  0.60830000  1.0
  C  C79  1  0.64589000  0.60841000  0.64217000  1.0
  C  C80  1  0.07673000  0.22466000  0.62999000  1.0
  C  C81  1  0.17388000  0.02445000  0.62016000  1.0
  C  C82  1  0.08590000  0.24218000  0.58739000  1.0
  C  C83  1  0.16468000  0.00710000  0.66276000  1.0
  C  C84  1  0.14183000  0.10378000  0.60817000  1.0
  C  C85  1  0.10885000  0.14534000  0.64195000  1.0
  C  C86  1  0.84258000  0.80154000  0.39670000  1.0
  C  C87  1  0.90699000  0.94830000  0.35303000  1.0
  C  C88  1  0.91083000  0.75837000  0.41358000  1.0
  C  C89  1  0.83862000  0.99151000  0.33629000  1.0
  C  C90  1  0.90853000  0.87898000  0.37503000  1.0
  C  C91  1  0.84121000  0.87070000  0.37459000  1.0
  C  C92  1  0.65349000  0.15240000  0.15126000  1.0
  C  C93  1  0.59832000  0.09896000  0.09810000  1.0
  C  C94  1  0.66862000  0.16827000  0.10789000  1.0
  C  C95  1  0.58298000  0.08309000  0.14102000  1.0
  C  C96  1  0.64060000  0.14101000  0.08179000  1.0
  C  C97  1  0.61049000  0.10976000  0.16693000  1.0
  C  C98  1  0.67354000  0.52506000  0.11983000  1.0
  C  C99  1  0.57632000  0.72515000  0.13010000  1.0
  C  C100  1  0.66485000  0.50727000  0.16242000  1.0
  C  C101  1  0.58505000  0.74299000  0.08753000  1.0
  C  C102  1  0.60860000  0.64574000  0.14190000  1.0
  C  C103  1  0.64130000  0.60446000  0.10801000  1.0
  C  C104  1  0.08262000  0.12339000  0.17803000  1.0
  C  C105  1  0.16832000  0.12615000  0.07237000  1.0
  C  C106  1  0.01023000  0.16245000  0.16527000  1.0
  C  C107  1  0.24065000  0.08718000  0.08515000  1.0
  C  C108  1  0.11069000  0.13927000  0.10623000  1.0
  C  C109  1  0.14027000  0.11005000  0.14421000  1.0
  C  C110  1  0.34637000  0.84982000  0.84773000  1.0
  C  C111  1  0.40221000  0.90136000  0.90151000  1.0
  C  C112  1  0.30189000  0.92207000  0.86163000  1.0
  C  C113  1  0.44661000  0.82968000  0.88794000  1.0
  C  C114  1  0.33076000  0.94689000  0.88851000  1.0
  C  C115  1  0.41845000  0.80488000  0.86140000  1.0
  C  C116  1  0.40726000  0.44831000  0.85294000  1.0
  C  C117  1  0.34283000  0.30172000  0.89693000  1.0
  C  C118  1  0.33902000  0.49143000  0.83608000  1.0
  C  C119  1  0.41118000  0.25862000  0.91369000  1.0
  C  C120  1  0.34135000  0.37090000  0.87476000  1.0
  C  C121  1  0.40871000  0.37916000  0.87510000  1.0
  C  C122  1  0.94437000  0.79502000  0.84958000  1.0
  C  C123  1  0.80501000  0.95436000  0.90047000  1.0
  C  C124  1  0.99109000  0.83325000  0.83613000  1.0
  C  C125  1  0.75820000  0.91625000  0.91386000  1.0
  C  C126  1  0.87284000  0.91019000  0.87703000  1.0
  C  C127  1  0.87651000  0.83907000  0.87303000  1.0
  S  S128  1  0.29767000  0.32626000  0.39760000  1.0
  S  S129  1  0.45211000  0.42355000  0.35237000  1.0
  S  S130  1  0.66137000  0.63297000  0.56218000  1.0
  S  S131  1  0.58842000  0.61696000  0.68830000  1.0
  S  S132  1  0.13373000  0.16141000  0.56198000  1.0
  S  S133  1  0.11693000  0.08781000  0.68816000  1.0
  S  S134  1  0.97332000  0.80252000  0.40233000  1.0
  S  S135  1  0.77630000  0.94727000  0.34739000  1.0
  S  S136  1  0.61714000  0.58783000  0.18801000  1.0
  S  S137  1  0.63269000  0.66248000  0.06191000  1.0
  S  S138  1  0.01282000  0.18271000  0.11181000  1.0
  S  S139  1  0.23817000  0.06673000  0.13858000  1.0
  S  S140  1  0.27653000  0.44731000  0.84742000  1.0
  S  S141  1  0.47359000  0.30277000  0.90240000  1.0
  S  S142  1  0.95192000  0.92320000  0.85228000  1.0
  S  S143  1  0.79729000  0.82625000  0.89780000  1.0
  Br  Br144  1  0.28651000  0.55150000  0.41103000  1.0
  Br  Br145  1  0.46379000  0.19791000  0.33947000  1.0
  Br  Br146  1  0.79437000  0.52800000  0.66979000  1.0
  Br  Br147  1  0.45551000  0.72178000  0.58061000  1.0
  Br  Br148  1  0.02867000  0.29278000  0.66939000  1.0
  Br  Br149  1  0.22153000  0.95610000  0.58087000  1.0
  Br  Br150  1  0.75955000  0.77654000  0.40081000  1.0
  Br  Br151  1  0.99027000  0.97306000  0.34862000  1.0
  Br  Br152  1  0.72071000  0.45698000  0.08037000  1.0
  Br  Br153  1  0.52881000  0.79319000  0.16956000  1.0
  Br  Br154  1  0.10709000  0.08973000  0.23228000  1.0
  Br  Br155  1  0.14386000  0.15995000  0.01816000  1.0
  Br  Br156  1  0.49042000  0.47321000  0.84865000  1.0
  Br  Br157  1  0.25968000  0.27676000  0.90138000  1.0
  Br  Br158  1  0.96354000  0.69742000  0.83966000  1.0
  Br  Br159  1  0.78623000  0.05175000  0.91044000  1.0
  O  O160  1  0.00062000  0.49872000  0.49985000  1.0
  O  O161  1  0.07798000  0.31475000  0.52287000  1.0
  O  O162  1  0.03244000  0.53162000  0.58492000  1.0
  O  O163  1  0.15487000  0.50573000  0.45035000  1.0
  O  O164  1  0.02753000  0.37510000  0.58061000  1.0
  O  O165  1  0.15381000  0.39192000  0.44611000  1.0
  O  O166  1  0.08546000  0.58703000  0.52982000  1.0
  O  O167  1  0.00318000  0.65860000  0.45018000  1.0
  O  O168  1  0.88592000  0.49669000  0.44242000  1.0
  O  O169  1  0.89152000  0.65112000  0.44701000  1.0
  O  O170  1  0.99518000  0.38807000  0.44193000  1.0
  O  O171  1  0.87629000  0.52686000  0.58083000  1.0
  O  O172  1  0.81448000  0.57620000  0.52325000  1.0
  O  O173  1  0.74916000  0.25098000  0.25053000  1.0
  O  O174  1  0.59535000  0.35839000  0.30360000  1.0
  O  O175  1  0.66630000  0.16357000  0.21858000  1.0
  O  O176  1  0.72512000  0.37410000  0.16941000  1.0
  O  O177  1  0.59490000  0.24426000  0.29948000  1.0
  O  O178  1  0.67236000  0.43483000  0.22691000  1.0
  O  O179  1  0.72108000  0.21859000  0.16416000  1.0
  O  O180  1  0.87751000  0.22213000  0.16892000  1.0
  O  O181  1  0.86257000  0.25538000  0.30903000  1.0
  O  O182  1  0.93294000  0.17492000  0.22862000  1.0
  O  O183  1  0.75286000  0.36387000  0.30828000  1.0
  O  O184  1  0.74622000  0.09166000  0.29979000  1.0
  O  O185  1  0.85723000  0.09953000  0.30415000  1.0
  O  O186  1  0.24938000  0.74977000  0.75036000  1.0
  O  O187  1  0.37383000  0.72394000  0.66945000  1.0
  O  O188  1  0.36168000  0.75612000  0.80783000  1.0
  O  O189  1  0.17209000  0.93463000  0.72732000  1.0
  O  O190  1  0.43512000  0.67413000  0.72722000  1.0
  O  O191  1  0.22277000  0.87422000  0.66964000  1.0
  O  O192  1  0.25182000  0.86412000  0.80788000  1.0
  O  O193  1  0.09534000  0.85781000  0.80375000  1.0
  O  O194  1  0.16499000  0.66243000  0.71890000  1.0
  O  O195  1  0.09451000  0.74406000  0.79919000  1.0
  O  O196  1  0.21825000  0.71869000  0.66418000  1.0
  O  O197  1  0.35819000  0.59879000  0.80288000  1.0
  O  O198  1  0.24648000  0.59126000  0.79970000  1.0
  O  O199  1  0.50098000  0.99908000  0.00004000  1.0
  O  O200  1  0.50369000  0.15858000  0.95013000  1.0
  O  O201  1  0.38777000  0.99501000  0.94120000  1.0
  O  O202  1  0.65381000  0.89196000  0.94625000  1.0
  O  O203  1  0.39242000  0.15085000  0.94626000  1.0
  O  O204  1  0.65460000  0.00599000  0.95030000  1.0
  O  O205  1  0.49705000  0.88617000  0.94147000  1.0
  O  O206  1  0.57749000  0.81536000  0.02304000  1.0
  O  O207  1  0.53022000  0.03264000  0.08609000  1.0
  O  O208  1  0.52572000  0.87616000  0.08058000  1.0
  O  O209  1  0.58490000  0.08678000  0.03102000  1.0
  O  O210  1  0.31762000  0.07530000  0.02177000  1.0
  O  O211  1  0.37339000  0.02770000  0.08139000  1.0
  O  O212  1  0.78119000  0.51825000  0.39931000  1.0
  O  O213  1  0.16016000  0.65996000  0.54093000  1.0
  O  O214  1  0.70900000  0.20877000  0.09019000  1.0
  O  O215  1  0.23234000  0.96877000  0.85021000  1.0
