# generated using pymatgen
data_Cu3H16C28(NO7)2
_symmetry_space_group_name_H-M   'P 1'
_cell_length_a   7.84828000
_cell_length_b   8.72025000
_cell_length_c   9.35615000
_cell_angle_alpha   84.97330000
_cell_angle_beta   85.18350000
_cell_angle_gamma   85.79880000
_symmetry_Int_Tables_number   1
_chemical_formula_structural   Cu3H16C28(NO7)2
_chemical_formula_sum   'Cu3 H16 C28 N2 O14'
_cell_volume   634.20767662
_cell_formula_units_Z   1
loop_
 _symmetry_equiv_pos_site_id
 _symmetry_equiv_pos_as_xyz
  1  'x, y, z'
loop_
 _atom_site_type_symbol
 _atom_site_label
 _atom_site_symmetry_multiplicity
 _atom_site_fract_x
 _atom_site_fract_y
 _atom_site_fract_z
 _atom_site_occupancy
  Cu  Cu0  1  0.00000000  0.50000000  0.00000000  1.0
  Cu  Cu1  1  0.87841000  0.84527000  0.90000000  1.0
  Cu  Cu2  1  0.12158000  0.15473000  0.10000000  1.0
  H  H3  1  0.74638000  0.66230000  0.06428000  1.0
  H  H4  1  0.25362000  0.33770000  0.93572000  1.0
  H  H5  1  0.04753000  0.83541000  0.47109000  1.0
  H  H6  1  0.95247000  0.16458000  0.52891000  1.0
  H  H7  1  0.28681000  0.54182000  0.15621000  1.0
  H  H8  1  0.71319000  0.45819000  0.84379000  1.0
  H  H9  1  0.27801000  0.38884000  0.60965000  1.0
  H  H10  1  0.72199000  0.61116000  0.39034000  1.0
  H  H11  1  0.55923000  0.44799000  0.19742000  1.0
  H  H12  1  0.44077000  0.55201000  0.80258000  1.0
  H  H13  1  0.70774000  0.21577000  0.08802000  1.0
  H  H14  1  0.29226000  0.78423000  0.91198000  1.0
  H  H15  1  0.38438000  0.93131000  0.37936000  1.0
  H  H16  1  0.61562000  0.06869000  0.62064000  1.0
  H  H17  1  0.24220000  0.17408000  0.47418000  1.0
  H  H18  1  0.75780000  0.82592000  0.52582000  1.0
  C  C19  1  0.08265000  0.63757000  0.70536000  1.0
  C  C20  1  0.91736000  0.36243000  0.29464000  1.0
  C  C21  1  0.15389000  0.61383000  0.55431000  1.0
  C  C22  1  0.84611000  0.38617000  0.44569000  1.0
  C  C23  1  0.11735000  0.72790000  0.44423000  1.0
  C  C24  1  0.88265000  0.27210000  0.55577000  1.0
  C  C25  1  0.16471000  0.70308000  0.30060000  1.0
  C  C26  1  0.83529000  0.29692000  0.69940000  1.0
  C  C27  1  0.11077000  0.81803000  0.17992000  1.0
  C  C28  1  0.88923000  0.18197000  0.82008000  1.0
  C  C29  1  0.25726000  0.56634000  0.26801000  1.0
  C  C30  1  0.74275000  0.43366000  0.73199000  1.0
  C  C31  1  0.30003000  0.45651000  0.37904000  1.0
  C  C32  1  0.69997000  0.54349000  0.62095000  1.0
  C  C33  1  0.24791000  0.47628000  0.52285000  1.0
  C  C34  1  0.75209000  0.52372000  0.47715000  1.0
  C  C35  1  0.52437000  0.33124000  0.23117000  1.0
  C  C36  1  0.47563000  0.66876000  0.76883000  1.0
  C  C37  1  0.60520000  0.20270000  0.17349000  1.0
  C  C38  1  0.39480000  0.79730000  0.82651000  1.0
  C  C39  1  0.55547000  0.05567000  0.22439000  1.0
  C  C40  1  0.44454000  0.94433000  0.77561000  1.0
  C  C41  1  0.42751000  0.04343000  0.33754000  1.0
  C  C42  1  0.57249000  0.95657000  0.66245000  1.0
  C  C43  1  0.34797000  0.17556000  0.39164000  1.0
  C  C44  1  0.65203000  0.82444000  0.60836000  1.0
  C  C45  1  0.63899000  0.91627000  0.15266000  1.0
  C  C46  1  0.36101000  0.08373000  0.84734000  1.0
  N  N47  1  0.39532000  0.31723000  0.33716000  1.0
  N  N48  1  0.60468000  0.68277000  0.66284000  1.0
  O  O49  1  0.11241000  0.52860000  0.80128000  1.0
  O  O50  1  0.88760000  0.47140000  0.19872000  1.0
  O  O51  1  0.99736000  0.76485000  0.72273000  1.0
  O  O52  1  0.00264000  0.23515000  0.27727000  1.0
  O  O53  1  0.08083000  0.95656000  0.21474000  1.0
  O  O54  1  0.91917000  0.04344000  0.78526000  1.0
  O  O55  1  0.09827000  0.76871000  0.05881000  1.0
  O  O56  1  0.90173000  0.23129000  0.94119000  1.0
  O  O57  1  0.71144000  0.95504000  0.02797000  1.0
  O  O58  1  0.28856000  0.04496000  0.97203000  1.0
  O  O59  1  0.63033000  0.78393000  0.21591000  1.0
  O  O60  1  0.36967000  0.21607000  0.78409000  1.0
  O  O61  1  0.80092000  0.64335000  0.96760000  1.0
  O  O62  1  0.19908000  0.35665000  0.03240000  1.0
