# generated using pymatgen
data_V2ZnH9C10(NO2)3
_symmetry_space_group_name_H-M   'P 1'
_cell_length_a   9.38106000
_cell_length_b   10.67860000
_cell_length_c   15.16370000
_cell_angle_alpha   105.39800000
_cell_angle_beta   104.82600000
_cell_angle_gamma   93.28960000
_symmetry_Int_Tables_number   1
_chemical_formula_structural   V2ZnH9C10(NO2)3
_chemical_formula_sum   'V8 Zn4 H36 C40 N12 O24'
_cell_volume   1402.90504183
_cell_formula_units_Z   4
loop_
 _symmetry_equiv_pos_site_id
 _symmetry_equiv_pos_as_xyz
  1  'x, y, z'
loop_
 _atom_site_type_symbol
 _atom_site_label
 _atom_site_symmetry_multiplicity
 _atom_site_fract_x
 _atom_site_fract_y
 _atom_site_fract_z
 _atom_site_occupancy
  V  V0  1  0.33259000  0.34772000  0.70431000  1.0
  V  V1  1  0.66739000  0.65229000  0.29569000  1.0
  V  V2  1  0.14138000  0.16076000  0.79485000  1.0
  V  V3  1  0.85862000  0.83925000  0.20515000  1.0
  V  V4  1  0.90368000  0.96296000  0.57920000  1.0
  V  V5  1  0.09632000  0.03703000  0.42080000  1.0
  V  V6  1  0.41924000  0.45247000  0.08308000  1.0
  V  V7  1  0.58076000  0.54753000  0.91692000  1.0
  Zn  Zn8  1  0.23231000  0.15193000  0.01712000  1.0
  Zn  Zn9  1  0.76769000  0.84807000  0.98288000  1.0
  Zn  Zn10  1  0.33176000  0.29697000  0.48488000  1.0
  Zn  Zn11  1  0.66824000  0.70303000  0.51512000  1.0
  H  H12  1  0.43707000  0.43106000  0.26972000  1.0
  H  H13  1  0.56293000  0.56894000  0.73028000  1.0
  H  H14  1  0.09435000  0.06674000  0.23891000  1.0
  H  H15  1  0.90566000  0.93326000  0.76110000  1.0
  H  H16  1  0.23137000  0.91221000  0.26645000  1.0
  H  H17  1  0.76863000  0.08779000  0.73356000  1.0
  H  H18  1  0.00644000  0.32608000  0.98166000  1.0
  H  H19  1  0.99358000  0.67392000  0.01834000  1.0
  H  H20  1  0.39080000  0.92448000  0.98411000  1.0
  H  H21  1  0.60921000  0.07552000  0.01590000  1.0
  H  H22  1  0.27187000  0.57022000  0.25424000  1.0
  H  H23  1  0.72811000  0.42977000  0.74575000  1.0
  H  H24  1  0.57160000  0.28175000  0.21642000  1.0
  H  H25  1  0.42840000  0.71824000  0.78357000  1.0
  H  H26  1  0.18246000  0.51997000  0.54948000  1.0
  H  H27  1  0.81754000  0.48003000  0.45052000  1.0
  H  H28  1  0.84717000  0.45082000  0.07161000  1.0
  H  H29  1  0.15283000  0.54918000  0.92838000  1.0
  H  H30  1  0.96565000  0.22749000  0.27406000  1.0
  H  H31  1  0.03435000  0.77250000  0.72593000  1.0
  H  H32  1  0.83030000  0.40346000  0.22431000  1.0
  H  H33  1  0.16970000  0.59653000  0.77568000  1.0
  H  H34  1  0.39168000  0.75139000  0.21062000  1.0
  H  H35  1  0.60833000  0.24861000  0.78939000  1.0
  H  H36  1  0.53216000  0.09898000  0.47576000  1.0
  H  H37  1  0.46784000  0.90102000  0.52424000  1.0
  H  H38  1  0.11166000  0.71461000  0.32904000  1.0
  H  H39  1  0.88833000  0.28539000  0.67096000  1.0
  H  H40  1  0.06718000  0.69336000  0.48276000  1.0
  H  H41  1  0.93282000  0.30665000  0.51725000  1.0
  H  H42  1  0.47663000  0.75719000  0.06518000  1.0
  H  H43  1  0.52338000  0.24281000  0.93483000  1.0
  H  H44  1  0.70387000  0.09090000  0.23676000  1.0
  H  H45  1  0.29613000  0.90910000  0.76323000  1.0
  H  H46  1  0.68562000  0.99773000  0.37138000  1.0
  H  H47  1  0.31438000  0.00227000  0.62862000  1.0
  C  C48  1  0.22336000  0.00316000  0.15351000  1.0
  C  C49  1  0.77665000  0.99684000  0.84650000  1.0
  C  C50  1  0.48116000  0.29087000  0.33534000  1.0
  C  C51  1  0.51884000  0.70912000  0.66465000  1.0
  C  C52  1  0.05799000  0.18493000  0.15439000  1.0
  C  C53  1  0.94201000  0.81507000  0.84561000  1.0
  C  C54  1  0.31809000  0.47259000  0.36477000  1.0
  C  C55  1  0.68190000  0.52740000  0.63522000  1.0
  C  C56  1  0.26728000  0.91123000  0.20347000  1.0
  C  C57  1  0.73273000  0.08878000  0.79654000  1.0
  C  C58  1  0.99329000  0.30777000  0.04669000  1.0
  C  C59  1  0.00672000  0.69223000  0.95331000  1.0
  C  C60  1  0.35907000  0.91815000  0.04726000  1.0
  C  C61  1  0.64095000  0.08185000  0.95275000  1.0
  C  C62  1  0.25372000  0.56535000  0.32149000  1.0
  C  C63  1  0.74627000  0.43464000  0.67850000  1.0
  C  C64  1  0.56714000  0.23932000  0.27368000  1.0
  C  C65  1  0.43285000  0.76067000  0.72631000  1.0
  C  C66  1  0.20211000  0.53833000  0.48581000  1.0
  C  C67  1  0.79789000  0.46166000  0.51419000  1.0
  C  C68  1  0.90411000  0.37575000  0.09692000  1.0
  C  C69  1  0.09589000  0.62425000  0.90308000  1.0
  C  C70  1  0.96968000  0.25125000  0.20905000  1.0
  C  C71  1  0.03032000  0.74874000  0.79095000  1.0
  C  C72  1  0.89403000  0.34771000  0.18046000  1.0
  C  C73  1  0.10597000  0.65229000  0.81954000  1.0
  C  C74  1  0.35800000  0.82265000  0.17238000  1.0
  C  C75  1  0.64201000  0.17736000  0.82763000  1.0
  C  C76  1  0.54354000  0.13543000  0.41708000  1.0
  C  C77  1  0.45646000  0.86457000  0.58292000  1.0
  C  C78  1  0.16423000  0.64522000  0.36358000  1.0
  C  C79  1  0.83575000  0.35477000  0.63642000  1.0
  C  C80  1  0.13882000  0.63332000  0.44846000  1.0
  C  C81  1  0.86117000  0.36668000  0.55154000  1.0
  C  C82  1  0.40531000  0.82503000  0.09228000  1.0
  C  C83  1  0.59470000  0.17497000  0.90773000  1.0
  C  C84  1  0.63998000  0.13326000  0.28548000  1.0
  C  C85  1  0.36002000  0.86673000  0.71451000  1.0
  C  C86  1  0.62982000  0.08064000  0.35939000  1.0
  C  C87  1  0.37017000  0.91936000  0.64061000  1.0
  N  N88  1  0.29073000  0.45906000  0.44519000  1.0
  N  N89  1  0.70926000  0.54093000  0.55481000  1.0
  N  N90  1  0.40961000  0.39639000  0.32104000  1.0
  N  N91  1  0.59038000  0.60361000  0.67895000  1.0
  N  N92  1  0.46844000  0.23731000  0.40483000  1.0
  N  N93  1  0.53156000  0.76269000  0.59517000  1.0
  N  N94  1  0.27061000  0.00667000  0.07712000  1.0
  N  N95  1  0.72940000  0.99333000  0.92289000  1.0
  N  N96  1  0.13104000  0.08928000  0.18610000  1.0
  N  N97  1  0.86896000  0.91073000  0.81390000  1.0
  N  N98  1  0.07090000  0.21467000  0.07512000  1.0
  N  N99  1  0.92910000  0.78532000  0.92488000  1.0
  O  O100  1  0.40490000  0.28743000  0.06437000  1.0
  O  O101  1  0.59510000  0.71257000  0.93563000  1.0
  O  O102  1  0.25558000  0.49835000  0.07378000  1.0
  O  O103  1  0.74442000  0.50166000  0.92621000  1.0
  O  O104  1  0.50001000  0.50000000  0.00000000  1.0
  O  O105  1  0.21427000  0.09281000  0.88328000  1.0
  O  O106  1  0.78573000  0.90720000  0.11672000  1.0
  O  O107  1  0.05372000  0.28048000  0.83374000  1.0
  O  O108  1  0.94628000  0.71953000  0.16626000  1.0
  O  O109  1  0.01424000  0.03144000  0.70110000  1.0
  O  O110  1  0.98576000  0.96856000  0.29890000  1.0
  O  O111  1  0.74605000  0.02195000  0.56610000  1.0
  O  O112  1  0.25396000  0.97805000  0.43391000  1.0
  O  O113  1  0.00000000  0.00000000  0.50000000  1.0
  O  O114  1  0.28566000  0.21738000  0.75049000  1.0
  O  O115  1  0.71434000  0.78263000  0.24950000  1.0
  O  O116  1  0.53160000  0.52646000  0.20414000  1.0
  O  O117  1  0.46839000  0.47354000  0.79586000  1.0
  O  O118  1  0.18767000  0.41513000  0.66607000  1.0
  O  O119  1  0.81232000  0.58488000  0.33393000  1.0
  O  O120  1  0.40802000  0.28889000  0.61326000  1.0
  O  O121  1  0.59197000  0.71112000  0.38674000  1.0
  O  O122  1  0.87046000  0.79898000  0.56133000  1.0
  O  O123  1  0.12954000  0.20102000  0.43867000  1.0
