# generated using pymatgen
data_CoH16C14N4(ClO)2
_symmetry_space_group_name_H-M   'P 1'
_cell_length_a   7.15875000
_cell_length_b   7.67225000
_cell_length_c   8.09866000
_cell_angle_alpha   97.36210000
_cell_angle_beta   109.05000000
_cell_angle_gamma   106.85100000
_symmetry_Int_Tables_number   1
_chemical_formula_structural   CoH16C14N4(ClO)2
_chemical_formula_sum   'Co1 H16 C14 N4 Cl2 O2'
_cell_volume   390.00526844
_cell_formula_units_Z   1
loop_
 _symmetry_equiv_pos_site_id
 _symmetry_equiv_pos_as_xyz
  1  'x, y, z'
loop_
 _atom_site_type_symbol
 _atom_site_label
 _atom_site_symmetry_multiplicity
 _atom_site_fract_x
 _atom_site_fract_y
 _atom_site_fract_z
 _atom_site_occupancy
  Co  Co0  1  0.00000000  0.50000000  0.00000000  1.0
  H  H1  1  0.72534000  0.11013000  0.85705000  1.0
  H  H2  1  0.27466000  0.88988000  0.14295000  1.0
  H  H3  1  0.91884000  0.66385000  0.56878000  1.0
  H  H4  1  0.08116000  0.33615000  0.43123000  1.0
  H  H5  1  0.11255000  0.80590000  0.50278000  1.0
  H  H6  1  0.88745000  0.19409000  0.49722000  1.0
  H  H7  1  0.74234000  0.81637000  0.70110000  1.0
  H  H8  1  0.25766000  0.18364000  0.29889000  1.0
  H  H9  1  0.38142000  0.13729000  0.77356000  1.0
  H  H10  1  0.61858000  0.86270000  0.22644000  1.0
  H  H11  1  0.33709000  0.41415000  0.92580000  1.0
  H  H12  1  0.66291000  0.58585000  0.07419000  1.0
  H  H13  1  0.33881000  0.65605000  0.53233000  1.0
  H  H14  1  0.66119000  0.34395000  0.46767000  1.0
  H  H15  1  0.45868000  0.59106000  0.72764000  1.0
  H  H16  1  0.54132000  0.40895000  0.27236000  1.0
  C  C17  1  0.23129000  0.70220000  0.73659000  1.0
  C  C18  1  0.76871000  0.29781000  0.26342000  1.0
  C  C19  1  0.06179000  0.94988000  0.71996000  1.0
  C  C20  1  0.93821000  0.05012000  0.28003000  1.0
  C  C21  1  0.86581000  0.10896000  0.83313000  1.0
  C  C22  1  0.13419000  0.89105000  0.16687000  1.0
  C  C23  1  0.07382000  0.77718000  0.61957000  1.0
  C  C24  1  0.92619000  0.22281000  0.38043000  1.0
  C  C25  1  0.87751000  0.94654000  0.74651000  1.0
  C  C26  1  0.12248000  0.05345000  0.25349000  1.0
  C  C27  1  0.23151000  0.12123000  0.78780000  1.0
  C  C28  1  0.76850000  0.87877000  0.21221000  1.0
  C  C29  1  0.20968000  0.27840000  0.87363000  1.0
  C  C30  1  0.79032000  0.72160000  0.12637000  1.0
  N  N31  1  0.02887000  0.27492000  0.89454000  1.0
  N  N32  1  0.97113000  0.72508000  0.10545000  1.0
  N  N33  1  0.35892000  0.65540000  0.66363000  1.0
  N  N34  1  0.64108000  0.34460000  0.33637000  1.0
  Cl  Cl35  1  0.29567000  0.55589000  0.24767000  1.0
  Cl  Cl36  1  0.70433000  0.44411000  0.75234000  1.0
  O  O37  1  0.23944000  0.68324000  0.88963000  1.0
  O  O38  1  0.76055000  0.31676000  0.11037000  1.0
