# generated using pymatgen
data_CdH22C24N3O4
_symmetry_space_group_name_H-M   'P 1'
_cell_length_a   14.39760000
_cell_length_b   16.56580000
_cell_length_c   22.39030000
_cell_angle_alpha   89.99990000
_cell_angle_beta   90.00000000
_cell_angle_gamma   90.00000000
_symmetry_Int_Tables_number   1
_chemical_formula_structural   CdH22C24N3O4
_chemical_formula_sum   'Cd8 H176 C192 N24 O32'
_cell_volume   5340.26034529
_cell_formula_units_Z   8
loop_
 _symmetry_equiv_pos_site_id
 _symmetry_equiv_pos_as_xyz
  1  'x, y, z'
loop_
 _atom_site_type_symbol
 _atom_site_label
 _atom_site_symmetry_multiplicity
 _atom_site_fract_x
 _atom_site_fract_y
 _atom_site_fract_z
 _atom_site_occupancy
  Cd  Cd0  1  0.35789000  0.23910000  0.61100000  1.0
  Cd  Cd1  1  0.14210000  0.26091000  0.11101000  1.0
  Cd  Cd2  1  0.85789000  0.26090000  0.38900000  1.0
  Cd  Cd3  1  0.64211000  0.23909000  0.88900000  1.0
  Cd  Cd4  1  0.64211000  0.76091000  0.38899000  1.0
  Cd  Cd5  1  0.85790000  0.73909000  0.88899000  1.0
  Cd  Cd6  1  0.14210000  0.73910000  0.61101000  1.0
  Cd  Cd7  1  0.35789000  0.76090000  0.11101000  1.0
  H  H8  1  0.57074000  0.46995000  0.71206000  1.0
  H  H9  1  0.92926000  0.03005000  0.21206000  1.0
  H  H10  1  0.07074000  0.03005000  0.28794000  1.0
  H  H11  1  0.42927000  0.46995000  0.78794000  1.0
  H  H12  1  0.42926000  0.53005000  0.28794000  1.0
  H  H13  1  0.07074000  0.96995000  0.78794000  1.0
  H  H14  1  0.92926000  0.96995000  0.71206000  1.0
  H  H15  1  0.57074000  0.53005000  0.21206000  1.0
  H  H16  1  0.70374000  0.34325000  0.56670000  1.0
  H  H17  1  0.79626000  0.15675000  0.06670000  1.0
  H  H18  1  0.20374000  0.15674000  0.43330000  1.0
  H  H19  1  0.29626000  0.34326000  0.93330000  1.0
  H  H20  1  0.29626000  0.65675000  0.43330000  1.0
  H  H21  1  0.20374000  0.84325000  0.93330000  1.0
  H  H22  1  0.79626000  0.84325000  0.56670000  1.0
  H  H23  1  0.70374000  0.65675000  0.06670000  1.0
  H  H24  1  0.02672000  0.62940000  0.51475000  1.0
  H  H25  1  0.47329000  0.87060000  0.01475000  1.0
  H  H26  1  0.52672000  0.87060000  0.48525000  1.0
  H  H27  1  0.97329000  0.62940000  0.98525000  1.0
  H  H28  1  0.97329000  0.37060000  0.48525000  1.0
  H  H29  1  0.52672000  0.12940000  0.98525000  1.0
  H  H30  1  0.47328000  0.12940000  0.51475000  1.0
  H  H31  1  0.02671000  0.37060000  0.01475000  1.0
  H  H32  1  0.14709000  0.25091000  0.57999000  1.0
  H  H33  1  0.35291000  0.24909000  0.07999000  1.0
  H  H34  1  0.64709000  0.24908000  0.42001000  1.0
  H  H35  1  0.85291000  0.25092000  0.92001000  1.0
  H  H36  1  0.85291000  0.74909000  0.42001000  1.0
  H  H37  1  0.64709000  0.75091000  0.92001000  1.0
  H  H38  1  0.35291000  0.75091000  0.57999000  1.0
  H  H39  1  0.14709000  0.74908000  0.07999000  1.0
  H  H40  1  0.00736000  0.17041000  0.55134000  1.0
  H  H41  1  0.49264000  0.32959000  0.05134000  1.0
  H  H42  1  0.50736000  0.32958000  0.44866000  1.0
  H  H43  1  0.99264000  0.17042000  0.94866000  1.0
  H  H44  1  0.99264000  0.82959000  0.44866000  1.0
  H  H45  1  0.50736000  0.67042000  0.94866000  1.0
  H  H46  1  0.49264000  0.67041000  0.55134000  1.0
  H  H47  1  0.00736000  0.82958000  0.05134000  1.0
  H  H48  1  0.43244000  0.37944000  0.69668000  1.0
  H  H49  1  0.06756000  0.12056000  0.19668000  1.0
  H  H50  1  0.93244000  0.12056000  0.30332000  1.0
  H  H51  1  0.56756000  0.37944000  0.80332000  1.0
  H  H52  1  0.56756000  0.62056000  0.30332000  1.0
  H  H53  1  0.93244000  0.87944000  0.80332000  1.0
  H  H54  1  0.06756000  0.87944000  0.69668000  1.0
  H  H55  1  0.43244000  0.62056000  0.19668000  1.0
  H  H56  1  0.31118000  0.04661000  0.59072000  1.0
  H  H57  1  0.18882000  0.45339000  0.09073000  1.0
  H  H58  1  0.81118000  0.45339000  0.40927000  1.0
  H  H59  1  0.68882000  0.04661000  0.90928000  1.0
  H  H60  1  0.68882000  0.95339000  0.40927000  1.0
  H  H61  1  0.81118000  0.54661000  0.90928000  1.0
  H  H62  1  0.18882000  0.54661000  0.59072000  1.0
  H  H63  1  0.31118000  0.95339000  0.09073000  1.0
  H  H64  1  0.17999000  0.95623000  0.56148000  1.0
  H  H65  1  0.32001000  0.54377000  0.06148000  1.0
  H  H66  1  0.67999000  0.54377000  0.43852000  1.0
  H  H67  1  0.82001000  0.95623000  0.93852000  1.0
  H  H68  1  0.82001000  0.04377000  0.43852000  1.0
  H  H69  1  0.67999000  0.45623000  0.93852000  1.0
  H  H70  1  0.32001000  0.45623000  0.56148000  1.0
  H  H71  1  0.17999000  0.04377000  0.06148000  1.0
  H  H72  1  0.02996000  0.62272000  0.69898000  1.0
  H  H73  1  0.47004000  0.87728000  0.19898000  1.0
  H  H74  1  0.52996000  0.87728000  0.30102000  1.0
  H  H75  1  0.97004000  0.62272000  0.80102000  1.0
  H  H76  1  0.97004000  0.37728000  0.30102000  1.0
  H  H77  1  0.52996000  0.12272000  0.80102000  1.0
  H  H78  1  0.47004000  0.12272000  0.69898000  1.0
  H  H79  1  0.02996000  0.37728000  0.19898000  1.0
  H  H80  1  0.89611000  0.52915000  0.50962000  1.0
  H  H81  1  0.60389000  0.97085000  0.00962000  1.0
  H  H82  1  0.39611000  0.97085000  0.49038000  1.0
  H  H83  1  0.10390000  0.52915000  0.99038000  1.0
  H  H84  1  0.10389000  0.47085000  0.49038000  1.0
  H  H85  1  0.39611000  0.02915000  0.99038000  1.0
  H  H86  1  0.60389000  0.02915000  0.50962000  1.0
  H  H87  1  0.89611000  0.47085000  0.00962000  1.0
  H  H88  1  0.89965000  0.52282000  0.70259000  1.0
  H  H89  1  0.60035000  0.97718000  0.20259000  1.0
  H  H90  1  0.39965000  0.97718000  0.29741000  1.0
  H  H91  1  0.10035000  0.52282000  0.79741000  1.0
  H  H92  1  0.10035000  0.47718000  0.29741000  1.0
  H  H93  1  0.39965000  0.02282000  0.79741000  1.0
  H  H94  1  0.60035000  0.02282000  0.70260000  1.0
  H  H95  1  0.89965000  0.47718000  0.20259000  1.0
  H  H96  1  0.56182000  0.26023000  0.55752000  1.0
  H  H97  1  0.93818000  0.23977000  0.05752000  1.0
  H  H98  1  0.06182000  0.23977000  0.44248000  1.0
  H  H99  1  0.43818000  0.26023000  0.94248000  1.0
  H  H100  1  0.43818000  0.73977000  0.44248000  1.0
  H  H101  1  0.06182000  0.76023000  0.94248000  1.0
  H  H102  1  0.93818000  0.76023000  0.55752000  1.0
  H  H103  1  0.56182000  0.73977000  0.05752000  1.0
  H  H104  1  0.70799000  0.53195000  0.64597000  1.0
  H  H105  1  0.79201000  0.96805000  0.14597000  1.0
  H  H106  1  0.20799000  0.96805000  0.35403000  1.0
  H  H107  1  0.29201000  0.53195000  0.85403000  1.0
  H  H108  1  0.29201000  0.46805000  0.35403000  1.0
  H  H109  1  0.20799000  0.03195000  0.85403000  1.0
  H  H110  1  0.79201000  0.03195000  0.64597000  1.0
  H  H111  1  0.70799000  0.46805000  0.14597000  1.0
  H  H112  1  0.75867000  0.46146000  0.69449000  1.0
  H  H113  1  0.74133000  0.03854000  0.19449000  1.0
  H  H114  1  0.25867000  0.03854000  0.30551000  1.0
  H  H115  1  0.24133000  0.46146000  0.80551000  1.0
  H  H116  1  0.24133000  0.53854000  0.30551000  1.0
  H  H117  1  0.25867000  0.96146000  0.80552000  1.0
  H  H118  1  0.74133000  0.96146000  0.69449000  1.0
  H  H119  1  0.75867000  0.53854000  0.19449000  1.0
  H  H120  1  0.83943000  0.39442000  0.60898000  1.0
  H  H121  1  0.66057000  0.10558000  0.10898000  1.0
  H  H122  1  0.33943000  0.10557000  0.39102000  1.0
  H  H123  1  0.16057000  0.39443000  0.89102000  1.0
  H  H124  1  0.16057000  0.60558000  0.39102000  1.0
  H  H125  1  0.33943000  0.89442000  0.89102000  1.0
  H  H126  1  0.66057000  0.89442000  0.60898000  1.0
  H  H127  1  0.83943000  0.60558000  0.10898000  1.0
  H  H128  1  0.78085000  0.45612000  0.55753000  1.0
  H  H129  1  0.71915000  0.04388000  0.05753000  1.0
  H  H130  1  0.28085000  0.04388000  0.44247000  1.0
  H  H131  1  0.21915000  0.45612000  0.94247000  1.0
  H  H132  1  0.21915000  0.54388000  0.44247000  1.0
  H  H133  1  0.28085000  0.95612000  0.94247000  1.0
  H  H134  1  0.71915000  0.95612000  0.55753000  1.0
  H  H135  1  0.78085000  0.54388000  0.05753000  1.0
  H  H136  1  0.37531000  0.23956000  0.38351000  1.0
  H  H137  1  0.12468000  0.26044000  0.88351000  1.0
  H  H138  1  0.87532000  0.26044000  0.61649000  1.0
  H  H139  1  0.62469000  0.23956000  0.11649000  1.0
  H  H140  1  0.62468000  0.76044000  0.61649000  1.0
  H  H141  1  0.87532000  0.73956000  0.11649000  1.0
  H  H142  1  0.12469000  0.73956000  0.38351000  1.0
  H  H143  1  0.37531000  0.76044000  0.88351000  1.0
  H  H144  1  0.93561000  0.03323000  0.54878000  1.0
  H  H145  1  0.56438000  0.46677000  0.04878000  1.0
  H  H146  1  0.43561000  0.46677000  0.45122000  1.0
  H  H147  1  0.06439000  0.03323000  0.95122000  1.0
  H  H148  1  0.06439000  0.96677000  0.45122000  1.0
  H  H149  1  0.43561000  0.53323000  0.95123000  1.0
  H  H150  1  0.56439000  0.53323000  0.54878000  1.0
  H  H151  1  0.93561000  0.96677000  0.04877000  1.0
  H  H152  1  0.33527000  0.19893000  0.27796000  1.0
  H  H153  1  0.16472000  0.30107000  0.77796000  1.0
  H  H154  1  0.83528000  0.30107000  0.72204000  1.0
  H  H155  1  0.66473000  0.19893000  0.22204000  1.0
  H  H156  1  0.66472000  0.80107000  0.72204000  1.0
  H  H157  1  0.83528000  0.69893000  0.22204000  1.0
  H  H158  1  0.16472000  0.69893000  0.27796000  1.0
  H  H159  1  0.33528000  0.80108000  0.77796000  1.0
  H  H160  1  0.00552000  0.94540000  0.55505000  1.0
  H  H161  1  0.49448000  0.55460000  0.05505000  1.0
  H  H162  1  0.50551000  0.55460000  0.44495000  1.0
  H  H163  1  0.99449000  0.94540000  0.94495000  1.0
  H  H164  1  0.99448000  0.05460000  0.44495000  1.0
  H  H165  1  0.50551000  0.44541000  0.94495000  1.0
  H  H166  1  0.49448000  0.44540000  0.55505000  1.0
  H  H167  1  0.00552000  0.05459000  0.05505000  1.0
  H  H168  1  0.21269000  0.33757000  0.32465000  1.0
  H  H169  1  0.28731000  0.16243000  0.82466000  1.0
  H  H170  1  0.71269000  0.16243000  0.67534000  1.0
  H  H171  1  0.78731000  0.33757000  0.17534000  1.0
  H  H172  1  0.78731000  0.66243000  0.67535000  1.0
  H  H173  1  0.71269000  0.83758000  0.17534000  1.0
  H  H174  1  0.28731000  0.83758000  0.32465000  1.0
  H  H175  1  0.21268000  0.66243000  0.82466000  1.0
  H  H176  1  0.23579000  0.36250000  0.43443000  1.0
  H  H177  1  0.26420000  0.13750000  0.93442000  1.0
  H  H178  1  0.73580000  0.13750000  0.56558000  1.0
  H  H179  1  0.76421000  0.36250000  0.06557000  1.0
  H  H180  1  0.76420000  0.63750000  0.56558000  1.0
  H  H181  1  0.73580000  0.86250000  0.06557000  1.0
  H  H182  1  0.26421000  0.86250000  0.43443000  1.0
  H  H183  1  0.23579000  0.63750000  0.93443000  1.0
  C  C184  1  0.88749000  0.51589000  0.60571000  1.0
  C  C185  1  0.61251000  0.98411000  0.10571000  1.0
  C  C186  1  0.38749000  0.98411000  0.39429000  1.0
  C  C187  1  0.11251000  0.51589000  0.89429000  1.0
  C  C188  1  0.11251000  0.48411000  0.39429000  1.0
  C  C189  1  0.38749000  0.01589000  0.89429000  1.0
  C  C190  1  0.61251000  0.01589000  0.60571000  1.0
  C  C191  1  0.88749000  0.48411000  0.10571000  1.0
  C  C192  1  0.28183000  0.24581000  0.27818000  1.0
  C  C193  1  0.21817000  0.25419000  0.77818000  1.0
  C  C194  1  0.78183000  0.25419000  0.72182000  1.0
  C  C195  1  0.71817000  0.24581000  0.22182000  1.0
  C  C196  1  0.71817000  0.75419000  0.72182000  1.0
  C  C197  1  0.78183000  0.74581000  0.22182000  1.0
  C  C198  1  0.21817000  0.74581000  0.27818000  1.0
  C  C199  1  0.28183000  0.75419000  0.77818000  1.0
  C  C200  1  0.08182000  0.05602000  0.55384000  1.0
  C  C201  1  0.41818000  0.44398000  0.05384000  1.0
  C  C202  1  0.58182000  0.44398000  0.44616000  1.0
  C  C203  1  0.91818000  0.05602000  0.94616000  1.0
  C  C204  1  0.91818000  0.94398000  0.44616000  1.0
  C  C205  1  0.58182000  0.55602000  0.94616000  1.0
  C  C206  1  0.41818000  0.55602000  0.55384000  1.0
  C  C207  1  0.08182000  0.94398000  0.05384000  1.0
  C  C208  1  0.57166000  0.42349000  0.67750000  1.0
  C  C209  1  0.92834000  0.07651000  0.17750000  1.0
  C  C210  1  0.07166000  0.07650000  0.32250000  1.0
  C  C211  1  0.42834000  0.42349000  0.82250000  1.0
  C  C212  1  0.42834000  0.57651000  0.32250000  1.0
  C  C213  1  0.07166000  0.92350000  0.82250000  1.0
  C  C214  1  0.92834000  0.92349000  0.67750000  1.0
  C  C215  1  0.57166000  0.57651000  0.17750000  1.0
  C  C216  1  0.64619000  0.35413000  0.59711000  1.0
  C  C217  1  0.85380000  0.14587000  0.09712000  1.0
  C  C218  1  0.14619000  0.14587000  0.40288000  1.0
  C  C219  1  0.35381000  0.35413000  0.90288000  1.0
  C  C220  1  0.35381000  0.64587000  0.40289000  1.0
  C  C221  1  0.14619000  0.85413000  0.90289000  1.0
  C  C222  1  0.85381000  0.85413000  0.59711000  1.0
  C  C223  1  0.64620000  0.64587000  0.09712000  1.0
  C  C224  1  0.99687000  0.60278000  0.55504000  1.0
  C  C225  1  0.50314000  0.89721000  0.05504000  1.0
  C  C226  1  0.49686000  0.89721000  0.44496000  1.0
  C  C227  1  0.00314000  0.60279000  0.94496000  1.0
  C  C228  1  0.00314000  0.39721000  0.44496000  1.0
  C  C229  1  0.49686000  0.10278000  0.94496000  1.0
  C  C230  1  0.50313000  0.10278000  0.55504000  1.0
  C  C231  1  0.99687000  0.39721000  0.05504000  1.0
  C  C232  1  0.15070000  0.18540000  0.57543000  1.0
  C  C233  1  0.34930000  0.31460000  0.07544000  1.0
  C  C234  1  0.65070000  0.31459000  0.42456000  1.0
  C  C235  1  0.84930000  0.18541000  0.92457000  1.0
  C  C236  1  0.84930000  0.81460000  0.42456000  1.0
  C  C237  1  0.65070000  0.68541000  0.92457000  1.0
  C  C238  1  0.34930000  0.68540000  0.57543000  1.0
  C  C239  1  0.15070000  0.81459000  0.07544000  1.0
  C  C240  1  0.07327000  0.13986000  0.55973000  1.0
  C  C241  1  0.42673000  0.36014000  0.05973000  1.0
  C  C242  1  0.57327000  0.36014000  0.44027000  1.0
  C  C243  1  0.92673000  0.13986000  0.94028000  1.0
  C  C244  1  0.92673000  0.86014000  0.44027000  1.0
  C  C245  1  0.57327000  0.63986000  0.94027000  1.0
  C  C246  1  0.42673000  0.63986000  0.55973000  1.0
  C  C247  1  0.07327000  0.86014000  0.05973000  1.0
  C  C248  1  0.49492000  0.37392000  0.66935000  1.0
  C  C249  1  0.00508000  0.12608000  0.16935000  1.0
  C  C250  1  0.99492000  0.12608000  0.33065000  1.0
  C  C251  1  0.50508000  0.37392000  0.83064000  1.0
  C  C252  1  0.50508000  0.62608000  0.33064000  1.0
  C  C253  1  0.99492000  0.87392000  0.83065000  1.0
  C  C254  1  0.00508000  0.87392000  0.66935000  1.0
  C  C255  1  0.49492000  0.62608000  0.16935000  1.0
  C  C256  1  0.24262000  0.07142000  0.58092000  1.0
  C  C257  1  0.25738000  0.42858000  0.08092000  1.0
  C  C258  1  0.74261000  0.42858000  0.41908000  1.0
  C  C259  1  0.75739000  0.07142000  0.91908000  1.0
  C  C260  1  0.75738000  0.92858000  0.41908000  1.0
  C  C261  1  0.74261000  0.57142000  0.91908000  1.0
  C  C262  1  0.25739000  0.57142000  0.58092000  1.0
  C  C263  1  0.24261000  0.92858000  0.08092000  1.0
  C  C264  1  0.31817000  0.28314000  0.38190000  1.0
  C  C265  1  0.18182000  0.21686000  0.88190000  1.0
  C  C266  1  0.81818000  0.21686000  0.61810000  1.0
  C  C267  1  0.68183000  0.28314000  0.11810000  1.0
  C  C268  1  0.68182000  0.71686000  0.61810000  1.0
  C  C269  1  0.81817000  0.78314000  0.11810000  1.0
  C  C270  1  0.18183000  0.78315000  0.38190000  1.0
  C  C271  1  0.31817000  0.71686000  0.88190000  1.0
  C  C272  1  0.29333000  0.31960000  0.43351000  1.0
  C  C273  1  0.20666000  0.18040000  0.93350000  1.0
  C  C274  1  0.79334000  0.18040000  0.56649000  1.0
  C  C275  1  0.70667000  0.31960000  0.06649000  1.0
  C  C276  1  0.70666000  0.68040000  0.56649000  1.0
  C  C277  1  0.79333000  0.81960000  0.06650000  1.0
  C  C278  1  0.20667000  0.81960000  0.43351000  1.0
  C  C279  1  0.29333000  0.68040000  0.93350000  1.0
  C  C280  1  0.22285000  0.25176000  0.22381000  1.0
  C  C281  1  0.27715000  0.24824000  0.72381000  1.0
  C  C282  1  0.72285000  0.24824000  0.77619000  1.0
  C  C283  1  0.77715000  0.25176000  0.27619000  1.0
  C  C284  1  0.77715000  0.74824000  0.77619000  1.0
  C  C285  1  0.72285000  0.75176000  0.27619000  1.0
  C  C286  1  0.27715000  0.75176000  0.22381000  1.0
  C  C287  1  0.22286000  0.74825000  0.72381000  1.0
  C  C288  1  0.26872000  0.29304000  0.32659000  1.0
  C  C289  1  0.23128000  0.20697000  0.82659000  1.0
  C  C290  1  0.76872000  0.20697000  0.67341000  1.0
  C  C291  1  0.73128000  0.29303000  0.17341000  1.0
  C  C292  1  0.73128000  0.70697000  0.67341000  1.0
  C  C293  1  0.76872000  0.79303000  0.17341000  1.0
  C  C294  1  0.23128000  0.79304000  0.32659000  1.0
  C  C295  1  0.26872000  0.70697000  0.82659000  1.0
  C  C296  1  0.16898000  0.02139000  0.56507000  1.0
  C  C297  1  0.33102000  0.47861000  0.06507000  1.0
  C  C298  1  0.66898000  0.47861000  0.43493000  1.0
  C  C299  1  0.83102000  0.02139000  0.93493000  1.0
  C  C300  1  0.83102000  0.97861000  0.43493000  1.0
  C  C301  1  0.66898000  0.52139000  0.93493000  1.0
  C  C302  1  0.33102000  0.52139000  0.56507000  1.0
  C  C303  1  0.16898000  0.97861000  0.06507000  1.0
  C  C304  1  0.64993000  0.41430000  0.64077000  1.0
  C  C305  1  0.85007000  0.08570000  0.14077000  1.0
  C  C306  1  0.14992000  0.08569000  0.35923000  1.0
  C  C307  1  0.35008000  0.41431000  0.85923000  1.0
  C  C308  1  0.35007000  0.58570000  0.35923000  1.0
  C  C309  1  0.14992000  0.91431000  0.85923000  1.0
  C  C310  1  0.85008000  0.91431000  0.64077000  1.0
  C  C311  1  0.64993000  0.58570000  0.14077000  1.0
  C  C312  1  0.99816000  0.59926000  0.65826000  1.0
  C  C313  1  0.50185000  0.90074000  0.15826000  1.0
  C  C314  1  0.49816000  0.90074000  0.34174000  1.0
  C  C315  1  0.00185000  0.59926000  0.84174000  1.0
  C  C316  1  0.00184000  0.40075000  0.34174000  1.0
  C  C317  1  0.49816000  0.09925000  0.84174000  1.0
  C  C318  1  0.50184000  0.09925000  0.65826000  1.0
  C  C319  1  0.99816000  0.40074000  0.15826000  1.0
  C  C320  1  0.92448000  0.54733000  0.55273000  1.0
  C  C321  1  0.57552000  0.95266000  0.05273000  1.0
  C  C322  1  0.42448000  0.95266000  0.44727000  1.0
  C  C323  1  0.07552000  0.54734000  0.94727000  1.0
  C  C324  1  0.07552000  0.45266000  0.44727000  1.0
  C  C325  1  0.42448000  0.04733000  0.94727000  1.0
  C  C326  1  0.57552000  0.04733000  0.55273000  1.0
  C  C327  1  0.92448000  0.45266000  0.05273000  1.0
  C  C328  1  0.92591000  0.54339000  0.65952000  1.0
  C  C329  1  0.57409000  0.95661000  0.15952000  1.0
  C  C330  1  0.42591000  0.95661000  0.34048000  1.0
  C  C331  1  0.07409000  0.54339000  0.84048000  1.0
  C  C332  1  0.07409000  0.45661000  0.34048000  1.0
  C  C333  1  0.42591000  0.04339000  0.84048000  1.0
  C  C334  1  0.57409000  0.04339000  0.65952000  1.0
  C  C335  1  0.92591000  0.45661000  0.15952000  1.0
  C  C336  1  0.00106000  0.00519000  0.53427000  1.0
  C  C337  1  0.49894000  0.49482000  0.03427000  1.0
  C  C338  1  0.50106000  0.49481000  0.46573000  1.0
  C  C339  1  0.99894000  0.00519000  0.96573000  1.0
  C  C340  1  0.99894000  0.99481000  0.46573000  1.0
  C  C341  1  0.50106000  0.50519000  0.96573000  1.0
  C  C342  1  0.49894000  0.50518000  0.53427000  1.0
  C  C343  1  0.00106000  0.99481000  0.03427000  1.0
  C  C344  1  0.56693000  0.30676000  0.59179000  1.0
  C  C345  1  0.93307000  0.19324000  0.09179000  1.0
  C  C346  1  0.06693000  0.19323000  0.40821000  1.0
  C  C347  1  0.43307000  0.30677000  0.90821000  1.0
  C  C348  1  0.43307000  0.69324000  0.40821000  1.0
  C  C349  1  0.06693000  0.80677000  0.90821000  1.0
  C  C350  1  0.93308000  0.80677000  0.59179000  1.0
  C  C351  1  0.56693000  0.69323000  0.09179000  1.0
  C  C352  1  0.33245000  0.29618000  0.49238000  1.0
  C  C353  1  0.16755000  0.20382000  0.99238000  1.0
  C  C354  1  0.83245000  0.20382000  0.50762000  1.0
  C  C355  1  0.66755000  0.29618000  0.00762000  1.0
  C  C356  1  0.66755000  0.70382000  0.50762000  1.0
  C  C357  1  0.83245000  0.79618000  0.00762000  1.0
  C  C358  1  0.16755000  0.79619000  0.49238000  1.0
  C  C359  1  0.33245000  0.70382000  0.99238000  1.0
  C  C360  1  0.73249000  0.46901000  0.64857000  1.0
  C  C361  1  0.76751000  0.03099000  0.14857000  1.0
  C  C362  1  0.23249000  0.03099000  0.35143000  1.0
  C  C363  1  0.26751000  0.46901000  0.85143000  1.0
  C  C364  1  0.26751000  0.53099000  0.35143000  1.0
  C  C365  1  0.23249000  0.96901000  0.85143000  1.0
  C  C366  1  0.76751000  0.96901000  0.64857000  1.0
  C  C367  1  0.73249000  0.53099000  0.14857000  1.0
  C  C368  1  0.80988000  0.45532000  0.60298000  1.0
  C  C369  1  0.69012000  0.04468000  0.10298000  1.0
  C  C370  1  0.30988000  0.04468000  0.39702000  1.0
  C  C371  1  0.19012000  0.45533000  0.89702000  1.0
  C  C372  1  0.19012000  0.54468000  0.39702000  1.0
  C  C373  1  0.30988000  0.95532000  0.89702000  1.0
  C  C374  1  0.69012000  0.95532000  0.60298000  1.0
  C  C375  1  0.80988000  0.54468000  0.10298000  1.0
  N  N376  1  0.49236000  0.31634000  0.62699000  1.0
  N  N377  1  0.00764000  0.18366000  0.12699000  1.0
  N  N378  1  0.99236000  0.18365000  0.37301000  1.0
  N  N379  1  0.50764000  0.31634000  0.87301000  1.0
  N  N380  1  0.50764000  0.68366000  0.37301000  1.0
  N  N381  1  0.99236000  0.81635000  0.87301000  1.0
  N  N382  1  0.00765000  0.81635000  0.62699000  1.0
  N  N383  1  0.49236000  0.68366000  0.12699000  1.0
  N  N384  1  0.03354000  0.62836000  0.60699000  1.0
  N  N385  1  0.46647000  0.87164000  0.10698000  1.0
  N  N386  1  0.53354000  0.87164000  0.39301000  1.0
  N  N387  1  0.96647000  0.62836000  0.89301000  1.0
  N  N388  1  0.96647000  0.37164000  0.39301000  1.0
  N  N389  1  0.53354000  0.12835000  0.89301000  1.0
  N  N390  1  0.46646000  0.12836000  0.60699000  1.0
  N  N391  1  0.03353000  0.37164000  0.10699000  1.0
  N  N392  1  0.23442000  0.15203000  0.58561000  1.0
  N  N393  1  0.26558000  0.34797000  0.08561000  1.0
  N  N394  1  0.73442000  0.34797000  0.41439000  1.0
  N  N395  1  0.76558000  0.15203000  0.91439000  1.0
  N  N396  1  0.76558000  0.84797000  0.41439000  1.0
  N  N397  1  0.73442000  0.65203000  0.91439000  1.0
  N  N398  1  0.26558000  0.65203000  0.58561000  1.0
  N  N399  1  0.23442000  0.84797000  0.08561000  1.0
  O  O400  1  0.39767000  0.24445000  0.49526000  1.0
  O  O401  1  0.10233000  0.25555000  0.99526000  1.0
  O  O402  1  0.89767000  0.25555000  0.50473000  1.0
  O  O403  1  0.60234000  0.24444000  0.00473000  1.0
  O  O404  1  0.60233000  0.75555000  0.50474000  1.0
  O  O405  1  0.89767000  0.74445000  0.00474000  1.0
  O  O406  1  0.10233000  0.74446000  0.49527000  1.0
  O  O407  1  0.39767000  0.75555000  0.99526000  1.0
  O  O408  1  0.23452000  0.19664000  0.18411000  1.0
  O  O409  1  0.26548000  0.30335000  0.68411000  1.0
  O  O410  1  0.73452000  0.30335000  0.81589000  1.0
  O  O411  1  0.76548000  0.19664000  0.31589000  1.0
  O  O412  1  0.76548000  0.80336000  0.81589000  1.0
  O  O413  1  0.73452000  0.69665000  0.31589000  1.0
  O  O414  1  0.26548000  0.69665000  0.18411000  1.0
  O  O415  1  0.23452000  0.80335000  0.68411000  1.0
  O  O416  1  0.29356000  0.32783000  0.53840000  1.0
  O  O417  1  0.20644000  0.17217000  0.03840000  1.0
  O  O418  1  0.79356000  0.17217000  0.46160000  1.0
  O  O419  1  0.70644000  0.32783000  0.96160000  1.0
  O  O420  1  0.70644000  0.67217000  0.46160000  1.0
  O  O421  1  0.79356000  0.82783000  0.96160000  1.0
  O  O422  1  0.20644000  0.82784000  0.53840000  1.0
  O  O423  1  0.29356000  0.67217000  0.03840000  1.0
  O  O424  1  0.16513000  0.30943000  0.21853000  1.0
  O  O425  1  0.33487000  0.19057000  0.71853000  1.0
  O  O426  1  0.66513000  0.19057000  0.78146000  1.0
  O  O427  1  0.83487000  0.30943000  0.28147000  1.0
  O  O428  1  0.83487000  0.69057000  0.78147000  1.0
  O  O429  1  0.66513000  0.80943000  0.28147000  1.0
  O  O430  1  0.33488000  0.80943000  0.21853000  1.0
  O  O431  1  0.16513000  0.69057000  0.71853000  1.0
