# generated using pymatgen
data_MnH10(C2O3)4
_symmetry_space_group_name_H-M   'P 1'
_cell_length_a   5.14263000
_cell_length_b   7.49428000
_cell_length_c   8.87647000
_cell_angle_alpha   66.46800000
_cell_angle_beta   76.81990000
_cell_angle_gamma   74.70310000
_symmetry_Int_Tables_number   1
_chemical_formula_structural   MnH10(C2O3)4
_chemical_formula_sum   'Mn1 H10 C8 O12'
_cell_volume   299.61447132
_cell_formula_units_Z   1
loop_
 _symmetry_equiv_pos_site_id
 _symmetry_equiv_pos_as_xyz
  1  'x, y, z'
loop_
 _atom_site_type_symbol
 _atom_site_label
 _atom_site_symmetry_multiplicity
 _atom_site_fract_x
 _atom_site_fract_y
 _atom_site_fract_z
 _atom_site_occupancy
  Mn  Mn0  1  0.99859000  0.00133000  0.99825000  1.0
  H  H1  1  0.01664000  0.98775000  0.49905000  1.0
  H  H2  1  0.02058000  0.49242000  0.50187000  1.0
  H  H3  1  0.24459000  0.83171000  0.27953000  1.0
  H  H4  1  0.75023000  0.17008000  0.71716000  1.0
  H  H5  1  0.47544000  0.78403000  0.13837000  1.0
  H  H6  1  0.52198000  0.21638000  0.86074000  1.0
  H  H7  1  0.81756000  0.70139000  0.96348000  1.0
  H  H8  1  0.18006000  0.29995000  0.03760000  1.0
  H  H9  1  0.91713000  0.61670000  0.13844000  1.0
  H  H10  1  0.08006000  0.38474000  0.86268000  1.0
  C  C11  1  0.60008000  0.17800000  0.28136000  1.0
  C  C12  1  0.39949000  0.82406000  0.71899000  1.0
  C  C13  1  0.63269000  0.20181000  0.43321000  1.0
  C  C14  1  0.36599000  0.79951000  0.57004000  1.0
  C  C15  1  0.36990000  0.33349000  0.43133000  1.0
  C  C16  1  0.62771000  0.66692000  0.56678000  1.0
  C  C17  1  0.33139000  0.31725000  0.27862000  1.0
  C  C18  1  0.66738000  0.68410000  0.72132000  1.0
  O  O19  1  0.73098000  0.07397000  0.19888000  1.0
  O  O20  1  0.27020000  0.92819000  0.80226000  1.0
  O  O21  1  0.81019000  0.12690000  0.53241000  1.0
  O  O22  1  0.18484000  0.87477000  0.46927000  1.0
  O  O23  1  0.22814000  0.41718000  0.53299000  1.0
  O  O24  1  0.76599000  0.58427000  0.46725000  1.0
  O  O25  1  0.14739000  0.38280000  0.18811000  1.0
  O  O26  1  0.85153000  0.61867000  0.81109000  1.0
  O  O27  1  0.27453000  0.81167000  0.17321000  1.0
  O  O28  1  0.72221000  0.18876000  0.82466000  1.0
  O  O29  1  0.81041000  0.73694000  0.06264000  1.0
  O  O30  1  0.18610000  0.26424000  0.93840000  1.0
