# generated using pymatgen
data_ZnH16C20(NO3)2
_symmetry_space_group_name_H-M   'P 1'
_cell_length_a   8.64433000
_cell_length_b   10.80440000
_cell_length_c   11.84185842
_cell_angle_alpha   92.59421931
_cell_angle_beta   111.39744246
_cell_angle_gamma   113.57780000
_symmetry_Int_Tables_number   1
_chemical_formula_structural   ZnH16C20(NO3)2
_chemical_formula_sum   'Zn2 H32 C40 N4 O12'
_cell_volume   919.79751981
_cell_formula_units_Z   2
loop_
 _symmetry_equiv_pos_site_id
 _symmetry_equiv_pos_as_xyz
  1  'x, y, z'
loop_
 _atom_site_type_symbol
 _atom_site_label
 _atom_site_symmetry_multiplicity
 _atom_site_fract_x
 _atom_site_fract_y
 _atom_site_fract_z
 _atom_site_occupancy
  Zn  Zn0  1  0.56315000  0.25017000  0.25019000  1.0
  Zn  Zn1  1  0.43686000  0.74983000  0.74981000  1.0
  H  H2  1  0.43923000  0.12880000  0.57133000  1.0
  H  H3  1  0.23922000  0.37130000  0.92865000  1.0
  H  H4  1  0.56076000  0.87119000  0.42868000  1.0
  H  H5  1  0.76079000  0.62870000  0.07135000  1.0
  H  H6  1  0.28440000  0.89850000  0.42486000  1.0
  H  H7  1  0.46102000  0.60161000  0.07521000  1.0
  H  H8  1  0.71559000  0.10150000  0.57514000  1.0
  H  H9  1  0.53898000  0.39839000  0.92479000  1.0
  H  H10  1  0.11151000  0.88478000  0.27897000  1.0
  H  H11  1  0.44773000  0.61541000  0.22109000  1.0
  H  H12  1  0.88847000  0.11523000  0.72102000  1.0
  H  H13  1  0.55228000  0.38459000  0.77891000  1.0
  H  H14  1  0.84132000  0.88472000  0.27638000  1.0
  H  H15  1  0.18011000  0.61531000  0.22364000  1.0
  H  H16  1  0.15865000  0.11527000  0.72362000  1.0
  H  H17  1  0.81990000  0.38469000  0.77636000  1.0
  H  H18  1  0.20272000  0.29905000  0.34334000  1.0
  H  H19  1  0.05978000  0.20012000  0.15660000  1.0
  H  H20  1  0.79729000  0.70094000  0.65666000  1.0
  H  H21  1  0.94023000  0.79988000  0.84340000  1.0
  H  H22  1  0.33848000  0.38145000  0.57311000  1.0
  H  H23  1  0.88322000  0.11820000  0.92678000  1.0
  H  H24  1  0.66154000  0.61854000  0.42689000  1.0
  H  H25  1  0.11678000  0.88181000  0.07322000  1.0
  H  H26  1  0.13512000  0.39938000  0.67378000  1.0
  H  H27  1  0.56157000  0.10074000  0.82648000  1.0
  H  H28  1  0.86489000  0.60062000  0.32622000  1.0
  H  H29  1  0.43842000  0.89928000  0.17352000  1.0
  H  H30  1  0.80441000  0.34209000  0.53583000  1.0
  H  H31  1  0.42655000  0.15826000  0.96471000  1.0
  H  H32  1  0.19561000  0.65790000  0.46418000  1.0
  H  H33  1  0.57346000  0.84175000  0.03530000  1.0
  C  C34  1  0.35593000  0.08183000  0.35856000  1.0
  C  C35  1  0.41575000  0.41837000  0.14159000  1.0
  C  C36  1  0.64405000  0.91817000  0.64143000  1.0
  C  C37  1  0.58425000  0.58163000  0.85841000  1.0
  C  C38  1  0.20894000  0.95314000  0.37094000  1.0
  C  C39  1  0.38490000  0.54699000  0.12916000  1.0
  C  C40  1  0.79105000  0.04687000  0.62906000  1.0
  C  C41  1  0.61511000  0.45301000  0.87085000  1.0
  C  C42  1  0.10388000  0.98250000  0.43752000  1.0
  C  C43  1  0.18387000  0.51755000  0.06251000  1.0
  C  C44  1  0.89610000  0.01750000  0.56248000  1.0
  C  C45  1  0.81614000  0.48245000  0.93749000  1.0
  C  C46  1  0.19256000  0.04712000  0.56510000  1.0
  C  C47  1  0.08045000  0.45297000  0.93490000  1.0
  C  C48  1  0.80742000  0.95289000  0.43490000  1.0
  C  C49  1  0.91957000  0.54703000  0.06511000  1.0
  C  C50  1  0.91270000  0.93801000  0.37434000  1.0
  C  C51  1  0.10028000  0.56199000  0.12568000  1.0
  C  C52  1  0.08728000  0.06199000  0.62566000  1.0
  C  C53  1  0.89972000  0.43802000  0.87432000  1.0
  C  C54  1  0.93051000  0.27566000  0.31843000  1.0
  C  C55  1  0.83626000  0.22395000  0.18181000  1.0
  C  C56  1  0.06949000  0.72433000  0.68157000  1.0
  C  C57  1  0.16374000  0.77604000  0.81819000  1.0
  C  C58  1  0.11709000  0.30835000  0.38833000  1.0
  C  C59  1  0.91999000  0.19110000  0.11173000  1.0
  C  C60  1  0.88291000  0.69164000  0.61166000  1.0
  C  C61  1  0.08001000  0.80890000  0.88827000  1.0
  C  C62  1  0.19310000  0.35395000  0.51692000  1.0
  C  C63  1  0.82174000  0.14574000  0.98313000  1.0
  C  C64  1  0.80691000  0.64604000  0.48308000  1.0
  C  C65  1  0.17827000  0.85426000  0.01687000  1.0
  C  C66  1  0.08187000  0.36586000  0.57332000  1.0
  C  C67  1  0.64237000  0.13413000  0.92692000  1.0
  C  C68  1  0.91813000  0.63412000  0.42667000  1.0
  C  C69  1  0.35764000  0.86587000  0.07309000  1.0
  C  C70  1  0.89850000  0.33409000  0.49809000  1.0
  C  C71  1  0.56621000  0.16598000  0.00230000  1.0
  C  C72  1  0.10151000  0.66590000  0.50191000  1.0
  C  C73  1  0.43378000  0.83402000  0.99770000  1.0
  N  N74  1  0.82513000  0.29072000  0.37395000  1.0
  N  N75  1  0.66049000  0.20922000  0.12643000  1.0
  N  N76  1  0.17487000  0.70927000  0.62605000  1.0
  N  N77  1  0.33951000  0.79078000  0.87357000  1.0
  O  O78  1  0.34592000  0.08995000  0.24823000  1.0
  O  O79  1  0.50799000  0.41033000  0.25195000  1.0
  O  O80  1  0.65408000  0.91006000  0.75177000  1.0
  O  O81  1  0.49204000  0.58968000  0.74805000  1.0
  O  O82  1  0.48247000  0.17378000  0.45498000  1.0
  O  O83  1  0.35405000  0.32645000  0.04518000  1.0
  O  O84  1  0.51751000  0.82622000  0.54502000  1.0
  O  O85  1  0.64595000  0.67355000  0.95482000  1.0
  O  O86  1  0.38085000  0.09748000  0.63177000  1.0
  O  O87  1  0.15180000  0.40266000  0.86823000  1.0
  O  O88  1  0.61913000  0.90252000  0.36824000  1.0
  O  O89  1  0.84820000  0.59734000  0.13177000  1.0
