# generated using pymatgen
data_CoH7C8NO5
_symmetry_space_group_name_H-M   'P 1'
_cell_length_a   7.80917000
_cell_length_b   8.81049000
_cell_length_c   12.50650000
_cell_angle_alpha   89.99270000
_cell_angle_beta   89.92210000
_cell_angle_gamma   96.71090000
_symmetry_Int_Tables_number   1
_chemical_formula_structural   CoH7C8NO5
_chemical_formula_sum   'Co4 H28 C32 N4 O20'
_cell_volume   854.58343598
_cell_formula_units_Z   4
loop_
 _symmetry_equiv_pos_site_id
 _symmetry_equiv_pos_as_xyz
  1  'x, y, z'
loop_
 _atom_site_type_symbol
 _atom_site_label
 _atom_site_symmetry_multiplicity
 _atom_site_fract_x
 _atom_site_fract_y
 _atom_site_fract_z
 _atom_site_occupancy
  Co  Co0  1  0.07783000  0.72277000  0.43299000  1.0
  Co  Co1  1  0.42379000  0.27682000  0.93365000  1.0
  Co  Co2  1  0.92230000  0.27724000  0.56702000  1.0
  Co  Co3  1  0.57670000  0.72317000  0.06645000  1.0
  H  H4  1  0.82873000  0.84261000  0.31291000  1.0
  H  H5  1  0.67072000  0.15790000  0.81301000  1.0
  H  H6  1  0.17144000  0.15738000  0.68707000  1.0
  H  H7  1  0.32930000  0.84211000  0.18697000  1.0
  H  H8  1  0.83803000  0.90732000  0.43261000  1.0
  H  H9  1  0.66397000  0.09271000  0.93265000  1.0
  H  H10  1  0.16202000  0.09278000  0.56735000  1.0
  H  H11  1  0.33616000  0.90746000  0.06742000  1.0
  H  H12  1  0.22549000  0.49613000  0.96930000  1.0
  H  H13  1  0.27633000  0.50411000  0.46851000  1.0
  H  H14  1  0.77462000  0.50386000  0.03081000  1.0
  H  H15  1  0.72376000  0.49588000  0.53143000  1.0
  H  H16  1  0.12547000  0.36400000  0.88822000  1.0
  H  H17  1  0.37645000  0.63667000  0.38755000  1.0
  H  H18  1  0.87468000  0.63599000  0.11187000  1.0
  H  H19  1  0.62365000  0.36332000  0.61241000  1.0
  H  H20  1  0.83770000  0.13232000  0.29496000  1.0
  H  H21  1  0.66120000  0.86685000  0.79497000  1.0
  H  H22  1  0.16224000  0.86761000  0.70506000  1.0
  H  H23  1  0.33884000  0.13310000  0.20499000  1.0
  H  H24  1  0.94982000  0.13491000  0.95706000  1.0
  H  H25  1  0.55139000  0.86586000  0.45693000  1.0
  H  H26  1  0.05023000  0.86514000  0.04297000  1.0
  H  H27  1  0.44863000  0.13416000  0.54304000  1.0
  H  H28  1  0.17091000  0.50543000  0.15626000  1.0
  H  H29  1  0.32862000  0.49465000  0.65537000  1.0
  H  H30  1  0.82900000  0.49460000  0.84382000  1.0
  H  H31  1  0.67131000  0.50538000  0.34459000  1.0
  C  C32  1  0.00385000  0.32674000  0.23486000  1.0
  C  C33  1  0.49516000  0.67289000  0.73436000  1.0
  C  C34  1  0.99604000  0.67324000  0.76519000  1.0
  C  C35  1  0.50482000  0.32710000  0.26560000  1.0
  C  C36  1  0.90378000  0.18541000  0.22533000  1.0
  C  C37  1  0.59532000  0.81426000  0.72524000  1.0
  C  C38  1  0.09616000  0.81453000  0.77469000  1.0
  C  C39  1  0.40470000  0.18571000  0.27473000  1.0
  C  C40  1  0.88120000  0.11897000  0.12400000  1.0
  C  C41  1  0.61844000  0.88120000  0.62402000  1.0
  C  C42  1  0.11878000  0.88103000  0.87601000  1.0
  C  C43  1  0.38156000  0.11880000  0.37595000  1.0
  C  C44  1  0.96789000  0.18792000  0.03536000  1.0
  C  C45  1  0.53243000  0.81265000  0.53517000  1.0
  C  C46  1  0.03210000  0.81211000  0.96466000  1.0
  C  C47  1  0.46756000  0.18735000  0.46480000  1.0
  C  C48  1  0.07908000  0.32325000  0.04718000  1.0
  C  C49  1  0.42120000  0.67727000  0.54664000  1.0
  C  C50  1  0.92091000  0.67678000  0.95289000  1.0
  C  C51  1  0.57878000  0.32274000  0.45331000  1.0
  C  C52  1  0.09158000  0.39583000  0.14656000  1.0
  C  C53  1  0.40789000  0.60433000  0.64591000  1.0
  C  C54  1  0.90831000  0.60418000  0.85351000  1.0
  C  C55  1  0.59205000  0.39569000  0.35405000  1.0
  C  C56  1  0.01583000  0.40963000  0.33865000  1.0
  C  C57  1  0.48324000  0.58856000  0.83768000  1.0
  C  C58  1  0.98402000  0.59029000  0.66141000  1.0
  C  C59  1  0.51666000  0.41137000  0.16228000  1.0
  C  C60  1  0.76601000  0.97420000  0.10896000  1.0
  C  C61  1  0.73379000  0.02600000  0.60916000  1.0
  C  C62  1  0.23393000  0.02585000  0.89097000  1.0
  C  C63  1  0.26618000  0.97401000  0.39083000  1.0
  N  N64  1  0.18384000  0.38230000  0.96092000  1.0
  N  N65  1  0.31739000  0.61809000  0.46015000  1.0
  N  N66  1  0.81620000  0.61770000  0.03919000  1.0
  N  N67  1  0.68264000  0.38190000  0.53978000  1.0
  O  O68  1  0.85152000  0.81567000  0.38809000  1.0
  O  O69  1  0.64907000  0.18440000  0.88847000  1.0
  O  O70  1  0.14853000  0.18439000  0.61191000  1.0
  O  O71  1  0.35106000  0.81571000  0.11151000  1.0
  O  O72  1  0.02223000  0.55478000  0.33197000  1.0
  O  O73  1  0.47602000  0.44350000  0.82968000  1.0
  O  O74  1  0.97731000  0.44512000  0.66816000  1.0
  O  O75  1  0.52339000  0.55639000  0.17015000  1.0
  O  O76  1  0.02313000  0.33301000  0.42462000  1.0
  O  O77  1  0.47721000  0.66391000  0.92428000  1.0
  O  O78  1  0.97705000  0.66688000  0.57541000  1.0
  O  O79  1  0.52313000  0.33601000  0.07571000  1.0
  O  O80  1  0.74197000  0.87438000  0.18324000  1.0
  O  O81  1  0.75542000  0.12671000  0.68298000  1.0
  O  O82  1  0.25847000  0.12525000  0.81647000  1.0
  O  O83  1  0.24467000  0.87319000  0.31708000  1.0
  O  O84  1  0.69258000  0.94574000  0.01819000  1.0
  O  O85  1  0.80976000  0.05369000  0.51902000  1.0
  O  O86  1  0.30675000  0.05469000  0.98189000  1.0
  O  O87  1  0.19006000  0.94643000  0.48094000  1.0
