# generated using pymatgen
data_CuAgH16C24I3N4
_symmetry_space_group_name_H-M   'P 1'
_cell_length_a   10.18860000
_cell_length_b   10.69180000
_cell_length_c   12.53220000
_cell_angle_alpha   96.95180000
_cell_angle_beta   100.66000000
_cell_angle_gamma   91.39830000
_symmetry_Int_Tables_number   1
_chemical_formula_structural   CuAgH16C24I3N4
_chemical_formula_sum   'Cu2 Ag2 H32 C48 I6 N8'
_cell_volume   1330.23231275
_cell_formula_units_Z   2
loop_
 _symmetry_equiv_pos_site_id
 _symmetry_equiv_pos_as_xyz
  1  'x, y, z'
loop_
 _atom_site_type_symbol
 _atom_site_label
 _atom_site_symmetry_multiplicity
 _atom_site_fract_x
 _atom_site_fract_y
 _atom_site_fract_z
 _atom_site_occupancy
  Cu  Cu0  1  0.72898000  0.99425000  0.22333000  1.0
  Cu  Cu1  1  0.27104000  0.00575000  0.77667000  1.0
  Ag  Ag2  1  0.56355000  0.58942000  0.13621000  1.0
  Ag  Ag3  1  0.43644000  0.41056000  0.86379000  1.0
  H  H4  1  0.80781000  0.71499000  0.17513000  1.0
  H  H5  1  0.19220000  0.28500000  0.82489000  1.0
  H  H6  1  0.01036000  0.61628000  0.11997000  1.0
  H  H7  1  0.98967000  0.38373000  0.88004000  1.0
  H  H8  1  0.19429000  0.75277000  0.08323000  1.0
  H  H9  1  0.80573000  0.24724000  0.91676000  1.0
  H  H10  1  0.27972000  0.97548000  0.06811000  1.0
  H  H11  1  0.72027000  0.02454000  0.93189000  1.0
  H  H12  1  0.24955000  0.20579000  0.08976000  1.0
  H  H13  1  0.75043000  0.79422000  0.91025000  1.0
  H  H14  1  0.11511000  0.38912000  0.14916000  1.0
  H  H15  1  0.88489000  0.61089000  0.85086000  1.0
  H  H16  1  0.90069000  0.46000000  0.20943000  1.0
  H  H17  1  0.09931000  0.54002000  0.79057000  1.0
  H  H18  1  0.73381000  0.30172000  0.23212000  1.0
  H  H19  1  0.26618000  0.69828000  0.76787000  1.0
  H  H20  1  0.50812000  0.17868000  0.14951000  1.0
  H  H21  1  0.49187000  0.82128000  0.85046000  1.0
  H  H22  1  0.38860000  0.34040000  0.25148000  1.0
  H  H23  1  0.61139000  0.65960000  0.74848000  1.0
  H  H24  1  0.41102000  0.34593000  0.45662000  1.0
  H  H25  1  0.58900000  0.65408000  0.54337000  1.0
  H  H26  1  0.51059000  0.25210000  0.62749000  1.0
  H  H27  1  0.48943000  0.74792000  0.37250000  1.0
  H  H28  1  0.65729000  0.09766000  0.71461000  1.0
  H  H29  1  0.34271000  0.90235000  0.28539000  1.0
  H  H30  1  0.81475000  0.91828000  0.69468000  1.0
  H  H31  1  0.18522000  0.08171000  0.30533000  1.0
  H  H32  1  0.94055000  0.78292000  0.57353000  1.0
  H  H33  1  0.05943000  0.21705000  0.42649000  1.0
  H  H34  1  0.91381000  0.81392000  0.37651000  1.0
  H  H35  1  0.08619000  0.18605000  0.62350000  1.0
  C  C36  1  0.89034000  0.77306000  0.15958000  1.0
  C  C37  1  0.10968000  0.22694000  0.84043000  1.0
  C  C38  1  0.00431000  0.71847000  0.12901000  1.0
  C  C39  1  0.99570000  0.28154000  0.87100000  1.0
  C  C40  1  0.10588000  0.79444000  0.10798000  1.0
  C  C41  1  0.89413000  0.20558000  0.89201000  1.0
  C  C42  1  0.09319000  0.92644000  0.11737000  1.0
  C  C43  1  0.90681000  0.07358000  0.88263000  1.0
  C  C44  1  0.19111000  0.01329000  0.09527000  1.0
  C  C45  1  0.80888000  0.98672000  0.90473000  1.0
  C  C46  1  0.17532000  0.14063000  0.10846000  1.0
  C  C47  1  0.82467000  0.85938000  0.89153000  1.0
  C  C48  1  0.05983000  0.19123000  0.14452000  1.0
  C  C49  1  0.94016000  0.80878000  0.85549000  1.0
  C  C50  1  0.03918000  0.32178000  0.16250000  1.0
  C  C51  1  0.96081000  0.67823000  0.83751000  1.0
  C  C52  1  0.92233000  0.36094000  0.19388000  1.0
  C  C53  1  0.07766000  0.63907000  0.80612000  1.0
  C  C54  1  0.82632000  0.27060000  0.20770000  1.0
  C  C55  1  0.17368000  0.72940000  0.79231000  1.0
  C  C56  1  0.95903000  0.10711000  0.16300000  1.0
  C  C57  1  0.04097000  0.89290000  0.83701000  1.0
  C  C58  1  0.97609000  0.97405000  0.15017000  1.0
  C  C59  1  0.02392000  0.02595000  0.84985000  1.0
  C  C60  1  0.51982000  0.18663000  0.23862000  1.0
  C  C61  1  0.48018000  0.81334000  0.76136000  1.0
  C  C62  1  0.45078000  0.27530000  0.29657000  1.0
  C  C63  1  0.54922000  0.72470000  0.70342000  1.0
  C  C64  1  0.46434000  0.27934000  0.40894000  1.0
  C  C65  1  0.53568000  0.72065000  0.59105000  1.0
  C  C66  1  0.54917000  0.19520000  0.46379000  1.0
  C  C67  1  0.45084000  0.80479000  0.53622000  1.0
  C  C68  1  0.56639000  0.18878000  0.57919000  1.0
  C  C69  1  0.43360000  0.81122000  0.42080000  1.0
  C  C70  1  0.64848000  0.10383000  0.62730000  1.0
  C  C71  1  0.35150000  0.89618000  0.37270000  1.0
  C  C72  1  0.72274000  0.02127000  0.56466000  1.0
  C  C73  1  0.27724000  0.97872000  0.43534000  1.0
  C  C74  1  0.80723000  0.92992000  0.60879000  1.0
  C  C75  1  0.19276000  0.07009000  0.39121000  1.0
  C  C76  1  0.87595000  0.85519000  0.54216000  1.0
  C  C77  1  0.12404000  0.14480000  0.45785000  1.0
  C  C78  1  0.86020000  0.87116000  0.43073000  1.0
  C  C79  1  0.13981000  0.12883000  0.56928000  1.0
  C  C80  1  0.71047000  0.02792000  0.45103000  1.0
  C  C81  1  0.28953000  0.97208000  0.54897000  1.0
  C  C82  1  0.61980000  0.11261000  0.39973000  1.0
  C  C83  1  0.38022000  0.88739000  0.60027000  1.0
  I  I84  1  0.53347000  0.84867000  0.09468000  1.0
  I  I85  1  0.46653000  0.15134000  0.90532000  1.0
  I  I86  1  0.69815000  0.56348000  0.34353000  1.0
  I  I87  1  0.30183000  0.43652000  0.65648000  1.0
  I  I88  1  0.69976000  0.50255000  0.95525000  1.0
  I  I89  1  0.30025000  0.49744000  0.04474000  1.0
  N  N90  1  0.87723000  0.89755000  0.17059000  1.0
  N  N91  1  0.12278000  0.10244000  0.82942000  1.0
  N  N92  1  0.84417000  0.14722000  0.19361000  1.0
  N  N93  1  0.15582000  0.85279000  0.80640000  1.0
  N  N94  1  0.60317000  0.10858000  0.28908000  1.0
  N  N95  1  0.39684000  0.89141000  0.71092000  1.0
  N  N96  1  0.77959000  0.95476000  0.38636000  1.0
  N  N97  1  0.22043000  0.04525000  0.61364000  1.0
