# generated using pymatgen
data_Zn2H15C35N2Cl3O8F3
_symmetry_space_group_name_H-M   'P 1'
_cell_length_a   13.21690000
_cell_length_b   14.04200000
_cell_length_c   28.64870000
_cell_angle_alpha   90.00650000
_cell_angle_beta   89.77070000
_cell_angle_gamma   89.85850000
_symmetry_Int_Tables_number   1
_chemical_formula_structural   Zn2H15C35N2Cl3O8F3
_chemical_formula_sum   'Zn4 H30 C70 N4 Cl6 O16 F6'
_cell_volume   5316.90238281
_cell_formula_units_Z   2
loop_
 _symmetry_equiv_pos_site_id
 _symmetry_equiv_pos_as_xyz
  1  'x, y, z'
loop_
 _atom_site_type_symbol
 _atom_site_label
 _atom_site_symmetry_multiplicity
 _atom_site_fract_x
 _atom_site_fract_y
 _atom_site_fract_z
 _atom_site_occupancy
  Zn  Zn0  1  0.51067000  0.40247000  0.49430000  1.0
  Zn  Zn1  1  0.48812000  0.60031000  0.50181000  1.0
  Zn  Zn2  1  0.51084000  0.59814000  0.04033000  1.0
  Zn  Zn3  1  0.48948000  0.40033000  0.03287000  1.0
  H  H4  1  0.61835000  0.06262000  0.44289000  1.0
  H  H5  1  0.38046000  0.93984000  0.55432000  1.0
  H  H6  1  0.59825000  0.74538000  0.45263000  1.0
  H  H7  1  0.61419000  0.92108000  0.44721000  1.0
  H  H8  1  0.40635000  0.25751000  0.54702000  1.0
  H  H9  1  0.39169000  0.08188000  0.55319000  1.0
  H  H10  1  0.50317000  0.62195000  0.19015000  1.0
  H  H11  1  0.49793000  0.31725000  0.17867000  1.0
  H  H12  1  0.50329000  0.37769000  0.34440000  1.0
  H  H13  1  0.49805000  0.68241000  0.35593000  1.0
  H  H14  1  0.49675000  0.34156000  0.73733000  1.0
  H  H15  1  0.49753000  0.65831000  0.79729000  1.0
  H  H16  1  0.50084000  0.36289000  0.89090000  1.0
  H  H17  1  0.50210000  0.35009000  0.80533000  1.0
  H  H18  1  0.50007000  0.63702000  0.64375000  1.0
  H  H19  1  0.50212000  0.64976000  0.72932000  1.0
  H  H20  1  0.83307000  0.37801000  0.49847000  1.0
  H  H21  1  0.80614000  0.68246000  0.50142000  1.0
  H  H22  1  0.16617000  0.62309000  0.49989000  1.0
  H  H23  1  0.19325000  0.31865000  0.49787000  1.0
  H  H24  1  0.61858000  0.93738000  0.09143000  1.0
  H  H25  1  0.38182000  0.06156000  0.98046000  1.0
  H  H26  1  0.59979000  0.25459000  0.08149000  1.0
  H  H27  1  0.61539000  0.07880000  0.08682000  1.0
  H  H28  1  0.40683000  0.74364000  0.98791000  1.0
  H  H29  1  0.39285000  0.91937000  0.98155000  1.0
  H  H30  1  0.83309000  0.62308000  0.03628000  1.0
  H  H31  1  0.80831000  0.31856000  0.03422000  1.0
  H  H32  1  0.16787000  0.37846000  0.03606000  1.0
  H  H33  1  0.19282000  0.68295000  0.03774000  1.0
  C  C34  1  0.49830000  0.48563000  0.58925000  1.0
  C  C35  1  0.30271000  0.48180000  0.49784000  1.0
  C  C36  1  0.50052000  0.52033000  0.40713000  1.0
  C  C37  1  0.69654000  0.51996000  0.49894000  1.0
  C  C38  1  0.49967000  0.51439000  0.94540000  1.0
  C  C39  1  0.30345000  0.51995000  0.03746000  1.0
  C  C40  1  0.50050000  0.47927000  0.12744000  1.0
  C  C41  1  0.69749000  0.48102000  0.03574000  1.0
  C  C42  1  0.56962000  0.19913000  0.46675000  1.0
  C  C43  1  0.56873000  0.10018000  0.46705000  1.0
  C  C44  1  0.42976000  0.80345000  0.53054000  1.0
  C  C45  1  0.43137000  0.90238000  0.53071000  1.0
  C  C46  1  0.55231000  0.79269000  0.47418000  1.0
  C  C47  1  0.55996000  0.89086000  0.47165000  1.0
  C  C48  1  0.45075000  0.21020000  0.52479000  1.0
  C  C49  1  0.44386000  0.11199000  0.52777000  1.0
  C  C50  1  0.50369000  0.05408000  0.49844000  1.0
  C  C51  1  0.49844000  0.94865000  0.50030000  1.0
  C  C52  1  0.50243000  0.55255000  0.20702000  1.0
  C  C53  1  0.50003000  0.38022000  0.20075000  1.0
  C  C54  1  0.50121000  0.37218000  0.24858000  1.0
  C  C55  1  0.50228000  0.45371000  0.27837000  1.0
  C  C56  1  0.50254000  0.44710000  0.32753000  1.0
  C  C57  1  0.50015000  0.61944000  0.33383000  1.0
  C  C58  1  0.50128000  0.62750000  0.28599000  1.0
  C  C59  1  0.50227000  0.54596000  0.25619000  1.0
  C  C60  1  0.50110000  0.47140000  0.17970000  1.0
  C  C61  1  0.50125000  0.52826000  0.35486000  1.0
  C  C62  1  0.49833000  0.48528000  0.64160000  1.0
  C  C63  1  0.49960000  0.51468000  0.89303000  1.0
  C  C64  1  0.49738000  0.40398000  0.66997000  1.0
  C  C65  1  0.49800000  0.40874000  0.71840000  1.0
  C  C66  1  0.49858000  0.59595000  0.86464000  1.0
  C  C67  1  0.49876000  0.59114000  0.81622000  1.0
  C  C68  1  0.50059000  0.42688000  0.86944000  1.0
  C  C69  1  0.50106000  0.42050000  0.82119000  1.0
  C  C70  1  0.49976000  0.57303000  0.66521000  1.0
  C  C71  1  0.50069000  0.57938000  0.71346000  1.0
  C  C72  1  0.49978000  0.49702000  0.74152000  1.0
  C  C73  1  0.50007000  0.50282000  0.79314000  1.0
  C  C74  1  0.86942000  0.44741000  0.49918000  1.0
  C  C75  1  0.85460000  0.61973000  0.50069000  1.0
  C  C76  1  0.95825000  0.62810000  0.50077000  1.0
  C  C77  1  0.02335000  0.54676000  0.50000000  1.0
  C  C78  1  0.12983000  0.55368000  0.49959000  1.0
  C  C79  1  0.14477000  0.38137000  0.49853000  1.0
  C  C80  1  0.04108000  0.37297000  0.49907000  1.0
  C  C81  1  0.97593000  0.45431000  0.49950000  1.0
  C  C82  1  0.80971000  0.52841000  0.49962000  1.0
  C  C83  1  0.18960000  0.47274000  0.49866000  1.0
  C  C84  1  0.56976000  0.80117000  0.06774000  1.0
  C  C85  1  0.56915000  0.90010000  0.06736000  1.0
  C  C86  1  0.43139000  0.19762000  0.00409000  1.0
  C  C87  1  0.43283000  0.09868000  0.00387000  1.0
  C  C88  1  0.55384000  0.20757000  0.06005000  1.0
  C  C89  1  0.56129000  0.10936000  0.06254000  1.0
  C  C90  1  0.45125000  0.79069000  0.00999000  1.0
  C  C91  1  0.44472000  0.88894000  0.00689000  1.0
  C  C92  1  0.50450000  0.94653000  0.03604000  1.0
  C  C93  1  0.49965000  0.05199000  0.03411000  1.0
  C  C94  1  0.86992000  0.55373000  0.03585000  1.0
  C  C95  1  0.85631000  0.38137000  0.03484000  1.0
  C  C96  1  0.96002000  0.37314000  0.03511000  1.0
  C  C97  1  0.02454000  0.45459000  0.03573000  1.0
  C  C98  1  0.13106000  0.44783000  0.03619000  1.0
  C  C99  1  0.14480000  0.62016000  0.03705000  1.0
  C  C100  1  0.04108000  0.62841000  0.03640000  1.0
  C  C101  1  0.97648000  0.54699000  0.03590000  1.0
  C  C102  1  0.81075000  0.47265000  0.03543000  1.0
  C  C103  1  0.19027000  0.52886000  0.03694000  1.0
  N  N104  1  0.51333000  0.25391000  0.49419000  1.0
  N  N105  1  0.48715000  0.74883000  0.50354000  1.0
  N  N106  1  0.51352000  0.74666000  0.04048000  1.0
  N  N107  1  0.48880000  0.25185000  0.03092000  1.0
  Cl  Cl108  1  0.50053000  0.74068000  0.26148000  1.0
  Cl  Cl109  1  0.50048000  0.25899000  0.27309000  1.0
  Cl  Cl110  1  0.98869000  0.25959000  0.49919000  1.0
  Cl  Cl111  1  0.01072000  0.74144000  0.50174000  1.0
  Cl  Cl112  1  0.98790000  0.74172000  0.03624000  1.0
  Cl  Cl113  1  0.01326000  0.25988000  0.03479000  1.0
  O  O114  1  0.50643000  0.40725000  0.56743000  1.0
  O  O115  1  0.49047000  0.56791000  0.57067000  1.0
  O  O116  1  0.33847000  0.56589000  0.49762000  1.0
  O  O117  1  0.35388000  0.40479000  0.49742000  1.0
  O  O118  1  0.49739000  0.59829000  0.42991000  1.0
  O  O119  1  0.50300000  0.43700000  0.42456000  1.0
  O  O120  1  0.66024000  0.43620000  0.49622000  1.0
  O  O121  1  0.64591000  0.59709000  0.50112000  1.0
  O  O122  1  0.50655000  0.59282000  0.96721000  1.0
  O  O123  1  0.49304000  0.43204000  0.96400000  1.0
  O  O124  1  0.33977000  0.43590000  0.03729000  1.0
  O  O125  1  0.35410000  0.59702000  0.03796000  1.0
  O  O126  1  0.49743000  0.40129000  0.10470000  1.0
  O  O127  1  0.50309000  0.56258000  0.10999000  1.0
  O  O128  1  0.66065000  0.56481000  0.03811000  1.0
  O  O129  1  0.64734000  0.40387000  0.03369000  1.0
  F  F130  1  0.63128000  0.24439000  0.43682000  1.0
  F  F131  1  0.36602000  0.75803000  0.55952000  1.0
  F  F132  1  0.49474000  0.31508000  0.65098000  1.0
  F  F133  1  0.49637000  0.68487000  0.88363000  1.0
  F  F134  1  0.63099000  0.75561000  0.09763000  1.0
  F  F135  1  0.36769000  0.24346000  0.97537000  1.0
