# generated using pymatgen
data_ZnH4C13N3O4
_symmetry_space_group_name_H-M   'P 1'
_cell_length_a   10.94040000
_cell_length_b   13.21490000
_cell_length_c   14.42740000
_cell_angle_alpha   89.99980000
_cell_angle_beta   89.99990000
_cell_angle_gamma   90.00000000
_symmetry_Int_Tables_number   1
_chemical_formula_structural   ZnH4C13N3O4
_chemical_formula_sum   'Zn2 H8 C26 N6 O8'
_cell_volume   2085.85999461
_cell_formula_units_Z   2
loop_
 _symmetry_equiv_pos_site_id
 _symmetry_equiv_pos_as_xyz
  1  'x, y, z'
loop_
 _atom_site_type_symbol
 _atom_site_label
 _atom_site_symmetry_multiplicity
 _atom_site_fract_x
 _atom_site_fract_y
 _atom_site_fract_z
 _atom_site_occupancy
  Zn  Zn0  1  0.50000000  0.39361000  0.49996000  1.0
  Zn  Zn1  1  0.50000000  0.60639000  0.49996000  1.0
  H  H2  1  0.89272000  0.33731000  0.51504000  1.0
  H  H3  1  0.89272000  0.66269000  0.51504000  1.0
  H  H4  1  0.10728000  0.33731000  0.51504000  1.0
  H  H5  1  0.10728000  0.66269000  0.51504000  1.0
  H  H6  1  0.89345000  0.40373000  0.62045000  1.0
  H  H7  1  0.89345000  0.59626000  0.62045000  1.0
  H  H8  1  0.10655000  0.40373000  0.62045000  1.0
  H  H9  1  0.10655000  0.59626000  0.62045000  1.0
  C  C10  1  0.50000000  0.50001000  0.68028000  1.0
  C  C11  1  0.26203000  0.49999000  0.50219000  1.0
  C  C12  1  0.50000000  0.49999000  0.32108000  1.0
  C  C13  1  0.92953000  0.40466000  0.54943000  1.0
  C  C14  1  0.92953000  0.59534000  0.54943000  1.0
  C  C15  1  0.07046000  0.40466000  0.54943000  1.0
  C  C16  1  0.07047000  0.59534000  0.54943000  1.0
  C  C17  1  0.92459000  0.50000000  0.39748000  1.0
  C  C18  1  0.07541000  0.50000000  0.39748000  1.0
  C  C19  1  0.87932000  0.50000000  0.50203000  1.0
  C  C20  1  0.12068000  0.50000000  0.50203000  1.0
  C  C21  1  0.50000000  0.50000000  0.04348000  1.0
  C  C22  1  0.50001000  0.50001000  0.78003000  1.0
  C  C23  1  0.50000000  0.50000000  0.86509000  1.0
  C  C24  1  0.50001000  0.50000000  0.95797000  1.0
  C  C25  1  0.87794000  0.41064000  0.34843000  1.0
  C  C26  1  0.87794000  0.58938000  0.34844000  1.0
  C  C27  1  0.12206000  0.41064000  0.34843000  1.0
  C  C28  1  0.12206000  0.58937000  0.34844000  1.0
  C  C29  1  0.50000000  0.50000000  0.13634000  1.0
  C  C30  1  0.50000000  0.50000000  0.22134000  1.0
  C  C31  1  0.50000000  0.85135000  0.49744000  1.0
  C  C32  1  0.50000000  0.14865000  0.49743000  1.0
  C  C33  1  0.50000000  0.95378000  0.49609000  1.0
  C  C34  1  0.50000000  0.04622000  0.49609000  1.0
  C  C35  1  0.73797000  0.49999000  0.50220000  1.0
  N  N36  1  0.50000000  0.76315000  0.49965000  1.0
  N  N37  1  0.50000000  0.23685000  0.49965000  1.0
  N  N38  1  0.83882000  0.34004000  0.31029000  1.0
  N  N39  1  0.83882000  0.65998000  0.31029000  1.0
  N  N40  1  0.16118000  0.34004000  0.31029000  1.0
  N  N41  1  0.16119000  0.65997000  0.31030000  1.0
  O  O42  1  0.50000000  0.41350000  0.64105000  1.0
  O  O43  1  0.50000000  0.58652000  0.64105000  1.0
  O  O44  1  0.68628000  0.41411000  0.50215000  1.0
  O  O45  1  0.68627000  0.58588000  0.50215000  1.0
  O  O46  1  0.31372000  0.41411000  0.50215000  1.0
  O  O47  1  0.31373000  0.58588000  0.50215000  1.0
  O  O48  1  0.50000000  0.41356000  0.36029000  1.0
  O  O49  1  0.50000000  0.58644000  0.36028000  1.0
