# generated using pymatgen
data_Mg2H48C55O6
_symmetry_space_group_name_H-M   'P 1'
_cell_length_a   6.91103000
_cell_length_b   53.88990000
_cell_length_c   53.88930000
_cell_angle_alpha   119.81800000
_cell_angle_beta   92.45050000
_cell_angle_gamma   92.45270000
_symmetry_Int_Tables_number   1
_chemical_formula_structural   Mg2H48C55O6
_chemical_formula_sum   'Mg6 H144 C165 O18'
_cell_volume   17349.64212457
_cell_formula_units_Z   3
loop_
 _symmetry_equiv_pos_site_id
 _symmetry_equiv_pos_as_xyz
  1  'x, y, z'
loop_
 _atom_site_type_symbol
 _atom_site_label
 _atom_site_symmetry_multiplicity
 _atom_site_fract_x
 _atom_site_fract_y
 _atom_site_fract_z
 _atom_site_occupancy
  Mg  Mg0  1  0.19903000  0.64563000  0.31614000  1.0
  Mg  Mg1  1  0.55352000  0.67050000  0.35438000  1.0
  Mg  Mg2  1  0.88309000  0.68387000  0.32950000  1.0
  Mg  Mg3  1  0.98454000  0.35514000  0.68250000  1.0
  Mg  Mg4  1  0.62945000  0.32734000  0.64485000  1.0
  Mg  Mg5  1  0.30210000  0.31751000  0.67266000  1.0
  H  H6  1  0.67106000  0.37977000  0.62275000  1.0
  H  H7  1  0.29113000  0.24300000  0.62028000  1.0
  H  H8  1  0.04822000  0.37727000  0.75700000  1.0
  H  H9  1  0.66963000  0.40390000  0.52888000  1.0
  H  H10  1  0.26557000  0.12498000  0.59609000  1.0
  H  H11  1  0.14093000  0.47111000  0.87504000  1.0
  H  H12  1  0.22398000  0.44539000  0.50245000  1.0
  H  H13  1  0.77857000  0.05705000  0.55462000  1.0
  H  H14  1  0.72152000  0.49753000  0.94292000  1.0
  H  H15  1  0.29006000  0.54953000  0.50314000  1.0
  H  H16  1  0.74025000  0.95365000  0.45048000  1.0
  H  H17  1  0.78674000  0.49683000  0.04635000  1.0
  H  H18  1  0.78488000  0.59633000  0.48437000  1.0
  H  H19  1  0.18866000  0.88802000  0.40362000  1.0
  H  H20  1  0.30084000  0.51560000  0.11198000  1.0
  H  H21  1  0.88100000  0.49324000  0.43864000  1.0
  H  H22  1  0.38767000  0.94540000  0.50673000  1.0
  H  H23  1  0.44205000  0.56131000  0.05458000  1.0
  H  H24  1  0.53585000  0.51062000  0.39753000  1.0
  H  H25  1  0.02521000  0.88692000  0.48936000  1.0
  H  H26  1  0.13836000  0.60245000  0.11308000  1.0
  H  H27  1  0.65183000  0.48311000  0.40035000  1.0
  H  H28  1  0.16875000  0.91725000  0.51685000  1.0
  H  H29  1  0.25156000  0.59961000  0.08275000  1.0
  H  H30  1  0.77322000  0.50264000  0.38646000  1.0
  H  H31  1  0.27054000  0.88383000  0.49735000  1.0
  H  H32  1  0.38684000  0.61351000  0.11617000  1.0
  H  H33  1  0.24396000  0.61051000  0.44166000  1.0
  H  H34  1  0.63324000  0.83118000  0.38948000  1.0
  H  H35  1  0.80194000  0.55830000  0.16881000  1.0
  H  H36  1  0.77641000  0.55030000  0.39437000  1.0
  H  H37  1  0.22596000  0.84408000  0.44969000  1.0
  H  H38  1  0.38198000  0.60562000  0.15598000  1.0
  H  H39  1  0.47707000  0.56481000  0.34648000  1.0
  H  H40  1  0.91201000  0.78170000  0.43519000  1.0
  H  H41  1  0.13038000  0.65350000  0.21833000  1.0
  H  H42  1  0.66520000  0.54499000  0.35011000  1.0
  H  H43  1  0.11994000  0.80516000  0.45500000  1.0
  H  H44  1  0.31484000  0.64985000  0.19487000  1.0
  H  H45  1  0.71538000  0.58105000  0.35925000  1.0
  H  H46  1  0.13414000  0.77823000  0.41896000  1.0
  H  H47  1  0.35593000  0.64073000  0.22180000  1.0
  H  H48  1  0.51819000  0.61670000  0.37120000  1.0
  H  H49  1  0.90168000  0.75452000  0.38331000  1.0
  H  H50  1  0.14666000  0.62878000  0.24548000  1.0
  H  H51  1  0.83121000  0.62962000  0.39417000  1.0
  H  H52  1  0.20165000  0.76450000  0.37038000  1.0
  H  H53  1  0.43673000  0.60586000  0.23549000  1.0
  H  H54  1  0.02353000  0.60163000  0.40986000  1.0
  H  H55  1  0.42185000  0.80820000  0.39836000  1.0
  H  H56  1  0.61316000  0.59016000  0.19179000  1.0
  H  H57  1  0.41375000  0.57047000  0.47570000  1.0
  H  H58  1  0.84318000  0.90527000  0.42954000  1.0
  H  H59  1  0.93792000  0.52432000  0.09475000  1.0
  H  H60  1  0.22724000  0.59076000  0.47270000  1.0
  H  H61  1  0.63635000  0.88198000  0.40926000  1.0
  H  H62  1  0.75439000  0.52732000  0.11804000  1.0
  H  H63  1  0.45327000  0.60811000  0.49167000  1.0
  H  H64  1  0.84497000  0.88359000  0.39189000  1.0
  H  H65  1  0.96131000  0.50831000  0.11639000  1.0
  H  H66  1  0.96657000  0.57509000  0.53483000  1.0
  H  H67  1  0.39141000  0.95976000  0.42491000  1.0
  H  H68  1  0.43176000  0.46514000  0.04026000  1.0
  H  H69  1  0.88898000  0.60350000  0.52974000  1.0
  H  H70  1  0.28549000  0.92626000  0.39648000  1.0
  H  H71  1  0.35934000  0.47023000  0.07376000  1.0
  H  H72  1  0.12879000  0.59277000  0.52324000  1.0
  H  H73  1  0.53603000  0.93051000  0.40722000  1.0
  H  H74  1  0.60565000  0.47672000  0.06952000  1.0
  H  H75  1  0.97461000  0.47323000  0.51530000  1.0
  H  H76  1  0.50122000  0.04208000  0.52681000  1.0
  H  H77  1  0.45935000  0.48471000  0.95791000  1.0
  H  H78  1  0.65058000  0.49798000  0.47820000  1.0
  H  H79  1  0.15238000  0.98024000  0.50204000  1.0
  H  H80  1  0.17238000  0.52178000  0.01974000  1.0
  H  H81  1  0.67539000  0.47610000  0.49413000  1.0
  H  H82  1  0.19910000  0.01806000  0.52392000  1.0
  H  H83  1  0.18125000  0.50585000  0.98193000  1.0
  H  H84  1  0.76296000  0.46540000  0.46013000  1.0
  H  H85  1  0.29740000  0.99477000  0.53462000  1.0
  H  H86  1  0.30278000  0.53985000  0.00523000  1.0
  H  H87  1  0.61954000  0.52158000  0.53684000  1.0
  H  H88  1  0.09763000  0.01530000  0.47847000  1.0
  H  H89  1  0.08266000  0.46316000  0.98474000  1.0
  H  H90  1  0.52871000  0.55600000  0.55413000  1.0
  H  H91  1  0.97254000  0.99816000  0.44402000  1.0
  H  H92  1  0.97445000  0.44586000  0.00187000  1.0
  H  H93  1  0.59855000  0.54137000  0.51867000  1.0
  H  H94  1  0.05695000  0.97734000  0.45867000  1.0
  H  H95  1  0.07969000  0.48133000  0.02270000  1.0
  H  H96  1  0.59960000  0.49183000  0.59568000  1.0
  H  H97  1  0.10770000  0.10388000  0.50821000  1.0
  H  H98  1  0.00425000  0.40433000  0.89614000  1.0
  H  H99  1  0.32985000  0.54134000  0.58065000  1.0
  H  H100  1  0.78857000  0.03933000  0.45868000  1.0
  H  H101  1  0.74940000  0.41936000  0.96068000  1.0
  H  H102  1  0.58253000  0.54155000  0.58821000  1.0
  H  H103  1  0.04108000  0.04667000  0.45848000  1.0
  H  H104  1  0.99454000  0.41179000  0.95334000  1.0
  H  H105  1  0.41422000  0.53493000  0.60844000  1.0
  H  H106  1  0.87939000  0.07352000  0.46509000  1.0
  H  H107  1  0.80597000  0.39157000  0.92649000  1.0
  H  H108  1  0.31956000  0.39600000  0.52867000  1.0
  H  H109  1  0.92365000  0.13267000  0.60403000  1.0
  H  H110  1  0.79101000  0.47134000  0.86732000  1.0
  H  H111  1  0.41542000  0.39486000  0.49825000  1.0
  H  H112  1  0.02073000  0.10337000  0.60515000  1.0
  H  H113  1  0.91735000  0.50176000  0.89661000  1.0
  H  H114  1  0.17180000  0.40303000  0.50532000  1.0
  H  H115  1  0.76888000  0.10229000  0.59701000  1.0
  H  H116  1  0.66666667  0.49468000  0.89770000  1.0
  H  H117  1  0.70918000  0.43034000  0.63045000  1.0
  H  H118  1  0.27863000  0.20013000  0.56968000  1.0
  H  H119  1  0.07844000  0.36955000  0.79986000  1.0
  H  H120  1  0.35729000  0.46931000  0.61303000  1.0
  H  H121  1  0.88801000  0.14376000  0.53063000  1.0
  H  H122  1  0.74429000  0.38693000  0.85625000  1.0
  H  H123  1  0.57839000  0.48581000  0.63387000  1.0
  H  H124  1  0.09297000  0.14808000  0.51419000  1.0
  H  H125  1  0.94462000  0.36611000  0.85194000  1.0
  H  H126  1  0.44518000  0.45984000  0.63855000  1.0
  H  H127  1  0.98559000  0.17873000  0.54013000  1.0
  H  H128  1  0.80672000  0.36142000  0.82128000  1.0
  H  H129  1  0.88405000  0.35001000  0.54366000  1.0
  H  H130  1  0.53385000  0.19366000  0.64999000  1.0
  H  H131  1  0.34033000  0.45634000  0.80635000  1.0
  H  H132  1  0.93930000  0.36665000  0.52313000  1.0
  H  H133  1  0.57256000  0.15650000  0.63337000  1.0
  H  H134  1  0.41616000  0.47689000  0.84352000  1.0
  H  H135  1  0.70202000  0.35138000  0.52022000  1.0
  H  H136  1  0.35054000  0.16885000  0.64864000  1.0
  H  H137  1  0.18173000  0.47978000  0.83116000  1.0
  H  H138  1  0.35431000  0.36210000  0.60035000  1.0
  H  H139  1  0.99200000  0.23823000  0.63790000  1.0
  H  H140  1  0.75392000  0.39963000  0.76177000  1.0
  H  H141  1  0.14578000  0.40953000  0.57722000  1.0
  H  H142  1  0.73618000  0.16769000  0.59044000  1.0
  H  H143  1  0.56849000  0.42277000  0.83232000  1.0
  H  H144  1  0.19881000  0.37393000  0.55302000  1.0
  H  H145  1  0.82485000  0.17906000  0.62603000  1.0
  H  H146  1  0.64577000  0.44698000  0.82094000  1.0
  H  H147  1  0.35994000  0.39563000  0.58334000  1.0
  H  H148  1  0.96416000  0.18772000  0.60435000  1.0
  H  H149  1  0.77652000  0.41665000  0.81230000  1.0
  C  C150  1  0.92738000  0.36286000  0.63040000  1.0
  C  C151  1  0.56442000  0.26754000  0.63718000  1.0
  C  C152  1  0.29695000  0.36961000  0.73247000  1.0
  C  C153  1  0.82204000  0.37605000  0.61772000  1.0
  C  C154  1  0.44582000  0.24167000  0.62399000  1.0
  C  C155  1  0.20424000  0.38230000  0.75833000  1.0
  C  C156  1  0.90336000  0.38453000  0.59947000  1.0
  C  C157  1  0.51860000  0.21494000  0.61549000  1.0
  C  C158  1  0.30377000  0.40055000  0.78506000  1.0
  C  C159  1  0.78754000  0.39998000  0.58838000  1.0
  C  C160  1  0.38729000  0.18841000  0.60003000  1.0
  C  C161  1  0.19903000  0.41162000  0.81160000  1.0
  C  C162  1  0.76715000  0.39159000  0.55901000  1.0
  C  C163  1  0.37536000  0.16743000  0.60843000  1.0
  C  C164  1  0.20819000  0.44099000  0.83258000  1.0
  C  C165  1  0.67568000  0.40967000  0.55139000  1.0
  C  C166  1  0.26573000  0.14172000  0.59034000  1.0
  C  C167  1  0.12442000  0.44861000  0.85829000  1.0
  C  C168  1  0.58905000  0.43445000  0.57079000  1.0
  C  C169  1  0.15424000  0.13636000  0.56557000  1.0
  C  C170  1  0.01835000  0.42920000  0.86366000  1.0
  C  C171  1  0.49237000  0.45133000  0.55960000  1.0
  C  C172  1  0.04074000  0.10829000  0.54869000  1.0
  C  C173  1  0.93291000  0.44040000  0.89172000  1.0
  C  C174  1  0.37735000  0.43807000  0.53317000  1.0
  C  C175  1  0.93916000  0.09511000  0.56195000  1.0
  C  C176  1  0.84429000  0.46682000  0.90488000  1.0
  C  C177  1  0.30642000  0.45566000  0.52329000  1.0
  C  C178  1  0.85067000  0.06764000  0.54436000  1.0
  C  C179  1  0.78318000  0.47670000  0.93235000  1.0
  C  C180  1  0.32966000  0.48581000  0.53869000  1.0
  C  C181  1  0.84369000  0.05291000  0.51421000  1.0
  C  C182  1  0.79101000  0.46130000  0.94709000  1.0
  C  C183  1  0.23441000  0.50075000  0.52512000  1.0
  C  C184  1  0.73340000  0.02440000  0.49927000  1.0
  C  C185  1  0.70924000  0.47486000  0.97559000  1.0
  C  C186  1  0.32489000  0.52290000  0.52186000  1.0
  C  C187  1  0.80167000  0.99898000  0.47711000  1.0
  C  C188  1  0.80291000  0.47813000  0.00102000  1.0
  C  C189  1  0.21966000  0.53275000  0.50611000  1.0
  C  C190  1  0.68659000  0.97339000  0.46726000  1.0
  C  C191  1  0.71337000  0.49387000  0.02661000  1.0
  C  C192  1  0.03263000  0.52163000  0.49302000  1.0
  C  C193  1  0.51067000  0.97141000  0.47837000  1.0
  C  C194  1  0.53941000  0.50696000  0.02859000  1.0
  C  C195  1  0.93377000  0.53403000  0.47718000  1.0
  C  C196  1  0.39964000  0.94315000  0.46594000  1.0
  C  C197  1  0.45648000  0.52278000  0.05684000  1.0
  C  C198  1  0.90758000  0.56370000  0.49041000  1.0
  C  C199  1  0.34396000  0.92670000  0.43626000  1.0
  C  C200  1  0.41732000  0.50956000  0.07330000  1.0
  C  C201  1  0.80719000  0.57349000  0.47429000  1.0
  C  C202  1  0.23389000  0.90078000  0.42647000  1.0
  C  C203  1  0.33320000  0.52569000  0.09922000  1.0
  C  C204  1  0.72939000  0.55546000  0.44601000  1.0
  C  C205  1  0.17407000  0.89054000  0.44450000  1.0
  C  C206  1  0.28360000  0.55396000  0.10947000  1.0
  C  C207  1  0.75720000  0.52587000  0.43270000  1.0
  C  C208  1  0.23141000  0.90682000  0.47410000  1.0
  C  C209  1  0.32448000  0.56727000  0.09318000  1.0
  C  C210  1  0.85973000  0.51611000  0.44871000  1.0
  C  C211  1  0.34359000  0.93260000  0.48386000  1.0
  C  C212  1  0.41081000  0.55124000  0.06738000  1.0
  C  C213  1  0.67475000  0.50451000  0.40274000  1.0
  C  C214  1  0.17025000  0.89824000  0.49547000  1.0
  C  C215  1  0.27205000  0.59722000  0.10176000  1.0
  C  C216  1  0.61445000  0.56815000  0.43183000  1.0
  C  C217  1  0.04626000  0.86369000  0.43182000  1.0
  C  C218  1  0.18271000  0.56814000  0.13634000  1.0
  C  C219  1  0.45768000  0.58477000  0.44509000  1.0
  C  C220  1  0.87277000  0.86035000  0.41523000  1.0
  C  C221  1  0.01251000  0.55488000  0.13967000  1.0
  C  C222  1  0.36155000  0.59705000  0.43109000  1.0
  C  C223  1  0.76432000  0.83407000  0.40294000  1.0
  C  C224  1  0.93017000  0.56888000  0.16594000  1.0
  C  C225  1  0.40616000  0.59295000  0.40415000  1.0
  C  C226  1  0.81313000  0.81121000  0.40701000  1.0
  C  C227  1  0.00165000  0.59582000  0.18880000  1.0
  C  C228  1  0.55620000  0.57499000  0.39013000  1.0
  C  C229  1  0.98108000  0.81515000  0.42498000  1.0
  C  C230  1  0.16582000  0.60983000  0.18487000  1.0
  C  C231  1  0.65794000  0.56367000  0.40478000  1.0
  C  C232  1  0.09418000  0.84113000  0.43631000  1.0
  C  C233  1  0.25310000  0.59519000  0.15891000  1.0
  C  C234  1  0.60512000  0.56609000  0.35994000  1.0
  C  C235  1  0.03881000  0.79387000  0.43390000  1.0
  C  C236  1  0.24494000  0.64003000  0.20615000  1.0
  C  C237  1  0.28806000  0.60724000  0.39207000  1.0
  C  C238  1  0.68087000  0.78483000  0.39273000  1.0
  C  C239  1  0.89559000  0.60791000  0.21516000  1.0
  C  C240  1  0.36589000  0.61830000  0.37573000  1.0
  C  C241  1  0.74778000  0.75744000  0.38169000  1.0
  C  C242  1  0.98984000  0.62425000  0.24256000  1.0
  C  C243  1  0.25444000  0.63236000  0.36462000  1.0
  C  C244  1  0.62233000  0.73225000  0.36764000  1.0
  C  C245  1  0.88967000  0.63537000  0.26775000  1.0
  C  C246  1  0.05758000  0.63695000  0.37210000  1.0
  C  C247  1  0.42084000  0.73513000  0.36305000  1.0
  C  C248  1  0.68532000  0.62791000  0.26487000  1.0
  C  C249  1  0.98135000  0.62592000  0.38878000  1.0
  C  C250  1  0.35554000  0.76283000  0.37408000  1.0
  C  C251  1  0.59229000  0.61123000  0.23717000  1.0
  C  C252  1  0.09055000  0.61086000  0.39806000  1.0
  C  C253  1  0.47971000  0.78718000  0.38913000  1.0
  C  C254  1  0.69206000  0.60194000  0.21281000  1.0
  C  C255  1  0.93004000  0.65293000  0.36354000  1.0
  C  C256  1  0.27732000  0.71059000  0.34705000  1.0
  C  C257  1  0.56649000  0.63648000  0.28943000  1.0
  C  C258  1  0.38469000  0.58873000  0.47275000  1.0
  C  C259  1  0.79583000  0.88405000  0.41128000  1.0
  C  C260  1  0.91179000  0.52725000  0.11596000  1.0
  C  C261  1  0.97622000  0.58478000  0.52115000  1.0
  C  C262  1  0.39143000  0.93638000  0.41520000  1.0
  C  C263  1  0.45516000  0.47882000  0.06364000  1.0
  C  C264  1  0.94336000  0.49905000  0.49571000  1.0
  C  C265  1  0.44405000  0.99668000  0.50096000  1.0
  C  C266  1  0.44760000  0.50428000  0.00331000  1.0
  C  C267  1  0.04547000  0.48991000  0.51223000  1.0
  C  C268  1  0.55534000  0.02234000  0.51012000  1.0
  C  C269  1  0.53322000  0.48777000  0.97765000  1.0
  C  C270  1  0.74747000  0.48410000  0.48143000  1.0
  C  C271  1  0.26314000  0.99736000  0.51592000  1.0
  C  C272  1  0.26600000  0.51855000  0.00263000  1.0
  C  C273  1  0.52859000  0.53596000  0.53346000  1.0
  C  C274  1  0.99235000  0.99754000  0.46407000  1.0
  C  C275  1  0.99501000  0.46653000  0.00249000  1.0
  C  C276  1  0.43046000  0.49906000  0.56607000  1.0
  C  C277  1  0.93132000  0.06702000  0.50096000  1.0
  C  C278  1  0.86463000  0.43394000  0.93299000  1.0
  C  C279  1  0.51442000  0.48142000  0.57509000  1.0
  C  C280  1  0.03284000  0.09369000  0.51861000  1.0
  C  C281  1  0.93959000  0.42492000  0.90633000  1.0
  C  C282  1  0.43975000  0.53091000  0.58679000  1.0
  C  C283  1  0.90893000  0.05590000  0.46912000  1.0
  C  C284  1  0.85320000  0.41321000  0.94411000  1.0
  C  C285  1  0.31888000  0.40633000  0.51556000  1.0
  C  C286  1  0.91262000  0.10922000  0.59369000  1.0
  C  C287  1  0.80347000  0.48444000  0.89076000  1.0
  C  C288  1  0.59528000  0.44153000  0.59992000  1.0
  C  C289  1  0.15348000  0.15841000  0.55848000  1.0
  C  C290  1  0.99533000  0.40007000  0.84160000  1.0
  C  C291  1  0.69852000  0.42450000  0.60788000  1.0
  C  C292  1  0.27375000  0.18340000  0.57552000  1.0
  C  C293  1  0.09048000  0.39212000  0.81660000  1.0
  C  C294  1  0.48839000  0.46539000  0.62242000  1.0
  C  C295  1  0.02310000  0.15706000  0.53459000  1.0
  C  C296  1  0.86604000  0.37755000  0.84296000  1.0
  C  C297  1  0.82773000  0.36344000  0.53543000  1.0
  C  C298  1  0.46414000  0.17200000  0.63657000  1.0
  C  C299  1  0.29228000  0.46457000  0.82801000  1.0
  C  C300  1  0.10082000  0.38001000  0.59322000  1.0
  C  C301  1  0.72057000  0.21320000  0.62000000  1.0
  C  C302  1  0.50750000  0.40679000  0.78680000  1.0
  C  C303  1  0.20294000  0.36614000  0.60486000  1.0
  C  C304  1  0.83661000  0.23871000  0.63388000  1.0
  C  C305  1  0.59802000  0.39513000  0.76129000  1.0
  C  C306  1  0.12346000  0.35724000  0.62296000  1.0
  C  C307  1  0.76610000  0.26572000  0.64280000  1.0
  C  C308  1  0.50049000  0.37704000  0.73429000  1.0
  C  C309  1  0.25078000  0.34283000  0.63357000  1.0
  C  C310  1  0.90799000  0.29073000  0.65718000  1.0
  C  C311  1  0.61730000  0.36643000  0.70928000  1.0
  C  C312  1  0.20594000  0.39040000  0.57585000  1.0
  C  C313  1  0.81539000  0.18544000  0.60957000  1.0
  C  C314  1  0.63000000  0.42414000  0.81456000  1.0
  O  O315  1  0.76267000  0.65900000  0.37308000  1.0
  O  O316  1  0.10392000  0.71407000  0.34097000  1.0
  O  O317  1  0.38957000  0.62695000  0.28596000  1.0
  O  O318  1  0.99207000  0.66052000  0.34578000  1.0
  O  O319  1  0.33166000  0.68524000  0.33948000  1.0
  O  O320  1  0.64638000  0.65424000  0.31477000  1.0
  O  O321  1  0.33810000  0.64081000  0.34772000  1.0
  O  O322  1  0.69759000  0.70692000  0.35921000  1.0
  O  O323  1  0.99034000  0.65228000  0.29308000  1.0
  O  O324  1  0.41698000  0.33573000  0.62401000  1.0
  O  O325  1  0.08129000  0.28826000  0.66426000  1.0
  O  O326  1  0.79308000  0.37599000  0.71175000  1.0
  O  O327  1  0.19016000  0.33788000  0.65320000  1.0
  O  O328  1  0.85237000  0.31530000  0.66211000  1.0
  O  O329  1  0.53709000  0.34681000  0.68469000  1.0
  O  O330  1  0.84213000  0.35647000  0.64871000  1.0
  O  O331  1  0.48567000  0.29224000  0.64355000  1.0
  O  O332  1  0.19344000  0.35129000  0.70776000  1.0
