# generated using pymatgen
data_NiP2H18C20(NO3)2
_symmetry_space_group_name_H-M   'P 1'
_cell_length_a   7.76655000
_cell_length_b   10.71250000
_cell_length_c   11.59940000
_cell_angle_alpha   82.91160000
_cell_angle_beta   87.99040000
_cell_angle_gamma   87.27570000
_symmetry_Int_Tables_number   1
_chemical_formula_structural   NiP2H18C20(NO3)2
_chemical_formula_sum   'Ni2 P4 H36 C40 N4 O12'
_cell_volume   956.18683357
_cell_formula_units_Z   2
loop_
 _symmetry_equiv_pos_site_id
 _symmetry_equiv_pos_as_xyz
  1  'x, y, z'
loop_
 _atom_site_type_symbol
 _atom_site_label
 _atom_site_symmetry_multiplicity
 _atom_site_fract_x
 _atom_site_fract_y
 _atom_site_fract_z
 _atom_site_occupancy
  Ni  Ni0  1  0.22446000  0.52676000  0.14855000  1.0
  Ni  Ni1  1  0.77548000  0.47331000  0.85141000  1.0
  P  P2  1  0.84343000  0.66928000  0.04693000  1.0
  P  P3  1  0.15664000  0.33068000  0.95302000  1.0
  P  P4  1  0.66520000  0.35167000  0.10802000  1.0
  P  P5  1  0.33469000  0.64837000  0.89198000  1.0
  H  H6  1  0.59453000  0.58720000  0.10143000  1.0
  H  H7  1  0.40548000  0.41276000  0.89864000  1.0
  H  H8  1  0.94067000  0.37688000  0.13216000  1.0
  H  H9  1  0.05929000  0.62311000  0.86774000  1.0
  H  H10  1  0.37967000  0.78962000  0.12948000  1.0
  H  H11  1  0.62039000  0.21047000  0.87059000  1.0
  H  H12  1  0.47438000  0.92126000  0.27885000  1.0
  H  H13  1  0.52581000  0.07872000  0.72128000  1.0
  H  H14  1  0.44041000  0.84043000  0.49091000  1.0
  H  H15  1  0.55974000  0.15947000  0.50921000  1.0
  H  H16  1  0.33889000  0.65888000  0.64394000  1.0
  H  H17  1  0.66115000  0.34106000  0.35609000  1.0
  H  H18  1  0.22339000  0.44845000  0.68715000  1.0
  H  H19  1  0.77660000  0.55150000  0.31285000  1.0
  H  H20  1  0.14010000  0.24540000  0.61037000  1.0
  H  H21  1  0.85986000  0.75465000  0.38965000  1.0
  H  H22  1  0.09386000  0.13471000  0.43532000  1.0
  H  H23  1  0.90603000  0.86531000  0.56472000  1.0
  H  H24  1  0.12932000  0.25104000  0.23622000  1.0
  H  H25  1  0.87074000  0.74893000  0.76379000  1.0
  H  H26  1  0.02254000  0.83506000  0.97380000  1.0
  H  H27  1  0.97745000  0.16494000  0.02617000  1.0
  H  H28  1  0.80900000  0.86934000  0.92653000  1.0
  H  H29  1  0.19097000  0.13062000  0.07348000  1.0
  H  H30  1  0.64493000  0.02781000  0.01369000  1.0
  H  H31  1  0.35501000  0.97211000  0.98631000  1.0
  H  H32  1  0.05653000  0.82453000  0.20275000  1.0
  H  H33  1  0.94361000  0.17556000  0.79720000  1.0
  H  H34  1  0.01196000  0.96227000  0.35945000  1.0
  H  H35  1  0.98810000  0.03780000  0.64050000  1.0
  H  H36  1  0.78347000  0.13446000  0.34291000  1.0
  H  H37  1  0.21650000  0.86552000  0.65708000  1.0
  H  H38  1  0.50506000  0.21764000  0.24681000  1.0
  H  H39  1  0.49489000  0.78235000  0.75312000  1.0
  H  H40  1  0.46803000  0.19003000  0.10217000  1.0
  H  H41  1  0.53199000  0.80995000  0.89775000  1.0
  C  C42  1  0.36804000  0.75789000  0.22189000  1.0
  C  C43  1  0.63201000  0.24218000  0.77817000  1.0
  C  C44  1  0.41863000  0.83068000  0.30702000  1.0
  C  C45  1  0.58147000  0.16930000  0.69306000  1.0
  C  C46  1  0.40098000  0.78561000  0.42370000  1.0
  C  C47  1  0.59910000  0.21434000  0.57638000  1.0
  C  C48  1  0.33353000  0.66558000  0.45579000  1.0
  C  C49  1  0.66646000  0.33438000  0.54424000  1.0
  C  C50  1  0.30894000  0.60743000  0.57264000  1.0
  C  C51  1  0.69106000  0.39255000  0.42739000  1.0
  C  C52  1  0.24682000  0.48937000  0.59720000  1.0
  C  C53  1  0.75318000  0.51061000  0.40283000  1.0
  C  C54  1  0.20929000  0.41819000  0.50504000  1.0
  C  C55  1  0.79068000  0.58184000  0.49496000  1.0
  C  C56  1  0.15691000  0.29272000  0.52221000  1.0
  C  C57  1  0.84303000  0.70731000  0.47781000  1.0
  C  C58  1  0.13147000  0.23220000  0.42579000  1.0
  C  C59  1  0.86847000  0.76782000  0.57422000  1.0
  C  C60  1  0.15205000  0.29603000  0.31299000  1.0
  C  C61  1  0.84792000  0.70397000  0.68703000  1.0
  C  C62  1  0.22885000  0.47466000  0.38877000  1.0
  C  C63  1  0.77109000  0.52536000  0.61125000  1.0
  C  C64  1  0.28900000  0.59842000  0.36439000  1.0
  C  C65  1  0.71097000  0.40160000  0.63563000  1.0
  C  C66  1  0.88609000  0.83451000  0.00241000  1.0
  C  C67  1  0.11391000  0.16544000  0.99758000  1.0
  C  C68  1  0.85413000  0.91654000  0.09781000  1.0
  C  C69  1  0.14586000  0.08342000  0.90218000  1.0
  C  C70  1  0.72451000  0.01257000  0.09044000  1.0
  C  C71  1  0.27547000  0.98740000  0.90956000  1.0
  C  C72  1  0.95715000  0.89981000  0.19583000  1.0
  C  C73  1  0.04292000  0.10021000  0.80414000  1.0
  C  C74  1  0.69729000  0.09219000  0.17736000  1.0
  C  C75  1  0.30270000  0.90781000  0.82261000  1.0
  C  C76  1  0.92990000  0.97680000  0.28388000  1.0
  C  C77  1  0.07012000  0.02324000  0.71608000  1.0
  C  C78  1  0.80084000  0.07220000  0.27535000  1.0
  C  C79  1  0.19914000  0.92780000  0.72461000  1.0
  C  C80  1  0.56903000  0.20191000  0.16334000  1.0
  C  C81  1  0.43095000  0.79807000  0.83660000  1.0
  N  N82  1  0.30475000  0.64424000  0.25000000  1.0
  N  N83  1  0.69524000  0.35583000  0.75004000  1.0
  N  N84  1  0.19758000  0.41561000  0.29436000  1.0
  N  N85  1  0.80240000  0.58438000  0.70566000  1.0
  O  O86  1  0.72171000  0.34738000  0.98100000  1.0
  O  O87  1  0.27816000  0.65278000  0.01897000  1.0
  O  O88  1  0.94771000  0.61773000  0.15078000  1.0
  O  O89  1  0.05240000  0.38217000  0.84908000  1.0
  O  O90  1  0.53790000  0.45587000  0.13725000  1.0
  O  O91  1  0.46199000  0.54410000  0.86285000  1.0
  O  O92  1  0.87514000  0.60312000  0.93516000  1.0
  O  O93  1  0.12480000  0.39690000  0.06473000  1.0
  O  O94  1  0.64329000  0.67585000  0.07706000  1.0
  O  O95  1  0.35680000  0.32411000  0.92298000  1.0
  O  O96  1  0.83438000  0.35070000  0.18147000  1.0
  O  O97  1  0.16557000  0.64936000  0.81847000  1.0
