# generated using pymatgen
data_CdH16C17N3ClO3
_symmetry_space_group_name_H-M   'P 1'
_cell_length_a   9.92303000
_cell_length_b   10.66660000
_cell_length_c   11.24980000
_cell_angle_alpha   64.55540000
_cell_angle_beta   84.35240000
_cell_angle_gamma   73.48630000
_symmetry_Int_Tables_number   1
_chemical_formula_structural   CdH16C17N3ClO3
_chemical_formula_sum   'Cd2 H32 C34 N6 Cl2 O6'
_cell_volume   1030.49677348
_cell_formula_units_Z   2
loop_
 _symmetry_equiv_pos_site_id
 _symmetry_equiv_pos_as_xyz
  1  'x, y, z'
loop_
 _atom_site_type_symbol
 _atom_site_label
 _atom_site_symmetry_multiplicity
 _atom_site_fract_x
 _atom_site_fract_y
 _atom_site_fract_z
 _atom_site_occupancy
  Cd  Cd0  1  0.98087000  0.32625000  0.11436000  1.0
  Cd  Cd1  1  0.01914000  0.67374000  0.88565000  1.0
  H  H2  1  0.71425000  0.63682000  0.03912000  1.0
  H  H3  1  0.28576000  0.36317000  0.96088000  1.0
  H  H4  1  0.76411000  0.10984000  0.20786000  1.0
  H  H5  1  0.23587000  0.89015000  0.79214000  1.0
  H  H6  1  0.55886000  0.01066000  0.31108000  1.0
  H  H7  1  0.44113000  0.98934000  0.68893000  1.0
  H  H8  1  0.33159000  0.17232000  0.33139000  1.0
  H  H9  1  0.66840000  0.82769000  0.66861000  1.0
  H  H10  1  0.29888000  0.43238000  0.25576000  1.0
  H  H11  1  0.70112000  0.56763000  0.74423000  1.0
  H  H12  1  0.25371000  0.63448000  0.10150000  1.0
  H  H13  1  0.74629000  0.36553000  0.89848000  1.0
  H  H14  1  0.09212000  0.86178000  0.09291000  1.0
  H  H15  1  0.90789000  0.13823000  0.90709000  1.0
  H  H16  1  0.44199000  0.00547000  0.13022000  1.0
  H  H17  1  0.55801000  0.99451000  0.86980000  1.0
  H  H18  1  0.60712000  0.77414000  0.14563000  1.0
  H  H19  1  0.39288000  0.22585000  0.85437000  1.0
  H  H20  1  0.84916000  0.39888000  0.36112000  1.0
  H  H21  1  0.15084000  0.60112000  0.63888000  1.0
  H  H22  1  0.66842000  0.29909000  0.63412000  1.0
  H  H23  1  0.33157000  0.70092000  0.36587000  1.0
  H  H24  1  0.55614000  0.32612000  0.50538000  1.0
  H  H25  1  0.44386000  0.67389000  0.49461000  1.0
  H  H26  1  0.66948000  0.44019000  0.47353000  1.0
  H  H27  1  0.33052000  0.55982000  0.52647000  1.0
  H  H28  1  0.75760000  0.04274000  0.65229000  1.0
  H  H29  1  0.24240000  0.95727000  0.34770000  1.0
  H  H30  1  0.86755000  0.01722000  0.52479000  1.0
  H  H31  1  0.13245000  0.98279000  0.47521000  1.0
  H  H32  1  0.67991000  0.07048000  0.50310000  1.0
  H  H33  1  0.32008000  0.92953000  0.49690000  1.0
  C  C34  1  0.67127000  0.54430000  0.08971000  1.0
  C  C35  1  0.32874000  0.45570000  0.91028000  1.0
  C  C36  1  0.64420000  0.32723000  0.17340000  1.0
  C  C37  1  0.35580000  0.67277000  0.82660000  1.0
  C  C38  1  0.66319000  0.17896000  0.21805000  1.0
  C  C39  1  0.33681000  0.82103000  0.78195000  1.0
  C  C40  1  0.54868000  0.12560000  0.27546000  1.0
  C  C41  1  0.45131000  0.87440000  0.72454000  1.0
  C  C42  1  0.41998000  0.21693000  0.28886000  1.0
  C  C43  1  0.58002000  0.78307000  0.71114000  1.0
  C  C44  1  0.40035000  0.36464000  0.24590000  1.0
  C  C45  1  0.59964000  0.63537000  0.75410000  1.0
  C  C46  1  0.51443000  0.41891000  0.18652000  1.0
  C  C47  1  0.48557000  0.58108000  0.81348000  1.0
  C  C48  1  0.44096000  0.68825000  0.12633000  1.0
  C  C49  1  0.55904000  0.31176000  0.87367000  1.0
  C  C50  1  0.29603000  0.71291000  0.11171000  1.0
  C  C51  1  0.70397000  0.28709000  0.88828000  1.0
  C  C52  1  0.20470000  0.84150000  0.10589000  1.0
  C  C53  1  0.79531000  0.15851000  0.89410000  1.0
  C  C54  1  0.25681000  0.94753000  0.11228000  1.0
  C  C55  1  0.74320000  0.05247000  0.88773000  1.0
  C  C56  1  0.40231000  0.92243000  0.12542000  1.0
  C  C57  1  0.59770000  0.07756000  0.87459000  1.0
  C  C58  1  0.49440000  0.79320000  0.13373000  1.0
  C  C59  1  0.50561000  0.20679000  0.86627000  1.0
  C  C60  1  0.15862000  0.08444000  0.10904000  1.0
  C  C61  1  0.84139000  0.91555000  0.89097000  1.0
  C  C62  1  0.86162000  0.28179000  0.39739000  1.0
  C  C63  1  0.13838000  0.71822000  0.60261000  1.0
  C  C64  1  0.66005000  0.32971000  0.52811000  1.0
  C  C65  1  0.33994000  0.67029000  0.47188000  1.0
  C  C66  1  0.76883000  0.08160000  0.54552000  1.0
  C  C67  1  0.23116000  0.91841000  0.45448000  1.0
  N  N68  1  0.73862000  0.40934000  0.11303000  1.0
  N  N69  1  0.26138000  0.59065000  0.88697000  1.0
  N  N70  1  0.53551000  0.55741000  0.13241000  1.0
  N  N71  1  0.46449000  0.44258000  0.86759000  1.0
  N  N72  1  0.76997000  0.23232000  0.48930000  1.0
  N  N73  1  0.23003000  0.76769000  0.51070000  1.0
  Cl  Cl74  1  0.02213000  0.53458000  0.15014000  1.0
  Cl  Cl75  1  0.97787000  0.46541000  0.84987000  1.0
  O  O76  1  0.02662000  0.09747000  0.11373000  1.0
  O  O77  1  0.97339000  0.90253000  0.88628000  1.0
  O  O78  1  0.21091000  0.18303000  0.10524000  1.0
  O  O79  1  0.78910000  0.81695000  0.89478000  1.0
  O  O80  1  0.95354000  0.20623000  0.35307000  1.0
  O  O81  1  0.04646000  0.79377000  0.64694000  1.0
