# generated using pymatgen
data_Sm2H22C18S9N6O17
_symmetry_space_group_name_H-M   'P 1'
_cell_length_a   9.66015000
_cell_length_b   13.11970000
_cell_length_c   14.97580000
_cell_angle_alpha   66.06610000
_cell_angle_beta   82.91890000
_cell_angle_gamma   80.63640000
_symmetry_Int_Tables_number   1
_chemical_formula_structural   Sm2H22C18S9N6O17
_chemical_formula_sum   'Sm4 H44 C36 S18 N12 O34'
_cell_volume   1708.23522006
_cell_formula_units_Z   2
loop_
 _symmetry_equiv_pos_site_id
 _symmetry_equiv_pos_as_xyz
  1  'x, y, z'
loop_
 _atom_site_type_symbol
 _atom_site_label
 _atom_site_symmetry_multiplicity
 _atom_site_fract_x
 _atom_site_fract_y
 _atom_site_fract_z
 _atom_site_occupancy
  Sm  Sm0  1  0.28958000  0.04399000  0.94677000  1.0
  Sm  Sm1  1  0.71041000  0.95602000  0.05323000  1.0
  Sm  Sm2  1  0.16951000  0.54894000  0.04032000  1.0
  Sm  Sm3  1  0.83048000  0.45106000  0.95968000  1.0
  H  H4  1  0.33272000  0.35462000  0.19716000  1.0
  H  H5  1  0.66728000  0.64537000  0.80284000  1.0
  H  H6  1  0.43891000  0.40965000  0.10271000  1.0
  H  H7  1  0.56109000  0.59035000  0.89729000  1.0
  H  H8  1  0.08905000  0.98256000  0.75238000  1.0
  H  H9  1  0.91095000  0.01743000  0.24762000  1.0
  H  H10  1  0.98088000  0.10036000  0.76568000  1.0
  H  H11  1  0.01912000  0.89964000  0.23432000  1.0
  H  H12  1  0.25004000  0.72172000  0.10357000  1.0
  H  H13  1  0.74996000  0.27828000  0.89642000  1.0
  H  H14  1  0.33123000  0.74657000  0.00260000  1.0
  H  H15  1  0.66877000  0.25343000  0.99740000  1.0
  H  H16  1  0.05851000  0.58202000  0.22709000  1.0
  H  H17  1  0.94149000  0.41798000  0.77291000  1.0
  H  H18  1  0.16359000  0.46647000  0.27048000  1.0
  H  H19  1  0.83640000  0.53353000  0.72952000  1.0
  H  H20  1  0.87992000  0.63967000  0.08417000  1.0
  H  H21  1  0.12008000  0.36034000  0.91582000  1.0
  H  H22  1  0.94216000  0.75570000  0.02376000  1.0
  H  H23  1  0.05784000  0.24430000  0.97624000  1.0
  H  H24  1  0.44887000  0.18737000  0.00664000  1.0
  H  H25  1  0.55113000  0.81263000  0.99336000  1.0
  H  H26  1  0.32905000  0.28361000  0.95132000  1.0
  H  H27  1  0.67095000  0.71639000  0.04868000  1.0
  H  H28  1  0.97185000  0.34889000  0.28884000  1.0
  H  H29  1  0.02815000  0.65111000  0.71116000  1.0
  H  H30  1  0.06995000  0.22799000  0.27511000  1.0
  H  H31  1  0.93005000  0.77201000  0.72488000  1.0
  H  H32  1  0.20914000  0.15280000  0.66516000  1.0
  H  H33  1  0.79086000  0.84720000  0.33483000  1.0
  H  H34  1  0.32859000  0.25247000  0.64453000  1.0
  H  H35  1  0.67141000  0.74753000  0.35547000  1.0
  H  H36  1  0.41583000  0.20233000  0.18514000  1.0
  H  H37  1  0.58418000  0.79768000  0.81486000  1.0
  H  H38  1  0.58125000  0.24039000  0.19341000  1.0
  H  H39  1  0.41877000  0.75960000  0.80660000  1.0
  H  H40  1  0.51899000  0.74771000  0.23845000  1.0
  H  H41  1  0.48100000  0.25229000  0.76155000  1.0
  H  H42  1  0.44134000  0.84892000  0.28670000  1.0
  H  H43  1  0.55866000  0.15108000  0.71330000  1.0
  H  H44  1  0.53646000  0.45921000  0.79473000  1.0
  H  H45  1  0.46354000  0.54079000  0.20528000  1.0
  H  H46  1  0.45260000  0.59916000  0.73989000  1.0
  H  H47  1  0.54740000  0.40084000  0.26011000  1.0
  C  C48  1  0.99454000  0.95198000  0.89733000  1.0
  C  C49  1  0.00547000  0.04802000  0.10267000  1.0
  C  C50  1  0.99086000  0.00899000  0.78681000  1.0
  C  C51  1  0.00914000  0.99101000  0.21319000  1.0
  C  C52  1  0.87699000  0.05417000  0.61800000  1.0
  C  C53  1  0.12301000  0.94583000  0.38200000  1.0
  C  C54  1  0.87070000  0.14772000  0.44411000  1.0
  C  C55  1  0.12929000  0.85228000  0.55589000  1.0
  C  C56  1  0.96889000  0.28252000  0.26255000  1.0
  C  C57  1  0.03110000  0.71748000  0.73745000  1.0
  C  C58  1  0.94289000  0.33298000  0.15495000  1.0
  C  C59  1  0.05711000  0.66703000  0.84505000  1.0
  C  C60  1  0.14328000  0.26486000  0.73908000  1.0
  C  C61  1  0.85672000  0.73514000  0.26092000  1.0
  C  C62  1  0.21694000  0.24020000  0.65279000  1.0
  C  C63  1  0.78306000  0.75980000  0.34721000  1.0
  C  C64  1  0.23646000  0.28856000  0.46093000  1.0
  C  C65  1  0.76354000  0.71144000  0.53907000  1.0
  C  C66  1  0.38915000  0.18879000  0.37614000  1.0
  C  C67  1  0.61085000  0.81121000  0.62386000  1.0
  C  C68  1  0.52073000  0.16925000  0.21303000  1.0
  C  C69  1  0.47928000  0.83074000  0.78698000  1.0
  C  C70  1  0.59269000  0.09342000  0.16370000  1.0
  C  C71  1  0.40731000  0.90658000  0.83630000  1.0
  C  C72  1  0.37398000  0.87898000  0.14587000  1.0
  C  C73  1  0.62602000  0.12102000  0.85413000  1.0
  C  C74  1  0.42065000  0.80018000  0.24610000  1.0
  C  C75  1  0.57935000  0.19982000  0.75390000  1.0
  C  C76  1  0.33773000  0.65728000  0.42769000  1.0
  C  C77  1  0.66227000  0.34272000  0.57231000  1.0
  C  C78  1  0.35434000  0.55708000  0.59960000  1.0
  C  C79  1  0.64566000  0.44292000  0.40040000  1.0
  C  C80  1  0.43400000  0.51206000  0.78452000  1.0
  C  C81  1  0.56600000  0.48794000  0.21548000  1.0
  C  C82  1  0.36192000  0.50237000  0.88331000  1.0
  C  C83  1  0.63808000  0.49763000  0.11669000  1.0
  S  S84  1  0.84271000  0.97812000  0.74266000  1.0
  S  S85  1  0.15729000  0.02188000  0.25735000  1.0
  S  S86  1  0.74850000  0.08033000  0.53639000  1.0
  S  S87  1  0.25150000  0.91967000  0.46361000  1.0
  S  S88  1  0.82539000  0.20062000  0.32362000  1.0
  S  S89  1  0.17461000  0.79938000  0.67638000  1.0
  S  S90  1  0.13326000  0.33534000  0.54220000  1.0
  S  S91  1  0.86674000  0.66466000  0.45780000  1.0
  S  S92  1  0.34832000  0.16269000  0.49821000  1.0
  S  S93  1  0.65168000  0.83731000  0.50179000  1.0
  S  S94  1  0.50556000  0.09229000  0.34371000  1.0
  S  S95  1  0.49445000  0.90771000  0.65629000  1.0
  S  S96  1  0.28229000  0.71413000  0.30940000  1.0
  S  S97  1  0.71771000  0.28587000  0.69060000  1.0
  S  S98  1  0.22185000  0.58442000  0.52138000  1.0
  S  S99  1  0.77815000  0.41558000  0.47862000  1.0
  S  S100  1  0.31941000  0.47023000  0.72146000  1.0
  S  S101  1  0.68059000  0.52977000  0.27854000  1.0
  N  N102  1  0.99403000  0.09632000  0.57567000  1.0
  N  N103  1  0.00597000  0.90368000  0.42433000  1.0
  N  N104  1  0.99076000  0.14967000  0.47583000  1.0
  N  N105  1  0.00924000  0.85033000  0.52417000  1.0
  N  N106  1  0.23658000  0.34146000  0.36487000  1.0
  N  N107  1  0.76342000  0.65854000  0.63513000  1.0
  N  N108  1  0.32258000  0.28400000  0.31683000  1.0
  N  N109  1  0.67742000  0.71600000  0.68317000  1.0
  N  N110  1  0.45894000  0.66170000  0.45732000  1.0
  N  N111  1  0.54106000  0.33829000  0.54269000  1.0
  N  N112  1  0.46834000  0.60385000  0.55659000  1.0
  N  N113  1  0.53166000  0.39615000  0.44342000  1.0
  O  O114  1  0.10136000  0.95861000  0.93391000  1.0
  O  O115  1  0.89863000  0.04139000  0.06609000  1.0
  O  O116  1  0.33801000  0.39911000  0.12363000  1.0
  O  O117  1  0.66199000  0.60089000  0.87637000  1.0
  O  O118  1  0.89075000  0.90046000  0.94733000  1.0
  O  O119  1  0.10924000  0.09954000  0.05268000  1.0
  O  O120  1  0.28945000  0.68511000  0.05881000  1.0
  O  O121  1  0.71055000  0.31489000  0.94119000  1.0
  O  O122  1  0.00793000  0.41508000  0.09602000  1.0
  O  O123  1  0.99207000  0.58492000  0.90398000  1.0
  O  O124  1  0.12787000  0.52670000  0.20864000  1.0
  O  O125  1  0.87213000  0.47330000  0.79136000  1.0
  O  O126  1  0.85361000  0.29578000  0.12461000  1.0
  O  O127  1  0.14639000  0.70422000  0.87539000  1.0
  O  O128  1  0.96699000  0.67353000  0.05749000  1.0
  O  O129  1  0.03301000  0.32647000  0.94251000  1.0
  O  O130  1  0.37022000  0.20589000  0.96355000  1.0
  O  O131  1  0.62977000  0.79411000  0.03645000  1.0
  O  O132  1  0.19060000  0.20325000  0.82308000  1.0
  O  O133  1  0.80940000  0.79675000  0.17691000  1.0
  O  O134  1  0.04363000  0.34325000  0.72091000  1.0
  O  O135  1  0.95637000  0.65676000  0.27908000  1.0
  O  O136  1  0.64314000  0.99385000  0.21081000  1.0
  O  O137  1  0.35686000  0.00615000  0.78919000  1.0
  O  O138  1  0.59813000  0.13662000  0.06895000  1.0
  O  O139  1  0.40187000  0.86339000  0.93105000  1.0
  O  O140  1  0.45059000  0.95641000  0.09293000  1.0
  O  O141  1  0.54941000  0.04359000  0.90707000  1.0
  O  O142  1  0.26359000  0.86911000  0.11427000  1.0
  O  O143  1  0.73641000  0.13089000  0.88573000  1.0
  O  O144  1  0.39633000  0.56156000  0.92479000  1.0
  O  O145  1  0.60367000  0.43844000  0.07521000  1.0
  O  O146  1  0.26557000  0.43856000  0.92266000  1.0
  O  O147  1  0.73442000  0.56144000  0.07734000  1.0
