# generated using pymatgen
data_AgH7C7SN2
_symmetry_space_group_name_H-M   'P 1'
_cell_length_a   8.11604000
_cell_length_b   11.24050000
_cell_length_c   18.05500000
_cell_angle_alpha   90.00000000
_cell_angle_beta   90.00000000
_cell_angle_gamma   90.00000000
_symmetry_Int_Tables_number   1
_chemical_formula_structural   AgH7C7SN2
_chemical_formula_sum   'Ag8 H56 C56 S8 N16'
_cell_volume   1647.12781628
_cell_formula_units_Z   8
loop_
 _symmetry_equiv_pos_site_id
 _symmetry_equiv_pos_as_xyz
  1  'x, y, z'
loop_
 _atom_site_type_symbol
 _atom_site_label
 _atom_site_symmetry_multiplicity
 _atom_site_fract_x
 _atom_site_fract_y
 _atom_site_fract_z
 _atom_site_occupancy
  Ag  Ag0  1  0.81266000  0.84876000  0.92317000  1.0
  Ag  Ag1  1  0.81265000  0.34878000  0.57683000  1.0
  Ag  Ag2  1  0.31266000  0.65122000  0.92317000  1.0
  Ag  Ag3  1  0.31267000  0.15123000  0.57683000  1.0
  Ag  Ag4  1  0.18734000  0.15123000  0.07684000  1.0
  Ag  Ag5  1  0.18734000  0.65123000  0.42316000  1.0
  Ag  Ag6  1  0.68733000  0.34876000  0.07684000  1.0
  Ag  Ag7  1  0.68733000  0.84877000  0.42316000  1.0
  H  H8  1  0.91009000  0.00126000  0.78279000  1.0
  H  H9  1  0.91009000  0.50127000  0.71722000  1.0
  H  H10  1  0.41010000  0.49874000  0.78279000  1.0
  H  H11  1  0.41010000  0.99874000  0.71721000  1.0
  H  H12  1  0.08991000  0.99874000  0.21722000  1.0
  H  H13  1  0.08990000  0.49874000  0.28278000  1.0
  H  H14  1  0.58990000  0.50126000  0.21722000  1.0
  H  H15  1  0.58989000  0.00126000  0.28278000  1.0
  H  H16  1  0.88876000  0.12487000  0.65644000  1.0
  H  H17  1  0.88877000  0.62486000  0.84356000  1.0
  H  H18  1  0.38876000  0.37514000  0.65644000  1.0
  H  H19  1  0.38876000  0.87514000  0.84356000  1.0
  H  H20  1  0.11123000  0.87515000  0.34356000  1.0
  H  H21  1  0.11124000  0.37513000  0.15644000  1.0
  H  H22  1  0.61123000  0.62486000  0.34356000  1.0
  H  H23  1  0.61124000  0.12486000  0.15644000  1.0
  H  H24  1  0.02844000  0.01415000  0.62689000  1.0
  H  H25  1  0.02845000  0.51415000  0.87311000  1.0
  H  H26  1  0.52846000  0.48585000  0.62689000  1.0
  H  H27  1  0.52845000  0.98585000  0.87311000  1.0
  H  H28  1  0.97155000  0.98585000  0.37311000  1.0
  H  H29  1  0.97156000  0.48585000  0.12689000  1.0
  H  H30  1  0.47155000  0.51415000  0.37311000  1.0
  H  H31  1  0.47155000  0.01415000  0.12689000  1.0
  H  H32  1  0.84645000  0.03946000  0.57525000  1.0
  H  H33  1  0.84647000  0.53946000  0.92476000  1.0
  H  H34  1  0.34646000  0.46055000  0.57524000  1.0
  H  H35  1  0.34646000  0.96054000  0.92476000  1.0
  H  H36  1  0.15353000  0.96055000  0.42476000  1.0
  H  H37  1  0.15355000  0.46055000  0.07524000  1.0
  H  H38  1  0.65354000  0.53945000  0.42476000  1.0
  H  H39  1  0.65354000  0.03945000  0.07524000  1.0
  H  H40  1  0.68180000  0.86294000  0.58514000  1.0
  H  H41  1  0.68182000  0.36293000  0.91486000  1.0
  H  H42  1  0.18180000  0.63706000  0.58514000  1.0
  H  H43  1  0.18181000  0.13707000  0.91486000  1.0
  H  H44  1  0.31819000  0.13707000  0.41486000  1.0
  H  H45  1  0.31819000  0.63706000  0.08514000  1.0
  H  H46  1  0.81820000  0.36294000  0.41486000  1.0
  H  H47  1  0.81820000  0.86293000  0.08514000  1.0
  H  H48  1  0.55402000  0.70468000  0.66333000  1.0
  H  H49  1  0.55403000  0.20468000  0.83667000  1.0
  H  H50  1  0.05400000  0.79531000  0.66333000  1.0
  H  H51  1  0.05401000  0.29532000  0.83667000  1.0
  H  H52  1  0.44598000  0.29532000  0.33667000  1.0
  H  H53  1  0.44598000  0.79531000  0.16333000  1.0
  H  H54  1  0.94600000  0.20469000  0.33667000  1.0
  H  H55  1  0.94599000  0.70468000  0.16333000  1.0
  H  H56  1  0.61677000  0.70086000  0.79975000  1.0
  H  H57  1  0.61677000  0.20087000  0.70025000  1.0
  H  H58  1  0.11676000  0.79913000  0.79975000  1.0
  H  H59  1  0.11677000  0.29913000  0.70025000  1.0
  H  H60  1  0.38323000  0.29913000  0.20025000  1.0
  H  H61  1  0.38322000  0.79913000  0.29975000  1.0
  H  H62  1  0.88324000  0.20087000  0.20025000  1.0
  H  H63  1  0.88324000  0.70087000  0.29975000  1.0
  C  C64  1  0.13424000  0.86944000  0.02445000  1.0
  C  C65  1  0.13423000  0.36945000  0.47556000  1.0
  C  C66  1  0.63424000  0.63055000  0.02445000  1.0
  C  C67  1  0.63424000  0.13056000  0.47555000  1.0
  C  C68  1  0.86576000  0.13055000  0.97555000  1.0
  C  C69  1  0.86577000  0.63056000  0.52445000  1.0
  C  C70  1  0.36577000  0.36944000  0.97555000  1.0
  C  C71  1  0.36577000  0.86945000  0.52445000  1.0
  C  C72  1  0.83312000  0.93637000  0.75383000  1.0
  C  C73  1  0.83313000  0.43637000  0.74617000  1.0
  C  C74  1  0.33313000  0.56363000  0.75382000  1.0
  C  C75  1  0.33312000  0.06363000  0.74618000  1.0
  C  C76  1  0.16687000  0.06363000  0.24617000  1.0
  C  C77  1  0.16687000  0.56363000  0.25382000  1.0
  C  C78  1  0.66686000  0.43637000  0.24618000  1.0
  C  C79  1  0.66687000  0.93637000  0.25382000  1.0
  C  C80  1  0.80905000  0.94444000  0.67710000  1.0
  C  C81  1  0.80906000  0.44444000  0.82291000  1.0
  C  C82  1  0.30905000  0.55556000  0.67710000  1.0
  C  C83  1  0.30905000  0.05555000  0.82290000  1.0
  C  C84  1  0.19094000  0.05556000  0.32290000  1.0
  C  C85  1  0.19095000  0.55555000  0.17710000  1.0
  C  C86  1  0.69095000  0.44444000  0.32290000  1.0
  C  C87  1  0.69095000  0.94444000  0.17709000  1.0
  C  C88  1  0.70521000  0.85994000  0.64458000  1.0
  C  C89  1  0.70522000  0.35994000  0.85542000  1.0
  C  C90  1  0.20521000  0.64006000  0.64458000  1.0
  C  C91  1  0.20521000  0.14006000  0.85542000  1.0
  C  C92  1  0.29479000  0.14007000  0.35542000  1.0
  C  C93  1  0.29479000  0.64006000  0.14458000  1.0
  C  C94  1  0.79480000  0.35995000  0.35543000  1.0
  C  C95  1  0.79479000  0.85993000  0.14458000  1.0
  C  C96  1  0.63425000  0.77130000  0.68803000  1.0
  C  C97  1  0.63426000  0.27129000  0.81197000  1.0
  C  C98  1  0.13424000  0.72870000  0.68803000  1.0
  C  C99  1  0.13425000  0.22870000  0.81197000  1.0
  C  C100  1  0.36575000  0.22870000  0.31197000  1.0
  C  C101  1  0.36575000  0.72870000  0.18803000  1.0
  C  C102  1  0.86576000  0.27130000  0.31197000  1.0
  C  C103  1  0.86575000  0.77130000  0.18803000  1.0
  C  C104  1  0.66879000  0.76887000  0.76348000  1.0
  C  C105  1  0.66881000  0.26887000  0.73651000  1.0
  C  C106  1  0.16878000  0.73113000  0.76348000  1.0
  C  C107  1  0.16879000  0.23112000  0.73652000  1.0
  C  C108  1  0.33121000  0.23113000  0.23652000  1.0
  C  C109  1  0.33120000  0.73112000  0.26348000  1.0
  C  C110  1  0.83122000  0.26887000  0.23652000  1.0
  C  C111  1  0.83122000  0.76887000  0.26348000  1.0
  C  C112  1  0.89664000  0.03593000  0.63155000  1.0
  C  C113  1  0.89664000  0.53593000  0.86846000  1.0
  C  C114  1  0.39664000  0.46407000  0.63154000  1.0
  C  C115  1  0.39664000  0.96407000  0.86846000  1.0
  C  C116  1  0.10336000  0.96408000  0.36846000  1.0
  C  C117  1  0.10336000  0.46407000  0.13154000  1.0
  C  C118  1  0.60336000  0.53593000  0.36846000  1.0
  C  C119  1  0.60336000  0.03592000  0.13154000  1.0
  S  S120  1  0.05763000  0.75027000  0.98410000  1.0
  S  S121  1  0.05763000  0.25028000  0.51591000  1.0
  S  S122  1  0.55763000  0.74972000  0.98410000  1.0
  S  S123  1  0.55763000  0.24972000  0.51591000  1.0
  S  S124  1  0.94237000  0.24971000  0.01590000  1.0
  S  S125  1  0.94237000  0.74973000  0.48410000  1.0
  S  S126  1  0.44237000  0.25027000  0.01590000  1.0
  S  S127  1  0.44238000  0.75028000  0.48410000  1.0
  N  N128  1  0.18831000  0.95391000  0.05485000  1.0
  N  N129  1  0.18831000  0.45393000  0.44517000  1.0
  N  N130  1  0.68831000  0.54607000  0.05484000  1.0
  N  N131  1  0.68831000  0.04608000  0.44516000  1.0
  N  N132  1  0.81169000  0.04607000  0.94516000  1.0
  N  N133  1  0.81169000  0.54609000  0.55483000  1.0
  N  N134  1  0.31170000  0.45392000  0.94516000  1.0
  N  N135  1  0.31168000  0.95393000  0.55484000  1.0
  N  N136  1  0.76631000  0.85044000  0.79610000  1.0
  N  N137  1  0.76630000  0.35046000  0.70390000  1.0
  N  N138  1  0.26631000  0.64955000  0.79610000  1.0
  N  N139  1  0.26632000  0.14955000  0.70390000  1.0
  N  N140  1  0.23370000  0.14955000  0.20390000  1.0
  N  N141  1  0.23368000  0.64955000  0.29610000  1.0
  N  N142  1  0.73369000  0.35045000  0.20390000  1.0
  N  N143  1  0.73369000  0.85045000  0.29610000  1.0
