# generated using pymatgen
data_Zn4H25C48NO15
_symmetry_space_group_name_H-M   'P 1'
_cell_length_a   15.37700000
_cell_length_b   15.64740000
_cell_length_c   19.59210000
_cell_angle_alpha   81.03830000
_cell_angle_beta   78.32540000
_cell_angle_gamma   67.55090000
_symmetry_Int_Tables_number   1
_chemical_formula_structural   Zn4H25C48NO15
_chemical_formula_sum   'Zn4 H25 C48 N1 O15'
_cell_volume   4250.61092780
_cell_formula_units_Z   1
loop_
 _symmetry_equiv_pos_site_id
 _symmetry_equiv_pos_as_xyz
  1  'x, y, z'
loop_
 _atom_site_type_symbol
 _atom_site_label
 _atom_site_symmetry_multiplicity
 _atom_site_fract_x
 _atom_site_fract_y
 _atom_site_fract_z
 _atom_site_occupancy
  Zn  Zn0  1  0.41726000  0.59517000  0.43900000  1.0
  Zn  Zn1  1  0.43198000  0.44339000  0.57572000  1.0
  Zn  Zn2  1  0.56115000  0.56091000  0.54005000  1.0
  Zn  Zn3  1  0.59423000  0.39860000  0.44076000  1.0
  H  H4  1  0.38469000  0.61195000  0.23127000  1.0
  H  H5  1  0.43474000  0.40591000  0.79259000  1.0
  H  H6  1  0.51554000  0.64533000  0.74348000  1.0
  H  H7  1  0.46103000  0.60458000  0.99287000  1.0
  H  H8  1  0.60763000  0.33366000  0.11182000  1.0
  H  H9  1  0.43571000  0.40954000  0.91906000  1.0
  H  H10  1  0.61079000  0.34531000  0.23670000  1.0
  H  H11  1  0.52230000  0.39201000  0.00888000  1.0
  H  H12  1  0.38240000  0.60259000  0.10605000  1.0
  H  H13  1  0.51015000  0.65382000  0.87046000  1.0
  H  H14  1  0.56593000  0.15657000  0.65826000  1.0
  H  H15  1  0.53221000  0.86511000  0.66544000  1.0
  H  H16  1  0.56093000  0.99751000  0.69197000  1.0
  H  H17  1  0.52077000  0.14714000  0.45127000  1.0
  H  H18  1  0.41990000  0.85361000  0.35113000  1.0
  H  H19  1  0.46918000  0.09133000  0.39288000  1.0
  H  H20  1  0.42153000  0.01365000  0.31532000  1.0
  H  H21  1  0.49640000  0.78290000  0.58485000  1.0
  H  H22  1  0.11924000  0.71731000  0.53553000  1.0
  H  H23  1  0.82885000  0.72694000  0.47951000  1.0
  H  H24  1  0.94894000  0.76298000  0.52123000  1.0
  H  H25  1  0.17032000  0.43396000  0.51116000  1.0
  H  H26  1  0.88573000  0.28116000  0.45491000  1.0
  H  H27  1  0.11966000  0.34333000  0.49286000  1.0
  H  H28  1  0.05812000  0.23063000  0.46651000  1.0
  C  C29  1  0.54386000  0.25539000  0.53373000  1.0
  C  C30  1  0.46675000  0.74565000  0.46380000  1.0
  C  C31  1  0.25615000  0.54888000  0.52590000  1.0
  C  C32  1  0.75134000  0.44408000  0.47283000  1.0
  C  C33  1  0.47853000  0.52051000  0.68474000  1.0
  C  C34  1  0.50007000  0.48609000  0.31622000  1.0
  C  C35  1  0.49847000  0.47967000  0.24136000  1.0
  C  C36  1  0.43418000  0.55205000  0.20415000  1.0
  C  C37  1  0.43367000  0.54669000  0.13418000  1.0
  C  C38  1  0.49652000  0.46838000  0.09941000  1.0
  C  C39  1  0.55896000  0.39505000  0.13784000  1.0
  C  C40  1  0.56103000  0.40110000  0.20748000  1.0
  C  C41  1  0.45393000  0.46096000  0.88068000  1.0
  C  C42  1  0.45294000  0.45875000  0.81026000  1.0
  C  C43  1  0.49741000  0.59459000  0.78257000  1.0
  C  C44  1  0.49474000  0.59870000  0.85331000  1.0
  C  C45  1  0.47493000  0.53097000  0.90363000  1.0
  C  C46  1  0.49783000  0.46206000  0.02565000  1.0
  C  C47  1  0.47585000  0.53557000  0.97725000  1.0
  C  C48  1  0.47581000  0.52489000  0.76051000  1.0
  C  C49  1  0.55044000  0.03128000  0.63958000  1.0
  C  C50  1  0.54400000  0.15929000  0.55212000  1.0
  C  C51  1  0.43869000  0.88953000  0.38587000  1.0
  C  C52  1  0.44051000  0.97881000  0.36585000  1.0
  C  C53  1  0.46734000  0.02229000  0.40978000  1.0
  C  C54  1  0.49059000  0.97968000  0.47606000  1.0
  C  C55  1  0.48613000  0.88937000  0.49786000  1.0
  C  C56  1  0.51643000  0.02657000  0.52298000  1.0
  C  C57  1  0.53054000  0.98441000  0.59192000  1.0
  C  C58  1  0.52215000  0.89607000  0.61235000  1.0
  C  C59  1  0.50171000  0.85025000  0.56761000  1.0
  C  C60  1  0.52728000  0.11323000  0.50389000  1.0
  C  C61  1  0.55436000  0.11847000  0.62106000  1.0
  C  C62  1  0.46262000  0.84381000  0.45010000  1.0
  C  C63  1  0.99785000  0.69107000  0.51857000  1.0
  C  C64  1  0.15298000  0.57250000  0.52352000  1.0
  C  C65  1  0.91602000  0.33150000  0.46129000  1.0
  C  C66  1  0.01195000  0.30339000  0.46901000  1.0
  C  C67  1  0.04654000  0.36729000  0.48307000  1.0
  C  C68  1  0.98917000  0.46258000  0.48496000  1.0
  C  C69  1  0.89339000  0.49235000  0.47133000  1.0
  C  C70  1  0.02576000  0.52939000  0.50062000  1.0
  C  C71  1  0.96445000  0.62447000  0.50339000  1.0
  C  C72  1  0.87257000  0.65331000  0.48423000  1.0
  C  C73  1  0.84084000  0.59094000  0.46579000  1.0
  C  C74  1  0.12010000  0.50525000  0.51253000  1.0
  C  C75  1  0.09133000  0.66616000  0.52699000  1.0
  C  C76  1  0.85618000  0.42380000  0.46480000  1.0
  N  N77  1  0.75696000  0.63301000  0.42957000  1.0
  O  O78  1  0.50158000  0.49743000  0.49699000  1.0
  O  O79  1  0.57854000  0.27747000  0.47153000  1.0
  O  O80  1  0.42379000  0.71940000  0.42625000  1.0
  O  O81  1  0.30204000  0.47052000  0.55622000  1.0
  O  O82  1  0.69936000  0.50514000  0.51515000  1.0
  O  O83  1  0.43156000  0.47663000  0.66842000  1.0
  O  O84  1  0.56860000  0.42422000  0.34387000  1.0
  O  O85  1  0.52840000  0.56084000  0.64199000  1.0
  O  O86  1  0.43266000  0.55319000  0.34655000  1.0
  O  O87  1  0.28990000  0.61063000  0.49624000  1.0
  O  O88  1  0.72404000  0.39499000  0.44208000  1.0
  O  O89  1  0.50715000  0.30930000  0.58311000  1.0
  O  O90  1  0.51417000  0.69355000  0.51064000  1.0
  O  O91  1  0.69880000  0.71027000  0.44519000  1.0
  O  O92  1  0.75264000  0.59057000  0.38249000  1.0
