# generated using pymatgen
data_FeAg2H10(C8N5)2
_symmetry_space_group_name_H-M   'P 1'
_cell_length_a   12.67880000
_cell_length_b   15.76060000
_cell_length_c   16.76270000
_cell_angle_alpha   70.53900000
_cell_angle_beta   68.67300000
_cell_angle_gamma   89.97400000
_symmetry_Int_Tables_number   1
_chemical_formula_structural   FeAg2H10(C8N5)2
_chemical_formula_sum   'Fe4 Ag8 H40 C64 N40'
_cell_volume   2914.04970109
_cell_formula_units_Z   4
loop_
 _symmetry_equiv_pos_site_id
 _symmetry_equiv_pos_as_xyz
  1  'x, y, z'
loop_
 _atom_site_type_symbol
 _atom_site_label
 _atom_site_symmetry_multiplicity
 _atom_site_fract_x
 _atom_site_fract_y
 _atom_site_fract_z
 _atom_site_occupancy
  Fe  Fe0  1  0.70128000  0.46980000  0.59958000  1.0
  Fe  Fe1  1  0.29872000  0.53021000  0.40042000  1.0
  Fe  Fe2  1  0.19169000  0.96410000  0.61573000  1.0
  Fe  Fe3  1  0.80831000  0.03590000  0.38427000  1.0
  Ag  Ag4  1  0.45885000  0.20984000  0.60612000  1.0
  Ag  Ag5  1  0.54115000  0.79017000  0.39388000  1.0
  Ag  Ag6  1  0.43817000  0.70977000  0.60738000  1.0
  Ag  Ag7  1  0.56184000  0.29024000  0.39261000  1.0
  Ag  Ag8  1  0.96355000  0.22989000  0.59793000  1.0
  Ag  Ag9  1  0.03644000  0.77011000  0.40207000  1.0
  Ag  Ag10  1  0.93723000  0.72689000  0.60193000  1.0
  Ag  Ag11  1  0.06277000  0.27312000  0.39808000  1.0
  H  H12  1  0.33669000  0.28405000  0.07392000  1.0
  H  H13  1  0.66331000  0.71595000  0.92608000  1.0
  H  H14  1  0.35616000  0.19348000  0.04474000  1.0
  H  H15  1  0.64384000  0.80651000  0.95526000  1.0
  H  H16  1  0.07981000  0.77507000  0.09345000  1.0
  H  H17  1  0.92019000  0.22493000  0.90655000  1.0
  H  H18  1  0.09101000  0.68415000  0.06455000  1.0
  H  H19  1  0.90899000  0.31585000  0.93545000  1.0
  H  H20  1  0.81673000  0.43727000  0.72572000  1.0
  H  H21  1  0.18327000  0.56273000  0.27428000  1.0
  H  H22  1  0.76901000  0.35590000  0.89133000  1.0
  H  H23  1  0.23099000  0.64410000  0.10867000  1.0
  H  H24  1  0.41959000  0.29870000  0.91962000  1.0
  H  H25  1  0.58041000  0.70130000  0.08038000  1.0
  H  H26  1  0.48091000  0.38185000  0.75742000  1.0
  H  H27  1  0.51910000  0.61814000  0.24258000  1.0
  H  H28  1  0.56355000  0.07211000  0.29250000  1.0
  H  H29  1  0.43645000  0.92789000  0.70749000  1.0
  H  H30  1  0.44353000  0.98959000  0.45699000  1.0
  H  H31  1  0.55647000  0.01041000  0.54301000  1.0
  H  H32  1  0.15180000  0.08507000  0.42458000  1.0
  H  H33  1  0.84820000  0.91493000  0.57542000  1.0
  H  H34  1  0.25890000  0.17293000  0.25836000  1.0
  H  H35  1  0.74110000  0.82707000  0.74164000  1.0
  H  H36  1  0.58816000  0.49891000  0.47206000  1.0
  H  H37  1  0.41184000  0.50109000  0.52795000  1.0
  H  H38  1  0.63378000  0.58049000  0.30760000  1.0
  H  H39  1  0.36622000  0.41950000  0.69241000  1.0
  H  H40  1  0.98159000  0.64549000  0.27595000  1.0
  H  H41  1  0.01841000  0.35451000  0.72405000  1.0
  H  H42  1  0.92132000  0.56017000  0.44237000  1.0
  H  H43  1  0.07869000  0.43983000  0.55762000  1.0
  H  H44  1  0.83536000  0.85261000  0.90292000  1.0
  H  H45  1  0.16464000  0.14739000  0.09708000  1.0
  H  H46  1  0.95286000  0.93614000  0.73891000  1.0
  H  H47  1  0.04714000  0.06386000  0.26109000  1.0
  H  H48  1  0.25232000  0.86936000  0.77812000  1.0
  H  H49  1  0.74768000  0.13063000  0.22189000  1.0
  H  H50  1  0.15145000  0.78487000  0.93893000  1.0
  H  H51  1  0.84855000  0.21512000  0.06107000  1.0
  C  C52  1  0.73012000  0.40535000  0.77175000  1.0
  C  C53  1  0.26988000  0.59465000  0.22825000  1.0
  C  C54  1  0.70285000  0.35965000  0.86403000  1.0
  C  C55  1  0.29714000  0.64035000  0.13597000  1.0
  C  C56  1  0.59061000  0.31704000  0.92261000  1.0
  C  C57  1  0.40939000  0.68295000  0.07738000  1.0
  C  C58  1  0.50927000  0.32733000  0.88236000  1.0
  C  C59  1  0.49073000  0.67267000  0.11764000  1.0
  C  C60  1  0.54322000  0.37523000  0.78881000  1.0
  C  C61  1  0.45678000  0.62477000  0.21119000  1.0
  C  C62  1  0.57156000  0.26490000  0.01772000  1.0
  C  C63  1  0.42844000  0.73510000  0.98227000  1.0
  C  C64  1  0.49755000  0.18269000  0.16590000  1.0
  C  C65  1  0.50245000  0.81732000  0.83410000  1.0
  C  C66  1  0.42196000  0.13096000  0.26078000  1.0
  C  C67  1  0.57804000  0.86904000  0.73921000  1.0
  C  C68  1  0.47283000  0.07739000  0.31863000  1.0
  C  C69  1  0.52717000  0.92261000  0.68137000  1.0
  C  C70  1  0.40625000  0.03122000  0.41057000  1.0
  C  C71  1  0.59375000  0.96879000  0.58943000  1.0
  C  C72  1  0.24342000  0.08426000  0.39232000  1.0
  C  C73  1  0.75659000  0.91574000  0.60767000  1.0
  C  C74  1  0.30377000  0.13336000  0.29925000  1.0
  C  C75  1  0.69623000  0.86664000  0.70075000  1.0
  C  C76  1  0.67402000  0.53264000  0.42647000  1.0
  C  C77  1  0.32598000  0.46736000  0.57353000  1.0
  C  C78  1  0.70042000  0.57829000  0.33419000  1.0
  C  C79  1  0.29958000  0.42171000  0.66582000  1.0
  C  C80  1  0.81202000  0.62206000  0.27610000  1.0
  C  C81  1  0.18797000  0.37794000  0.72390000  1.0
  C  C82  1  0.89332000  0.61418000  0.31625000  1.0
  C  C83  1  0.10668000  0.38581000  0.68375000  1.0
  C  C84  1  0.86005000  0.56636000  0.40981000  1.0
  C  C85  1  0.13995000  0.43364000  0.59019000  1.0
  C  C86  1  0.83145000  0.67352000  0.18048000  1.0
  C  C87  1  0.16854000  0.32647000  0.81952000  1.0
  C  C88  1  0.90461000  0.75601000  0.03221000  1.0
  C  C89  1  0.09539000  0.24399000  0.96779000  1.0
  C  C90  1  0.97997000  0.80869000  0.93820000  1.0
  C  C91  1  0.02003000  0.19131000  0.06180000  1.0
  C  C92  1  0.92764000  0.85467000  0.87787000  1.0
  C  C93  1  0.07236000  0.14533000  0.12213000  1.0
  C  C94  1  0.99225000  0.90151000  0.78643000  1.0
  C  C95  1  0.00775000  0.09849000  0.21357000  1.0
  C  C96  1  0.15984000  0.86533000  0.80752000  1.0
  C  C97  1  0.84016000  0.13467000  0.19248000  1.0
  C  C98  1  0.10004000  0.81649000  0.90034000  1.0
  C  C99  1  0.89995000  0.18351000  0.09966000  1.0
  C  C100  1  0.55213000  0.31608000  0.60217000  1.0
  C  C101  1  0.44787000  0.68393000  0.39783000  1.0
  C  C102  1  0.87571000  0.33718000  0.59163000  1.0
  C  C103  1  0.12429000  0.66282000  0.40837000  1.0
  C  C104  1  0.84618000  0.62010000  0.60521000  1.0
  C  C105  1  0.15382000  0.37990000  0.39479000  1.0
  C  C106  1  0.52558000  0.60203000  0.61372000  1.0
  C  C107  1  0.47443000  0.39797000  0.38628000  1.0
  C  C108  1  0.34760000  0.81487000  0.61079000  1.0
  C  C109  1  0.65241000  0.18513000  0.38920000  1.0
  C  C110  1  0.02928000  0.83135000  0.60162000  1.0
  C  C111  1  0.97072000  0.16865000  0.39839000  1.0
  C  C112  1  0.04507000  0.11916000  0.60886000  1.0
  C  C113  1  0.95493000  0.88084000  0.39114000  1.0
  C  C114  1  0.35914000  0.10166000  0.62007000  1.0
  C  C115  1  0.64086000  0.89835000  0.37993000  1.0
  N  N116  1  0.65192000  0.41275000  0.73303000  1.0
  N  N117  1  0.34808000  0.58725000  0.26697000  1.0
  N  N118  1  0.65649000  0.24806000  0.04754000  1.0
  N  N119  1  0.34351000  0.75194000  0.95246000  1.0
  N  N120  1  0.61073000  0.19751000  0.13891000  1.0
  N  N121  1  0.38927000  0.80249000  0.86109000  1.0
  N  N122  1  0.46932000  0.22424000  0.09103000  1.0
  N  N123  1  0.53068000  0.77577000  0.90897000  1.0
  N  N124  1  0.35807000  0.21981000  0.09240000  1.0
  N  N125  1  0.64193000  0.78019000  0.90760000  1.0
  N  N126  1  0.29383000  0.03505000  0.44676000  1.0
  N  N127  1  0.70617000  0.96495000  0.55324000  1.0
  N  N128  1  0.75164000  0.52710000  0.46526000  1.0
  N  N129  1  0.24836000  0.47290000  0.53474000  1.0
  N  N130  1  0.74632000  0.68904000  0.15079000  1.0
  N  N131  1  0.25368000  0.31096000  0.84921000  1.0
  N  N132  1  0.79125000  0.73970000  0.05950000  1.0
  N  N133  1  0.20875000  0.26030000  0.94050000  1.0
  N  N134  1  0.93311000  0.71469000  0.10718000  1.0
  N  N135  1  0.06688000  0.28531000  0.89282000  1.0
  N  N136  1  0.04158000  0.71066000  0.11142000  1.0
  N  N137  1  0.95841000  0.28934000  0.88858000  1.0
  N  N138  1  0.10807000  0.90662000  0.74992000  1.0
  N  N139  1  0.89193000  0.09337000  0.25009000  1.0
  N  N140  1  0.60639000  0.37732000  0.60040000  1.0
  N  N141  1  0.39362000  0.62268000  0.39960000  1.0
  N  N142  1  0.81684000  0.39447000  0.58829000  1.0
  N  N143  1  0.18317000  0.60554000  0.41171000  1.0
  N  N144  1  0.79492000  0.56122000  0.60073000  1.0
  N  N145  1  0.20508000  0.43878000  0.39927000  1.0
  N  N146  1  0.58524000  0.54531000  0.61216000  1.0
  N  N147  1  0.41476000  0.45469000  0.38784000  1.0
  N  N148  1  0.29136000  0.87374000  0.61344000  1.0
  N  N149  1  0.70865000  0.12627000  0.38656000  1.0
  N  N150  1  0.08980000  0.88784000  0.60114000  1.0
  N  N151  1  0.91020000  0.11216000  0.39887000  1.0
  N  N152  1  0.09778000  0.05792000  0.61015000  1.0
  N  N153  1  0.90223000  0.94208000  0.38985000  1.0
  N  N154  1  0.29806000  0.04357000  0.62349000  1.0
  N  N155  1  0.70194000  0.95644000  0.37651000  1.0
