# generated using pymatgen
data_FeH40C34S2(N7O)2
_symmetry_space_group_name_H-M   'P 1'
_cell_length_a   9.18879000
_cell_length_b   9.24198000
_cell_length_c   10.40200000
_cell_angle_alpha   91.53870000
_cell_angle_beta   95.16920000
_cell_angle_gamma   90.70260000
_symmetry_Int_Tables_number   1
_chemical_formula_structural   FeH40C34S2(N7O)2
_chemical_formula_sum   'Fe1 H40 C34 S2 N14 O2'
_cell_volume   879.35949145
_cell_formula_units_Z   1
loop_
 _symmetry_equiv_pos_site_id
 _symmetry_equiv_pos_as_xyz
  1  'x, y, z'
loop_
 _atom_site_type_symbol
 _atom_site_label
 _atom_site_symmetry_multiplicity
 _atom_site_fract_x
 _atom_site_fract_y
 _atom_site_fract_z
 _atom_site_occupancy
  Fe  Fe0  1  0.00434000  0.50817000  0.98736000  1.0
  H  H1  1  0.13404000  0.80103000  0.14299000  1.0
  H  H2  1  0.86859000  0.20731000  0.84227000  1.0
  H  H3  1  0.20552000  0.99876000  0.27207000  1.0
  H  H4  1  0.79278000  0.00002000  0.72999000  1.0
  H  H5  1  0.16181000  0.05967000  0.42382000  1.0
  H  H6  1  0.83427000  0.93546000  0.57857000  1.0
  H  H7  1  0.08519000  0.89382000  0.35667000  1.0
  H  H8  1  0.91228000  0.10218000  0.64204000  1.0
  H  H9  1  0.35880000  0.44357000  0.00370000  1.0
  H  H10  1  0.64735000  0.56245000  0.98961000  1.0
  H  H11  1  0.38102000  0.96825000  0.19376000  1.0
  H  H12  1  0.61853000  0.03359000  0.80958000  1.0
  H  H13  1  0.54678000  0.87462000  0.19342000  1.0
  H  H14  1  0.45410000  0.12939000  0.81038000  1.0
  H  H15  1  0.08867000  0.81478000  0.88013000  1.0
  H  H16  1  0.91498000  0.19083000  0.12357000  1.0
  H  H17  1  0.01699000  0.41818000  0.67145000  1.0
  H  H18  1  0.98696000  0.57483000  0.34897000  1.0
  H  H19  1  0.38780000  0.64634000  0.79013000  1.0
  H  H20  1  0.61155000  0.35208000  0.21272000  1.0
  H  H21  1  0.37994000  0.83420000  0.82735000  1.0
  H  H22  1  0.61910000  0.16485000  0.17366000  1.0
  H  H23  1  0.55108000  0.75012000  0.81645000  1.0
  H  H24  1  0.44787000  0.24909000  0.18409000  1.0
  H  H25  1  0.20051000  0.95110000  0.71891000  1.0
  H  H26  1  0.79454000  0.04674000  0.27905000  1.0
  H  H27  1  0.09203000  0.92824000  0.57006000  1.0
  H  H28  1  0.90224000  0.06150000  0.42881000  1.0
  H  H29  1  0.67722000  0.49141000  0.52394000  1.0
  H  H30  1  0.32088000  0.50977000  0.47288000  1.0
  H  H31  1  0.56435000  0.49286000  0.65631000  1.0
  H  H32  1  0.43702000  0.50353000  0.34287000  1.0
  H  H33  1  0.75935000  0.49529000  0.68636000  1.0
  H  H34  1  0.24253000  0.50266000  0.30888000  1.0
  H  H35  1  0.77827000  0.70494000  0.43591000  1.0
  H  H36  1  0.22053000  0.29542000  0.56583000  1.0
  H  H37  1  0.72858000  0.82385000  0.30776000  1.0
  H  H38  1  0.26943000  0.17578000  0.69373000  1.0
  H  H39  1  0.66425000  0.64441000  0.29694000  1.0
  H  H40  1  0.33542000  0.35470000  0.70467000  1.0
  C  C41  1  0.15582000  0.21576000  0.95648000  1.0
  C  C42  1  0.84508000  0.79307000  0.03278000  1.0
  C  C43  1  0.21841000  0.72609000  0.12104000  1.0
  C  C44  1  0.78477000  0.28095000  0.86807000  1.0
  C  C45  1  0.43277000  0.78402000  0.63233000  1.0
  C  C46  1  0.56465000  0.21265000  0.36860000  1.0
  C  C47  1  0.18536000  0.96150000  0.36792000  1.0
  C  C48  1  0.81182000  0.03489000  0.63313000  1.0
  C  C49  1  0.33514000  0.54551000  0.05088000  1.0
  C  C50  1  0.66982000  0.46015000  0.94253000  1.0
  C  C51  1  0.43629000  0.86903000  0.22488000  1.0
  C  C52  1  0.56381000  0.13260000  0.77707000  1.0
  C  C53  1  0.55375000  0.75047000  0.56428000  1.0
  C  C54  1  0.44404000  0.24735000  0.43678000  1.0
  C  C55  1  0.31304000  0.88217000  0.43373000  1.0
  C  C56  1  0.68393000  0.11379000  0.56710000  1.0
  C  C57  1  0.07967000  0.72944000  0.80597000  1.0
  C  C58  1  0.92308000  0.27230000  0.20123000  1.0
  C  C59  1  0.43581000  0.84553000  0.36816000  1.0
  C  C60  1  0.56208000  0.15244000  0.63308000  1.0
  C  C61  1  0.31122000  0.84730000  0.56480000  1.0
  C  C62  1  0.68529000  0.14746000  0.43578000  1.0
  C  C63  1  0.55743000  0.77876000  0.43285000  1.0
  C  C64  1  0.44056000  0.21938000  0.56833000  1.0
  C  C65  1  0.04539000  0.52994000  0.69739000  1.0
  C  C66  1  0.95726000  0.46473000  0.31769000  1.0
  C  C67  1  0.43777000  0.75241000  0.77376000  1.0
  C  C68  1  0.56084000  0.24594000  0.22757000  1.0
  C  C69  1  0.17669000  0.87793000  0.63393000  1.0
  C  C70  1  0.81936000  0.11607000  0.36631000  1.0
  C  C71  1  0.66717000  0.53280000  0.62283000  1.0
  C  C72  1  0.33278000  0.46576000  0.37508000  1.0
  C  C73  1  0.68926000  0.73608000  0.36537000  1.0
  C  C74  1  0.30937000  0.26332000  0.63615000  1.0
  S  S75  1  0.23576000  0.05965000  0.96369000  1.0
  S  S76  1  0.75922000  0.94580000  0.03498000  1.0
  N  N77  1  0.19711000  0.59747000  0.05859000  1.0
  N  N78  1  0.80744000  0.41131000  0.92702000  1.0
  N  N79  1  0.36260000  0.74871000  0.14912000  1.0
  N  N80  1  0.64014000  0.25445000  0.84896000  1.0
  N  N81  1  0.03756000  0.59104000  0.81822000  1.0
  N  N82  1  0.96805000  0.40961000  0.19604000  1.0
  N  N83  1  0.11323000  0.74740000  0.68466000  1.0
  N  N84  1  0.88577000  0.24768000  0.32088000  1.0
  N  N85  1  0.43864000  0.63465000  0.10566000  1.0
  N  N86  1  0.56526000  0.36767000  0.89548000  1.0
  N  N87  1  0.09854000  0.33020000  0.95323000  1.0
  N  N88  1  0.90659000  0.68095000  0.03007000  1.0
  N  N89  1  0.09106000  0.62226000  0.61329000  1.0
  N  N90  1  0.90784000  0.36918000  0.39753000  1.0
  O  O91  1  0.67430000  0.68851000  0.63039000  1.0
  O  O92  1  0.32386000  0.31003000  0.37073000  1.0
