# generated using pymatgen
data_ZnH28C30NO6
_symmetry_space_group_name_H-M   'P 1'
_cell_length_a   14.45470000
_cell_length_b   18.25300000
_cell_length_c   19.57550000
_cell_angle_alpha   90.00200000
_cell_angle_beta   89.92680000
_cell_angle_gamma   89.99830000
_symmetry_Int_Tables_number   1
_chemical_formula_structural   ZnH28C30NO6
_chemical_formula_sum   'Zn2 H56 C60 N2 O12'
_cell_volume   5164.82778572
_cell_formula_units_Z   2
loop_
 _symmetry_equiv_pos_site_id
 _symmetry_equiv_pos_as_xyz
  1  'x, y, z'
loop_
 _atom_site_type_symbol
 _atom_site_label
 _atom_site_symmetry_multiplicity
 _atom_site_fract_x
 _atom_site_fract_y
 _atom_site_fract_z
 _atom_site_occupancy
  Zn  Zn0  1  0.50001000  0.42273000  0.50000000  1.0
  Zn  Zn1  1  0.50001000  0.57690000  0.49999000  1.0
  H  H2  1  0.61721000  0.57499000  0.84182000  1.0
  H  H3  1  0.40943000  0.82893000  0.41204000  1.0
  H  H4  1  0.40632000  0.17029000  0.41388000  1.0
  H  H5  1  0.59057000  0.82893000  0.58797000  1.0
  H  H6  1  0.48985000  0.06710000  0.39011000  1.0
  H  H7  1  0.50999000  0.93230000  0.60988000  1.0
  H  H8  1  0.51016000  0.06711000  0.60989000  1.0
  H  H9  1  0.49001000  0.93229000  0.39013000  1.0
  H  H10  1  0.72391000  0.58353000  0.63518000  1.0
  H  H11  1  0.69685000  0.49761000  0.67273000  1.0
  H  H12  1  0.79477000  0.62458000  0.74589000  1.0
  H  H13  1  0.61567000  0.42653000  0.15745000  1.0
  H  H14  1  0.77280000  0.53747000  0.78202000  1.0
  H  H15  1  0.87693000  0.47819000  0.69399000  1.0
  H  H16  1  0.93767000  0.54712000  0.73940000  1.0
  H  H17  1  0.89680000  0.56463000  0.65556000  1.0
  H  H18  1  0.72119000  0.41498000  0.36420000  1.0
  H  H19  1  0.69365000  0.50184000  0.32861000  1.0
  H  H20  1  0.79386000  0.37744000  0.25316000  1.0
  H  H21  1  0.76990000  0.46478000  0.21826000  1.0
  H  H22  1  0.87299000  0.52418000  0.30659000  1.0
  H  H23  1  0.93497000  0.45679000  0.26000000  1.0
  H  H24  1  0.38274000  0.57499000  0.15820000  1.0
  H  H25  1  0.89514000  0.43748000  0.34383000  1.0
  H  H26  1  0.27607000  0.58360000  0.36482000  1.0
  H  H27  1  0.30315000  0.49765000  0.32733000  1.0
  H  H28  1  0.20522000  0.62454000  0.25407000  1.0
  H  H29  1  0.22722000  0.53741000  0.21800000  1.0
  H  H30  1  0.12310000  0.47819000  0.30608000  1.0
  H  H31  1  0.06235000  0.54707000  0.26059000  1.0
  H  H32  1  0.10317000  0.56468000  0.34443000  1.0
  H  H33  1  0.27878000  0.41499000  0.63578000  1.0
  H  H34  1  0.30630000  0.50185000  0.67137000  1.0
  H  H35  1  0.38426000  0.42655000  0.84252000  1.0
  H  H36  1  0.20612000  0.37744000  0.74682000  1.0
  H  H37  1  0.23007000  0.46478000  0.78172000  1.0
  H  H38  1  0.12697000  0.52418000  0.69340000  1.0
  H  H39  1  0.06500000  0.45679000  0.73999000  1.0
  H  H40  1  0.10482000  0.43749000  0.65616000  1.0
  H  H41  1  0.56209000  0.32554000  0.95639000  1.0
  H  H42  1  0.44920000  0.33116000  0.92264000  1.0
  H  H43  1  0.54288000  0.36862000  0.87621000  1.0
  H  H44  1  0.56125000  0.67616000  0.04414000  1.0
  H  H45  1  0.44786000  0.67036000  0.07721000  1.0
  H  H46  1  0.58706000  0.30724000  0.58375000  1.0
  H  H47  1  0.54106000  0.63286000  0.12409000  1.0
  H  H48  1  0.43786000  0.32553000  0.04358000  1.0
  H  H49  1  0.55075000  0.33116000  0.07733000  1.0
  H  H50  1  0.45707000  0.36860000  0.12378000  1.0
  H  H51  1  0.43866000  0.67616000  0.95587000  1.0
  H  H52  1  0.55207000  0.67037000  0.92281000  1.0
  H  H53  1  0.45886000  0.63287000  0.87593000  1.0
  H  H54  1  0.41601000  0.69213000  0.41435000  1.0
  H  H55  1  0.41296000  0.30724000  0.41625000  1.0
  H  H56  1  0.58400000  0.69213000  0.58565000  1.0
  H  H57  1  0.59370000  0.17028000  0.58612000  1.0
  C  C58  1  0.49899000  0.49918000  0.36899000  1.0
  C  C59  1  0.45272000  0.72517000  0.45208000  1.0
  C  C60  1  0.45094000  0.27411000  0.45314000  1.0
  C  C61  1  0.54729000  0.72517000  0.54793000  1.0
  C  C62  1  0.55110000  0.19809000  0.54825000  1.0
  C  C63  1  0.45069000  0.80120000  0.45074000  1.0
  C  C64  1  0.44891000  0.19809000  0.45175000  1.0
  C  C65  1  0.54931000  0.80120000  0.54926000  1.0
  C  C66  1  0.50001000  0.15801000  0.50000000  1.0
  C  C67  1  0.50000000  0.84130000  0.50000000  1.0
  C  C68  1  0.49285000  0.03776000  0.43858000  1.0
  C  C69  1  0.50101000  0.49919000  0.63101000  1.0
  C  C70  1  0.50707000  0.96163000  0.56141000  1.0
  C  C71  1  0.50716000  0.03776000  0.56142000  1.0
  C  C72  1  0.49294000  0.96163000  0.43859000  1.0
  C  C73  1  0.50001000  0.92209000  0.50000000  1.0
  C  C74  1  0.50000000  0.07725000  0.50000000  1.0
  C  C75  1  0.31993000  0.50081000  0.49931000  1.0
  C  C76  1  0.68009000  0.50081000  0.50069000  1.0
  C  C77  1  0.22012000  0.50050000  0.49917000  1.0
  C  C78  1  0.77990000  0.50050000  0.50082000  1.0
  C  C79  1  0.13524000  0.50038000  0.49941000  1.0
  C  C80  1  0.50308000  0.43379000  0.96408000  1.0
  C  C81  1  0.86478000  0.50037000  0.50059000  1.0
  C  C82  1  0.04268000  0.50022000  0.49977000  1.0
  C  C83  1  0.95734000  0.50023000  0.50020000  1.0
  C  C84  1  0.56454000  0.54315000  0.74399000  1.0
  C  C85  1  0.56279000  0.45698000  0.25559000  1.0
  C  C86  1  0.43542000  0.54315000  0.25601000  1.0
  C  C87  1  0.43718000  0.45699000  0.74440000  1.0
  C  C88  1  0.56554000  0.54223000  0.81528000  1.0
  C  C89  1  0.56384000  0.45888000  0.18433000  1.0
  C  C90  1  0.43441000  0.54223000  0.18474000  1.0
  C  C91  1  0.50247000  0.56787000  0.03593000  1.0
  C  C92  1  0.43609000  0.45890000  0.81565000  1.0
  C  C93  1  0.50079000  0.50071000  0.85210000  1.0
  C  C94  1  0.49915000  0.50069000  0.14790000  1.0
  C  C95  1  0.50107000  0.49974000  0.70758000  1.0
  C  C96  1  0.49891000  0.49973000  0.29241000  1.0
  C  C97  1  0.70908000  0.55601000  0.68395000  1.0
  C  C98  1  0.78887000  0.56583000  0.73378000  1.0
  C  C99  1  0.87994000  0.53741000  0.70415000  1.0
  C  C100  1  0.70663000  0.44382000  0.31612000  1.0
  C  C101  1  0.78673000  0.43589000  0.26607000  1.0
  C  C102  1  0.49684000  0.43379000  0.03591000  1.0
  C  C103  1  0.87730000  0.46517000  0.29570000  1.0
  C  C104  1  0.29091000  0.55604000  0.31608000  1.0
  C  C105  1  0.21113000  0.56580000  0.26623000  1.0
  C  C106  1  0.12006000  0.53740000  0.29587000  1.0
  C  C107  1  0.29334000  0.44383000  0.68386000  1.0
  C  C108  1  0.21324000  0.43590000  0.73391000  1.0
  C  C109  1  0.12266000  0.46517000  0.70428000  1.0
  C  C110  1  0.51488000  0.36135000  0.92777000  1.0
  C  C111  1  0.51367000  0.64026000  0.07241000  1.0
  C  C112  1  0.48506000  0.36134000  0.07221000  1.0
  C  C113  1  0.49746000  0.56787000  0.96408000  1.0
  C  C114  1  0.48625000  0.64027000  0.92761000  1.0
  C  C115  1  0.49934000  0.50082000  0.07195000  1.0
  C  C116  1  0.50058000  0.50083000  0.92805000  1.0
  C  C117  1  0.54907000  0.27411000  0.54686000  1.0
  N  N118  1  0.50000000  0.31144000  0.50000000  1.0
  N  N119  1  0.50001000  0.68792000  0.50000000  1.0
  O  O120  1  0.47545000  0.43981000  0.39827000  1.0
  O  O121  1  0.62271000  0.41095000  0.28958000  1.0
  O  O122  1  0.37552000  0.58898000  0.29075000  1.0
  O  O123  1  0.37727000  0.41098000  0.71040000  1.0
  O  O124  1  0.47719000  0.55817000  0.60131000  1.0
  O  O125  1  0.52456000  0.43981000  0.60172000  1.0
  O  O126  1  0.52282000  0.55817000  0.39868000  1.0
  O  O127  1  0.35878000  0.44079000  0.51559000  1.0
  O  O128  1  0.64159000  0.56103000  0.51681000  1.0
  O  O129  1  0.64123000  0.44079000  0.48440000  1.0
  O  O130  1  0.35842000  0.56103000  0.48319000  1.0
  O  O131  1  0.62446000  0.58896000  0.70927000  1.0
