# generated using pymatgen
data_Na2H32C23O6
_symmetry_space_group_name_H-M   'P 1'
_cell_length_a   10.59790000
_cell_length_b   11.12940000
_cell_length_c   11.59440000
_cell_angle_alpha   61.87750000
_cell_angle_beta   87.59450000
_cell_angle_gamma   69.34190000
_symmetry_Int_Tables_number   1
_chemical_formula_structural   Na2H32C23O6
_chemical_formula_sum   'Na4 H64 C46 O12'
_cell_volume   1115.66199300
_cell_formula_units_Z   2
loop_
 _symmetry_equiv_pos_site_id
 _symmetry_equiv_pos_as_xyz
  1  'x, y, z'
loop_
 _atom_site_type_symbol
 _atom_site_label
 _atom_site_symmetry_multiplicity
 _atom_site_fract_x
 _atom_site_fract_y
 _atom_site_fract_z
 _atom_site_occupancy
  Na  Na0  1  0.52040000  0.45978000  0.68308000  1.0
  Na  Na1  1  0.47961000  0.54023000  0.31692000  1.0
  Na  Na2  1  0.63247000  0.49572000  0.94838000  1.0
  Na  Na3  1  0.36753000  0.50428000  0.05162000  1.0
  H  H4  1  0.44060000  0.71622000  0.78131000  1.0
  H  H5  1  0.55940000  0.28378000  0.21869000  1.0
  H  H6  1  0.33201000  0.98160000  0.69476000  1.0
  H  H7  1  0.66799000  0.01840000  0.30524000  1.0
  H  H8  1  0.08257000  0.11654000  0.60263000  1.0
  H  H9  1  0.91743000  0.88346000  0.39738000  1.0
  H  H10  1  0.94435000  0.96814000  0.61648000  1.0
  H  H11  1  0.05565000  0.03186000  0.38353000  1.0
  H  H12  1  0.04885000  0.70411000  0.70981000  1.0
  H  H13  1  0.95115000  0.29589000  0.29019000  1.0
  H  H14  1  0.46444000  0.23713000  0.91825000  1.0
  H  H15  1  0.53556000  0.76287000  0.08175000  1.0
  H  H16  1  0.39801000  0.04841000  0.91363000  1.0
  H  H17  1  0.60199000  0.95159000  0.08637000  1.0
  H  H18  1  0.17676000  0.12005000  0.78076000  1.0
  H  H19  1  0.82323000  0.87995000  0.21924000  1.0
  H  H20  1  0.03457000  0.38919000  0.64181000  1.0
  H  H21  1  0.96543000  0.61082000  0.35819000  1.0
  H  H22  1  0.09687000  0.57546000  0.64678000  1.0
  H  H23  1  0.90313000  0.42454000  0.35322000  1.0
  H  H24  1  0.92269000  0.48221000  0.95197000  1.0
  H  H25  1  0.07731000  0.51779000  0.04804000  1.0
  H  H26  1  0.99567000  0.30010000  0.09020000  1.0
  H  H27  1  0.00433000  0.69989000  0.90981000  1.0
  H  H28  1  0.04678000  0.33932000  0.92931000  1.0
  H  H29  1  0.95322000  0.66068000  0.07070000  1.0
  H  H30  1  0.97760000  0.15388000  0.93764000  1.0
  H  H31  1  0.02240000  0.84612000  0.06236000  1.0
  H  H32  1  0.91254000  0.11508000  0.09162000  1.0
  H  H33  1  0.08746000  0.88492000  0.90838000  1.0
  H  H34  1  0.67577000  0.21286000  0.97562000  1.0
  H  H35  1  0.32423000  0.78714000  0.02438000  1.0
  H  H36  1  0.78806000  0.05468000  0.96745000  1.0
  H  H37  1  0.21194000  0.94532000  0.03255000  1.0
  H  H38  1  0.91762000  0.18543000  0.73541000  1.0
  H  H39  1  0.08239000  0.81457000  0.26459000  1.0
  H  H40  1  0.81406000  0.08346000  0.75574000  1.0
  H  H41  1  0.18594000  0.91654000  0.24426000  1.0
  H  H42  1  0.80944000  0.24614000  0.51642000  1.0
  H  H43  1  0.19056000  0.75385000  0.48359000  1.0
  H  H44  1  0.76628000  0.40231000  0.53978000  1.0
  H  H45  1  0.23373000  0.59769000  0.46022000  1.0
  H  H46  1  0.62705000  0.17084000  0.50245000  1.0
  H  H47  1  0.37295000  0.82916000  0.49755000  1.0
  H  H48  1  0.61422000  0.12384000  0.67279000  1.0
  H  H49  1  0.38578000  0.87617000  0.32721000  1.0
  H  H50  1  0.37533000  0.29954000  0.61284000  1.0
  H  H51  1  0.62467000  0.70047000  0.38715000  1.0
  H  H52  1  0.40239000  0.16208000  0.56672000  1.0
  H  H53  1  0.59761000  0.83792000  0.43328000  1.0
  H  H54  1  0.17586000  0.38411000  0.44754000  1.0
  H  H55  1  0.82414000  0.61589000  0.55245000  1.0
  H  H56  1  0.19487000  0.50334000  0.28292000  1.0
  H  H57  1  0.80513000  0.49666000  0.71708000  1.0
  H  H58  1  0.13670000  0.28809000  0.31093000  1.0
  H  H59  1  0.86330000  0.71192000  0.68907000  1.0
  H  H60  1  0.30045000  0.16675000  0.40676000  1.0
  H  H61  1  0.69954000  0.83326000  0.59323000  1.0
  H  H62  1  0.36849000  0.22170000  0.08622000  1.0
  H  H63  1  0.63151000  0.77830000  0.91378000  1.0
  H  H64  1  0.40798000  0.08865000  0.25949000  1.0
  H  H65  1  0.59202000  0.91135000  0.74051000  1.0
  H  H66  1  0.23723000  0.16945000  0.17322000  1.0
  H  H67  1  0.76277000  0.83056000  0.82678000  1.0
  C  C68  1  0.32834000  0.52463000  0.80893000  1.0
  C  C69  1  0.67166000  0.47536000  0.19107000  1.0
  C  C70  1  0.25735000  0.68176000  0.75125000  1.0
  C  C71  1  0.74265000  0.31824000  0.24875000  1.0
  C  C72  1  0.33135000  0.76994000  0.74686000  1.0
  C  C73  1  0.66866000  0.23005000  0.25314000  1.0
  C  C74  1  0.26978000  0.92133000  0.69510000  1.0
  C  C75  1  0.73022000  0.07867000  0.30490000  1.0
  C  C76  1  0.12992000  0.99738000  0.64559000  1.0
  C  C77  1  0.87008000  0.00261000  0.35442000  1.0
  C  C78  1  0.05371000  0.91389000  0.65246000  1.0
  C  C79  1  0.94629000  0.08611000  0.34755000  1.0
  C  C80  1  0.11433000  0.76285000  0.70247000  1.0
  C  C81  1  0.88567000  0.23714000  0.29753000  1.0
  C  C82  1  0.28194000  0.42493000  0.79435000  1.0
  C  C83  1  0.71806000  0.57507000  0.20566000  1.0
  C  C84  1  0.36746000  0.26975000  0.86158000  1.0
  C  C85  1  0.63254000  0.73025000  0.13842000  1.0
  C  C86  1  0.32926000  0.16403000  0.85828000  1.0
  C  C87  1  0.67074000  0.83597000  0.14172000  1.0
  C  C88  1  0.20623000  0.20278000  0.78406000  1.0
  C  C89  1  0.79376000  0.79722000  0.21595000  1.0
  C  C90  1  0.12682000  0.35401000  0.70723000  1.0
  C  C91  1  0.87317000  0.64599000  0.29277000  1.0
  C  C92  1  0.16194000  0.46110000  0.71117000  1.0
  C  C93  1  0.83806000  0.53890000  0.28883000  1.0
  C  C94  1  0.96177000  0.36476000  0.98258000  1.0
  C  C95  1  0.03823000  0.63524000  0.01742000  1.0
  C  C96  1  0.88693000  0.18662000  0.98306000  1.0
  C  C97  1  0.11307000  0.81338000  0.01694000  1.0
  C  C98  1  0.76594000  0.17168000  0.93443000  1.0
  C  C99  1  0.23406000  0.82831000  0.06557000  1.0
  C  C100  1  0.81122000  0.19569000  0.72089000  1.0
  C  C101  1  0.18878000  0.80431000  0.27910000  1.0
  C  C102  1  0.75430000  0.29711000  0.57485000  1.0
  C  C103  1  0.24570000  0.70289000  0.42515000  1.0
  C  C104  1  0.57745000  0.21209000  0.56935000  1.0
  C  C105  1  0.42255000  0.78791000  0.43064000  1.0
  C  C106  1  0.42508000  0.25934000  0.54545000  1.0
  C  C107  1  0.57492000  0.74067000  0.45455000  1.0
  C  C108  1  0.23899000  0.39191000  0.36808000  1.0
  C  C109  1  0.76101000  0.60809000  0.63191000  1.0
  C  C110  1  0.24185000  0.28021000  0.32773000  1.0
  C  C111  1  0.75814000  0.71979000  0.67227000  1.0
  C  C112  1  0.33023000  0.19003000  0.18120000  1.0
  C  C113  1  0.66977000  0.80998000  0.81880000  1.0
  O  O114  1  0.45733000  0.46571000  0.87755000  1.0
  O  O115  1  0.54267000  0.53429000  0.12245000  1.0
  O  O116  1  0.85014000  0.33715000  0.94915000  1.0
  O  O117  1  0.14986000  0.66285000  0.05085000  1.0
  O  O118  1  0.72698000  0.25808000  0.79348000  1.0
  O  O119  1  0.27302000  0.74192000  0.20652000  1.0
  O  O120  1  0.60970000  0.33594000  0.54727000  1.0
  O  O121  1  0.39030000  0.66406000  0.45273000  1.0
  O  O122  1  0.37337000  0.37238000  0.41075000  1.0
  O  O123  1  0.62663000  0.62763000  0.58925000  1.0
  O  O124  1  0.30135000  0.30810000  0.20919000  1.0
  O  O125  1  0.69865000  0.69191000  0.79081000  1.0
