# generated using pymatgen
data_ZnH15C26N5O4
_symmetry_space_group_name_H-M   'P 1'
_cell_length_a   8.28141000
_cell_length_b   10.05540000
_cell_length_c   13.34350000
_cell_angle_alpha   92.12080000
_cell_angle_beta   104.20600000
_cell_angle_gamma   102.90100000
_symmetry_Int_Tables_number   1
_chemical_formula_structural   ZnH15C26N5O4
_chemical_formula_sum   'Zn2 H30 C52 N10 O8'
_cell_volume   1045.01537290
_cell_formula_units_Z   2
loop_
 _symmetry_equiv_pos_site_id
 _symmetry_equiv_pos_as_xyz
  1  'x, y, z'
loop_
 _atom_site_type_symbol
 _atom_site_label
 _atom_site_symmetry_multiplicity
 _atom_site_fract_x
 _atom_site_fract_y
 _atom_site_fract_z
 _atom_site_occupancy
  Zn  Zn0  1  0.94959000  0.41253000  0.72331000  1.0
  Zn  Zn1  1  0.05040000  0.58747000  0.27668000  1.0
  H  H2  1  0.85867000  0.19572000  0.86885000  1.0
  H  H3  1  0.14133000  0.80427000  0.13115000  1.0
  H  H4  1  0.73911000  0.18136000  0.02739000  1.0
  H  H5  1  0.26089000  0.81863000  0.97262000  1.0
  H  H6  1  0.66998000  0.39060000  0.09899000  1.0
  H  H7  1  0.33002000  0.60939000  0.90101000  1.0
  H  H8  1  0.84040000  0.97327000  0.84319000  1.0
  H  H9  1  0.15960000  0.02672000  0.15681000  1.0
  H  H10  1  0.94480000  0.94558000  0.68681000  1.0
  H  H11  1  0.05520000  0.05442000  0.31319000  1.0
  H  H12  1  0.99674000  0.71817000  0.63638000  1.0
  H  H13  1  0.00326000  0.28182000  0.36362000  1.0
  H  H14  1  0.51899000  0.99293000  0.10092000  1.0
  H  H15  1  0.48102000  0.00706000  0.89908000  1.0
  H  H16  1  0.48885000  0.14637000  0.24208000  1.0
  H  H17  1  0.51116000  0.85363000  0.75792000  1.0
  H  H18  1  0.62799000  0.12142000  0.42677000  1.0
  H  H19  1  0.37201000  0.87859000  0.57323000  1.0
  H  H20  1  0.81740000  0.96003000  0.46608000  1.0
  H  H21  1  0.18260000  0.03997000  0.53392000  1.0
  H  H22  1  0.91087000  0.42759000  0.50765000  1.0
  H  H23  1  0.08913000  0.57241000  0.49235000  1.0
  H  H24  1  0.37955000  0.33859000  0.34290000  1.0
  H  H25  1  0.62045000  0.66141000  0.65710000  1.0
  H  H26  1  0.30627000  0.28217000  0.51381000  1.0
  H  H27  1  0.69373000  0.71783000  0.48619000  1.0
  H  H28  1  0.54852000  0.30930000  0.67298000  1.0
  H  H29  1  0.45149000  0.69069000  0.32701000  1.0
  H  H30  1  0.78300000  0.96536000  0.02556000  1.0
  H  H31  1  0.21700000  0.03463000  0.97444000  1.0
  C  C32  1  0.82423000  0.28264000  0.90238000  1.0
  C  C33  1  0.17576000  0.71736000  0.09762000  1.0
  C  C34  1  0.75806000  0.27609000  0.98978000  1.0
  C  C35  1  0.24194000  0.72390000  0.01022000  1.0
  C  C36  1  0.71932000  0.39084000  0.02965000  1.0
  C  C37  1  0.28068000  0.60916000  0.97035000  1.0
  C  C38  1  0.74897000  0.51235000  0.98064000  1.0
  C  C39  1  0.25103000  0.48765000  0.01936000  1.0
  C  C40  1  0.72783000  0.64076000  0.01876000  1.0
  C  C41  1  0.27217000  0.35924000  0.98124000  1.0
  C  C42  1  0.76887000  0.75942000  0.96899000  1.0
  C  C43  1  0.23113000  0.24058000  0.03102000  1.0
  C  C44  1  0.82647000  0.76122000  0.87709000  1.0
  C  C45  1  0.17353000  0.23878000  0.12291000  1.0
  C  C46  1  0.86210000  0.87483000  0.82034000  1.0
  C  C47  1  0.13790000  0.12516000  0.17966000  1.0
  C  C48  1  0.92073000  0.86008000  0.73291000  1.0
  C  C49  1  0.07927000  0.13992000  0.26709000  1.0
  C  C50  1  0.94823000  0.73292000  0.70391000  1.0
  C  C51  1  0.05177000  0.26707000  0.29609000  1.0
  C  C52  1  0.85171000  0.63459000  0.83974000  1.0
  C  C53  1  0.14829000  0.36541000  0.16026000  1.0
  C  C54  1  0.81536000  0.51138000  0.89215000  1.0
  C  C55  1  0.18463000  0.48861000  0.10785000  1.0
  C  C56  1  0.70406000  0.80581000  0.11701000  1.0
  C  C57  1  0.29595000  0.19419000  0.88299000  1.0
  C  C58  1  0.68731000  0.89144000  0.20352000  1.0
  C  C59  1  0.31270000  0.10856000  0.79648000  1.0
  C  C60  1  0.58486000  0.98633000  0.18158000  1.0
  C  C61  1  0.41514000  0.01367000  0.81842000  1.0
  C  C62  1  0.56382000  0.07007000  0.26071000  1.0
  C  C63  1  0.43619000  0.92993000  0.73929000  1.0
  C  C64  1  0.64393000  0.05779000  0.36383000  1.0
  C  C65  1  0.35607000  0.94222000  0.63617000  1.0
  C  C66  1  0.74857000  0.96624000  0.38626000  1.0
  C  C67  1  0.25143000  0.03376000  0.61374000  1.0
  C  C68  1  0.77441000  0.88340000  0.30773000  1.0
  C  C69  1  0.22559000  0.11661000  0.69227000  1.0
  C  C70  1  0.90499000  0.79786000  0.34064000  1.0
  C  C71  1  0.09502000  0.20215000  0.65936000  1.0
  C  C72  1  0.77548000  0.39959000  0.50520000  1.0
  C  C73  1  0.22452000  0.60041000  0.49479000  1.0
  C  C74  1  0.64943000  0.39045000  0.41271000  1.0
  C  C75  1  0.35057000  0.60956000  0.58728000  1.0
  C  C76  1  0.47832000  0.34649000  0.41500000  1.0
  C  C77  1  0.52168000  0.65352000  0.58500000  1.0
  C  C78  1  0.43848000  0.31501000  0.50825000  1.0
  C  C79  1  0.56152000  0.68499000  0.49174000  1.0
  C  C80  1  0.57279000  0.32998000  0.59763000  1.0
  C  C81  1  0.42721000  0.67002000  0.40237000  1.0
  C  C82  1  0.69865000  0.42503000  0.31316000  1.0
  C  C83  1  0.30134000  0.57497000  0.68683000  1.0
  N  N84  1  0.85213000  0.39710000  0.85514000  1.0
  N  N85  1  0.14787000  0.60290000  0.14486000  1.0
  N  N86  1  0.91350000  0.62418000  0.75613000  1.0
  N  N87  1  0.08650000  0.37582000  0.24386000  1.0
  N  N88  1  0.68542000  0.67122000  0.10874000  1.0
  N  N89  1  0.31458000  0.32877000  0.89126000  1.0
  N  N90  1  0.74922000  0.86337000  0.03185000  1.0
  N  N91  1  0.25078000  0.13663000  0.96815000  1.0
  N  N92  1  0.73832000  0.37129000  0.59582000  1.0
  N  N93  1  0.26168000  0.62871000  0.40417000  1.0
  O  O94  1  0.98376000  0.77152000  0.27213000  1.0
  O  O95  1  0.01625000  0.22848000  0.72788000  1.0
  O  O96  1  0.93116000  0.76390000  0.43129000  1.0
  O  O97  1  0.06884000  0.23610000  0.56871000  1.0
  O  O98  1  0.85882000  0.48217000  0.32776000  1.0
  O  O99  1  0.14117000  0.51783000  0.67224000  1.0
  O  O100  1  0.58528000  0.39395000  0.22921000  1.0
  O  O101  1  0.41471000  0.60604000  0.77079000  1.0
