# generated using pymatgen
data_ZnH12C20N6O5
_symmetry_space_group_name_H-M   'P 1'
_cell_length_a   6.78796000
_cell_length_b   7.46889000
_cell_length_c   17.24970000
_cell_angle_alpha   94.12270000
_cell_angle_beta   96.59150000
_cell_angle_gamma   96.64090000
_symmetry_Int_Tables_number   1
_chemical_formula_structural   ZnH12C20N6O5
_chemical_formula_sum   'Zn2 H24 C40 N12 O10'
_cell_volume   859.70419083
_cell_formula_units_Z   2
loop_
 _symmetry_equiv_pos_site_id
 _symmetry_equiv_pos_as_xyz
  1  'x, y, z'
loop_
 _atom_site_type_symbol
 _atom_site_label
 _atom_site_symmetry_multiplicity
 _atom_site_fract_x
 _atom_site_fract_y
 _atom_site_fract_z
 _atom_site_occupancy
  Zn  Zn0  1  0.53850000  0.43614000  0.66399000  1.0
  Zn  Zn1  1  0.46150000  0.56386000  0.33601000  1.0
  H  H2  1  0.08967000  0.27819000  0.69139000  1.0
  H  H3  1  0.91033000  0.72182000  0.30861000  1.0
  H  H4  1  0.89179000  0.27292000  0.80264000  1.0
  H  H5  1  0.10821000  0.72708000  0.19736000  1.0
  H  H6  1  0.03456000  0.45672000  0.93059000  1.0
  H  H7  1  0.96544000  0.54328000  0.06941000  1.0
  H  H8  1  0.32307000  0.77965000  0.13459000  1.0
  H  H9  1  0.67693000  0.22034000  0.86541000  1.0
  H  H10  1  0.64767000  0.96142000  0.13427000  1.0
  H  H11  1  0.35234000  0.03857000  0.86574000  1.0
  H  H12  1  0.94982000  0.95755000  0.93101000  1.0
  H  H13  1  0.05018000  0.04244000  0.06900000  1.0
  H  H14  1  0.10078000  0.93583000  0.80343000  1.0
  H  H15  1  0.89922000  0.06417000  0.19657000  1.0
  H  H16  1  0.94163000  0.71149000  0.69670000  1.0
  H  H17  1  0.05836000  0.28851000  0.30330000  1.0
  H  H18  1  0.28055000  0.36517000  0.49332000  1.0
  H  H19  1  0.71945000  0.63484000  0.50668000  1.0
  H  H20  1  0.17235000  0.07916000  0.40280000  1.0
  H  H21  1  0.82765000  0.92085000  0.59720000  1.0
  H  H22  1  0.78765000  0.29370000  0.56811000  1.0
  H  H23  1  0.21235000  0.70631000  0.43189000  1.0
  H  H24  1  0.91028000  0.48718000  0.60095000  1.0
  H  H25  1  0.08971000  0.51282000  0.39905000  1.0
  C  C26  1  0.14991000  0.35336000  0.74721000  1.0
  C  C27  1  0.85008000  0.64664000  0.25279000  1.0
  C  C28  1  0.03879000  0.35195000  0.81075000  1.0
  C  C29  1  0.96121000  0.64806000  0.18925000  1.0
  C  C30  1  0.11730000  0.45361000  0.88004000  1.0
  C  C31  1  0.88269000  0.54639000  0.11996000  1.0
  C  C32  1  0.30760000  0.55448000  0.88468000  1.0
  C  C33  1  0.69240000  0.44552000  0.11532000  1.0
  C  C34  1  0.40205000  0.66539000  0.95473000  1.0
  C  C35  1  0.59795000  0.33461000  0.04527000  1.0
  C  C36  1  0.39509000  0.77415000  0.08130000  1.0
  C  C37  1  0.60491000  0.22584000  0.91870000  1.0
  C  C38  1  0.58323000  0.87532000  0.08161000  1.0
  C  C39  1  0.41678000  0.12466000  0.91839000  1.0
  C  C40  1  0.59393000  0.76503000  0.95549000  1.0
  C  C41  1  0.40607000  0.23496000  0.04451000  1.0
  C  C42  1  0.69649000  0.75835000  0.88600000  1.0
  C  C43  1  0.30351000  0.24164000  0.11400000  1.0
  C  C44  1  0.87831000  0.86615000  0.88100000  1.0
  C  C45  1  0.12169000  0.13383000  0.11900000  1.0
  C  C46  1  0.96254000  0.85439000  0.81168000  1.0
  C  C47  1  0.03746000  0.14561000  0.18833000  1.0
  C  C48  1  0.87094000  0.72957000  0.74996000  1.0
  C  C49  1  0.12906000  0.27043000  0.25004000  1.0
  C  C50  1  0.60787000  0.64467000  0.81924000  1.0
  C  C51  1  0.39213000  0.35533000  0.18076000  1.0
  C  C52  1  0.41058000  0.54486000  0.81814000  1.0
  C  C53  1  0.58942000  0.45514000  0.18187000  1.0
  C  C54  1  0.28545000  0.23117000  0.51387000  1.0
  C  C55  1  0.71455000  0.76884000  0.48613000  1.0
  C  C56  1  0.22298000  0.07316000  0.46475000  1.0
  C  C57  1  0.77703000  0.92685000  0.53525000  1.0
  C  C58  1  0.29142000  0.89894000  0.56745000  1.0
  C  C59  1  0.70858000  0.10106000  0.43255000  1.0
  C  C60  1  0.36711000  0.05631000  0.61599000  1.0
  C  C61  1  0.63289000  0.94370000  0.38400000  1.0
  C  C62  1  0.46231000  0.05617000  0.70030000  1.0
  C  C63  1  0.53769000  0.94383000  0.29970000  1.0
  C  C64  1  0.28428000  0.71032000  0.59510000  1.0
  C  C65  1  0.71572000  0.28968000  0.40490000  1.0
  N  N66  1  0.33061000  0.44637000  0.75092000  1.0
  N  N67  1  0.66939000  0.55364000  0.24908000  1.0
  N  N68  1  0.69893000  0.62651000  0.75386000  1.0
  N  N69  1  0.30107000  0.37349000  0.24614000  1.0
  N  N70  1  0.30404000  0.67019000  0.01876000  1.0
  N  N71  1  0.69596000  0.32981000  0.98124000  1.0
  N  N72  1  0.68340000  0.87055000  0.01990000  1.0
  N  N73  1  0.31661000  0.12944000  0.98011000  1.0
  N  N74  1  0.36336000  0.21969000  0.58791000  1.0
  N  N75  1  0.63665000  0.78031000  0.41209000  1.0
  N  N76  1  0.22691000  0.90938000  0.49109000  1.0
  N  N77  1  0.77310000  0.09063000  0.50890000  1.0
  O  O78  1  0.60057000  0.18730000  0.72294000  1.0
  O  O79  1  0.39943000  0.81270000  0.27706000  1.0
  O  O80  1  0.39569000  0.93245000  0.73910000  1.0
  O  O81  1  0.60431000  0.06755000  0.26089000  1.0
  O  O82  1  0.77779000  0.41328000  0.59675000  1.0
  O  O83  1  0.22221000  0.58673000  0.40325000  1.0
  O  O84  1  0.11572000  0.63449000  0.60548000  1.0
  O  O85  1  0.88428000  0.36552000  0.39451000  1.0
  O  O86  1  0.45083000  0.64724000  0.60102000  1.0
  O  O87  1  0.54917000  0.35276000  0.39898000  1.0
