# generated using pymatgen
data_Al2H9C16S2NO10
_symmetry_space_group_name_H-M   'P 1'
_cell_length_a   6.65427000
_cell_length_b   11.05640000
_cell_length_c   12.69588025
_cell_angle_alpha   100.87591378
_cell_angle_beta   104.49009489
_cell_angle_gamma   106.84800000
_symmetry_Int_Tables_number   1
_chemical_formula_structural   Al2H9C16S2NO10
_chemical_formula_sum   'Al2 H9 C16 S2 N1 O10'
_cell_volume   830.43681505
_cell_formula_units_Z   1
loop_
 _symmetry_equiv_pos_site_id
 _symmetry_equiv_pos_as_xyz
  1  'x, y, z'
loop_
 _atom_site_type_symbol
 _atom_site_label
 _atom_site_symmetry_multiplicity
 _atom_site_fract_x
 _atom_site_fract_y
 _atom_site_fract_z
 _atom_site_occupancy
  Al  Al0  1  0.00170000  0.50223000  0.50021000  1.0
  Al  Al1  1  0.49564000  0.49856000  0.49477000  1.0
  H  H2  1  0.37288000  0.60111000  0.63810000  1.0
  H  H3  1  0.63359000  0.33876000  0.40891000  1.0
  H  H4  1  0.59337000  0.86667000  0.44403000  1.0
  H  H5  1  0.39725000  0.12981000  0.54967000  1.0
  H  H6  1  0.71537000  0.10040000  0.43434000  1.0
  H  H7  1  0.27466000  0.89556000  0.55905000  1.0
  H  H8  1  0.17681000  0.43463000  0.83201000  1.0
  H  H9  1  0.62846000  0.57050000  0.12479000  1.0
  H  H10  1  0.78028000  0.55760000  0.25172000  1.0
  C  C11  1  0.85466000  0.51311000  0.69741000  1.0
  C  C12  1  0.85512000  0.72918000  0.50710000  1.0
  C  C13  1  0.13770000  0.48596000  0.29892000  1.0
  C  C14  1  0.13651000  0.26764000  0.48609000  1.0
  C  C15  1  0.92742000  0.86843000  0.50248000  1.0
  C  C16  1  0.06326000  0.12837000  0.49105000  1.0
  C  C17  1  0.76878000  0.92545000  0.46720000  1.0
  C  C18  1  0.22175000  0.07109000  0.52628000  1.0
  C  C19  1  0.83657000  0.05478000  0.46164000  1.0
  C  C20  1  0.15416000  0.94178000  0.53194000  1.0
  C  C21  1  0.90712000  0.52514000  0.12513000  1.0
  C  C22  1  0.06494000  0.46477000  0.87139000  1.0
  C  C23  1  0.07840000  0.48649000  0.18169000  1.0
  C  C24  1  0.90067000  0.50463000  0.81460000  1.0
  C  C25  1  0.06464000  0.46945000  0.98310000  1.0
  C  C26  1  0.90189000  0.51428000  0.01044000  1.0
  S  S27  1  0.22453000  0.43637000  0.09580000  1.0
  S  S28  1  0.74441000  0.54730000  0.89673000  1.0
  N  N29  1  0.77526000  0.57190000  0.17423000  1.0
  O  O30  1  0.99662000  0.49668000  0.64998000  1.0
  O  O31  1  0.64855000  0.66994000  0.48670000  1.0
  O  O32  1  0.31066000  0.45980000  0.34170000  1.0
  O  O33  1  0.98913000  0.32073000  0.46853000  1.0
  O  O34  1  0.00932000  0.51186000  0.35361000  1.0
  O  O35  1  0.34175000  0.32334000  0.49973000  1.0
  O  O36  1  0.67990000  0.53624000  0.65300000  1.0
  O  O37  1  0.00475000  0.67897000  0.53084000  1.0
  O  O38  1  0.30994000  0.56493000  0.55642000  1.0
  O  O39  1  0.69158000  0.43333000  0.44255000  1.0
