# generated using pymatgen
data_KH24C18N3O2
_symmetry_space_group_name_H-M   'P 1'
_cell_length_a   7.51964000
_cell_length_b   10.46560000
_cell_length_c   13.18710000
_cell_angle_alpha   70.95400000
_cell_angle_beta   89.72410000
_cell_angle_gamma   72.26300000
_symmetry_Int_Tables_number   1
_chemical_formula_structural   KH24C18N3O2
_chemical_formula_sum   'K2 H48 C36 N6 O4'
_cell_volume   929.17737858
_cell_formula_units_Z   2
loop_
 _symmetry_equiv_pos_site_id
 _symmetry_equiv_pos_as_xyz
  1  'x, y, z'
loop_
 _atom_site_type_symbol
 _atom_site_label
 _atom_site_symmetry_multiplicity
 _atom_site_fract_x
 _atom_site_fract_y
 _atom_site_fract_z
 _atom_site_occupancy
  K  K0  1  0.78608000  0.97405000  0.52443000  1.0
  K  K1  1  0.21392000  0.02594000  0.47558000  1.0
  H  H2  1  0.96031000  0.40375000  0.61221000  1.0
  H  H3  1  0.03969000  0.59625000  0.38779000  1.0
  H  H4  1  0.06164000  0.41942000  0.78532000  1.0
  H  H5  1  0.93835000  0.58058000  0.21468000  1.0
  H  H6  1  0.11874000  0.97762000  0.94604000  1.0
  H  H7  1  0.88127000  0.02238000  0.05396000  1.0
  H  H8  1  0.01959000  0.96101000  0.77260000  1.0
  H  H9  1  0.98041000  0.03898000  0.22740000  1.0
  H  H10  1  0.58031000  0.48358000  0.42143000  1.0
  H  H11  1  0.41968000  0.51644000  0.57856000  1.0
  H  H12  1  0.38765000  0.68219000  0.26357000  1.0
  H  H13  1  0.61235000  0.31781000  0.73642000  1.0
  H  H14  1  0.68770000  0.47529000  0.05178000  1.0
  H  H15  1  0.31230000  0.52470000  0.94822000  1.0
  H  H16  1  0.87644000  0.27350000  0.21063000  1.0
  H  H17  1  0.12356000  0.72650000  0.78937000  1.0
  H  H18  1  0.16578000  0.31662000  0.97218000  1.0
  H  H19  1  0.83422000  0.68337000  0.02782000  1.0
  H  H20  1  0.28637000  0.12987000  0.02225000  1.0
  H  H21  1  0.71364000  0.87012000  0.97775000  1.0
  H  H22  1  0.04897000  0.19510000  0.04340000  1.0
  H  H23  1  0.95103000  0.80490000  0.95660000  1.0
  H  H24  1  0.44003000  0.70056000  0.97438000  1.0
  H  H25  1  0.55996000  0.29944000  0.02561000  1.0
  H  H26  1  0.42741000  0.81846000  0.04753000  1.0
  H  H27  1  0.57258000  0.18154000  0.95247000  1.0
  H  H28  1  0.25682000  0.73173000  0.05821000  1.0
  H  H29  1  0.74318000  0.26826000  0.94179000  1.0
  H  H30  1  0.28022000  0.32231000  0.56799000  1.0
  H  H31  1  0.71979000  0.67769000  0.43200000  1.0
  H  H32  1  0.52495000  0.29347000  0.55114000  1.0
  H  H33  1  0.47505000  0.70653000  0.44885000  1.0
  H  H34  1  0.37310000  0.28766000  0.45010000  1.0
  H  H35  1  0.62690000  0.71234000  0.54990000  1.0
  H  H36  1  0.61326000  0.09073000  0.71948000  1.0
  H  H37  1  0.38674000  0.90927000  0.28052000  1.0
  H  H38  1  0.36855000  0.12656000  0.73751000  1.0
  H  H39  1  0.63144000  0.87344000  0.26249000  1.0
  H  H40  1  0.53402000  0.87937000  0.84030000  1.0
  H  H41  1  0.46597000  0.12063000  0.15969000  1.0
  H  H42  1  0.39084000  0.88343000  0.73131000  1.0
  H  H43  1  0.60916000  0.11657000  0.26869000  1.0
  H  H44  1  0.76689000  0.65041000  0.85274000  1.0
  H  H45  1  0.23311000  0.34959000  0.14727000  1.0
  H  H46  1  0.84551000  0.63259000  0.72821000  1.0
  H  H47  1  0.15449000  0.36740000  0.27179000  1.0
  H  H48  1  0.60761000  0.64384000  0.75490000  1.0
  H  H49  1  0.39239000  0.35616000  0.24511000  1.0
  C  C50  1  0.98011000  0.18130000  0.68051000  1.0
  C  C51  1  0.01989000  0.81870000  0.31949000  1.0
  C  C52  1  0.99185000  0.31108000  0.68588000  1.0
  C  C53  1  0.00814000  0.68892000  0.31412000  1.0
  C  C54  1  0.04727000  0.31947000  0.78359000  1.0
  C  C55  1  0.95273000  0.68053000  0.21642000  1.0
  C  C56  1  0.09261000  0.20115000  0.87927000  1.0
  C  C57  1  0.90739000  0.79885000  0.12074000  1.0
  C  C58  1  0.08176000  0.07204000  0.87339000  1.0
  C  C59  1  0.91824000  0.92796000  0.12661000  1.0
  C  C60  1  0.02642000  0.06204000  0.77658000  1.0
  C  C61  1  0.97358000  0.93796000  0.22342000  1.0
  C  C62  1  0.74390000  0.36499000  0.32754000  1.0
  C  C63  1  0.25610000  0.63502000  0.67246000  1.0
  C  C64  1  0.60464000  0.48300000  0.34016000  1.0
  C  C65  1  0.39536000  0.51701000  0.65984000  1.0
  C  C66  1  0.49817000  0.59449000  0.25118000  1.0
  C  C67  1  0.50183000  0.40552000  0.74881000  1.0
  C  C68  1  0.52542000  0.59517000  0.14558000  1.0
  C  C69  1  0.47458000  0.40483000  0.85442000  1.0
  C  C70  1  0.66346000  0.47795000  0.13292000  1.0
  C  C71  1  0.33654000  0.52205000  0.86708000  1.0
  C  C72  1  0.76990000  0.36421000  0.22183000  1.0
  C  C73  1  0.23009000  0.63579000  0.77817000  1.0
  C  C74  1  0.15119000  0.21161000  0.98438000  1.0
  C  C75  1  0.84882000  0.78838000  0.01562000  1.0
  C  C76  1  0.40701000  0.71727000  0.05114000  1.0
  C  C77  1  0.59299000  0.28273000  0.94885000  1.0
  C  C78  1  0.40218000  0.26269000  0.53702000  1.0
  C  C79  1  0.59783000  0.73731000  0.46297000  1.0
  C  C80  1  0.48477000  0.06753000  0.70231000  1.0
  C  C81  1  0.51522000  0.93247000  0.29769000  1.0
  C  C82  1  0.51480000  0.90978000  0.75162000  1.0
  C  C83  1  0.48520000  0.09022000  0.24838000  1.0
  C  C84  1  0.72547000  0.68168000  0.76563000  1.0
  C  C85  1  0.27453000  0.31832000  0.23437000  1.0
  N  N86  1  0.93811000  0.15758000  0.58650000  1.0
  N  N87  1  0.06188000  0.84242000  0.41350000  1.0
  N  N88  1  0.86163000  0.27399000  0.50346000  1.0
  N  N89  1  0.13836000  0.72602000  0.49654000  1.0
  N  N90  1  0.85001000  0.24629000  0.41388000  1.0
  N  N91  1  0.14998000  0.75372000  0.58612000  1.0
  O  O92  1  0.44097000  0.11180000  0.58753000  1.0
  O  O93  1  0.55903000  0.88820000  0.41247000  1.0
  O  O94  1  0.67783000  0.83273000  0.71436000  1.0
  O  O95  1  0.32217000  0.16726000  0.28564000  1.0
