# generated using pymatgen
data_CuH12(C7N5)2
_symmetry_space_group_name_H-M   'P 1'
_cell_length_a   6.15708000
_cell_length_b   7.44927000
_cell_length_c   9.29711000
_cell_angle_alpha   104.01800000
_cell_angle_beta   104.14400000
_cell_angle_gamma   94.88800000
_symmetry_Int_Tables_number   1
_chemical_formula_structural   CuH12(C7N5)2
_chemical_formula_sum   'Cu1 H12 C14 N10'
_cell_volume   396.42447668
_cell_formula_units_Z   1
loop_
 _symmetry_equiv_pos_site_id
 _symmetry_equiv_pos_as_xyz
  1  'x, y, z'
loop_
 _atom_site_type_symbol
 _atom_site_label
 _atom_site_symmetry_multiplicity
 _atom_site_fract_x
 _atom_site_fract_y
 _atom_site_fract_z
 _atom_site_occupancy
  Cu  Cu0  1  0.00000000  0.00002000  0.00000000  1.0
  H  H1  1  0.49922000  0.06820000  0.13655000  1.0
  H  H2  1  0.50077000  0.93179000  0.86345000  1.0
  H  H3  1  0.74294000  0.22560000  0.70507000  1.0
  H  H4  1  0.25707000  0.77438000  0.29492000  1.0
  H  H5  1  0.63133000  0.43864000  0.72910000  1.0
  H  H6  1  0.36868000  0.56134000  0.27089000  1.0
  H  H7  1  0.84981000  0.40221000  0.63189000  1.0
  H  H8  1  0.15019000  0.59777000  0.36810000  1.0
  H  H9  1  0.22671000  0.29168000  0.58629000  1.0
  H  H10  1  0.77330000  0.70830000  0.41372000  1.0
  H  H11  1  0.95452000  0.15253000  0.32331000  1.0
  H  H12  1  0.04549000  0.84748000  0.67669000  1.0
  C  C13  1  0.44002000  0.12093000  0.23775000  1.0
  C  C14  1  0.55998000  0.87907000  0.76224000  1.0
  C  C15  1  0.52116000  0.25551000  0.49864000  1.0
  C  C16  1  0.47885000  0.74447000  0.50136000  1.0
  C  C17  1  0.69575000  0.33674000  0.64953000  1.0
  C  C18  1  0.30427000  0.66323000  0.35047000  1.0
  C  C19  1  0.28833000  0.24136000  0.48590000  1.0
  C  C20  1  0.71168000  0.75861000  0.51410000  1.0
  C  C21  1  0.13783000  0.16569000  0.34107000  1.0
  C  C22  1  0.86218000  0.83431000  0.65893000  1.0
  C  C23  1  0.25504000  0.32654000  0.88025000  1.0
  C  C24  1  0.74494000  0.67350000  0.11976000  1.0
  C  C25  1  0.20996000  0.63811000  0.91378000  1.0
  C  C26  1  0.79004000  0.36194000  0.08623000  1.0
  N  N27  1  0.21463000  0.10634000  0.21665000  1.0
  N  N28  1  0.78536000  0.89367000  0.78335000  1.0
  N  N29  1  0.59498000  0.19338000  0.37279000  1.0
  N  N30  1  0.40502000  0.80660000  0.62720000  1.0
  N  N31  1  0.16438000  0.78631000  0.96535000  1.0
  N  N32  1  0.83562000  0.21374000  0.03466000  1.0
  N  N33  1  0.24657000  0.17353000  0.89533000  1.0
  N  N34  1  0.75341000  0.82651000  0.10467000  1.0
  N  N35  1  0.27440000  0.48700000  0.84882000  1.0
  N  N36  1  0.72558000  0.51302000  0.15119000  1.0
