# generated using pymatgen
data_MnHgH12C12(SN2)4
_symmetry_space_group_name_H-M   'P 1'
_cell_length_a   8.78380000
_cell_length_b   8.84801000
_cell_length_c   14.20540000
_cell_angle_alpha   99.29820000
_cell_angle_beta   98.13550000
_cell_angle_gamma   106.31400000
_symmetry_Int_Tables_number   1
_chemical_formula_structural   MnHgH12C12(SN2)4
_chemical_formula_sum   'Mn2 Hg2 H24 C24 S8 N16'
_cell_volume   1025.09604602
_cell_formula_units_Z   2
loop_
 _symmetry_equiv_pos_site_id
 _symmetry_equiv_pos_as_xyz
  1  'x, y, z'
loop_
 _atom_site_type_symbol
 _atom_site_label
 _atom_site_symmetry_multiplicity
 _atom_site_fract_x
 _atom_site_fract_y
 _atom_site_fract_z
 _atom_site_occupancy
  Mn  Mn0  1  0.00002000  0.50011000  0.00009000  1.0
  Mn  Mn1  1  0.51164000  0.00086000  0.50333000  1.0
  Hg  Hg2  1  0.53855000  0.46171000  0.25225000  1.0
  Hg  Hg3  1  0.45932000  0.53690000  0.74726000  1.0
  H  H4  1  0.73460000  0.14655000  0.85517000  1.0
  H  H5  1  0.84055000  0.26358000  0.64269000  1.0
  H  H6  1  0.26535000  0.85337000  0.14481000  1.0
  H  H7  1  0.15415000  0.73520000  0.35576000  1.0
  H  H8  1  0.83400000  0.87553000  0.80516000  1.0
  H  H9  1  0.11567000  0.17158000  0.69259000  1.0
  H  H10  1  0.16587000  0.12427000  0.19501000  1.0
  H  H11  1  0.87948000  0.82847000  0.30631000  1.0
  H  H12  1  0.22558000  0.25478000  0.98554000  1.0
  H  H13  1  0.74075000  0.77075000  0.51648000  1.0
  H  H14  1  0.77437000  0.74522000  0.01443000  1.0
  H  H15  1  0.25653000  0.22763000  0.48219000  1.0
  H  H16  1  0.21590000  0.94072000  0.82160000  1.0
  H  H17  1  0.05995000  0.79583000  0.67956000  1.0
  H  H18  1  0.78409000  0.05910000  0.17842000  1.0
  H  H19  1  0.93855000  0.20605000  0.31987000  1.0
  H  H20  1  0.09692000  0.81110000  0.88728000  1.0
  H  H21  1  0.18668000  0.91173000  0.61087000  1.0
  H  H22  1  0.90300000  0.18885000  0.11279000  1.0
  H  H23  1  0.81063000  0.09034000  0.38788000  1.0
  H  H24  1  0.26444000  0.98079000  0.95076000  1.0
  H  H25  1  0.01961000  0.73967000  0.55044000  1.0
  H  H26  1  0.73552000  0.01917000  0.04925000  1.0
  H  H27  1  0.97878000  0.26087000  0.44895000  1.0
  C  C28  1  0.85117000  0.12876000  0.87529000  1.0
  C  C29  1  0.86113000  0.14836000  0.62352000  1.0
  C  C30  1  0.14884000  0.87125000  0.12460000  1.0
  C  C31  1  0.13430000  0.85079000  0.37522000  1.0
  C  C32  1  0.89786000  0.99399000  0.85052000  1.0
  C  C33  1  0.99749000  0.10498000  0.64787000  1.0
  C  C34  1  0.10213000  0.00598000  0.14943000  1.0
  C  C35  1  0.99779000  0.89464000  0.35101000  1.0
  C  C36  1  0.10478000  0.19140000  0.94326000  1.0
  C  C37  1  0.80271000  0.89254000  0.55754000  1.0
  C  C38  1  0.89521000  0.80862000  0.05665000  1.0
  C  C39  1  0.19411000  0.10584000  0.44123000  1.0
  C  C40  1  0.16477000  0.93553000  0.88752000  1.0
  C  C41  1  0.06298000  0.84215000  0.61253000  1.0
  C  C42  1  0.83518000  0.06438000  0.11249000  1.0
  C  C43  1  0.93478000  0.15884000  0.38657000  1.0
  C  C44  1  0.64648000  0.34317000  0.05528000  1.0
  C  C45  1  0.65345000  0.32323000  0.44121000  1.0
  C  C46  1  0.35348000  0.65673000  0.94445000  1.0
  C  C47  1  0.35328000  0.67813000  0.56079000  1.0
  C  C48  1  0.54746000  0.82825000  0.30338000  1.0
  C  C49  1  0.16292000  0.45113000  0.21677000  1.0
  C  C50  1  0.45838000  0.17156000  0.69877000  1.0
  C  C51  1  0.83643000  0.54888000  0.78317000  1.0
  S  S52  1  0.50495000  0.23474000  0.10334000  1.0
  S  S53  1  0.74836000  0.48537000  0.40503000  1.0
  S  S54  1  0.49493000  0.76494000  0.89623000  1.0
  S  S55  1  0.25032000  0.51709000  0.59490000  1.0
  S  S56  1  0.56859000  0.73718000  0.19842000  1.0
  S  S57  1  0.26559000  0.42995000  0.31704000  1.0
  S  S58  1  0.42623000  0.26154000  0.80077000  1.0
  S  S59  1  0.73328000  0.57020000  0.68308000  1.0
  N  N60  1  0.98134000  0.25096000  0.93337000  1.0
  N  N61  1  0.74049000  0.01456000  0.56696000  1.0
  N  N62  1  0.01867000  0.74909000  0.06647000  1.0
  N  N63  1  0.25485000  0.98367000  0.43147000  1.0
  N  N64  1  0.05917000  0.03587000  0.89437000  1.0
  N  N65  1  0.95845000  0.94333000  0.60532000  1.0
  N  N66  1  0.94082000  0.96411000  0.10557000  1.0
  N  N67  1  0.03779000  0.05634000  0.39354000  1.0
  N  N68  1  0.74773000  0.41801000  0.01960000  1.0
  N  N69  1  0.59199000  0.20573000  0.46832000  1.0
  N  N70  1  0.25225000  0.58186000  0.98014000  1.0
  N  N71  1  0.42280000  0.79537000  0.53618000  1.0
  N  N72  1  0.53357000  0.89253000  0.37984000  1.0
  N  N73  1  0.08538000  0.46374000  0.14521000  1.0
  N  N74  1  0.48045000  0.10789000  0.62450000  1.0
  N  N75  1  0.91443000  0.53606000  0.85450000  1.0
