# generated using pymatgen
data_Ag2H4C3SBrN3
_symmetry_space_group_name_H-M   'P 1'
_cell_length_a   7.68315000
_cell_length_b   10.07610000
_cell_length_c   19.06240000
_cell_angle_alpha   90.00000000
_cell_angle_beta   90.00000000
_cell_angle_gamma   89.99990000
_symmetry_Int_Tables_number   1
_chemical_formula_structural   Ag2H4C3SBrN3
_chemical_formula_sum   'Ag16 H32 C24 S8 Br8 N24'
_cell_volume   1475.73833670
_cell_formula_units_Z   8
loop_
 _symmetry_equiv_pos_site_id
 _symmetry_equiv_pos_as_xyz
  1  'x, y, z'
loop_
 _atom_site_type_symbol
 _atom_site_label
 _atom_site_symmetry_multiplicity
 _atom_site_fract_x
 _atom_site_fract_y
 _atom_site_fract_z
 _atom_site_occupancy
  Ag  Ag0  1  0.07946000  0.92854000  0.29192000  1.0
  Ag  Ag1  1  0.92054000  0.57146000  0.79192000  1.0
  Ag  Ag2  1  0.57946000  0.07146000  0.20808000  1.0
  Ag  Ag3  1  0.42054000  0.42854000  0.70808000  1.0
  Ag  Ag4  1  0.92054000  0.07146000  0.70808000  1.0
  Ag  Ag5  1  0.07946000  0.42854000  0.20808000  1.0
  Ag  Ag6  1  0.42054000  0.92854000  0.79192000  1.0
  Ag  Ag7  1  0.57946000  0.57146000  0.29191000  1.0
  Ag  Ag8  1  0.39676000  0.30303000  0.32312000  1.0
  Ag  Ag9  1  0.60324000  0.19697000  0.82312000  1.0
  Ag  Ag10  1  0.89676000  0.69697000  0.17688000  1.0
  Ag  Ag11  1  0.10323000  0.80303000  0.67688000  1.0
  Ag  Ag12  1  0.60324000  0.69697000  0.67688000  1.0
  Ag  Ag13  1  0.39676000  0.80303000  0.17688000  1.0
  Ag  Ag14  1  0.10324000  0.30303000  0.82312000  1.0
  Ag  Ag15  1  0.89676000  0.19697000  0.32312000  1.0
  H  H16  1  0.24146000  0.50930000  0.47423000  1.0
  H  H17  1  0.75854000  0.99070000  0.97423000  1.0
  H  H18  1  0.74146000  0.49070000  0.02577000  1.0
  H  H19  1  0.25854000  0.00931000  0.52577000  1.0
  H  H20  1  0.75854000  0.49070000  0.52577000  1.0
  H  H21  1  0.24146000  0.00930000  0.02577000  1.0
  H  H22  1  0.25854000  0.50930000  0.97423000  1.0
  H  H23  1  0.74146000  0.99069000  0.47423000  1.0
  H  H24  1  0.06830000  0.70771000  0.51497000  1.0
  H  H25  1  0.93170000  0.79229000  0.01497000  1.0
  H  H26  1  0.56830000  0.29229000  0.98503000  1.0
  H  H27  1  0.43170000  0.20771000  0.48503000  1.0
  H  H28  1  0.93170000  0.29229000  0.48503000  1.0
  H  H29  1  0.06830000  0.20770000  0.98503000  1.0
  H  H30  1  0.43170000  0.70771000  0.01497000  1.0
  H  H31  1  0.56830000  0.79229000  0.51497000  1.0
  H  H32  1  0.86511000  0.72448000  0.47081000  1.0
  H  H33  1  0.13489000  0.77552000  0.97081000  1.0
  H  H34  1  0.36511000  0.27552000  0.02919000  1.0
  H  H35  1  0.63489000  0.22448000  0.52919000  1.0
  H  H36  1  0.13489000  0.27552000  0.52919000  1.0
  H  H37  1  0.86511000  0.22448000  0.02919000  1.0
  H  H38  1  0.63489000  0.72448000  0.97081000  1.0
  H  H39  1  0.36511000  0.77552000  0.47081000  1.0
  H  H40  1  0.04288000  0.82760000  0.44560000  1.0
  H  H41  1  0.95712000  0.67240000  0.94560000  1.0
  H  H42  1  0.54288000  0.17240000  0.05440000  1.0
  H  H43  1  0.45712000  0.32760000  0.55440000  1.0
  H  H44  1  0.95712000  0.17240000  0.55440000  1.0
  H  H45  1  0.04288000  0.32760000  0.05440000  1.0
  H  H46  1  0.45712000  0.82760000  0.94560000  1.0
  H  H47  1  0.54288000  0.67240000  0.44560000  1.0
  C  C48  1  0.01391000  0.62265000  0.34442000  1.0
  C  C49  1  0.98609000  0.87735000  0.84442000  1.0
  C  C50  1  0.51391000  0.37735000  0.15558000  1.0
  C  C51  1  0.48609000  0.12265000  0.65558000  1.0
  C  C52  1  0.98609000  0.37735000  0.65558000  1.0
  C  C53  1  0.01391000  0.12265000  0.15558000  1.0
  C  C54  1  0.48609000  0.62265000  0.84442000  1.0
  C  C55  1  0.51391000  0.87735000  0.34442000  1.0
  C  C56  1  0.17740000  0.52800000  0.42442000  1.0
  C  C57  1  0.82260000  0.97200000  0.92442000  1.0
  C  C58  1  0.67740000  0.47200000  0.07558000  1.0
  C  C59  1  0.32260000  0.02800000  0.57558000  1.0
  C  C60  1  0.82260000  0.47200000  0.57558000  1.0
  C  C61  1  0.17740000  0.02800000  0.07558000  1.0
  C  C62  1  0.32260000  0.52800000  0.92442000  1.0
  C  C63  1  0.67740000  0.97200000  0.42442000  1.0
  C  C64  1  0.00655000  0.72812000  0.46435000  1.0
  C  C65  1  0.99345000  0.77188000  0.96435000  1.0
  C  C66  1  0.50655000  0.27188000  0.03565000  1.0
  C  C67  1  0.49345000  0.22812000  0.53565000  1.0
  C  C68  1  0.99345000  0.27188000  0.53565000  1.0
  C  C69  1  0.00655000  0.22812000  0.03565000  1.0
  C  C70  1  0.49345000  0.72812000  0.96435000  1.0
  C  C71  1  0.50655000  0.77188000  0.46435000  1.0
  S  S72  1  0.87263000  0.73335000  0.30596000  1.0
  S  S73  1  0.12737000  0.76666000  0.80596000  1.0
  S  S74  1  0.37263000  0.26666000  0.19404000  1.0
  S  S75  1  0.62737000  0.23335000  0.69404000  1.0
  S  S76  1  0.12737000  0.26665000  0.69404000  1.0
  S  S77  1  0.87263000  0.23335000  0.19404000  1.0
  S  S78  1  0.62737000  0.73335000  0.80596000  1.0
  S  S79  1  0.37263000  0.76665000  0.30596000  1.0
  Br  Br80  1  0.18745000  0.10609000  0.39132000  1.0
  Br  Br81  1  0.81255000  0.39391000  0.89132000  1.0
  Br  Br82  1  0.68745000  0.89391000  0.10868000  1.0
  Br  Br83  1  0.31255000  0.60609000  0.60868000  1.0
  Br  Br84  1  0.81255000  0.89391000  0.60868000  1.0
  Br  Br85  1  0.18745000  0.60609000  0.10868000  1.0
  Br  Br86  1  0.31255000  0.10609000  0.89132000  1.0
  Br  Br87  1  0.68745000  0.39391000  0.39131000  1.0
  N  N88  1  0.19933000  0.46145000  0.36563000  1.0
  N  N89  1  0.80067000  0.03855000  0.86563000  1.0
  N  N90  1  0.69933000  0.53855000  0.13437000  1.0
  N  N91  1  0.30067000  0.96145000  0.63437000  1.0
  N  N92  1  0.80067000  0.53854000  0.63437000  1.0
  N  N93  1  0.19933000  0.96145000  0.13437000  1.0
  N  N94  1  0.30067000  0.46145000  0.86563000  1.0
  N  N95  1  0.69933000  0.03854000  0.36564000  1.0
  N  N96  1  0.09695000  0.52030000  0.31529000  1.0
  N  N97  1  0.90305000  0.97970000  0.81529000  1.0
  N  N98  1  0.59695000  0.47970000  0.18470000  1.0
  N  N99  1  0.40305000  0.02030000  0.68471000  1.0
  N  N100  1  0.90305000  0.47970000  0.68471000  1.0
  N  N101  1  0.09695000  0.02030000  0.18471000  1.0
  N  N102  1  0.40305000  0.52030000  0.81529000  1.0
  N  N103  1  0.59695000  0.97970000  0.31529000  1.0
  N  N104  1  0.06203000  0.62885000  0.41400000  1.0
  N  N105  1  0.93797000  0.87115000  0.91400000  1.0
  N  N106  1  0.56203000  0.37115000  0.08600000  1.0
  N  N107  1  0.43797000  0.12885000  0.58600000  1.0
  N  N108  1  0.93797000  0.37115000  0.58600000  1.0
  N  N109  1  0.06203000  0.12885000  0.08600000  1.0
  N  N110  1  0.43797000  0.62885000  0.91400000  1.0
  N  N111  1  0.56203000  0.87115000  0.41400000  1.0
