# generated using pymatgen
data_CdH27C36N3O7
_symmetry_space_group_name_H-M   'P 1'
_cell_length_a   11.32460000
_cell_length_b   11.66440000
_cell_length_c   14.13590000
_cell_angle_alpha   93.13410000
_cell_angle_beta   105.31900000
_cell_angle_gamma   116.67200000
_symmetry_Int_Tables_number   1
_chemical_formula_structural   CdH27C36N3O7
_chemical_formula_sum   'Cd2 H54 C72 N6 O14'
_cell_volume   1576.43972997
_cell_formula_units_Z   2
loop_
 _symmetry_equiv_pos_site_id
 _symmetry_equiv_pos_as_xyz
  1  'x, y, z'
loop_
 _atom_site_type_symbol
 _atom_site_label
 _atom_site_symmetry_multiplicity
 _atom_site_fract_x
 _atom_site_fract_y
 _atom_site_fract_z
 _atom_site_occupancy
  Cd  Cd0  1  0.69359000  0.35415000  0.46918000  1.0
  Cd  Cd1  1  0.30641000  0.64585000  0.53082000  1.0
  H  H2  1  0.14054000  0.61161000  0.93397000  1.0
  H  H3  1  0.85946000  0.38839000  0.06602000  1.0
  H  H4  1  0.90623000  0.49414000  0.36946000  1.0
  H  H5  1  0.09377000  0.50586000  0.63054000  1.0
  H  H6  1  0.77295000  0.37565000  0.28325000  1.0
  H  H7  1  0.22705000  0.62435000  0.71675000  1.0
  H  H8  1  0.79557000  0.00914000  0.53058000  1.0
  H  H9  1  0.20443000  0.99086000  0.46942000  1.0
  H  H10  1  0.17246000  0.01740000  0.71429000  1.0
  H  H11  1  0.82754000  0.98260000  0.28571000  1.0
  H  H12  1  0.28321000  0.25679000  0.75900000  1.0
  H  H13  1  0.71679000  0.74321000  0.24100000  1.0
  H  H14  1  0.15201000  0.37385000  0.69322000  1.0
  H  H15  1  0.84798000  0.62615000  0.30678000  1.0
  H  H16  1  0.70398000  0.81721000  0.49721000  1.0
  H  H17  1  0.29602000  0.18279000  0.50278000  1.0
  H  H18  1  0.60134000  0.57674000  0.45126000  1.0
  H  H19  1  0.39866000  0.42325000  0.54874000  1.0
  H  H20  1  0.96565000  0.58832000  0.62271000  1.0
  H  H21  1  0.03435000  0.41168000  0.37729000  1.0
  H  H22  1  0.08612000  0.82730000  0.67361000  1.0
  H  H23  1  0.91388000  0.17270000  0.32639000  1.0
  H  H24  1  0.27531000  0.94469000  0.03615000  1.0
  H  H25  1  0.72469000  0.05531000  0.96385000  1.0
  H  H26  1  0.38117000  0.18665000  0.04980000  1.0
  H  H27  1  0.61883000  0.81335000  0.95020000  1.0
  H  H28  1  0.47584000  0.28848000  0.92020000  1.0
  H  H29  1  0.52416000  0.71152000  0.07980000  1.0
  H  H30  1  0.39096000  0.91016000  0.77483000  1.0
  H  H31  1  0.60904000  0.08984000  0.22516000  1.0
  H  H32  1  0.58418000  0.37190000  0.82774000  1.0
  H  H33  1  0.41583000  0.62810000  0.17226000  1.0
  H  H34  1  0.65832000  0.46085000  0.68651000  1.0
  H  H35  1  0.34169000  0.53915000  0.31349000  1.0
  H  H36  1  0.49955000  0.09070000  0.52054000  1.0
  H  H37  1  0.50045000  0.90930000  0.47946000  1.0
  H  H38  1  0.41089000  0.98305000  0.65016000  1.0
  H  H39  1  0.58912000  0.01695000  0.34984000  1.0
  H  H40  1  0.30113000  0.98997000  0.25081000  1.0
  H  H41  1  0.69887000  0.01003000  0.74920000  1.0
  H  H42  1  0.90581000  0.95240000  0.07144000  1.0
  H  H43  1  0.09419000  0.04760000  0.92856000  1.0
  H  H44  1  0.00528000  0.19039000  0.11131000  1.0
  H  H45  1  0.99472000  0.80961000  0.88869000  1.0
  H  H46  1  0.25398000  0.33010000  0.22369000  1.0
  H  H47  1  0.74602000  0.66990000  0.77631000  1.0
  H  H48  1  0.83078000  0.76363000  0.03301000  1.0
  H  H49  1  0.16921000  0.23637000  0.96699000  1.0
  H  H50  1  0.73971000  0.52418000  0.99775000  1.0
  H  H51  1  0.26029000  0.47582000  0.00225000  1.0
  H  H52  1  0.11221000  0.55815000  0.17697000  1.0
  H  H53  1  0.88779000  0.44185000  0.82303000  1.0
  H  H54  1  0.22009000  0.79823000  0.22148000  1.0
  H  H55  1  0.77991000  0.20177000  0.77852000  1.0
  C  C56  1  0.88054000  0.26180000  0.56628000  1.0
  C  C57  1  0.11946000  0.73820000  0.43372000  1.0
  C  C58  1  0.96450000  0.19609000  0.60812000  1.0
  C  C59  1  0.03550000  0.80391000  0.39187000  1.0
  C  C60  1  0.90237000  0.05992000  0.58155000  1.0
  C  C61  1  0.09763000  0.94008000  0.41844000  1.0
  C  C62  1  0.97425000  0.99201000  0.61849000  1.0
  C  C63  1  0.02575000  0.00799000  0.38150000  1.0
  C  C64  1  0.11263000  0.06580000  0.68327000  1.0
  C  C65  1  0.88737000  0.93420000  0.31673000  1.0
  C  C66  1  0.17552000  0.20160000  0.70945000  1.0
  C  C67  1  0.82448000  0.79840000  0.29055000  1.0
  C  C68  1  0.10228000  0.26761000  0.67268000  1.0
  C  C69  1  0.89772000  0.73239000  0.32732000  1.0
  C  C70  1  0.90669000  0.84780000  0.59032000  1.0
  C  C71  1  0.09331000  0.15220000  0.40968000  1.0
  C  C72  1  0.76771000  0.77220000  0.52732000  1.0
  C  C73  1  0.23229000  0.22780000  0.47268000  1.0
  C  C74  1  0.70807000  0.63700000  0.50150000  1.0
  C  C75  1  0.29193000  0.36300000  0.49850000  1.0
  C  C76  1  0.91124000  0.64303000  0.59706000  1.0
  C  C77  1  0.08876000  0.35697000  0.40294000  1.0
  C  C78  1  0.97784000  0.77816000  0.62524000  1.0
  C  C79  1  0.02216000  0.22184000  0.37476000  1.0
  C  C80  1  0.26800000  0.76963000  0.89451000  1.0
  C  C81  1  0.73200000  0.23037000  0.10549000  1.0
  C  C82  1  0.32584000  0.91439000  0.90316000  1.0
  C  C83  1  0.67415000  0.08561000  0.09684000  1.0
  C  C84  1  0.32155000  0.99086000  0.98080000  1.0
  C  C85  1  0.67845000  0.00915000  0.01919000  1.0
  C  C86  1  0.37904000  0.12585000  0.98724000  1.0
  C  C87  1  0.62096000  0.87415000  0.01275000  1.0
  C  C88  1  0.43504000  0.18321000  0.91458000  1.0
  C  C89  1  0.56496000  0.81679000  0.08541000  1.0
  C  C90  1  0.43828000  0.10789000  0.83482000  1.0
  C  C91  1  0.56172000  0.89211000  0.16517000  1.0
  C  C92  1  0.38585000  0.97285000  0.83206000  1.0
  C  C93  1  0.61414000  0.02715000  0.16794000  1.0
  C  C94  1  0.49075000  0.16743000  0.75443000  1.0
  C  C95  1  0.50926000  0.83257000  0.24557000  1.0
  C  C96  1  0.56202000  0.30393000  0.76146000  1.0
  C  C97  1  0.43798000  0.69607000  0.23854000  1.0
  C  C98  1  0.60579000  0.35526000  0.68286000  1.0
  C  C99  1  0.39422000  0.64474000  0.31714000  1.0
  C  C100  1  0.51646000  0.14911000  0.59051000  1.0
  C  C101  1  0.48354000  0.85089000  0.40950000  1.0
  C  C102  1  0.46739000  0.08959000  0.66476000  1.0
  C  C103  1  0.53261000  0.91041000  0.33524000  1.0
  C  C104  1  0.43426000  0.24696000  0.31663000  1.0
  C  C105  1  0.56575000  0.75305000  0.68337000  1.0
  C  C106  1  0.28989000  0.16602000  0.24235000  1.0
  C  C107  1  0.71011000  0.83398000  0.75766000  1.0
  C  C108  1  0.23350000  0.03024000  0.21759000  1.0
  C  C109  1  0.76651000  0.96976000  0.78242000  1.0
  C  C110  1  0.09526000  0.94983000  0.15514000  1.0
  C  C111  1  0.90474000  0.05016000  0.84487000  1.0
  C  C112  1  0.01441000  0.01057000  0.11815000  1.0
  C  C113  1  0.98559000  0.98943000  0.88185000  1.0
  C  C114  1  0.07043000  0.14611000  0.14106000  1.0
  C  C115  1  0.92957000  0.85389000  0.85895000  1.0
  C  C116  1  0.20817000  0.22412000  0.20285000  1.0
  C  C117  1  0.79183000  0.77588000  0.79715000  1.0
  C  C118  1  0.03605000  0.80606000  0.13087000  1.0
  C  C119  1  0.96395000  0.19394000  0.86913000  1.0
  C  C120  1  0.89842000  0.72383000  0.06695000  1.0
  C  C121  1  0.10158000  0.27616000  0.93306000  1.0
  C  C122  1  0.84661000  0.58944000  0.04636000  1.0
  C  C123  1  0.15339000  0.41057000  0.95364000  1.0
  C  C124  1  0.05371000  0.60809000  0.14607000  1.0
  C  C125  1  0.94629000  0.39191000  0.85393000  1.0
  C  C126  1  0.11343000  0.74329000  0.17058000  1.0
  C  C127  1  0.88658000  0.25671000  0.82942000  1.0
  N  N128  1  0.77845000  0.57231000  0.53544000  1.0
  N  N129  1  0.22155000  0.42769000  0.46456000  1.0
  N  N130  1  0.58498000  0.27979000  0.59844000  1.0
  N  N131  1  0.41502000  0.72021000  0.40156000  1.0
  N  N132  1  0.92251000  0.53149000  0.08458000  1.0
  N  N133  1  0.07749000  0.46851000  0.91542000  1.0
  O  O134  1  0.93123000  0.38485000  0.59587000  1.0
  O  O135  1  0.06877000  0.61515000  0.40413000  1.0
  O  O136  1  0.75941000  0.19120000  0.50284000  1.0
  O  O137  1  0.24059000  0.80880000  0.49716000  1.0
  O  O138  1  0.18352000  0.71818000  0.94738000  1.0
  O  O139  1  0.81647000  0.28182000  0.05261000  1.0
  O  O140  1  0.29820000  0.70551000  0.84150000  1.0
  O  O141  1  0.70180000  0.29449000  0.15850000  1.0
  O  O142  1  0.48115000  0.36843000  0.34451000  1.0
  O  O143  1  0.51885000  0.63157000  0.65549000  1.0
  O  O144  1  0.50067000  0.18505000  0.35060000  1.0
  O  O145  1  0.49933000  0.81495000  0.64941000  1.0
  O  O146  1  0.81597000  0.41159000  0.35581000  1.0
  O  O147  1  0.18403000  0.58842000  0.64419000  1.0
