# generated using pymatgen
data_CdH22C31(N2O3)2
_symmetry_space_group_name_H-M   'P 1'
_cell_length_a   9.94587000
_cell_length_b   11.79140000
_cell_length_c   12.57880000
_cell_angle_alpha   83.25960000
_cell_angle_beta   88.46750000
_cell_angle_gamma   69.89530000
_symmetry_Int_Tables_number   1
_chemical_formula_structural   CdH22C31(N2O3)2
_chemical_formula_sum   'Cd2 H44 C62 N8 O12'
_cell_volume   1375.57764408
_cell_formula_units_Z   2
loop_
 _symmetry_equiv_pos_site_id
 _symmetry_equiv_pos_as_xyz
  1  'x, y, z'
loop_
 _atom_site_type_symbol
 _atom_site_label
 _atom_site_symmetry_multiplicity
 _atom_site_fract_x
 _atom_site_fract_y
 _atom_site_fract_z
 _atom_site_occupancy
  Cd  Cd0  1  0.50265000  0.41632000  0.67131000  1.0
  Cd  Cd1  1  0.49735000  0.58367000  0.32870000  1.0
  H  H2  1  0.63266000  0.03128000  0.95031000  1.0
  H  H3  1  0.36735000  0.96871000  0.04969000  1.0
  H  H4  1  0.80883000  0.88969000  0.08692000  1.0
  H  H5  1  0.19118000  0.11031000  0.91308000  1.0
  H  H6  1  0.94650000  0.18738000  0.83212000  1.0
  H  H7  1  0.05352000  0.81261000  0.16788000  1.0
  H  H8  1  0.36548000  0.25662000  0.29776000  1.0
  H  H9  1  0.63451000  0.74338000  0.70223000  1.0
  H  H10  1  0.32822000  0.05665000  0.31588000  1.0
  H  H11  1  0.67176000  0.94336000  0.68412000  1.0
  H  H12  1  0.62117000  0.15073000  0.58598000  1.0
  H  H13  1  0.37882000  0.84927000  0.41401000  1.0
  H  H14  1  0.65326000  0.67181000  0.10160000  1.0
  H  H15  1  0.34675000  0.32819000  0.89841000  1.0
  H  H16  1  0.56931000  0.34483000  0.15887000  1.0
  H  H17  1  0.43068000  0.65518000  0.84114000  1.0
  H  H18  1  0.73187000  0.33696000  0.97442000  1.0
  H  H19  1  0.26813000  0.66304000  0.02558000  1.0
  H  H20  1  0.79652000  0.41544000  0.82694000  1.0
  H  H21  1  0.20349000  0.58457000  0.17306000  1.0
  H  H22  1  0.94591000  0.47624000  0.68769000  1.0
  H  H23  1  0.05409000  0.52377000  0.31231000  1.0
  H  H24  1  0.95291000  0.76805000  0.86253000  1.0
  H  H25  1  0.04709000  0.23196000  0.13747000  1.0
  H  H26  1  0.82070000  0.69949000  0.00719000  1.0
  H  H27  1  0.17930000  0.30051000  0.99280000  1.0
  H  H28  1  0.18991000  0.72405000  0.63178000  1.0
  H  H29  1  0.81010000  0.27595000  0.36823000  1.0
  H  H30  1  0.15145000  0.72623000  0.77367000  1.0
  H  H31  1  0.84855000  0.27377000  0.22633000  1.0
  H  H32  1  0.84528000  0.07061000  0.59196000  1.0
  H  H33  1  0.15472000  0.92938000  0.40804000  1.0
  H  H34  1  0.91588000  0.25332000  0.56989000  1.0
  H  H35  1  0.08412000  0.74667000  0.43011000  1.0
  H  H36  1  0.33786000  0.03405000  0.69416000  1.0
  H  H37  1  0.66214000  0.96595000  0.30584000  1.0
  H  H38  1  0.26314000  0.85665000  0.72572000  1.0
  H  H39  1  0.73686000  0.14335000  0.27429000  1.0
  H  H40  1  0.05517000  0.35727000  0.47027000  1.0
  H  H41  1  0.94483000  0.64273000  0.52973000  1.0
  H  H42  1  0.21470000  0.50717000  0.49149000  1.0
  H  H43  1  0.78530000  0.49283000  0.50852000  1.0
  H  H44  1  0.34520000  0.21271000  0.73389000  1.0
  H  H45  1  0.65480000  0.78728000  0.26611000  1.0
  C  C46  1  0.67142000  0.20529000  0.80635000  1.0
  C  C47  1  0.32859000  0.79471000  0.19364000  1.0
  C  C48  1  0.78043000  0.11796000  0.88438000  1.0
  C  C49  1  0.21958000  0.88204000  0.11562000  1.0
  C  C50  1  0.74140000  0.03230000  0.95592000  1.0
  C  C51  1  0.25861000  0.96769000  0.04408000  1.0
  C  C52  1  0.83873000  0.95430000  0.03033000  1.0
  C  C53  1  0.16128000  0.04569000  0.96967000  1.0
  C  C54  1  0.97997000  0.95707000  0.03638000  1.0
  C  C55  1  0.02004000  0.04292000  0.96362000  1.0
  C  C56  1  0.91752000  0.12226000  0.88850000  1.0
  C  C57  1  0.08248000  0.87773000  0.11151000  1.0
  C  C58  1  0.52130000  0.33354000  0.42846000  1.0
  C  C59  1  0.47870000  0.66645000  0.57153000  1.0
  C  C60  1  0.49932000  0.21305000  0.44018000  1.0
  C  C61  1  0.50067000  0.78695000  0.55982000  1.0
  C  C62  1  0.41475000  0.18690000  0.36360000  1.0
  C  C63  1  0.58524000  0.81310000  0.63639000  1.0
  C  C64  1  0.39408000  0.07653000  0.37407000  1.0
  C  C65  1  0.60591000  0.92348000  0.62593000  1.0
  C  C66  1  0.45749000  0.98684000  0.46112000  1.0
  C  C67  1  0.54250000  0.01316000  0.53888000  1.0
  C  C68  1  0.56019000  0.12788000  0.52634000  1.0
  C  C69  1  0.43980000  0.87212000  0.47366000  1.0
  C  C70  1  0.65563000  0.58061000  0.09406000  1.0
  C  C71  1  0.34438000  0.41939000  0.90594000  1.0
  C  C72  1  0.61341000  0.41093000  0.11972000  1.0
  C  C73  1  0.38659000  0.58908000  0.88028000  1.0
  C  C74  1  0.69287000  0.40623000  0.02821000  1.0
  C  C75  1  0.30712000  0.59377000  0.97180000  1.0
  C  C76  1  0.80037000  0.55180000  0.92867000  1.0
  C  C77  1  0.19963000  0.44821000  0.07133000  1.0
  C  C78  1  0.83479000  0.48969000  0.83792000  1.0
  C  C79  1  0.16521000  0.51032000  0.16208000  1.0
  C  C80  1  0.91690000  0.52466000  0.75819000  1.0
  C  C81  1  0.08309000  0.47535000  0.24180000  1.0
  C  C82  1  0.96160000  0.62350000  0.76667000  1.0
  C  C83  1  0.03840000  0.37650000  0.23333000  1.0
  C  C84  1  0.92386000  0.68820000  0.85561000  1.0
  C  C85  1  0.07613000  0.31181000  0.14439000  1.0
  C  C86  1  0.84554000  0.65046000  0.93701000  1.0
  C  C87  1  0.15446000  0.34955000  0.06299000  1.0
  C  C88  1  0.10577000  0.73774000  0.69252000  1.0
  C  C89  1  0.89424000  0.26226000  0.30748000  1.0
  C  C90  1  0.04786000  0.95201000  0.66026000  1.0
  C  C91  1  0.95213000  0.04799000  0.33974000  1.0
  C  C92  1  0.95205000  0.06437000  0.61591000  1.0
  C  C93  1  0.04795000  0.93563000  0.38409000  1.0
  C  C94  1  0.99333000  0.16618000  0.60174000  1.0
  C  C95  1  0.00667000  0.83382000  0.39827000  1.0
  C  C96  1  0.13276000  0.15571000  0.62973000  1.0
  C  C97  1  0.86724000  0.84429000  0.37028000  1.0
  C  C98  1  0.22809000  0.04409000  0.67467000  1.0
  C  C99  1  0.77191000  0.95590000  0.32534000  1.0
  C  C100  1  0.18587000  0.94246000  0.69120000  1.0
  C  C101  1  0.81412000  0.05754000  0.30881000  1.0
  C  C102  1  0.13395000  0.35305000  0.52973000  1.0
  C  C103  1  0.86604000  0.64695000  0.47028000  1.0
  C  C104  1  0.21444000  0.42527000  0.54033000  1.0
  C  C105  1  0.78556000  0.57473000  0.45967000  1.0
  C  C106  1  0.28485000  0.27459000  0.66750000  1.0
  C  C107  1  0.71515000  0.72541000  0.33250000  1.0
  N  N108  1  0.71964000  0.51510000  0.01239000  1.0
  N  N109  1  0.28036000  0.48491000  0.98761000  1.0
  N  N110  1  0.59164000  0.51973000  0.16008000  1.0
  N  N111  1  0.40836000  0.48028000  0.83991000  1.0
  N  N112  1  0.30760000  0.37547000  0.62627000  1.0
  N  N113  1  0.69240000  0.62453000  0.37373000  1.0
  N  N114  1  0.17967000  0.25753000  0.61120000  1.0
  N  N115  1  0.82033000  0.74246000  0.38881000  1.0
  O  O116  1  0.70794000  0.29001000  0.75273000  1.0
  O  O117  1  0.29207000  0.70999000  0.24727000  1.0
  O  O118  1  0.55068000  0.19369000  0.79848000  1.0
  O  O119  1  0.44933000  0.80630000  0.20151000  1.0
  O  O120  1  0.59968000  0.35596000  0.49566000  1.0
  O  O121  1  0.40033000  0.64403000  0.50433000  1.0
  O  O122  1  0.45848000  0.40766000  0.34758000  1.0
  O  O123  1  0.54151000  0.59234000  0.65242000  1.0
  O  O124  1  0.04144000  0.65095000  0.68268000  1.0
  O  O125  1  0.95856000  0.34905000  0.31732000  1.0
  O  O126  1  0.99903000  0.85587000  0.66964000  1.0
  O  O127  1  0.00097000  0.14412000  0.33036000  1.0
