# generated using pymatgen
data_Al4H11C32O20F
_symmetry_space_group_name_H-M   'P 1'
_cell_length_a   6.69360000
_cell_length_b   16.36380000
_cell_length_c   18.85580000
_cell_angle_alpha   106.14870000
_cell_angle_beta   89.94660000
_cell_angle_gamma   89.67940000
_symmetry_Int_Tables_number   1
_chemical_formula_structural   Al4H11C32O20F
_chemical_formula_sum   'Al4 H11 C32 O20 F1'
_cell_volume   1983.79814941
_cell_formula_units_Z   1
loop_
 _symmetry_equiv_pos_site_id
 _symmetry_equiv_pos_as_xyz
  1  'x, y, z'
loop_
 _atom_site_type_symbol
 _atom_site_label
 _atom_site_symmetry_multiplicity
 _atom_site_fract_x
 _atom_site_fract_y
 _atom_site_fract_z
 _atom_site_occupancy
  Al  Al0  1  0.88409000  0.50019000  0.49844000  1.0
  Al  Al1  1  0.38412000  0.49842000  0.49697000  1.0
  Al  Al2  1  0.38165000  0.00012000  0.99979000  1.0
  Al  Al3  1  0.88205000  0.00053000  0.99954000  1.0
  H  H4  1  0.45212000  0.30285000  0.31121000  1.0
  H  H5  1  0.45021000  0.18523000  0.19171000  1.0
  H  H6  1  0.80982000  0.19673000  0.18746000  1.0
  H  H7  1  0.81174000  0.31483000  0.30669000  1.0
  H  H8  1  0.94351000  0.70233000  0.68033000  1.0
  H  H9  1  0.95110000  0.81908000  0.79897000  1.0
  H  H10  1  0.31456000  0.79703000  0.81946000  1.0
  H  H11  1  0.63716000  0.39893000  0.51208000  1.0
  H  H12  1  0.13692000  0.60707000  0.54208000  1.0
  H  H13  1  0.62991000  0.10577000  0.99552000  1.0
  H  H14  1  0.13209000  0.89732000  0.00886000  1.0
  C  C15  1  0.63096000  0.58382000  0.41175000  1.0
  C  C16  1  0.63163000  0.61607000  0.61059000  1.0
  C  C17  1  0.13680000  0.41228000  0.58402000  1.0
  C  C18  1  0.13261000  0.38471000  0.38582000  1.0
  C  C19  1  0.31282000  0.27900000  0.28341000  1.0
  C  C20  1  0.31177000  0.21422000  0.21758000  1.0
  C  C21  1  0.12998000  0.18493000  0.18305000  1.0
  C  C22  1  0.94913000  0.22070000  0.21516000  1.0
  C  C23  1  0.95010000  0.28565000  0.28089000  1.0
  C  C24  1  0.13198000  0.31514000  0.31524000  1.0
  C  C25  1  0.13189000  0.13603000  0.86162000  1.0
  C  C26  1  0.13211000  0.17993000  0.81841000  1.0
  C  C27  1  0.13261000  0.22786000  0.77116000  1.0
  C  C28  1  0.13384000  0.27209000  0.72779000  1.0
  C  C29  1  0.13517000  0.31986000  0.68042000  1.0
  C  C30  1  0.13612000  0.36320000  0.63677000  1.0
  C  C31  1  0.63171000  0.63430000  0.36007000  1.0
  C  C32  1  0.63194000  0.67852000  0.31714000  1.0
  C  C33  1  0.63265000  0.72699000  0.27031000  1.0
  C  C34  1  0.63338000  0.77183000  0.22742000  1.0
  C  C35  1  0.63349000  0.82021000  0.18050000  1.0
  C  C36  1  0.63387000  0.86420000  0.13736000  1.0
  C  C37  1  0.80687000  0.72407000  0.71116000  1.0
  C  C38  1  0.81141000  0.78856000  0.77699000  1.0
  C  C39  1  0.63369000  0.81547000  0.81613000  1.0
  C  C40  1  0.45284000  0.77687000  0.78896000  1.0
  C  C41  1  0.45227000  0.71226000  0.72332000  1.0
  C  C42  1  0.62731000  0.68430000  0.68227000  1.0
  C  C43  1  0.63488000  0.88447000  0.88737000  1.0
  C  C44  1  0.63225000  0.91427000  0.08556000  1.0
  C  C45  1  0.12935000  0.11630000  0.11180000  1.0
  C  C46  1  0.13225000  0.08582000  0.91334000  1.0
  O  O47  1  0.46549000  0.59131000  0.57944000  1.0
  O  O48  1  0.80023000  0.56838000  0.43584000  1.0
  O  O49  1  0.96402000  0.41435000  0.41254000  1.0
  O  O50  1  0.80378000  0.58877000  0.58532000  1.0
  O  O51  1  0.96626000  0.42949000  0.56169000  1.0
  O  O52  1  0.46093000  0.56054000  0.42872000  1.0
  O  O53  1  0.63548000  0.44826000  0.49308000  1.0
  O  O54  1  0.30783000  0.43240000  0.56466000  1.0
  O  O55  1  0.30171000  0.40885000  0.41491000  1.0
  O  O56  1  0.13405000  0.55068000  0.50764000  1.0
  O  O57  1  0.80167000  0.93242000  0.06330000  1.0
  O  O58  1  0.46549000  0.90917000  0.91660000  1.0
  O  O59  1  0.30259000  0.06481000  0.93285000  1.0
  O  O60  1  0.46137000  0.93499000  0.06622000  1.0
  O  O61  1  0.29886000  0.09060000  0.08299000  1.0
  O  O62  1  0.80469000  0.91193000  0.91346000  1.0
  O  O63  1  0.63098000  0.05102000  0.00593000  1.0
  O  O64  1  0.95971000  0.08951000  0.08461000  1.0
  O  O65  1  0.96229000  0.06782000  0.93516000  1.0
  O  O66  1  0.13232000  0.94901000  0.99328000  1.0
  F  F67  1  0.27311000  0.67544000  0.70051000  1.0
