# generated using pymatgen
data_AgH2C4(NO)3
_symmetry_space_group_name_H-M   'P 1'
_cell_length_a   5.51308000
_cell_length_b   8.28404000
_cell_length_c   13.66170000
_cell_angle_alpha   89.99600000
_cell_angle_beta   88.22580000
_cell_angle_gamma   89.99210000
_symmetry_Int_Tables_number   1
_chemical_formula_structural   AgH2C4(NO)3
_chemical_formula_sum   'Ag4 H8 C16 N12 O12'
_cell_volume   623.63857676
_cell_formula_units_Z   4
loop_
 _symmetry_equiv_pos_site_id
 _symmetry_equiv_pos_as_xyz
  1  'x, y, z'
loop_
 _atom_site_type_symbol
 _atom_site_label
 _atom_site_symmetry_multiplicity
 _atom_site_fract_x
 _atom_site_fract_y
 _atom_site_fract_z
 _atom_site_occupancy
  Ag  Ag0  1  0.23606000  0.00836000  0.73036000  1.0
  Ag  Ag1  1  0.76393000  0.50836000  0.26962000  1.0
  Ag  Ag2  1  0.92297000  0.79224000  0.11246000  1.0
  Ag  Ag3  1  0.07698000  0.29224000  0.88754000  1.0
  H  H4  1  0.77128000  0.77652000  0.68320000  1.0
  H  H5  1  0.22873000  0.27652000  0.31680000  1.0
  H  H6  1  0.50384000  0.65055000  0.97595000  1.0
  H  H7  1  0.49621000  0.15053000  0.02406000  1.0
  H  H8  1  0.12893000  0.40094000  0.65881000  1.0
  H  H9  1  0.87104000  0.90097000  0.34118000  1.0
  H  H10  1  0.52481000  0.15116000  0.53099000  1.0
  H  H11  1  0.47524000  0.65117000  0.46901000  1.0
  C  C12  1  0.61302000  0.69870000  0.82353000  1.0
  C  C13  1  0.38699000  0.19869000  0.17648000  1.0
  C  C14  1  0.78029000  0.78137000  0.76288000  1.0
  C  C15  1  0.21970000  0.28137000  0.23713000  1.0
  C  C16  1  0.62967000  0.71253000  0.92561000  1.0
  C  C17  1  0.37035000  0.21252000  0.07439000  1.0
  C  C18  1  0.97404000  0.87795000  0.90274000  1.0
  C  C19  1  0.02593000  0.37793000  0.09725000  1.0
  C  C20  1  0.83249000  0.28677000  0.58189000  1.0
  C  C21  1  0.16753000  0.78679000  0.41811000  1.0
  C  C22  1  0.95959000  0.33238000  0.66482000  1.0
  C  C23  1  0.04039000  0.83239000  0.33518000  1.0
  C  C24  1  0.62008000  0.19485000  0.59449000  1.0
  C  C25  1  0.37996000  0.69485000  0.40551000  1.0
  C  C26  1  0.65638000  0.21158000  0.76574000  1.0
  C  C27  1  0.34361000  0.71157000  0.23425000  1.0
  N  N28  1  0.43055000  0.60079000  0.78232000  1.0
  N  N29  1  0.56947000  0.10078000  0.21770000  1.0
  N  N30  1  0.95010000  0.87260000  0.80095000  1.0
  N  N31  1  0.04987000  0.37261000  0.19904000  1.0
  N  N32  1  0.80639000  0.79719000  0.96349000  1.0
  N  N33  1  0.19361000  0.29718000  0.03650000  1.0
  N  N34  1  0.92610000  0.32199000  0.48602000  1.0
  N  N35  1  0.07392000  0.82200000  0.51399000  1.0
  N  N36  1  0.87680000  0.29332000  0.75373000  1.0
  N  N37  1  0.12315000  0.79331000  0.24627000  1.0
  N  N38  1  0.53484000  0.15712000  0.68309000  1.0
  N  N39  1  0.46519000  0.65711000  0.31690000  1.0
  O  O40  1  0.14473000  0.95381000  0.93799000  1.0
  O  O41  1  0.85519000  0.45377000  0.06199000  1.0
  O  O42  1  0.46416000  0.54830000  0.69688000  1.0
  O  O43  1  0.53587000  0.04832000  0.30314000  1.0
  O  O44  1  0.24393000  0.57085000  0.83395000  1.0
  O  O45  1  0.75610000  0.07083000  0.16606000  1.0
  O  O46  1  0.57051000  0.18394000  0.84896000  1.0
  O  O47  1  0.42946000  0.68392000  0.15104000  1.0
  O  O48  1  0.13432000  0.38226000  0.47636000  1.0
  O  O49  1  0.86567000  0.88226000  0.52364000  1.0
  O  O50  1  0.79604000  0.28982000  0.41484000  1.0
  O  O51  1  0.20401000  0.78983000  0.58516000  1.0
