# generated using pymatgen
data_ZnH19C19N2O5
_symmetry_space_group_name_H-M   'P 1'
_cell_length_a   9.23682000
_cell_length_b   10.34050000
_cell_length_c   11.51534681
_cell_angle_alpha   80.38182238
_cell_angle_beta   66.37315272
_cell_angle_gamma   78.97400000
_symmetry_Int_Tables_number   1
_chemical_formula_structural   ZnH19C19N2O5
_chemical_formula_sum   'Zn2 H38 C38 N4 O10'
_cell_volume   984.05784489
_cell_formula_units_Z   2
loop_
 _symmetry_equiv_pos_site_id
 _symmetry_equiv_pos_as_xyz
  1  'x, y, z'
loop_
 _atom_site_type_symbol
 _atom_site_label
 _atom_site_symmetry_multiplicity
 _atom_site_fract_x
 _atom_site_fract_y
 _atom_site_fract_z
 _atom_site_occupancy
  Zn  Zn0  1  0.09218000  0.46028000  0.60560000  1.0
  Zn  Zn1  1  0.90783000  0.53972000  0.39440000  1.0
  H  H2  1  0.70286000  0.21129000  0.78558000  1.0
  H  H3  1  0.29715000  0.78871000  0.21442000  1.0
  H  H4  1  0.38906000  0.52609000  0.62232000  1.0
  H  H5  1  0.61094000  0.47393000  0.37768000  1.0
  H  H6  1  0.60247000  0.40336000  0.69320000  1.0
  H  H7  1  0.39753000  0.59664000  0.30680000  1.0
  H  H8  1  0.35500000  0.06041000  0.79876000  1.0
  H  H9  1  0.64500000  0.93960000  0.20124000  1.0
  H  H10  1  0.15154000  0.19795000  0.72070000  1.0
  H  H11  1  0.84846000  0.80205000  0.27930000  1.0
  H  H12  1  0.88616000  0.04004000  0.78867000  1.0
  H  H13  1  0.11384000  0.95995000  0.21133000  1.0
  H  H14  1  0.76808000  0.03063000  0.95210000  1.0
  H  H15  1  0.23191000  0.96937000  0.04790000  1.0
  H  H16  1  0.86174000  0.79802000  0.78903000  1.0
  H  H17  1  0.13827000  0.20197000  0.21096000  1.0
  H  H18  1  0.75465000  0.79113000  0.95430000  1.0
  H  H19  1  0.24535000  0.20887000  0.04570000  1.0
  H  H20  1  0.09391000  0.86608000  0.81870000  1.0
  H  H21  1  0.90609000  0.13392000  0.18130000  1.0
  H  H22  1  0.99039000  0.84287000  0.98530000  1.0
  H  H23  1  0.00960000  0.15713000  0.01470000  1.0
  H  H24  1  0.08985000  0.62949000  0.80128000  1.0
  H  H25  1  0.91015000  0.37051000  0.19871000  1.0
  H  H26  1  0.19149000  0.64669000  0.89810000  1.0
  H  H27  1  0.80852000  0.35331000  0.10189000  1.0
  H  H28  1  0.84692000  0.58599000  0.99713000  1.0
  H  H29  1  0.15308000  0.41401000  0.00287000  1.0
  H  H30  1  0.94833000  0.60540000  0.09298000  1.0
  H  H31  1  0.05167000  0.39460000  0.90702000  1.0
  H  H32  1  0.64326000  0.66709000  0.83162000  1.0
  H  H33  1  0.35674000  0.33291000  0.16838000  1.0
  H  H34  1  0.61955000  0.26316000  0.00213000  1.0
  H  H35  1  0.38045000  0.73684000  0.99787000  1.0
  H  H36  1  0.78224000  0.90640000  0.48179000  1.0
  H  H37  1  0.21776000  0.09359000  0.51821000  1.0
  H  H38  1  0.22887000  0.84722000  0.52937000  1.0
  H  H39  1  0.77112000  0.15278000  0.47063000  1.0
  C  C40  1  0.38666000  0.42245000  0.66097000  1.0
  C  C41  1  0.61335000  0.57756000  0.33903000  1.0
  C  C42  1  0.50409000  0.35419000  0.70187000  1.0
  C  C43  1  0.49591000  0.64581000  0.29814000  1.0
  C  C44  1  0.49730000  0.22023000  0.75245000  1.0
  C  C45  1  0.50270000  0.77978000  0.24755000  1.0
  C  C46  1  0.36687000  0.16257000  0.75942000  1.0
  C  C47  1  0.63313000  0.83744000  0.24058000  1.0
  C  C48  1  0.25507000  0.23834000  0.71539000  1.0
  C  C49  1  0.74493000  0.76167000  0.28461000  1.0
  C  C50  1  0.64117000  0.02283000  0.83586000  1.0
  C  C51  1  0.35883000  0.97716000  0.16413000  1.0
  C  C52  1  0.79207000  0.98781000  0.86342000  1.0
  C  C53  1  0.20792000  0.01219000  0.13658000  1.0
  C  C54  1  0.84774000  0.83988000  0.87539000  1.0
  C  C55  1  0.15226000  0.16011000  0.12461000  1.0
  C  C56  1  0.00576000  0.80878000  0.89460000  1.0
  C  C57  1  0.99423000  0.19122000  0.10540000  1.0
  C  C58  1  0.07255000  0.66149000  0.89321000  1.0
  C  C59  1  0.92745000  0.33851000  0.10679000  1.0
  C  C60  1  0.96593000  0.57317000  0.00128000  1.0
  C  C61  1  0.03408000  0.42683000  0.99871000  1.0
  C  C62  1  0.80549000  0.41837000  0.80494000  1.0
  C  C63  1  0.19451000  0.58163000  0.19507000  1.0
  C  C64  1  0.64792000  0.46070000  0.90607000  1.0
  C  C65  1  0.35208000  0.53930000  0.09394000  1.0
  C  C66  1  0.58024000  0.59431000  0.90541000  1.0
  C  C67  1  0.41975000  0.40569000  0.09460000  1.0
  C  C68  1  0.56688000  0.36677000  0.00106000  1.0
  C  C69  1  0.43312000  0.63323000  0.99895000  1.0
  C  C70  1  0.01352000  0.71712000  0.50879000  1.0
  C  C71  1  0.98647000  0.28287000  0.49122000  1.0
  C  C72  1  0.00664000  0.86293000  0.50533000  1.0
  C  C73  1  0.99335000  0.13707000  0.49468000  1.0
  C  C74  1  0.87715000  0.94874000  0.48909000  1.0
  C  C75  1  0.12286000  0.05126000  0.51091000  1.0
  C  C76  1  0.12932000  0.91499000  0.51654000  1.0
  C  C77  1  0.87067000  0.08501000  0.48347000  1.0
  N  N78  1  0.26360000  0.36609000  0.66583000  1.0
  N  N79  1  0.73641000  0.63392000  0.33417000  1.0
  N  N80  1  0.61763000  0.15502000  0.79063000  1.0
  N  N81  1  0.38237000  0.84498000  0.20937000  1.0
  O  O82  1  0.54999000  0.94297000  0.85091000  1.0
  O  O83  1  0.45002000  0.05703000  0.14907000  1.0
  O  O84  1  0.89020000  0.51189000  0.74337000  1.0
  O  O85  1  0.10980000  0.48810000  0.25663000  1.0
  O  O86  1  0.84835000  0.29856000  0.78268000  1.0
  O  O87  1  0.15165000  0.70144000  0.21732000  1.0
  O  O88  1  0.13470000  0.64139000  0.52131000  1.0
  O  O89  1  0.86531000  0.35861000  0.47869000  1.0
  O  O90  1  0.89658000  0.67675000  0.50022000  1.0
  O  O91  1  0.10341000  0.32325000  0.49979000  1.0
