# generated using pymatgen
data_CaH32(C19O4)2
_symmetry_space_group_name_H-M   'P 1'
_cell_length_a   5.21237000
_cell_length_b   10.63110000
_cell_length_c   15.06870000
_cell_angle_alpha   83.23040000
_cell_angle_beta   83.70940000
_cell_angle_gamma   81.36510000
_symmetry_Int_Tables_number   1
_chemical_formula_structural   CaH32(C19O4)2
_chemical_formula_sum   'Ca1 H32 C38 O8'
_cell_volume   816.18773899
_cell_formula_units_Z   1
loop_
 _symmetry_equiv_pos_site_id
 _symmetry_equiv_pos_as_xyz
  1  'x, y, z'
loop_
 _atom_site_type_symbol
 _atom_site_label
 _atom_site_symmetry_multiplicity
 _atom_site_fract_x
 _atom_site_fract_y
 _atom_site_fract_z
 _atom_site_occupancy
  Ca  Ca0  1  0.99999000  0.00000000  0.00000000  1.0
  H  H1  1  0.96611000  0.73578000  0.47871000  1.0
  H  H2  1  0.03386000  0.26422000  0.52128000  1.0
  H  H3  1  0.54658000  0.25408000  0.59355000  1.0
  H  H4  1  0.45343000  0.74594000  0.40645000  1.0
  H  H5  1  0.70500000  0.14175000  0.73683000  1.0
  H  H6  1  0.29499000  0.85828000  0.26317000  1.0
  H  H7  1  0.02053000  0.31838000  0.88455000  1.0
  H  H8  1  0.97946000  0.68163000  0.11544000  1.0
  H  H9  1  0.87122000  0.43773000  0.74363000  1.0
  H  H10  1  0.12876000  0.56227000  0.25636000  1.0
  H  H11  1  0.53971000  0.51074000  0.64733000  1.0
  H  H12  1  0.46025000  0.48927000  0.35267000  1.0
  H  H13  1  0.66490000  0.62221000  0.76883000  1.0
  H  H14  1  0.33506000  0.37778000  0.23117000  1.0
  H  H15  1  0.97758000  0.89805000  0.74753000  1.0
  H  H16  1  0.02238000  0.10195000  0.25246000  1.0
  H  H17  1  0.84804000  0.78674000  0.62646000  1.0
  H  H18  1  0.15195000  0.21326000  0.37353000  1.0
  H  H19  1  0.62729000  0.81907000  0.93619000  1.0
  H  H20  1  0.37267000  0.18094000  0.06379000  1.0
  H  H21  1  0.41360000  0.87138000  0.54285000  1.0
  H  H22  1  0.58636000  0.12863000  0.45714000  1.0
  H  H23  1  0.20703000  0.00004000  0.49101000  1.0
  H  H24  1  0.79294000  0.99996000  0.50898000  1.0
  H  H25  1  0.33970000  0.01745000  0.59171000  1.0
  H  H26  1  0.66026000  0.98255000  0.40827000  1.0
  H  H27  1  0.77642000  0.53637000  0.97068000  1.0
  H  H28  1  0.22378000  0.46362000  0.02939000  1.0
  H  H29  1  0.69986000  0.37763000  0.99139000  1.0
  H  H30  1  0.30032000  0.62234000  0.00868000  1.0
  H  H31  1  0.66894000  0.47481000  0.08058000  1.0
  H  H32  1  0.33128000  0.52516000  0.91950000  1.0
  C  C33  1  0.97703000  0.63184000  0.48919000  1.0
  C  C34  1  0.02295000  0.36815000  0.51080000  1.0
  C  C35  1  0.08837000  0.56585000  0.56500000  1.0
  C  C36  1  0.91161000  0.43414000  0.43499000  1.0
  C  C37  1  0.10894000  0.43048000  0.57622000  1.0
  C  C38  1  0.89103000  0.56952000  0.42377000  1.0
  C  C39  1  0.19920000  0.35449000  0.65906000  1.0
  C  C40  1  0.80078000  0.64552000  0.34093000  1.0
  C  C41  1  0.43046000  0.26746000  0.65738000  1.0
  C  C42  1  0.56952000  0.73255000  0.34261000  1.0
  C  C43  1  0.51914000  0.20448000  0.73710000  1.0
  C  C44  1  0.48084000  0.79554000  0.26290000  1.0
  C  C45  1  0.37223000  0.22339000  0.81935000  1.0
  C  C46  1  0.62776000  0.77661000  0.18064000  1.0
  C  C47  1  0.13570000  0.30563000  0.82073000  1.0
  C  C48  1  0.86429000  0.69438000  0.17926000  1.0
  C  C49  1  0.05239000  0.37168000  0.74160000  1.0
  C  C50  1  0.94760000  0.62832000  0.25839000  1.0
  C  C51  1  0.46934000  0.16114000  0.90589000  1.0
  C  C52  1  0.53065000  0.83887000  0.09410000  1.0
  C  C53  1  0.17984000  0.63817000  0.63055000  1.0
  C  C54  1  0.82014000  0.36182000  0.36944000  1.0
  C  C55  1  0.41472000  0.59487000  0.66963000  1.0
  C  C56  1  0.58528000  0.40514000  0.33036000  1.0
  C  C57  1  0.48654000  0.65727000  0.73702000  1.0
  C  C58  1  0.51343000  0.34273000  0.26297000  1.0
  C  C59  1  0.32652000  0.76563000  0.76623000  1.0
  C  C60  1  0.67344000  0.23436000  0.23376000  1.0
  C  C61  1  0.09978000  0.81369000  0.72429000  1.0
  C  C62  1  0.90018000  0.18631000  0.27570000  1.0
  C  C63  1  0.02881000  0.75116000  0.65677000  1.0
  C  C64  1  0.97116000  0.24882000  0.34322000  1.0
  C  C65  1  0.38299000  0.82634000  0.84410000  1.0
  C  C66  1  0.61694000  0.17367000  0.15590000  1.0
  C  C67  1  0.38239000  0.97580000  0.52744000  1.0
  C  C68  1  0.61759000  0.02420000  0.47255000  1.0
  C  C69  1  0.64113000  0.47585000  0.00923000  1.0
  C  C70  1  0.35912000  0.52412000  0.99086000  1.0
  O  O71  1  0.29848000  0.15342000  0.97505000  1.0
  O  O72  1  0.70152000  0.84658000  0.02494000  1.0
  O  O73  1  0.70894000  0.12208000  0.90784000  1.0
  O  O74  1  0.29107000  0.87793000  0.09215000  1.0
  O  O75  1  0.22290000  0.91207000  0.87655000  1.0
  O  O76  1  0.77705000  0.08793000  0.12343000  1.0
  O  O77  1  0.60754000  0.78165000  0.87634000  1.0
  O  O78  1  0.39242000  0.21835000  0.12365000  1.0
