# generated using pymatgen
data_Cu3H50C40(N14O)2
_symmetry_space_group_name_H-M   'P 1'
_cell_length_a   13.09140000
_cell_length_b   14.66690000
_cell_length_c   15.66400000
_cell_angle_alpha   89.99920000
_cell_angle_beta   92.38550000
_cell_angle_gamma   89.99950000
_symmetry_Int_Tables_number   1
_chemical_formula_structural   Cu3H50C40(N14O)2
_chemical_formula_sum   'Cu6 H100 C80 N56 O4'
_cell_volume   3005.04218731
_cell_formula_units_Z   2
loop_
 _symmetry_equiv_pos_site_id
 _symmetry_equiv_pos_as_xyz
  1  'x, y, z'
loop_
 _atom_site_type_symbol
 _atom_site_label
 _atom_site_symmetry_multiplicity
 _atom_site_fract_x
 _atom_site_fract_y
 _atom_site_fract_z
 _atom_site_occupancy
  Cu  Cu0  1  0.50001000  0.00001000  0.50000000  1.0
  Cu  Cu1  1  0.00001000  0.50000000  0.00000000  1.0
  Cu  Cu2  1  0.52038000  0.19615000  0.38736000  1.0
  Cu  Cu3  1  0.97965000  0.69617000  0.11263000  1.0
  Cu  Cu4  1  0.47964000  0.80385000  0.61265000  1.0
  Cu  Cu5  1  0.02037000  0.30384000  0.88737000  1.0
  H  H6  1  0.89298000  0.14740000  0.86114000  1.0
  H  H7  1  0.60700000  0.64739000  0.63889000  1.0
  H  H8  1  0.10702000  0.85261000  0.13887000  1.0
  H  H9  1  0.39300000  0.35259000  0.36112000  1.0
  H  H10  1  0.76728000  0.08779000  0.74729000  1.0
  H  H11  1  0.73271000  0.58778000  0.75273000  1.0
  H  H12  1  0.23273000  0.91223000  0.25271000  1.0
  H  H13  1  0.26729000  0.41221000  0.24727000  1.0
  H  H14  1  0.81740000  0.33520000  0.60557000  1.0
  H  H15  1  0.68266000  0.83521000  0.89442000  1.0
  H  H16  1  0.18262000  0.66482000  0.39443000  1.0
  H  H17  1  0.31735000  0.16478000  0.10559000  1.0
  H  H18  1  0.94245000  0.38297000  0.72338000  1.0
  H  H19  1  0.55760000  0.88299000  0.77662000  1.0
  H  H20  1  0.05756000  0.61705000  0.27664000  1.0
  H  H21  1  0.44240000  0.11699000  0.22340000  1.0
  H  H22  1  0.14639000  0.31772000  0.73859000  1.0
  H  H23  1  0.35361000  0.81773000  0.76141000  1.0
  H  H24  1  0.85363000  0.68228000  0.26139000  1.0
  H  H25  1  0.64638000  0.18228000  0.23858000  1.0
  H  H26  1  0.26803000  0.22050000  0.66076000  1.0
  H  H27  1  0.23197000  0.72050000  0.83925000  1.0
  H  H28  1  0.73198000  0.77949000  0.33923000  1.0
  H  H29  1  0.76800000  0.27951000  0.16074000  1.0
  H  H30  1  0.24371000  0.01963000  0.86071000  1.0
  H  H31  1  0.25628000  0.51966000  0.63929000  1.0
  H  H32  1  0.75628000  0.98037000  0.13929000  1.0
  H  H33  1  0.74371000  0.48035000  0.36070000  1.0
  H  H34  1  0.11909000  0.12384000  0.92925000  1.0
  H  H35  1  0.38090000  0.62387000  0.57074000  1.0
  H  H36  1  0.88091000  0.87617000  0.07075000  1.0
  H  H37  1  0.61910000  0.37614000  0.42925000  1.0
  H  H38  1  0.42162000  0.25962000  0.56724000  1.0
  H  H39  1  0.07844000  0.75967000  0.93275000  1.0
  H  H40  1  0.57840000  0.74034000  0.43275000  1.0
  H  H41  1  0.92155000  0.24034000  0.06725000  1.0
  H  H42  1  0.46623000  0.33512000  0.76147000  1.0
  H  H43  1  0.03377000  0.83513000  0.73851000  1.0
  H  H44  1  0.53375000  0.66487000  0.23852000  1.0
  H  H45  1  0.96623000  0.16488000  0.26148000  1.0
  H  H46  1  0.58649000  0.28890000  0.73515000  1.0
  H  H47  1  0.91353000  0.78890000  0.76486000  1.0
  H  H48  1  0.41350000  0.71109000  0.26486000  1.0
  H  H49  1  0.08647000  0.21110000  0.23513000  1.0
  H  H50  1  0.47124000  0.23461000  0.69660000  1.0
  H  H51  1  0.02878000  0.73463000  0.80341000  1.0
  H  H52  1  0.52876000  0.76537000  0.30341000  1.0
  H  H53  1  0.97122000  0.26537000  0.19659000  1.0
  H  H54  1  0.53495000  0.48508000  0.68735000  1.0
  H  H55  1  0.96506000  0.98509000  0.81260000  1.0
  H  H56  1  0.46504000  0.51490000  0.31262000  1.0
  H  H57  1  0.03494000  0.01491000  0.18739000  1.0
  H  H58  1  0.55568000  0.47514000  0.57549000  1.0
  H  H59  1  0.94433000  0.97518000  0.92447000  1.0
  H  H60  1  0.44432000  0.52482000  0.42448000  1.0
  H  H61  1  0.05567000  0.02483000  0.07552000  1.0
  H  H62  1  0.64531000  0.42653000  0.65291000  1.0
  H  H63  1  0.85471000  0.92654000  0.84706000  1.0
  H  H64  1  0.35469000  0.57345000  0.34708000  1.0
  H  H65  1  0.14529000  0.07346000  0.15293000  1.0
  H  H66  1  0.25723000  0.95165000  0.06457000  1.0
  H  H67  1  0.24278000  0.45164000  0.43543000  1.0
  H  H68  1  0.74275000  0.04835000  0.93543000  1.0
  H  H69  1  0.75720000  0.54835000  0.56457000  1.0
  H  H70  1  0.34801000  0.01606000  0.01030000  1.0
  H  H71  1  0.15200000  0.51606000  0.48970000  1.0
  H  H72  1  0.65196000  0.98394000  0.98970000  1.0
  H  H73  1  0.84797000  0.48393000  0.51030000  1.0
  H  H74  1  0.28952000  0.81752000  0.98775000  1.0
  H  H75  1  0.21049000  0.31752000  0.51226000  1.0
  H  H76  1  0.71046000  0.18248000  0.01225000  1.0
  H  H77  1  0.78948000  0.68247000  0.48774000  1.0
  H  H78  1  0.33480000  0.89331000  0.90924000  1.0
  H  H79  1  0.16521000  0.39331000  0.59077000  1.0
  H  H80  1  0.66519000  0.10670000  0.09076000  1.0
  H  H81  1  0.83476000  0.60668000  0.40923000  1.0
  H  H82  1  0.46414000  0.76334000  0.97107000  1.0
  H  H83  1  0.03587000  0.26335000  0.52895000  1.0
  H  H84  1  0.53584000  0.23666000  0.02893000  1.0
  H  H85  1  0.96411000  0.73665000  0.47106000  1.0
  H  H86  1  0.51143000  0.87688000  0.96697000  1.0
  H  H87  1  0.98858000  0.37689000  0.53304000  1.0
  H  H88  1  0.48856000  0.12312000  0.03303000  1.0
  H  H89  1  0.01140000  0.62311000  0.46696000  1.0
  H  H90  1  0.54329000  0.83143000  0.11866000  1.0
  H  H91  1  0.95672000  0.33143000  0.38135000  1.0
  H  H92  1  0.45669000  0.16856000  0.88134000  1.0
  H  H93  1  0.04326000  0.66856000  0.61865000  1.0
  H  H94  1  0.41853000  0.78342000  0.12040000  1.0
  H  H95  1  0.08148000  0.28342000  0.37961000  1.0
  H  H96  1  0.58144000  0.21658000  0.87959000  1.0
  H  H97  1  0.91849000  0.71657000  0.62039000  1.0
  H  H98  1  0.38562000  0.93388000  0.17742000  1.0
  H  H99  1  0.11440000  0.43387000  0.32259000  1.0
  H  H100  1  0.61437000  0.06613000  0.82258000  1.0
  H  H101  1  0.88558000  0.56611000  0.67741000  1.0
  H  H102  1  0.47702000  0.98486000  0.11296000  1.0
  H  H103  1  0.02299000  0.48486000  0.38704000  1.0
  H  H104  1  0.52296000  0.01514000  0.88703000  1.0
  H  H105  1  0.97699000  0.51514000  0.61295000  1.0
  C  C106  1  0.87434000  0.18492000  0.80228000  1.0
  C  C107  1  0.62565000  0.68491000  0.69774000  1.0
  C  C108  1  0.12566000  0.81510000  0.19772000  1.0
  C  C109  1  0.37435000  0.31507000  0.30227000  1.0
  C  C110  1  0.80479000  0.15341000  0.74013000  1.0
  C  C111  1  0.69521000  0.65340000  0.75988000  1.0
  C  C112  1  0.19522000  0.84661000  0.25987000  1.0
  C  C113  1  0.30480000  0.34658000  0.24012000  1.0
  C  C114  1  0.78287000  0.20732000  0.66769000  1.0
  C  C115  1  0.71715000  0.70732000  0.83231000  1.0
  C  C116  1  0.21715000  0.79270000  0.33231000  1.0
  C  C117  1  0.28286000  0.29267000  0.16770000  1.0
  C  C118  1  0.83257000  0.29151000  0.66084000  1.0
  C  C119  1  0.66746000  0.79152000  0.83916000  1.0
  C  C120  1  0.16744000  0.70851000  0.33916000  1.0
  C  C121  1  0.33255000  0.20847000  0.16085000  1.0
  C  C122  1  0.90183000  0.31817000  0.72540000  1.0
  C  C123  1  0.59819000  0.81818000  0.77460000  1.0
  C  C124  1  0.09817000  0.68186000  0.27461000  1.0
  C  C125  1  0.40180000  0.18181000  0.22541000  1.0
  C  C126  1  0.70881000  0.17648000  0.60248000  1.0
  C  C127  1  0.79123000  0.67649000  0.89751000  1.0
  C  C128  1  0.29122000  0.82353000  0.39751000  1.0
  C  C129  1  0.20879000  0.32350000  0.10249000  1.0
  C  C130  1  0.16938000  0.25094000  0.76319000  1.0
  C  C131  1  0.33062000  0.75094000  0.73682000  1.0
  C  C132  1  0.83063000  0.74907000  0.23681000  1.0
  C  C133  1  0.66937000  0.24907000  0.26317000  1.0
  C  C134  1  0.23807000  0.19749000  0.72085000  1.0
  C  C135  1  0.26194000  0.69749000  0.77915000  1.0
  C  C136  1  0.76194000  0.80251000  0.27914000  1.0
  C  C137  1  0.73805000  0.30252000  0.22084000  1.0
  C  C138  1  0.26706000  0.11257000  0.75533000  1.0
  C  C139  1  0.23295000  0.61258000  0.74468000  1.0
  C  C140  1  0.73295000  0.88743000  0.24467000  1.0
  C  C141  1  0.76705000  0.38743000  0.25531000  1.0
  C  C142  1  0.22419000  0.08519000  0.83181000  1.0
  C  C143  1  0.27580000  0.58521000  0.66819000  1.0
  C  C144  1  0.77580000  0.91481000  0.16819000  1.0
  C  C145  1  0.72419000  0.41480000  0.33180000  1.0
  C  C146  1  0.15544000  0.14261000  0.87042000  1.0
  C  C147  1  0.34455000  0.64263000  0.62957000  1.0
  C  C148  1  0.84456000  0.85740000  0.12957000  1.0
  C  C149  1  0.65545000  0.35738000  0.37042000  1.0
  C  C150  1  0.33740000  0.05546000  0.70988000  1.0
  C  C151  1  0.16262000  0.55546000  0.79013000  1.0
  C  C152  1  0.66261000  0.94454000  0.29012000  1.0
  C  C153  1  0.83738000  0.44455000  0.20987000  1.0
  C  C154  1  0.45919000  0.32687000  0.56072000  1.0
  C  C155  1  0.04085000  0.82691000  0.93927000  1.0
  C  C156  1  0.54082000  0.67309000  0.43927000  1.0
  C  C157  1  0.95914000  0.17309000  0.06073000  1.0
  C  C158  1  0.50751000  0.30056000  0.71092000  1.0
  C  C159  1  0.99251000  0.80058000  0.78907000  1.0
  C  C160  1  0.49249000  0.69942000  0.28907000  1.0
  C  C161  1  0.00749000  0.19943000  0.21092000  1.0
  C  C162  1  0.56401000  0.44052000  0.63733000  1.0
  C  C163  1  0.93600000  0.94054000  0.86264000  1.0
  C  C164  1  0.43599000  0.55945000  0.36265000  1.0
  C  C165  1  0.06400000  0.05946000  0.13735000  1.0
  C  C166  1  0.33498000  0.94972000  0.04084000  1.0
  C  C167  1  0.16503000  0.44972000  0.45917000  1.0
  C  C168  1  0.66500000  0.05028000  0.95916000  1.0
  C  C169  1  0.83494000  0.55027000  0.54083000  1.0
  C  C170  1  0.34625000  0.87099000  0.97597000  1.0
  C  C171  1  0.15376000  0.37099000  0.52404000  1.0
  C  C172  1  0.65374000  0.12901000  0.02403000  1.0
  C  C173  1  0.84621000  0.62900000  0.47596000  1.0
  C  C174  1  0.45383000  0.83277000  0.99561000  1.0
  C  C175  1  0.04618000  0.33277000  0.50440000  1.0
  C  C176  1  0.54615000  0.16723000  0.00439000  1.0
  C  C177  1  0.95380000  0.66722000  0.49560000  1.0
  C  C178  1  0.46412000  0.83858000  0.09330000  1.0
  C  C179  1  0.03589000  0.33858000  0.40671000  1.0
  C  C180  1  0.53586000  0.16142000  0.90670000  1.0
  C  C181  1  0.96408000  0.66141000  0.59329000  1.0
  C  C182  1  0.41725000  0.93211000  0.11354000  1.0
  C  C183  1  0.08277000  0.43211000  0.38647000  1.0
  C  C184  1  0.58274000  0.06789000  0.88646000  1.0
  C  C185  1  0.91721000  0.56788000  0.61353000  1.0
  N  N186  1  0.92245000  0.26554000  0.79433000  1.0
  N  N187  1  0.57756000  0.76554000  0.70568000  1.0
  N  N188  1  0.07755000  0.73448000  0.20568000  1.0
  N  N189  1  0.42244000  0.23445000  0.29433000  1.0
  N  N190  1  0.67883000  0.22504000  0.53248000  1.0
  N  N191  1  0.82122000  0.72506000  0.96750000  1.0
  N  N192  1  0.32120000  0.77497000  0.46752000  1.0
  N  N193  1  0.17880000  0.27494000  0.03250000  1.0
  N  N194  1  0.60967000  0.17256000  0.49297000  1.0
  N  N195  1  0.89038000  0.67258000  0.00701000  1.0
  N  N196  1  0.39036000  0.82744000  0.50702000  1.0
  N  N197  1  0.10964000  0.32742000  0.99299000  1.0
  N  N198  1  0.59893000  0.09550000  0.53713000  1.0
  N  N199  1  0.90112000  0.59551000  0.96286000  1.0
  N  N200  1  0.40111000  0.90451000  0.46287000  1.0
  N  N201  1  0.09891000  0.40449000  0.03714000  1.0
  N  N202  1  0.65964000  0.09562000  0.60622000  1.0
  N  N203  1  0.84040000  0.59563000  0.89377000  1.0
  N  N204  1  0.34039000  0.90439000  0.39377000  1.0
  N  N205  1  0.15963000  0.40436000  0.10623000  1.0
  N  N206  1  0.12879000  0.22415000  0.83677000  1.0
  N  N207  1  0.37120000  0.72417000  0.66324000  1.0
  N  N208  1  0.87122000  0.77585000  0.16323000  1.0
  N  N209  1  0.62879000  0.27584000  0.33676000  1.0
  N  N210  1  0.37888000  0.08224000  0.63650000  1.0
  N  N211  1  0.12113000  0.58224000  0.86351000  1.0
  N  N212  1  0.62113000  0.91776000  0.36350000  1.0
  N  N213  1  0.87887000  0.41777000  0.13649000  1.0
  N  N214  1  0.43264000  0.01079000  0.61345000  1.0
  N  N215  1  0.06738000  0.51078000  0.88655000  1.0
  N  N216  1  0.56737000  0.98922000  0.38655000  1.0
  N  N217  1  0.93264000  0.48922000  0.11345000  1.0
  N  N218  1  0.42573000  0.94287000  0.66969000  1.0
  N  N219  1  0.07429000  0.44287000  0.83032000  1.0
  N  N220  1  0.57428000  0.05713000  0.33032000  1.0
  N  N221  1  0.92572000  0.55713000  0.16969000  1.0
  N  N222  1  0.36594000  0.96964000  0.73163000  1.0
  N  N223  1  0.13408000  0.46964000  0.76837000  1.0
  N  N224  1  0.63406000  0.03037000  0.26837000  1.0
  N  N225  1  0.86593000  0.53037000  0.23163000  1.0
  N  N226  1  0.40741000  0.13054000  0.44467000  1.0
  N  N227  1  0.09263000  0.63054000  0.05534000  1.0
  N  N228  1  0.59264000  0.86944000  0.55535000  1.0
  N  N229  1  0.90739000  0.36947000  0.94467000  1.0
  N  N230  1  0.31853000  0.13563000  0.42084000  1.0
  N  N231  1  0.18150000  0.63559000  0.07923000  1.0
  N  N232  1  0.68152000  0.86439000  0.57923000  1.0
  N  N233  1  0.81852000  0.36441000  0.92080000  1.0
  N  N234  1  0.23199000  0.13979000  0.40000000  1.0
  N  N235  1  0.26802000  0.63972000  0.10013000  1.0
  N  N236  1  0.76803000  0.86027000  0.60010000  1.0
  N  N237  1  0.73200000  0.36028000  0.89991000  1.0
  N  N238  1  0.50699000  0.35561000  0.63378000  1.0
  N  N239  1  0.99304000  0.85564000  0.86620000  1.0
  N  N240  1  0.49302000  0.64436000  0.36620000  1.0
  N  N241  1  0.00696000  0.14437000  0.13380000  1.0
  O  O242  1  0.45737000  0.36891000  0.49154000  1.0
  O  O243  1  0.04267000  0.86894000  0.00844000  1.0
  O  O244  1  0.54264000  0.63105000  0.50845000  1.0
  O  O245  1  0.95732000  0.13106000  0.99155000  1.0
