# generated using pymatgen
data_Al2H5C20(SO9)2
_symmetry_space_group_name_H-M   'P 1'
_cell_length_a   6.84905000
_cell_length_b   18.73550000
_cell_length_c   21.82830000
_cell_angle_alpha   86.89940000
_cell_angle_beta   86.41540000
_cell_angle_gamma   86.26990000
_symmetry_Int_Tables_number   1
_chemical_formula_structural   Al2H5C20(SO9)2
_chemical_formula_sum   'Al4 H10 C40 S4 O36'
_cell_volume   2786.09268774
_cell_formula_units_Z   2
loop_
 _symmetry_equiv_pos_site_id
 _symmetry_equiv_pos_as_xyz
  1  'x, y, z'
loop_
 _atom_site_type_symbol
 _atom_site_label
 _atom_site_symmetry_multiplicity
 _atom_site_fract_x
 _atom_site_fract_y
 _atom_site_fract_z
 _atom_site_occupancy
  Al  Al0  1  0.78338000  0.26679000  0.25948000  1.0
  Al  Al1  1  0.22565000  0.73724000  0.73982000  1.0
  Al  Al2  1  0.28422000  0.26590000  0.25987000  1.0
  Al  Al3  1  0.72500000  0.73613000  0.73889000  1.0
  H  H4  1  0.01835000  0.15412000  0.86154000  1.0
  H  H5  1  0.87306000  0.90175000  0.14893000  1.0
  H  H6  1  0.66875000  0.06171000  0.82529000  1.0
  H  H7  1  0.19407000  0.92606000  0.18120000  1.0
  H  H8  1  0.27776000  0.90845000  0.84964000  1.0
  H  H9  1  0.44035000  0.08538000  0.99861000  1.0
  H  H10  1  0.55521000  0.17861000  0.23731000  1.0
  H  H11  1  0.46765000  0.82365000  0.70805000  1.0
  H  H12  1  0.02272000  0.35895000  0.24379000  1.0
  H  H13  1  0.99599000  0.64422000  0.73089000  1.0
  C  C14  1  0.53573000  0.35366000  0.17489000  1.0
  C  C15  1  0.46979000  0.65503000  0.82656000  1.0
  C  C16  1  0.50149000  0.34617000  0.34177000  1.0
  C  C17  1  0.50696000  0.65209000  0.65973000  1.0
  C  C18  1  0.02962000  0.17862000  0.34322000  1.0
  C  C19  1  0.97978000  0.82487000  0.65478000  1.0
  C  C20  1  0.06594000  0.18492000  0.17839000  1.0
  C  C21  1  0.93920000  0.81850000  0.81990000  1.0
  C  C22  1  0.88298000  0.03603000  0.95274000  1.0
  C  C23  1  0.10711000  0.97098000  0.04207000  1.0
  C  C24  1  0.09248000  0.05783000  0.96808000  1.0
  C  C25  1  0.89779000  0.94899000  0.02794000  1.0
  C  C26  1  0.07484000  0.13912000  0.12721000  1.0
  C  C27  1  0.92615000  0.86387000  0.87125000  1.0
  C  C28  1  0.82146000  0.03088000  0.02478000  1.0
  C  C29  1  0.16827000  0.97581000  0.97189000  1.0
  C  C30  1  0.03219000  0.05251000  0.03924000  1.0
  C  C31  1  0.95727000  0.95455000  0.95692000  1.0
  C  C32  1  0.06411000  0.10076000  0.08470000  1.0
  C  C33  1  0.92947000  0.90445000  0.91259000  1.0
  C  C34  1  0.98133000  0.87838000  0.60503000  1.0
  C  C35  1  0.02682000  0.12515000  0.39331000  1.0
  C  C36  1  0.98888000  0.92587000  0.56416000  1.0
  C  C37  1  0.01866000  0.07801000  0.43443000  1.0
  C  C38  1  0.99833000  0.97794000  0.51970000  1.0
  C  C39  1  0.00862000  0.02609000  0.47901000  1.0
  C  C40  1  0.53197000  0.40044000  0.12046000  1.0
  C  C41  1  0.47284000  0.60845000  0.88093000  1.0
  C  C42  1  0.52113000  0.44030000  0.07418000  1.0
  C  C43  1  0.48330000  0.56845000  0.92713000  1.0
  C  C44  1  0.50845000  0.48411000  0.02377000  1.0
  C  C45  1  0.49546000  0.52465000  0.97755000  1.0
  C  C46  1  0.48952000  0.39344000  0.39197000  1.0
  C  C47  1  0.51616000  0.60495000  0.60965000  1.0
  C  C48  1  0.49230000  0.43434000  0.43387000  1.0
  C  C49  1  0.51190000  0.56450000  0.56746000  1.0
  C  C50  1  0.49781000  0.47901000  0.47960000  1.0
  C  C51  1  0.50580000  0.52015000  0.52152000  1.0
  C  C52  1  0.78876000  0.07413000  0.89854000  1.0
  C  C53  1  0.22093000  0.93960000  0.09422000  1.0
  S  S54  1  0.20106000  0.13688000  0.93446000  1.0
  S  S55  1  0.83464000  0.86240000  0.06223000  1.0
  S  S56  1  0.37546000  0.92700000  0.93778000  1.0
  S  S57  1  0.63378000  0.07909000  0.06916000  1.0
  O  O58  1  0.34116000  0.32588000  0.32439000  1.0
  O  O59  1  0.66922000  0.67268000  0.67591000  1.0
  O  O60  1  0.70393000  0.33448000  0.19432000  1.0
  O  O61  1  0.30224000  0.67702000  0.80823000  1.0
  O  O62  1  0.89321000  0.20089000  0.20063000  1.0
  O  O63  1  0.11322000  0.80608000  0.79650000  1.0
  O  O64  1  0.67434000  0.33038000  0.31966000  1.0
  O  O65  1  0.33480000  0.66793000  0.68296000  1.0
  O  O66  1  0.86261000  0.20109000  0.32527000  1.0
  O  O67  1  0.14767000  0.80227000  0.67259000  1.0
  O  O68  1  0.36833000  0.33706000  0.19846000  1.0
  O  O69  1  0.63654000  0.66930000  0.80124000  1.0
  O  O70  1  0.54204000  0.22317000  0.25845000  1.0
  O  O71  1  0.46882000  0.78090000  0.73527000  1.0
  O  O72  1  0.19762000  0.19641000  0.32194000  1.0
  O  O73  1  0.81195000  0.80666000  0.67651000  1.0
  O  O74  1  0.22754000  0.20340000  0.19646000  1.0
  O  O75  1  0.78073000  0.79756000  0.80224000  1.0
  O  O76  1  0.02710000  0.30909000  0.25842000  1.0
  O  O77  1  0.98330000  0.69450000  0.73987000  1.0
  O  O78  1  0.10717000  0.19701000  0.96418000  1.0
  O  O79  1  0.41176000  0.12261000  0.93509000  1.0
  O  O80  1  0.16161000  0.13896000  0.86391000  1.0
  O  O81  1  0.67805000  0.83364000  0.03379000  1.0
  O  O82  1  0.02528000  0.82472000  0.06255000  1.0
  O  O83  1  0.76172000  0.88123000  0.13022000  1.0
  O  O84  1  0.78919000  0.13950000  0.88915000  1.0
  O  O85  1  0.72497000  0.03101000  0.85846000  1.0
  O  O86  1  0.38917000  0.91684000  0.09193000  1.0
  O  O87  1  0.10709000  0.94367000  0.14889000  1.0
  O  O88  1  0.54768000  0.95949000  0.95283000  1.0
  O  O89  1  0.34538000  0.85273000  0.94979000  1.0
  O  O90  1  0.34704000  0.94730000  0.86597000  1.0
  O  O91  1  0.63437000  0.04851000  0.13077000  1.0
  O  O92  1  0.66398000  0.15339000  0.05483000  1.0
  O  O93  1  0.44269000  0.05894000  0.04068000  1.0
