# generated using pymatgen
data_Zn4H30C36Br2O13
_symmetry_space_group_name_H-M   'P 1'
_cell_length_a   17.80640000
_cell_length_b   18.61390000
_cell_length_c   23.41420000
_cell_angle_alpha   113.35020000
_cell_angle_beta   110.42270000
_cell_angle_gamma   90.24640000
_symmetry_Int_Tables_number   1
_chemical_formula_structural   Zn4H30C36Br2O13
_chemical_formula_sum   'Zn8 H60 C72 Br4 O26'
_cell_volume   6584.76243114
_cell_formula_units_Z   2
loop_
 _symmetry_equiv_pos_site_id
 _symmetry_equiv_pos_as_xyz
  1  'x, y, z'
loop_
 _atom_site_type_symbol
 _atom_site_label
 _atom_site_symmetry_multiplicity
 _atom_site_fract_x
 _atom_site_fract_y
 _atom_site_fract_z
 _atom_site_occupancy
  Zn  Zn0  1  0.88149000  0.46983000  0.94371000  1.0
  Zn  Zn1  1  0.02971000  0.44250000  0.05293000  1.0
  Zn  Zn2  1  0.02189000  0.61118000  0.04777000  1.0
  Zn  Zn3  1  0.05926000  0.46799000  0.93264000  1.0
  Zn  Zn4  1  0.61447000  0.02029000  0.04764000  1.0
  Zn  Zn5  1  0.47121000  0.88434000  0.93857000  1.0
  Zn  Zn6  1  0.47430000  0.05346000  0.93547000  1.0
  Zn  Zn7  1  0.43406000  0.02961000  0.05186000  1.0
  H  H8  1  0.50810000  0.12625000  0.25818000  1.0
  H  H9  1  0.56508000  0.18920000  0.38378000  1.0
  H  H10  1  0.80645000  0.19705000  0.38209000  1.0
  H  H11  1  0.67825000  0.30098000  0.60693000  1.0
  H  H12  1  0.97723000  0.36629000  0.72696000  1.0
  H  H13  1  0.91783000  0.30308000  0.60142000  1.0
  H  H14  1  0.37735000  0.97408000  0.73124000  1.0
  H  H15  1  0.30884000  0.91510000  0.60598000  1.0
  H  H16  1  0.29361000  0.68263000  0.60383000  1.0
  H  H17  1  0.19600000  0.81081000  0.38909000  1.0
  H  H18  1  0.12699000  0.51963000  0.25427000  1.0
  H  H19  1  0.18530000  0.57467000  0.37970000  1.0
  H  H20  1  0.79991000  0.69749000  0.90973000  1.0
  H  H21  1  0.87169000  0.76971000  0.98633000  1.0
  H  H22  1  0.78201000  0.86084000  0.98307000  1.0
  H  H23  1  0.71033000  0.78770000  0.90703000  1.0
  H  H24  1  0.78311000  0.87481000  0.09449000  1.0
  H  H25  1  0.71115000  0.81327000  0.09836000  1.0
  H  H26  1  0.87142000  0.78212000  0.09740000  1.0
  H  H27  1  0.79800000  0.72044000  0.09964000  1.0
  H  H28  1  0.69511000  0.60697000  0.91238000  1.0
  H  H29  1  0.69482000  0.61533000  0.98974000  1.0
  H  H30  1  0.60660000  0.70784000  0.98932000  1.0
  H  H31  1  0.60547000  0.69814000  0.91130000  1.0
  H  H32  1  0.10943000  0.19940000  0.90573000  1.0
  H  H33  1  0.11333000  0.21236000  0.98585000  1.0
  H  H34  1  0.20300000  0.12107000  0.98728000  1.0
  H  H35  1  0.19892000  0.10903000  0.90731000  1.0
  H  H36  1  0.30655000  0.22564000  0.09258000  1.0
  H  H37  1  0.37803000  0.28782000  0.08885000  1.0
  H  H38  1  0.21838000  0.31851000  0.09140000  1.0
  H  H39  1  0.28956000  0.37901000  0.08583000  1.0
  H  H40  1  0.21005000  0.28791000  0.89736000  1.0
  H  H41  1  0.28306000  0.36186000  0.97063000  1.0
  H  H42  1  0.37342000  0.27163000  0.97371000  1.0
  H  H43  1  0.30092000  0.19804000  0.89993000  1.0
  H  H44  1  0.83839000  0.20640000  0.93798000  1.0
  H  H45  1  0.75497000  0.24332000  0.89728000  1.0
  H  H46  1  0.66605000  0.14756000  0.89381000  1.0
  H  H47  1  0.74999000  0.11166000  0.93510000  1.0
  H  H48  1  0.60662000  0.25618000  0.96085000  1.0
  H  H49  1  0.64765000  0.29700000  0.04969000  1.0
  H  H50  1  0.69630000  0.35225000  0.96497000  1.0
  H  H51  1  0.73721000  0.39182000  0.05378000  1.0
  H  H52  1  0.89888000  0.26428000  0.06624000  1.0
  H  H53  1  0.85769000  0.34006000  0.11333000  1.0
  H  H54  1  0.76813000  0.24491000  0.10996000  1.0
  H  H55  1  0.80948000  0.16931000  0.06302000  1.0
  H  H56  1  0.10145000  0.73076000  0.92848000  1.0
  H  H57  1  0.14684000  0.65600000  0.88375000  1.0
  H  H58  1  0.23196000  0.75405000  0.88617000  1.0
  H  H59  1  0.18807000  0.82827000  0.93300000  1.0
  H  H60  1  0.35165000  0.70355000  0.94544000  1.0
  H  H61  1  0.39522000  0.74426000  0.03421000  1.0
  H  H62  1  0.26579000  0.60762000  0.94532000  1.0
  H  H63  1  0.30839000  0.65053000  0.03413000  1.0
  H  H64  1  0.16137000  0.79338000  0.05636000  1.0
  H  H65  1  0.24403000  0.75973000  0.10023000  1.0
  H  H66  1  0.33442000  0.85288000  0.10226000  1.0
  H  H67  1  0.25144000  0.88900000  0.06137000  1.0
  C  C68  1  0.85986000  0.36526000  0.00473000  1.0
  C  C69  1  0.09052000  0.59205000  0.17517000  1.0
  C  C70  1  0.85354000  0.63538000  0.00002000  1.0
  C  C71  1  0.13998000  0.63266000  0.98920000  1.0
  C  C72  1  0.90584000  0.40904000  0.81348000  1.0
  C  C73  1  0.13841000  0.35683000  0.98912000  1.0
  C  C74  1  0.63764000  0.85621000  0.99586000  1.0
  C  C75  1  0.41805000  0.90529000  0.81320000  1.0
  C  C76  1  0.64314000  0.13609000  0.99758000  1.0
  C  C77  1  0.35722000  0.13694000  0.99301000  1.0
  C  C78  1  0.58256000  0.08393000  0.17368000  1.0
  C  C79  1  0.35358000  0.86199000  0.99281000  1.0
  C  C80  1  0.62344000  0.12443000  0.24885000  1.0
  C  C81  1  0.57357000  0.14180000  0.28636000  1.0
  C  C82  1  0.60510000  0.17681000  0.35609000  1.0
  C  C83  1  0.69007000  0.19664000  0.39170000  1.0
  C  C84  1  0.74088000  0.18102000  0.35508000  1.0
  C  C85  1  0.70833000  0.14566000  0.28498000  1.0
  C  C86  1  0.72518000  0.23198000  0.46285000  1.0
  C  C87  1  0.75739000  0.26245000  0.52421000  1.0
  C  C88  1  0.79355000  0.29795000  0.59534000  1.0
  C  C89  1  0.74400000  0.31539000  0.63303000  1.0
  C  C90  1  0.77788000  0.35068000  0.70315000  1.0
  C  C91  1  0.86308000  0.37010000  0.73835000  1.0
  C  C92  1  0.91161000  0.35163000  0.69963000  1.0
  C  C93  1  0.87872000  0.31652000  0.62993000  1.0
  C  C94  1  0.37593000  0.86308000  0.73840000  1.0
  C  C95  1  0.35906000  0.91014000  0.70225000  1.0
  C  C96  1  0.32087000  0.87759000  0.63288000  1.0
  C  C97  1  0.29728000  0.79459000  0.59635000  1.0
  C  C98  1  0.31245000  0.74661000  0.63159000  1.0
  C  C99  1  0.35130000  0.78018000  0.70143000  1.0
  C  C100  1  0.25953000  0.75970000  0.52541000  1.0
  C  C101  1  0.22850000  0.73001000  0.46403000  1.0
  C  C102  1  0.19429000  0.69676000  0.39298000  1.0
  C  C103  1  0.18053000  0.74681000  0.35964000  1.0
  C  C104  1  0.14780000  0.71537000  0.28960000  1.0
  C  C105  1  0.12753000  0.63247000  0.25045000  1.0
  C  C106  1  0.14227000  0.58346000  0.28484000  1.0
  C  C107  1  0.17461000  0.61386000  0.35436000  1.0
  C  C108  1  0.80821000  0.73967000  0.96108000  1.0
  C  C109  1  0.74884000  0.80001000  0.95928000  1.0
  C  C110  1  0.69410000  0.79530000  0.99689000  1.0
  C  C111  1  0.74933000  0.81421000  0.07042000  1.0
  C  C112  1  0.80770000  0.75289000  0.07178000  1.0
  C  C113  1  0.79334000  0.69300000  0.99923000  1.0
  C  C114  1  0.70497000  0.65000000  0.96372000  1.0
  C  C115  1  0.64613000  0.71078000  0.96300000  1.0
  C  C116  1  0.15096000  0.21380000  0.95768000  1.0
  C  C117  1  0.21061000  0.15336000  0.95875000  1.0
  C  C118  1  0.29933000  0.19702000  0.99152000  1.0
  C  C119  1  0.31448000  0.25766000  0.06398000  1.0
  C  C120  1  0.25555000  0.31848000  0.06260000  1.0
  C  C121  1  0.19873000  0.29886000  0.98934000  1.0
  C  C122  1  0.25030000  0.30123000  0.94932000  1.0
  C  C123  1  0.31017000  0.24138000  0.95102000  1.0
  C  C124  1  0.78190000  0.22860000  0.94037000  1.0
  C  C125  1  0.72291000  0.16542000  0.93824000  1.0
  C  C126  1  0.70293000  0.19888000  0.00225000  1.0
  C  C127  1  0.66363000  0.27347000  0.00506000  1.0
  C  C128  1  0.72309000  0.33678000  0.00763000  1.0
  C  C129  1  0.80286000  0.30534000  0.00610000  1.0
  C  C130  1  0.84154000  0.28547000  0.06666000  1.0
  C  C131  1  0.78222000  0.22248000  0.06446000  1.0
  C  C132  1  0.15992000  0.71133000  0.92935000  1.0
  C  C133  1  0.21731000  0.77593000  0.93137000  1.0
  C  C134  1  0.29730000  0.80139000  0.99418000  1.0
  C  C135  1  0.33720000  0.72687000  0.99072000  1.0
  C  C136  1  0.27960000  0.66372000  0.99029000  1.0
  C  C137  1  0.19964000  0.69418000  0.99193000  1.0
  C  C138  1  0.21850000  0.77203000  0.05564000  1.0
  C  C139  1  0.27763000  0.83480000  0.05768000  1.0
  Br  Br140  1  0.78636000  0.13294000  0.24444000  1.0
  Br  Br141  1  0.70013000  0.36769000  0.74424000  1.0
  Br  Br142  1  0.36422000  0.70654000  0.74067000  1.0
  Br  Br143  1  0.13629000  0.79224000  0.25375000  1.0
  O  O144  1  0.99963000  0.49630000  0.99310000  1.0
  O  O145  1  0.83021000  0.38942000  0.95866000  1.0
  O  O146  1  0.08801000  0.51690000  0.14829000  1.0
  O  O147  1  0.92853000  0.66604000  0.03344000  1.0
  O  O148  1  0.93260000  0.38563000  0.04813000  1.0
  O  O149  1  0.82549000  0.56138000  0.96674000  1.0
  O  O150  1  0.06355000  0.63462000  0.14385000  1.0
  O  O151  1  0.10280000  0.65891000  0.02911000  1.0
  O  O152  1  0.98344000  0.41631000  0.83695000  1.0
  O  O153  1  0.13029000  0.56064000  0.94687000  1.0
  O  O154  1  0.86199000  0.43231000  0.84793000  1.0
  O  O155  1  0.10023000  0.36551000  0.02802000  1.0
  O  O156  1  0.13006000  0.39150000  0.95050000  1.0
  O  O157  1  0.49738000  0.99892000  0.99443000  1.0
  O  O158  1  0.67072000  0.92910000  0.02412000  1.0
  O  O159  1  0.45065000  0.86458000  0.84509000  1.0
  O  O160  1  0.57344000  0.11611000  0.94955000  1.0
  O  O161  1  0.56145000  0.83037000  0.96684000  1.0
  O  O162  1  0.66708000  0.10788000  0.04127000  1.0
  O  O163  1  0.41872000  0.98020000  0.83944000  1.0
  O  O164  1  0.39905000  0.12677000  0.95683000  1.0
  O  O165  1  0.50680000  0.08651000  0.14831000  1.0
  O  O166  1  0.35923000  0.10133000  0.03024000  1.0
  O  O167  1  0.62568000  0.04893000  0.14107000  1.0
  O  O168  1  0.37728000  0.83694000  0.94367000  1.0
  O  O169  1  0.37244000  0.93229000  0.03959000  1.0
