# generated using pymatgen
data_Gd2Co3H30C42(NO5)6
_symmetry_space_group_name_H-M   'P 1'
_cell_length_a   15.23960000
_cell_length_b   15.23960000
_cell_length_c   15.44140000
_cell_angle_alpha   90.00000000
_cell_angle_beta   90.00000000
_cell_angle_gamma   120.00000000
_symmetry_Int_Tables_number   1
_chemical_formula_structural   Gd2Co3H30C42(NO5)6
_chemical_formula_sum   'Gd4 Co6 H60 C84 N12 O60'
_cell_volume   3105.73531956
_cell_formula_units_Z   2
loop_
 _symmetry_equiv_pos_site_id
 _symmetry_equiv_pos_as_xyz
  1  'x, y, z'
loop_
 _atom_site_type_symbol
 _atom_site_label
 _atom_site_symmetry_multiplicity
 _atom_site_fract_x
 _atom_site_fract_y
 _atom_site_fract_z
 _atom_site_occupancy
  Gd  Gd0  1  0.66666667  0.33333333  0.75000000  1.0
  Gd  Gd1  1  0.33333333  0.66666667  0.75000000  1.0
  Gd  Gd2  1  0.33333333  0.66666667  0.25000000  1.0
  Gd  Gd3  1  0.66666667  0.33333333  0.25000000  1.0
  Co  Co4  1  0.50000000  0.50000000  1.00000000  1.0
  Co  Co5  1  1.00000000  0.50000000  0.00000000  1.0
  Co  Co6  1  0.50000000  0.00000000  0.00000000  1.0
  Co  Co7  1  1.00000000  0.50000000  0.50000000  1.0
  Co  Co8  1  0.50000000  0.50000000  0.50000000  1.0
  Co  Co9  1  0.50000000  0.00000000  0.50000000  1.0
  H  H10  1  0.53145000  0.36104000  0.05194000  1.0
  H  H11  1  0.82959000  0.46855000  0.05194000  1.0
  H  H12  1  0.63896000  0.17041000  0.05194000  1.0
  H  H13  1  0.17041000  0.53145000  0.05194000  1.0
  H  H14  1  0.36104000  0.82959000  0.05194000  1.0
  H  H15  1  0.17041000  0.63896000  0.44806000  1.0
  H  H16  1  0.63896000  0.46855000  0.44806000  1.0
  H  H17  1  0.53145000  0.17041000  0.44806000  1.0
  H  H18  1  0.46855000  0.63896000  0.05194000  1.0
  H  H19  1  0.36104000  0.53145000  0.44806000  1.0
  H  H20  1  0.46855000  0.82959000  0.44806000  1.0
  H  H21  1  0.82959000  0.36104000  0.44806000  1.0
  H  H22  1  0.46855000  0.63896000  0.94806000  1.0
  H  H23  1  0.17041000  0.53145000  0.94806000  1.0
  H  H24  1  0.36104000  0.82959000  0.94806000  1.0
  H  H25  1  0.82959000  0.46855000  0.94806000  1.0
  H  H26  1  0.63896000  0.17041000  0.94806000  1.0
  H  H27  1  0.82959000  0.36104000  0.55194000  1.0
  H  H28  1  0.36104000  0.53145000  0.55194000  1.0
  H  H29  1  0.46855000  0.82959000  0.55194000  1.0
  H  H30  1  0.53145000  0.36104000  0.94806000  1.0
  H  H31  1  0.63896000  0.46855000  0.55194000  1.0
  H  H32  1  0.53145000  0.17041000  0.55194000  1.0
  H  H33  1  0.17041000  0.63896000  0.55194000  1.0
  H  H34  1  0.76066000  0.71738000  0.85257000  1.0
  H  H35  1  0.95672000  0.23934000  0.85257000  1.0
  H  H36  1  0.28262000  0.04328000  0.85257000  1.0
  H  H37  1  0.04328000  0.76066000  0.85257000  1.0
  H  H38  1  0.71738000  0.95672000  0.85257000  1.0
  H  H39  1  0.04328000  0.28262000  0.64743000  1.0
  H  H40  1  0.28262000  0.23934000  0.64743000  1.0
  H  H41  1  0.76066000  0.04328000  0.64744000  1.0
  H  H42  1  0.23934000  0.28262000  0.85257000  1.0
  H  H43  1  0.71738000  0.76066000  0.64743000  1.0
  H  H44  1  0.23934000  0.95672000  0.64744000  1.0
  H  H45  1  0.95672000  0.71738000  0.64743000  1.0
  H  H46  1  0.23934000  0.28262000  0.14743000  1.0
  H  H47  1  0.04328000  0.76066000  0.14744000  1.0
  H  H48  1  0.71738000  0.95672000  0.14743000  1.0
  H  H49  1  0.95672000  0.23934000  0.14743000  1.0
  H  H50  1  0.28262000  0.04328000  0.14743000  1.0
  H  H51  1  0.95672000  0.71738000  0.35257000  1.0
  H  H52  1  0.71738000  0.76066000  0.35257000  1.0
  H  H53  1  0.23934000  0.95672000  0.35257000  1.0
  H  H54  1  0.76066000  0.71738000  0.14743000  1.0
  H  H55  1  0.28262000  0.23934000  0.35257000  1.0
  H  H56  1  0.76066000  0.04328000  0.35256000  1.0
  H  H57  1  0.04328000  0.28262000  0.35257000  1.0
  H  H58  1  0.90791000  0.81582000  0.75000000  1.0
  H  H59  1  0.90791000  0.09210000  0.75000000  1.0
  H  H60  1  0.18419000  0.09210000  0.75000000  1.0
  H  H61  1  0.09209000  0.90790000  0.75000000  1.0
  H  H62  1  0.81581000  0.90790000  0.75000000  1.0
  H  H63  1  0.09209000  0.18418000  0.75000000  1.0
  H  H64  1  0.09209000  0.18418000  0.25000000  1.0
  H  H65  1  0.09209000  0.90790000  0.25000000  1.0
  H  H66  1  0.81581000  0.90790000  0.25000000  1.0
  H  H67  1  0.90791000  0.09210000  0.25000000  1.0
  H  H68  1  0.18419000  0.09210000  0.25000000  1.0
  H  H69  1  0.90791000  0.81582000  0.25000000  1.0
  C  C70  1  0.64543000  0.50913000  0.86113000  1.0
  C  C71  1  0.86370000  0.35457000  0.86113000  1.0
  C  C72  1  0.49087000  0.13630000  0.86113000  1.0
  C  C73  1  0.13629000  0.64543000  0.86114000  1.0
  C  C74  1  0.50913000  0.86370000  0.86113000  1.0
  C  C75  1  0.13629000  0.49086000  0.63886000  1.0
  C  C76  1  0.49087000  0.35457000  0.63887000  1.0
  C  C77  1  0.64543000  0.13630000  0.63887000  1.0
  C  C78  1  0.35457000  0.49087000  0.86113000  1.0
  C  C79  1  0.50913000  0.64543000  0.63887000  1.0
  C  C80  1  0.35457000  0.86370000  0.63887000  1.0
  C  C81  1  0.86370000  0.50913000  0.63887000  1.0
  C  C82  1  0.35457000  0.49087000  0.13887000  1.0
  C  C83  1  0.13630000  0.64543000  0.13887000  1.0
  C  C84  1  0.50913000  0.86370000  0.13887000  1.0
  C  C85  1  0.86370000  0.35457000  0.13886000  1.0
  C  C86  1  0.49087000  0.13630000  0.13887000  1.0
  C  C87  1  0.86371000  0.50914000  0.36114000  1.0
  C  C88  1  0.50913000  0.64543000  0.36113000  1.0
  C  C89  1  0.35457000  0.86370000  0.36113000  1.0
  C  C90  1  0.64543000  0.50913000  0.13886000  1.0
  C  C91  1  0.49087000  0.35457000  0.36113000  1.0
  C  C92  1  0.64543000  0.13630000  0.36113000  1.0
  C  C93  1  0.13630000  0.49087000  0.36113000  1.0
  C  C94  1  0.73467000  0.57439000  0.80422000  1.0
  C  C95  1  0.83972000  0.26533000  0.80422000  1.0
  C  C96  1  0.42561000  0.16028000  0.80422000  1.0
  C  C97  1  0.16028000  0.73467000  0.80423000  1.0
  C  C98  1  0.57439000  0.83972000  0.80422000  1.0
  C  C99  1  0.16028000  0.42561000  0.69578000  1.0
  C  C100  1  0.42561000  0.26533000  0.69578000  1.0
  C  C101  1  0.73467000  0.16028000  0.69578000  1.0
  C  C102  1  0.26533000  0.42561000  0.80422000  1.0
  C  C103  1  0.57439000  0.73467000  0.69578000  1.0
  C  C104  1  0.26533000  0.83972000  0.69578000  1.0
  C  C105  1  0.83972000  0.57439000  0.69578000  1.0
  C  C106  1  0.26533000  0.42561000  0.19578000  1.0
  C  C107  1  0.16028000  0.73467000  0.19578000  1.0
  C  C108  1  0.57439000  0.83972000  0.19578000  1.0
  C  C109  1  0.83972000  0.26533000  0.19577000  1.0
  C  C110  1  0.42561000  0.16028000  0.19578000  1.0
  C  C111  1  0.83972000  0.57439000  0.30422000  1.0
  C  C112  1  0.57439000  0.73467000  0.30422000  1.0
  C  C113  1  0.26533000  0.83972000  0.30422000  1.0
  C  C114  1  0.73467000  0.57439000  0.19578000  1.0
  C  C115  1  0.42561000  0.26533000  0.30422000  1.0
  C  C116  1  0.73467000  0.16028000  0.30422000  1.0
  C  C117  1  0.16028000  0.42561000  0.30422000  1.0
  C  C118  1  0.78586000  0.68010000  0.80694000  1.0
  C  C119  1  0.89424000  0.21414000  0.80694000  1.0
  C  C120  1  0.31990000  0.10576000  0.80694000  1.0
  C  C121  1  0.10576000  0.78586000  0.80694000  1.0
  C  C122  1  0.68010000  0.89424000  0.80694000  1.0
  C  C123  1  0.10576000  0.31990000  0.69306000  1.0
  C  C124  1  0.31990000  0.21414000  0.69306000  1.0
  C  C125  1  0.78586000  0.10576000  0.69306000  1.0
  C  C126  1  0.21414000  0.31990000  0.80694000  1.0
  C  C127  1  0.68010000  0.78586000  0.69306000  1.0
  C  C128  1  0.21414000  0.89424000  0.69306000  1.0
  C  C129  1  0.89424000  0.68010000  0.69306000  1.0
  C  C130  1  0.21414000  0.31990000  0.19306000  1.0
  C  C131  1  0.10576000  0.78586000  0.19306000  1.0
  C  C132  1  0.68010000  0.89424000  0.19306000  1.0
  C  C133  1  0.89424000  0.21414000  0.19306000  1.0
  C  C134  1  0.31990000  0.10576000  0.19306000  1.0
  C  C135  1  0.89424000  0.68010000  0.30694000  1.0
  C  C136  1  0.68010000  0.78586000  0.30694000  1.0
  C  C137  1  0.21414000  0.89424000  0.30694000  1.0
  C  C138  1  0.78586000  0.68010000  0.19306000  1.0
  C  C139  1  0.31990000  0.21414000  0.30694000  1.0
  C  C140  1  0.78586000  0.10576000  0.30694000  1.0
  C  C141  1  0.10576000  0.31990000  0.30694000  1.0
  C  C142  1  0.86657000  0.73314000  0.75000000  1.0
  C  C143  1  0.86657000  0.13343000  0.75000000  1.0
  C  C144  1  0.26686000  0.13343000  0.75000000  1.0
  C  C145  1  0.13343000  0.86657000  0.75000000  1.0
  C  C146  1  0.73314000  0.86657000  0.75000000  1.0
  C  C147  1  0.13343000  0.26686000  0.75000000  1.0
  C  C148  1  0.13343000  0.26686000  0.25000000  1.0
  C  C149  1  0.13343000  0.86657000  0.25000000  1.0
  C  C150  1  0.73314000  0.86657000  0.25000000  1.0
  C  C151  1  0.86657000  0.13343000  0.25000000  1.0
  C  C152  1  0.26686000  0.13343000  0.25000000  1.0
  C  C153  1  0.86657000  0.73314000  0.25000000  1.0
  N  N154  1  0.76180000  0.52359000  0.75000000  1.0
  N  N155  1  0.76179000  0.23820000  0.75000000  1.0
  N  N156  1  0.47641000  0.23820000  0.75000000  1.0
  N  N157  1  0.23821000  0.76180000  0.75000000  1.0
  N  N158  1  0.52359000  0.76180000  0.75000000  1.0
  N  N159  1  0.23820000  0.47641000  0.75000000  1.0
  N  N160  1  0.23821000  0.47642000  0.25000000  1.0
  N  N161  1  0.23821000  0.76180000  0.25000000  1.0
  N  N162  1  0.52359000  0.76180000  0.25000000  1.0
  N  N163  1  0.76179000  0.23820000  0.25000000  1.0
  N  N164  1  0.47641000  0.23820000  0.25000000  1.0
  N  N165  1  0.76179000  0.52358000  0.25000000  1.0
  O  O166  1  0.61136000  0.41323000  0.85743000  1.0
  O  O167  1  0.80187000  0.38864000  0.85743000  1.0
  O  O168  1  0.58677000  0.19813000  0.85743000  1.0
  O  O169  1  0.19813000  0.61135000  0.85743000  1.0
  O  O170  1  0.41323000  0.80187000  0.85743000  1.0
  O  O171  1  0.19813000  0.58677000  0.64257000  1.0
  O  O172  1  0.58678000  0.38865000  0.64257000  1.0
  O  O173  1  0.61136000  0.19813000  0.64257000  1.0
  O  O174  1  0.38864000  0.58677000  0.85743000  1.0
  O  O175  1  0.41322000  0.61135000  0.64257000  1.0
  O  O176  1  0.38864000  0.80187000  0.64257000  1.0
  O  O177  1  0.80187000  0.41323000  0.64257000  1.0
  O  O178  1  0.38864000  0.58677000  0.14257000  1.0
  O  O179  1  0.19813000  0.61135000  0.14257000  1.0
  O  O180  1  0.41323000  0.80187000  0.14257000  1.0
  O  O181  1  0.80187000  0.38865000  0.14257000  1.0
  O  O182  1  0.58677000  0.19813000  0.14257000  1.0
  O  O183  1  0.80187000  0.41323000  0.35743000  1.0
  O  O184  1  0.41322000  0.61135000  0.35743000  1.0
  O  O185  1  0.38864000  0.80187000  0.35743000  1.0
  O  O186  1  0.61136000  0.41323000  0.14257000  1.0
  O  O187  1  0.58678000  0.38865000  0.35743000  1.0
  O  O188  1  0.61136000  0.19813000  0.35743000  1.0
  O  O189  1  0.19813000  0.58677000  0.35743000  1.0
  O  O190  1  0.61189000  0.55401000  0.90724000  1.0
  O  O191  1  0.94213000  0.38811000  0.90724000  1.0
  O  O192  1  0.44598000  0.05787000  0.90725000  1.0
  O  O193  1  0.05788000  0.61189000  0.90724000  1.0
  O  O194  1  0.55402000  0.94213000  0.90725000  1.0
  O  O195  1  0.05788000  0.44599000  0.59276000  1.0
  O  O196  1  0.44599000  0.38811000  0.59276000  1.0
  O  O197  1  0.61189000  0.05788000  0.59276000  1.0
  O  O198  1  0.38811000  0.44599000  0.90724000  1.0
  O  O199  1  0.55401000  0.61189000  0.59276000  1.0
  O  O200  1  0.38811000  0.94213000  0.59275000  1.0
  O  O201  1  0.94213000  0.55402000  0.59276000  1.0
  O  O202  1  0.38811000  0.44598000  0.09276000  1.0
  O  O203  1  0.05787000  0.61188000  0.09276000  1.0
  O  O204  1  0.55402000  0.94213000  0.09275000  1.0
  O  O205  1  0.94212000  0.38811000  0.09276000  1.0
  O  O206  1  0.44598000  0.05787000  0.09275000  1.0
  O  O207  1  0.94212000  0.55401000  0.40724000  1.0
  O  O208  1  0.55401000  0.61189000  0.40724000  1.0
  O  O209  1  0.38811000  0.94213000  0.40725000  1.0
  O  O210  1  0.61189000  0.55401000  0.09276000  1.0
  O  O211  1  0.44599000  0.38811000  0.40724000  1.0
  O  O212  1  0.61189000  0.05787000  0.40724000  1.0
  O  O213  1  0.05787000  0.44598000  0.40724000  1.0
  O  O214  1  0.49061000  0.35626000  0.00000000  1.0
  O  O215  1  0.86565000  0.50939000  0.00000000  1.0
  O  O216  1  0.64375000  0.13435000  1.00000000  1.0
  O  O217  1  0.13435000  0.49061000  1.00000000  1.0
  O  O218  1  0.35625000  0.86565000  0.00000000  1.0
  O  O219  1  0.13435000  0.64374000  0.50000000  1.0
  O  O220  1  0.64374000  0.50939000  0.50000000  1.0
  O  O221  1  0.49061000  0.13435000  0.50000000  1.0
  O  O222  1  0.50939000  0.64374000  0.00000000  1.0
  O  O223  1  0.35626000  0.49061000  0.50000000  1.0
  O  O224  1  0.50939000  0.86564000  0.50000000  1.0
  O  O225  1  0.86565000  0.35626000  0.50000000  1.0
