# generated using pymatgen
data_MnH4C4(N4O)2
_symmetry_space_group_name_H-M   'P 1'
_cell_length_a   6.45705000
_cell_length_b   6.51844000
_cell_length_c   9.91881000
_cell_angle_alpha   90.00010000
_cell_angle_beta   90.00050000
_cell_angle_gamma   78.86900000
_symmetry_Int_Tables_number   1
_chemical_formula_structural   MnH4C4(N4O)2
_chemical_formula_sum   'Mn2 H8 C8 N16 O4'
_cell_volume   409.62813537
_cell_formula_units_Z   2
loop_
 _symmetry_equiv_pos_site_id
 _symmetry_equiv_pos_as_xyz
  1  'x, y, z'
loop_
 _atom_site_type_symbol
 _atom_site_label
 _atom_site_symmetry_multiplicity
 _atom_site_fract_x
 _atom_site_fract_y
 _atom_site_fract_z
 _atom_site_occupancy
  Mn  Mn0  1  0.00001000  0.00000000  0.50000000  1.0
  Mn  Mn1  1  0.00000000  0.50000000  0.00000000  1.0
  H  H2  1  0.24605000  0.51559000  0.31601000  1.0
  H  H3  1  0.75394000  0.98441000  0.81601000  1.0
  H  H4  1  0.75397000  0.48440000  0.68398000  1.0
  H  H5  1  0.24605000  0.01560000  0.18399000  1.0
  H  H6  1  0.56503000  0.83352000  0.58779000  1.0
  H  H7  1  0.43498000  0.66648000  0.08780000  1.0
  H  H8  1  0.43498000  0.16647000  0.41220000  1.0
  H  H9  1  0.56501000  0.33353000  0.91221000  1.0
  C  C10  1  0.35902000  0.50482000  0.39774000  1.0
  C  C11  1  0.64097000  0.99517000  0.89774000  1.0
  C  C12  1  0.64100000  0.49518000  0.60225000  1.0
  C  C13  1  0.35901000  0.00483000  0.10226000  1.0
  C  C14  1  0.53830000  0.68320000  0.55179000  1.0
  C  C15  1  0.46171000  0.81680000  0.05180000  1.0
  C  C16  1  0.46172000  0.31679000  0.44820000  1.0
  C  C17  1  0.53827000  0.18322000  0.94821000  1.0
  N  N18  1  0.02137000  0.74155000  0.63403000  1.0
  N  N19  1  0.97864000  0.75845000  0.13403000  1.0
  N  N20  1  0.97865000  0.25844000  0.36597000  1.0
  N  N21  1  0.02134000  0.24156000  0.86597000  1.0
  N  N22  1  0.09784000  0.69675000  0.74135000  1.0
  N  N23  1  0.90215000  0.80325000  0.24136000  1.0
  N  N24  1  0.90216000  0.30325000  0.25865000  1.0
  N  N25  1  0.09784000  0.19675000  0.75865000  1.0
  N  N26  1  0.39648000  0.68792000  0.44945000  1.0
  N  N27  1  0.60352000  0.81208000  0.94946000  1.0
  N  N28  1  0.60353000  0.31207000  0.55053000  1.0
  N  N29  1  0.39648000  0.18794000  0.05054000  1.0
  N  N30  1  0.17151000  0.64819000  0.84867000  1.0
  N  N31  1  0.82849000  0.85181000  0.34866000  1.0
  N  N32  1  0.82849000  0.35181000  0.15135000  1.0
  N  N33  1  0.17151000  0.14819000  0.65135000  1.0
  O  O34  1  0.29164000  0.86798000  0.40347000  1.0
  O  O35  1  0.70836000  0.63202000  0.90348000  1.0
  O  O36  1  0.70837000  0.13201000  0.59652000  1.0
  O  O37  1  0.29164000  0.36798000  0.09653000  1.0
