# generated using pymatgen
data_SnP2H30(C7O)4
_symmetry_space_group_name_H-M   'P 1'
_cell_length_a   5.53863000
_cell_length_b   9.89814324
_cell_length_c   12.31235348
_cell_angle_alpha   80.72831084
_cell_angle_beta   77.02345668
_cell_angle_gamma   74.46560927
_symmetry_Int_Tables_number   1
_chemical_formula_structural   SnP2H30(C7O)4
_chemical_formula_sum   'Sn1 P2 H30 C28 O4'
_cell_volume   630.04814953
_cell_formula_units_Z   1
loop_
 _symmetry_equiv_pos_site_id
 _symmetry_equiv_pos_as_xyz
  1  'x, y, z'
loop_
 _atom_site_type_symbol
 _atom_site_label
 _atom_site_symmetry_multiplicity
 _atom_site_fract_x
 _atom_site_fract_y
 _atom_site_fract_z
 _atom_site_occupancy
  Sn  Sn0  1  0.00000000  0.00000000  0.00000000  1.0
  P  P1  1  0.61212000  0.92745000  0.82280000  1.0
  P  P2  1  0.38789000  0.07256000  0.17719000  1.0
  H  H3  1  0.05189000  0.25839000  0.92567000  1.0
  H  H4  1  0.94811000  0.74160000  0.07432000  1.0
  H  H5  1  0.93784000  0.19003000  0.82727000  1.0
  H  H6  1  0.06212000  0.80995000  0.17272000  1.0
  H  H7  1  0.60943000  0.40163000  0.89943000  1.0
  H  H8  1  0.39054000  0.59836000  0.10059000  1.0
  H  H9  1  0.59962000  0.32103000  0.03918000  1.0
  H  H10  1  0.40039000  0.67895000  0.96082000  1.0
  H  H11  1  0.48993000  0.24758000  0.94329000  1.0
  H  H12  1  0.51005000  0.75242000  0.05671000  1.0
  H  H13  1  0.43727000  0.77554000  0.68088000  1.0
  H  H14  1  0.56274000  0.22446000  0.31914000  1.0
  H  H15  1  0.60452000  0.53477000  0.62017000  1.0
  H  H16  1  0.39547000  0.46524000  0.37982000  1.0
  H  H17  1  0.99765000  0.37974000  0.67511000  1.0
  H  H18  1  0.00235000  0.62025000  0.32488000  1.0
  H  H19  1  0.23186000  0.46475000  0.79180000  1.0
  H  H20  1  0.76812000  0.53525000  0.20820000  1.0
  H  H21  1  0.06225000  0.70510000  0.85446000  1.0
  H  H22  1  0.93774000  0.29491000  0.14555000  1.0
  H  H23  1  0.30774000  0.17921000  0.71761000  1.0
  H  H24  1  0.69226000  0.82079000  0.28239000  1.0
  H  H25  1  0.41690000  0.35602000  0.55785000  1.0
  H  H26  1  0.58309000  0.64399000  0.44216000  1.0
  H  H27  1  0.86890000  0.32877000  0.45585000  1.0
  H  H28  1  0.13108000  0.67125000  0.54417000  1.0
  H  H29  1  0.20684000  0.12881000  0.51637000  1.0
  H  H30  1  0.79317000  0.87121000  0.48362000  1.0
  H  H31  1  0.09791000  0.95620000  0.67841000  1.0
  H  H32  1  0.90214000  0.04380000  0.32157000  1.0
  C  C33  1  0.90373000  0.20943000  0.91530000  1.0
  C  C34  1  0.09628000  0.79055000  0.08470000  1.0
  C  C35  1  0.63637000  0.29928000  0.95151000  1.0
  C  C36  1  0.36361000  0.70071000  0.04849000  1.0
  C  C37  1  0.61284000  0.70826000  0.70421000  1.0
  C  C38  1  0.38714000  0.29175000  0.29580000  1.0
  C  C39  1  0.70640000  0.57326000  0.67003000  1.0
  C  C40  1  0.29357000  0.42675000  0.32997000  1.0
  C  C41  1  0.92887000  0.48563000  0.70128000  1.0
  C  C42  1  0.07110000  0.51438000  0.29872000  1.0
  C  C43  1  0.05874000  0.53297000  0.76684000  1.0
  C  C44  1  0.94128000  0.46703000  0.23315000  1.0
  C  C45  1  0.96506000  0.66785000  0.80164000  1.0
  C  C46  1  0.03496000  0.33214000  0.19836000  1.0
  C  C47  1  0.74110000  0.75607000  0.77083000  1.0
  C  C48  1  0.25892000  0.24391000  0.22917000  1.0
  C  C49  1  0.50425000  0.17005000  0.67344000  1.0
  C  C50  1  0.49576000  0.82994000  0.32657000  1.0
  C  C51  1  0.56679000  0.26820000  0.58364000  1.0
  C  C52  1  0.43324000  0.73179000  0.41636000  1.0
  C  C53  1  0.81918000  0.25327000  0.52676000  1.0
  C  C54  1  0.18084000  0.74673000  0.47324000  1.0
  C  C55  1  0.01003000  0.14080000  0.56102000  1.0
  C  C56  1  0.98999000  0.85920000  0.43898000  1.0
  C  C57  1  0.94859000  0.04320000  0.65125000  1.0
  C  C58  1  0.05142000  0.95680000  0.34875000  1.0
  C  C59  1  0.69444000  0.05648000  0.70745000  1.0
  C  C60  1  0.30557000  0.94352000  0.29255000  1.0
  O  O61  1  0.32142000  0.95397000  0.85014000  1.0
  O  O62  1  0.67859000  0.04604000  0.14984000  1.0
  O  O63  1  0.25223000  0.07318000  0.08260000  1.0
  O  O64  1  0.74772000  0.92683000  0.91742000  1.0
