# generated using pymatgen
data_Cd2P2H10C12N2O11
_symmetry_space_group_name_H-M   'P 1'
_cell_length_a   7.10960000
_cell_length_b   7.10964000
_cell_length_c   18.86170000
_cell_angle_alpha   85.25510000
_cell_angle_beta   85.25520000
_cell_angle_gamma   62.75360000
_symmetry_Int_Tables_number   1
_chemical_formula_structural   Cd2P2H10C12N2O11
_chemical_formula_sum   'Cd4 P4 H20 C24 N4 O22'
_cell_volume   843.62565641
_cell_formula_units_Z   2
loop_
 _symmetry_equiv_pos_site_id
 _symmetry_equiv_pos_as_xyz
  1  'x, y, z'
loop_
 _atom_site_type_symbol
 _atom_site_label
 _atom_site_symmetry_multiplicity
 _atom_site_fract_x
 _atom_site_fract_y
 _atom_site_fract_z
 _atom_site_occupancy
  Cd  Cd0  1  0.65377000  0.51814000  0.31523000  1.0
  Cd  Cd1  1  0.48188000  0.34622000  0.18477000  1.0
  Cd  Cd2  1  0.34622000  0.48188000  0.68477000  1.0
  Cd  Cd3  1  0.51813000  0.65377000  0.81523000  1.0
  P  P4  1  0.17364000  0.44404000  0.34767000  1.0
  P  P5  1  0.55596000  0.82636000  0.15233000  1.0
  P  P6  1  0.82636000  0.55596000  0.65233000  1.0
  P  P7  1  0.44404000  0.17363000  0.84767000  1.0
  H  H8  1  0.42968000  0.02570000  0.29752000  1.0
  H  H9  1  0.97431000  0.57032000  0.20249000  1.0
  H  H10  1  0.57032000  0.97431000  0.70248000  1.0
  H  H11  1  0.02570000  0.42968000  0.79752000  1.0
  H  H12  1  0.11478000  0.28972000  0.49726000  1.0
  H  H13  1  0.71029000  0.88521000  0.00274000  1.0
  H  H14  1  0.88520000  0.71029000  0.50274000  1.0
  H  H15  1  0.28972000  0.11477000  0.99726000  1.0
  H  H16  1  0.45698000  0.61699000  0.46937000  1.0
  H  H17  1  0.38302000  0.54300000  0.03063000  1.0
  H  H18  1  0.54299000  0.38302000  0.53063000  1.0
  H  H19  1  0.61699000  0.45698000  0.96937000  1.0
  H  H20  1  0.00682000  0.75062000  0.40035000  1.0
  H  H21  1  0.24939000  0.99318000  0.09965000  1.0
  H  H22  1  0.99318000  0.24939000  0.59965000  1.0
  H  H23  1  0.75062000  0.00681000  0.90035000  1.0
  H  H24  1  0.85039000  0.07981000  0.28981000  1.0
  H  H25  1  0.92019000  0.14960000  0.21019000  1.0
  H  H26  1  0.14960000  0.92019000  0.71020000  1.0
  H  H27  1  0.07982000  0.85039000  0.78981000  1.0
  C  C28  1  0.38409000  0.00943000  0.35350000  1.0
  C  C29  1  0.99059000  0.61590000  0.14650000  1.0
  C  C30  1  0.61590000  0.99058000  0.64650000  1.0
  C  C31  1  0.00942000  0.38409000  0.85350000  1.0
  C  C32  1  0.26125000  0.18596000  0.39348000  1.0
  C  C33  1  0.81405000  0.73875000  0.10652000  1.0
  C  C34  1  0.73875000  0.81405000  0.60652000  1.0
  C  C35  1  0.18596000  0.26124000  0.89348000  1.0
  C  C36  1  0.20865000  0.15392000  0.46515000  1.0
  C  C37  1  0.84610000  0.79134000  0.03485000  1.0
  C  C38  1  0.79134000  0.84609000  0.53485000  1.0
  C  C39  1  0.15391000  0.20865000  0.96515000  1.0
  C  C40  1  0.27753000  0.94645000  0.49393000  1.0
  C  C41  1  0.05356000  0.72246000  0.00607000  1.0
  C  C42  1  0.72245000  0.05356000  0.50607000  1.0
  C  C43  1  0.94645000  0.27753000  0.99393000  1.0
  C  C44  1  0.39952000  0.78010000  0.44951000  1.0
  C  C45  1  0.21992000  0.60047000  0.05049000  1.0
  C  C46  1  0.60046000  0.21991000  0.55049000  1.0
  C  C47  1  0.78009000  0.39952000  0.94951000  1.0
  C  C48  1  0.23444000  0.88615000  0.56997000  1.0
  C  C49  1  0.11387000  0.76554000  0.93003000  1.0
  C  C50  1  0.76554000  0.11387000  0.43003000  1.0
  C  C51  1  0.88614000  0.23444000  0.06997000  1.0
  N  N52  1  0.45288000  0.81016000  0.38123000  1.0
  N  N53  1  0.18985000  0.54711000  0.11877000  1.0
  N  N54  1  0.54711000  0.18985000  0.61877000  1.0
  N  N55  1  0.81016000  0.45288000  0.88123000  1.0
  O  O56  1  0.36091000  0.43917000  0.29966000  1.0
  O  O57  1  0.56084000  0.63908000  0.20034000  1.0
  O  O58  1  0.63909000  0.56084000  0.70034000  1.0
  O  O59  1  0.43917000  0.36091000  0.79966000  1.0
  O  O60  1  0.12199000  0.59493000  0.41064000  1.0
  O  O61  1  0.40508000  0.87801000  0.08936000  1.0
  O  O62  1  0.87801000  0.40508000  0.58936000  1.0
  O  O63  1  0.59493000  0.12198000  0.91064000  1.0
  O  O64  1  0.98029000  0.49644000  0.30618000  1.0
  O  O65  1  0.50356000  0.01971000  0.19382000  1.0
  O  O66  1  0.01971000  0.50356000  0.69382000  1.0
  O  O67  1  0.49645000  0.98029000  0.80618000  1.0
  O  O68  1  0.14309000  0.02725000  0.61597000  1.0
  O  O69  1  0.97277000  0.85689000  0.88403000  1.0
  O  O70  1  0.85690000  0.97276000  0.38403000  1.0
  O  O71  1  0.02725000  0.14309000  0.11597000  1.0
  O  O72  1  0.29808000  0.68969000  0.58345000  1.0
  O  O73  1  0.31032000  0.70190000  0.91655000  1.0
  O  O74  1  0.70189000  0.31032000  0.41655000  1.0
  O  O75  1  0.68969000  0.29808000  0.08345000  1.0
  O  O76  1  0.81067000  0.18933000  0.25000000  1.0
  O  O77  1  0.18933000  0.81067000  0.75000000  1.0
