# generated using pymatgen
data_CsPH8C14(SN)2
_symmetry_space_group_name_H-M   'P 1'
_cell_length_a   7.39362000
_cell_length_b   7.94149000
_cell_length_c   13.46970000
_cell_angle_alpha   89.99960000
_cell_angle_beta   105.90400000
_cell_angle_gamma   89.99970000
_symmetry_Int_Tables_number   1
_chemical_formula_structural   CsPH8C14(SN)2
_chemical_formula_sum   'Cs2 P2 H16 C28 S4 N4'
_cell_volume   760.61813388
_cell_formula_units_Z   2
loop_
 _symmetry_equiv_pos_site_id
 _symmetry_equiv_pos_as_xyz
  1  'x, y, z'
loop_
 _atom_site_type_symbol
 _atom_site_label
 _atom_site_symmetry_multiplicity
 _atom_site_fract_x
 _atom_site_fract_y
 _atom_site_fract_z
 _atom_site_occupancy
  Cs  Cs0  1  0.15040000  0.32916000  0.99977000  1.0
  Cs  Cs1  1  0.84960000  0.82916000  0.00024000  1.0
  P  P2  1  0.37273000  0.91820000  0.00019000  1.0
  P  P3  1  0.62727000  0.41820000  0.99981000  1.0
  H  H4  1  0.66607000  0.70189000  0.44290000  1.0
  H  H5  1  0.33393000  0.20189000  0.55710000  1.0
  H  H6  1  0.77661000  0.20191000  0.44258000  1.0
  H  H7  1  0.22339000  0.70193000  0.55742000  1.0
  H  H8  1  0.50058000  0.47711000  0.51221000  1.0
  H  H9  1  0.49941000  0.97711000  0.48780000  1.0
  H  H10  1  0.01167000  0.97725000  0.51181000  1.0
  H  H11  1  0.98833000  0.47726000  0.48819000  1.0
  H  H12  1  0.20732000  0.34777000  0.40091000  1.0
  H  H13  1  0.79268000  0.84776000  0.59910000  1.0
  H  H14  1  0.19400000  0.84841000  0.40058000  1.0
  H  H15  1  0.80601000  0.34842000  0.59942000  1.0
  H  H16  1  0.07523000  0.44265000  0.22023000  1.0
  H  H17  1  0.92477000  0.94264000  0.77977000  1.0
  H  H18  1  0.14547000  0.94317000  0.21986000  1.0
  H  H19  1  0.85453000  0.44317000  0.78014000  1.0
  C  C20  1  0.36266000  0.79520000  0.10990000  1.0
  C  C21  1  0.63734000  0.29521000  0.89009000  1.0
  C  C22  1  0.74727000  0.29530000  0.10951000  1.0
  C  C23  1  0.25273000  0.79530000  0.89049000  1.0
  C  C24  1  0.46377000  0.69705000  0.29203000  1.0
  C  C25  1  0.53624000  0.19706000  0.70798000  1.0
  C  C26  1  0.82805000  0.19704000  0.29161000  1.0
  C  C27  1  0.17194000  0.69706000  0.70839000  1.0
  C  C28  1  0.53692000  0.64671000  0.39456000  1.0
  C  C29  1  0.46306000  0.14672000  0.60544000  1.0
  C  C30  1  0.85733000  0.14664000  0.39419000  1.0
  C  C31  1  0.14267000  0.64666000  0.60580000  1.0
  C  C32  1  0.44374000  0.51979000  0.43283000  1.0
  C  C33  1  0.55627000  0.01978000  0.56717000  1.0
  C  C34  1  0.98908000  0.01995000  0.43243000  1.0
  C  C35  1  0.01091000  0.51997000  0.56757000  1.0
  C  C36  1  0.27874000  0.44678000  0.37016000  1.0
  C  C37  1  0.72125000  0.94678000  0.62984000  1.0
  C  C38  1  0.09167000  0.94722000  0.36979000  1.0
  C  C39  1  0.90834000  0.44723000  0.63020000  1.0
  C  C40  1  0.20471000  0.49785000  0.26821000  1.0
  C  C41  1  0.79529000  0.99784000  0.73180000  1.0
  C  C42  1  0.06375000  0.99826000  0.26779000  1.0
  C  C43  1  0.93624000  0.49827000  0.73221000  1.0
  C  C44  1  0.29897000  0.62170000  0.22706000  1.0
  C  C45  1  0.70102000  0.12171000  0.77294000  1.0
  C  C46  1  0.92823000  0.12192000  0.22667000  1.0
  C  C47  1  0.07177000  0.62193000  0.77333000  1.0
  S  S48  1  0.55020000  0.84291000  0.22138000  1.0
  S  S49  1  0.44980000  0.34291000  0.77862000  1.0
  S  S50  1  0.67110000  0.34282000  0.22103000  1.0
  S  S51  1  0.32889000  0.84283000  0.77897000  1.0
  N  N52  1  0.24590000  0.67867000  0.12612000  1.0
  N  N53  1  0.75410000  0.17867000  0.87388000  1.0
  N  N54  1  0.88034000  0.17892000  0.12569000  1.0
  N  N55  1  0.11966000  0.67892000  0.87431000  1.0
