# generated using pymatgen
data_CuH12C21N4O7
_symmetry_space_group_name_H-M   'P 1'
_cell_length_a   10.08100000
_cell_length_b   10.13120000
_cell_length_c   10.58080000
_cell_angle_alpha   102.12900000
_cell_angle_beta   105.98400000
_cell_angle_gamma   102.32500000
_symmetry_Int_Tables_number   1
_chemical_formula_structural   CuH12C21N4O7
_chemical_formula_sum   'Cu2 H24 C42 N8 O14'
_cell_volume   972.43625258
_cell_formula_units_Z   2
loop_
 _symmetry_equiv_pos_site_id
 _symmetry_equiv_pos_as_xyz
  1  'x, y, z'
loop_
 _atom_site_type_symbol
 _atom_site_label
 _atom_site_symmetry_multiplicity
 _atom_site_fract_x
 _atom_site_fract_y
 _atom_site_fract_z
 _atom_site_occupancy
  Cu  Cu0  1  0.39064000  0.43885000  0.11933000  1.0
  Cu  Cu1  1  0.60936000  0.56114000  0.88066000  1.0
  H  H2  1  0.69166000  0.31233000  0.34831000  1.0
  H  H3  1  0.30835000  0.68767000  0.65171000  1.0
  H  H4  1  0.96770000  0.48704000  0.14450000  1.0
  H  H5  1  0.03228000  0.51295000  0.85548000  1.0
  H  H6  1  0.90002000  0.71086000  0.05860000  1.0
  H  H7  1  0.09998000  0.28913000  0.94138000  1.0
  H  H8  1  0.14317000  0.33220000  0.48435000  1.0
  H  H9  1  0.85685000  0.66783000  0.51565000  1.0
  H  H10  1  0.68328000  0.65128000  0.29814000  1.0
  H  H11  1  0.31671000  0.34872000  0.70186000  1.0
  H  H12  1  0.93609000  0.15558000  0.17647000  1.0
  H  H13  1  0.06390000  0.84442000  0.82352000  1.0
  H  H14  1  0.26326000  0.66131000  0.13557000  1.0
  H  H15  1  0.73673000  0.33870000  0.86442000  1.0
  H  H16  1  0.53505000  0.83597000  0.92626000  1.0
  H  H17  1  0.46494000  0.16402000  0.07374000  1.0
  H  H18  1  0.67037000  0.09231000  0.05079000  1.0
  H  H19  1  0.32962000  0.90768000  0.94922000  1.0
  H  H20  1  0.76900000  0.90825000  0.41723000  1.0
  H  H21  1  0.23100000  0.09175000  0.58278000  1.0
  H  H22  1  0.58803000  0.04764000  0.39749000  1.0
  H  H23  1  0.41197000  0.95235000  0.60253000  1.0
  H  H24  1  0.73582000  0.31693000  0.55254000  1.0
  H  H25  1  0.26421000  0.68306000  0.44747000  1.0
  C  C26  1  0.64910000  0.87012000  0.98714000  1.0
  C  C27  1  0.35089000  0.12986000  0.01285000  1.0
  C  C28  1  0.72531000  0.01091000  0.05538000  1.0
  C  C29  1  0.27467000  0.98907000  0.94462000  1.0
  C  C30  1  0.87225000  0.04633000  0.12541000  1.0
  C  C31  1  0.12773000  0.95366000  0.87458000  1.0
  C  C32  1  0.93914000  0.93827000  0.12744000  1.0
  C  C33  1  0.06085000  0.06173000  0.87256000  1.0
  C  C34  1  0.85452000  0.79889000  0.05930000  1.0
  C  C35  1  0.14548000  0.20110000  0.94069000  1.0
  C  C36  1  0.37387000  0.72100000  0.19781000  1.0
  C  C37  1  0.62613000  0.27900000  0.80219000  1.0
  C  C38  1  0.41158000  0.86539000  0.26324000  1.0
  C  C39  1  0.58842000  0.13461000  0.73676000  1.0
  C  C40  1  0.30276000  0.93984000  0.25280000  1.0
  C  C41  1  0.69724000  0.06017000  0.74721000  1.0
  C  C42  1  0.09346000  0.97166000  0.19497000  1.0
  C  C43  1  0.90654000  0.02833000  0.80504000  1.0
  C  C44  1  0.55617000  0.93571000  0.34358000  1.0
  C  C45  1  0.44382000  0.06429000  0.65642000  1.0
  C  C46  1  0.65573000  0.85904000  0.35553000  1.0
  C  C47  1  0.34426000  0.14096000  0.64447000  1.0
  C  C48  1  0.60889000  0.71488000  0.28888000  1.0
  C  C49  1  0.39110000  0.28513000  0.71112000  1.0
  C  C50  1  0.89630000  0.23737000  0.53148000  1.0
  C  C51  1  0.10373000  0.76266000  0.46852000  1.0
  C  C52  1  0.21731000  0.46484000  0.30140000  1.0
  C  C53  1  0.78269000  0.53516000  0.69858000  1.0
  C  C54  1  0.69634000  0.43968000  0.14876000  1.0
  C  C55  1  0.30366000  0.56032000  0.85125000  1.0
  C  C56  1  0.81813000  0.40299000  0.23859000  1.0
  C  C57  1  0.18188000  0.59700000  0.76141000  1.0
  C  C58  1  0.79861000  0.33876000  0.33946000  1.0
  C  C59  1  0.20140000  0.66125000  0.66054000  1.0
  C  C60  1  0.95381000  0.43854000  0.22441000  1.0
  C  C61  1  0.04620000  0.56145000  0.77559000  1.0
  C  C62  1  0.07130000  0.41559000  0.31407000  1.0
  C  C63  1  0.92871000  0.58442000  0.68592000  1.0
  C  C64  1  0.05231000  0.35217000  0.41554000  1.0
  C  C65  1  0.94770000  0.64785000  0.58447000  1.0
  C  C66  1  0.91528000  0.31157000  0.42702000  1.0
  C  C67  1  0.08474000  0.68844000  0.57298000  1.0
  N  N68  1  0.71313000  0.76685000  0.99009000  1.0
  N  N69  1  0.28687000  0.23314000  0.00990000  1.0
  N  N70  1  0.47070000  0.64756000  0.21117000  1.0
  N  N71  1  0.52929000  0.35245000  0.78882000  1.0
  N  N72  1  0.18486000  0.09438000  0.27038000  1.0
  N  N73  1  0.81513000  0.90562000  0.72962000  1.0
  N  N74  1  0.32033000  0.07373000  0.30787000  1.0
  N  N75  1  0.67966000  0.92627000  0.69213000  1.0
  O  O76  1  0.21761000  0.42470000  0.17791000  1.0
  O  O77  1  0.78239000  0.57529000  0.82207000  1.0
  O  O78  1  0.32074000  0.54319000  0.40575000  1.0
  O  O79  1  0.67927000  0.45681000  0.59424000  1.0
  O  O80  1  0.57317000  0.39129000  0.16053000  1.0
  O  O81  1  0.42683000  0.60872000  0.83948000  1.0
  O  O82  1  0.72384000  0.51505000  0.07357000  1.0
  O  O83  1  0.27615000  0.48495000  0.92642000  1.0
  O  O84  1  0.77784000  0.23655000  0.56757000  1.0
  O  O85  1  0.22220000  0.76346000  0.43246000  1.0
  O  O86  1  0.98000000  0.17466000  0.58006000  1.0
  O  O87  1  0.02007000  0.82537000  0.41997000  1.0
  O  O88  1  0.16107000  0.86832000  0.17843000  1.0
  O  O89  1  0.83893000  0.13168000  0.82159000  1.0
