# generated using pymatgen
data_CuH15C19S(NO3)3
_symmetry_space_group_name_H-M   'P 1'
_cell_length_a   9.10986000
_cell_length_b   9.90645000
_cell_length_c   13.08790000
_cell_angle_alpha   96.72830000
_cell_angle_beta   103.16600000
_cell_angle_gamma   116.51400000
_symmetry_Int_Tables_number   1
_chemical_formula_structural   CuH15C19S(NO3)3
_chemical_formula_sum   'Cu2 H30 C38 S2 N6 O18'
_cell_volume   996.13825176
_cell_formula_units_Z   2
loop_
 _symmetry_equiv_pos_site_id
 _symmetry_equiv_pos_as_xyz
  1  'x, y, z'
loop_
 _atom_site_type_symbol
 _atom_site_label
 _atom_site_symmetry_multiplicity
 _atom_site_fract_x
 _atom_site_fract_y
 _atom_site_fract_z
 _atom_site_occupancy
  Cu  Cu0  1  0.76396000  0.34589000  0.00942000  1.0
  Cu  Cu1  1  0.23604000  0.65411000  0.99058000  1.0
  H  H2  1  0.53036000  0.24705000  0.13726000  1.0
  H  H3  1  0.46964000  0.75295000  0.86274000  1.0
  H  H4  1  0.49214000  0.35780000  0.07013000  1.0
  H  H5  1  0.50787000  0.64220000  0.92988000  1.0
  H  H6  1  0.67883000  0.36229000  0.31456000  1.0
  H  H7  1  0.32116000  0.63771000  0.68544000  1.0
  H  H8  1  0.28650000  0.95416000  0.49562000  1.0
  H  H9  1  0.71349000  0.04584000  0.50438000  1.0
  H  H10  1  0.65989000  0.47918000  0.46998000  1.0
  H  H11  1  0.34010000  0.52082000  0.53002000  1.0
  H  H12  1  0.90816000  0.73608000  0.58804000  1.0
  H  H13  1  0.09184000  0.26392000  0.41196000  1.0
  H  H14  1  0.17332000  0.73166000  0.35249000  1.0
  H  H15  1  0.82667000  0.26833000  0.64751000  1.0
  H  H16  1  0.91464000  0.47153000  0.24610000  1.0
  H  H17  1  0.08535000  0.52846000  0.75390000  1.0
  H  H18  1  0.36370000  0.20230000  0.55414000  1.0
  H  H19  1  0.63630000  0.79770000  0.44586000  1.0
  H  H20  1  0.60950000  0.46876000  0.64795000  1.0
  H  H21  1  0.39050000  0.53123000  0.35205000  1.0
  H  H22  1  0.78673000  0.51886000  0.83905000  1.0
  H  H23  1  0.21327000  0.48114000  0.16095000  1.0
  H  H24  1  0.47443000  0.06692000  0.85315000  1.0
  H  H25  1  0.52557000  0.93308000  0.14685000  1.0
  H  H26  1  0.71943000  0.86889000  0.00632000  1.0
  H  H27  1  0.28057000  0.13112000  0.99369000  1.0
  H  H28  1  0.13241000  0.81379000  0.19572000  1.0
  H  H29  1  0.86759000  0.18621000  0.80428000  1.0
  H  H30  1  0.16480000  0.26609000  0.23631000  1.0
  H  H31  1  0.83521000  0.73391000  0.76369000  1.0
  C  C32  1  0.77907000  0.54125000  0.45066000  1.0
  C  C33  1  0.22093000  0.45875000  0.54934000  1.0
  C  C34  1  0.91622000  0.68205000  0.51405000  1.0
  C  C35  1  0.08378000  0.31795000  0.48595000  1.0
  C  C36  1  0.06312000  0.75414000  0.47976000  1.0
  C  C37  1  0.93688000  0.24586000  0.52024000  1.0
  C  C38  1  0.06206000  0.67890000  0.38089000  1.0
  C  C39  1  0.93793000  0.32110000  0.61911000  1.0
  C  C40  1  0.92148000  0.53704000  0.32151000  1.0
  C  C41  1  0.07851000  0.46295000  0.67849000  1.0
  C  C42  1  0.25663000  0.94948000  0.65016000  1.0
  C  C43  1  0.74337000  0.05052000  0.34984000  1.0
  C  C44  1  0.40051000  0.11253000  0.69668000  1.0
  C  C45  1  0.59949000  0.88747000  0.30332000  1.0
  C  C46  1  0.43850000  0.22679000  0.63844000  1.0
  C  C47  1  0.56150000  0.77321000  0.36156000  1.0
  C  C48  1  0.57680000  0.37575000  0.68995000  1.0
  C  C49  1  0.42320000  0.62425000  0.31005000  1.0
  C  C50  1  0.67329000  0.40636000  0.79710000  1.0
  C  C51  1  0.32671000  0.59363000  0.20290000  1.0
  C  C52  1  0.50033000  0.15293000  0.80529000  1.0
  C  C53  1  0.49967000  0.84707000  0.19470000  1.0
  C  C54  1  0.86373000  0.17832000  0.08277000  1.0
  C  C55  1  0.13628000  0.82169000  0.91723000  1.0
  C  C56  1  0.93526000  0.07726000  0.11670000  1.0
  C  C57  1  0.06474000  0.92274000  0.88330000  1.0
  C  C58  1  0.84474000  0.91808000  0.06768000  1.0
  C  C59  1  0.15526000  0.08192000  0.93233000  1.0
  C  C60  1  0.91448000  0.82251000  0.09625000  1.0
  C  C61  1  0.08552000  0.17749000  0.90375000  1.0
  C  C62  1  0.07655000  0.88768000  0.17530000  1.0
  C  C63  1  0.92345000  0.11232000  0.82470000  1.0
  C  C64  1  0.16458000  0.04700000  0.22598000  1.0
  C  C65  1  0.83543000  0.95300000  0.77402000  1.0
  C  C66  1  0.09565000  0.14230000  0.19676000  1.0
  C  C67  1  0.90436000  0.85770000  0.80324000  1.0
  C  C68  1  0.81285000  0.65178000  0.03914000  1.0
  C  C69  1  0.18715000  0.34822000  0.96086000  1.0
  S  S70  1  0.37013000  0.13571000  0.32797000  1.0
  S  S71  1  0.62987000  0.86429000  0.67203000  1.0
  N  N72  1  0.78448000  0.47139000  0.35765000  1.0
  N  N73  1  0.21551000  0.52861000  0.64235000  1.0
  N  N74  1  0.20473000  0.89616000  0.53793000  1.0
  N  N75  1  0.79527000  0.10384000  0.46206000  1.0
  N  N76  1  0.63392000  0.29667000  0.85384000  1.0
  N  N77  1  0.36608000  0.70332000  0.14615000  1.0
  O  O78  1  0.18868000  0.86692000  0.70735000  1.0
  O  O79  1  0.81132000  0.13308000  0.29265000  1.0
  O  O80  1  0.37128000  0.01742000  0.38602000  1.0
  O  O81  1  0.62872000  0.98258000  0.61399000  1.0
  O  O82  1  0.49869000  0.17813000  0.26882000  1.0
  O  O83  1  0.50131000  0.82187000  0.73118000  1.0
  O  O84  1  0.38558000  0.27323000  0.39621000  1.0
  O  O85  1  0.61442000  0.72677000  0.60379000  1.0
  O  O86  1  0.72418000  0.12379000  0.00314000  1.0
  O  O87  1  0.27583000  0.87621000  0.99686000  1.0
  O  O88  1  0.94360000  0.32439000  0.12878000  1.0
  O  O89  1  0.05641000  0.67562000  0.87122000  1.0
  O  O90  1  0.89204000  0.57240000  0.05935000  1.0
  O  O91  1  0.10796000  0.42760000  0.94065000  1.0
  O  O92  1  0.58249000  0.33000000  0.10175000  1.0
  O  O93  1  0.41751000  0.67000000  0.89825000  1.0
  O  O94  1  0.66273000  0.59586000  0.97554000  1.0
  O  O95  1  0.33727000  0.40414000  0.02446000  1.0
