# generated using pymatgen
data_Cu2H4C6NClO2
_symmetry_space_group_name_H-M   'P 1'
_cell_length_a   3.60684000
_cell_length_b   10.39240000
_cell_length_c   18.88140000
_cell_angle_alpha   89.99830000
_cell_angle_beta   90.00040000
_cell_angle_gamma   89.99990000
_symmetry_Int_Tables_number   1
_chemical_formula_structural   Cu2H4C6NClO2
_chemical_formula_sum   'Cu8 H16 C24 N4 Cl4 O8'
_cell_volume   707.74518631
_cell_formula_units_Z   4
loop_
 _symmetry_equiv_pos_site_id
 _symmetry_equiv_pos_as_xyz
  1  'x, y, z'
loop_
 _atom_site_type_symbol
 _atom_site_label
 _atom_site_symmetry_multiplicity
 _atom_site_fract_x
 _atom_site_fract_y
 _atom_site_fract_z
 _atom_site_occupancy
  Cu  Cu0  1  0.95494000  0.15401000  0.49809000  1.0
  Cu  Cu1  1  0.54505000  0.84600000  0.99809000  1.0
  Cu  Cu2  1  0.04506000  0.65400000  0.00191000  1.0
  Cu  Cu3  1  0.45494000  0.34600000  0.50191000  1.0
  Cu  Cu4  1  0.63233000  0.68046000  0.54315000  1.0
  Cu  Cu5  1  0.86764000  0.31955000  0.04315000  1.0
  Cu  Cu6  1  0.36768000  0.18045000  0.95685000  1.0
  Cu  Cu7  1  0.13235000  0.81955000  0.45685000  1.0
  H  H8  1  0.47361000  0.45932000  0.28716000  1.0
  H  H9  1  0.02634000  0.54068000  0.78716000  1.0
  H  H10  1  0.52636000  0.95931000  0.21284000  1.0
  H  H11  1  0.97363000  0.04068000  0.71284000  1.0
  H  H12  1  0.52402000  0.47153000  0.15428000  1.0
  H  H13  1  0.97600000  0.52848000  0.65428000  1.0
  H  H14  1  0.47598000  0.97152000  0.34572000  1.0
  H  H15  1  0.02405000  0.02847000  0.84572000  1.0
  H  H16  1  0.04419000  0.11633000  0.14493000  1.0
  H  H17  1  0.45588000  0.88369000  0.64493000  1.0
  H  H18  1  0.95583000  0.61632000  0.35507000  1.0
  H  H19  1  0.54421000  0.38368000  0.85506000  1.0
  H  H20  1  0.01548000  0.09168000  0.27718000  1.0
  H  H21  1  0.48449000  0.90833000  0.77718000  1.0
  H  H22  1  0.98451000  0.59166000  0.22282000  1.0
  H  H23  1  0.51549000  0.40834000  0.72281000  1.0
  C  C24  1  0.72951000  0.26392000  0.37109000  1.0
  C  C25  1  0.77047000  0.73608000  0.87109000  1.0
  C  C26  1  0.27047000  0.76391000  0.12891000  1.0
  C  C27  1  0.22953000  0.23609000  0.62891000  1.0
  C  C28  1  0.74563000  0.27462000  0.29252000  1.0
  C  C29  1  0.75435000  0.72538000  0.79251000  1.0
  C  C30  1  0.25435000  0.77461000  0.20749000  1.0
  C  C31  1  0.24564000  0.22539000  0.70748000  1.0
  C  C32  1  0.60491000  0.38242000  0.25715000  1.0
  C  C33  1  0.89510000  0.61756000  0.75715000  1.0
  C  C34  1  0.39509000  0.88243000  0.24285000  1.0
  C  C35  1  0.10492000  0.11758000  0.74285000  1.0
  C  C36  1  0.63321000  0.38965000  0.18391000  1.0
  C  C37  1  0.86678000  0.61036000  0.68392000  1.0
  C  C38  1  0.36678000  0.88963000  0.31608000  1.0
  C  C39  1  0.13323000  0.11035000  0.81608000  1.0
  C  C40  1  0.92284000  0.19042000  0.17864000  1.0
  C  C41  1  0.57717000  0.80959000  0.67863000  1.0
  C  C42  1  0.07716000  0.69041000  0.32137000  1.0
  C  C43  1  0.42286000  0.30958000  0.82136000  1.0
  C  C44  1  0.90402000  0.17690000  0.25157000  1.0
  C  C45  1  0.59599000  0.82309000  0.75157000  1.0
  C  C46  1  0.09600000  0.67690000  0.24843000  1.0
  C  C47  1  0.40402000  0.32310000  0.74842000  1.0
  N  N48  1  0.79424000  0.29596000  0.14459000  1.0
  N  N49  1  0.70578000  0.70404000  0.64460000  1.0
  N  N50  1  0.20578000  0.79595000  0.35541000  1.0
  N  N51  1  0.29426000  0.20404000  0.85541000  1.0
  Cl  Cl52  1  0.64964000  0.91999000  0.50992000  1.0
  Cl  Cl53  1  0.85038000  0.08002000  0.00993000  1.0
  Cl  Cl54  1  0.35036000  0.41998000  0.99007000  1.0
  Cl  Cl55  1  0.14963000  0.58002000  0.49008000  1.0
  O  O56  1  0.88183000  0.16488000  0.39892000  1.0
  O  O57  1  0.61813000  0.83513000  0.89893000  1.0
  O  O58  1  0.11814000  0.66486000  0.10107000  1.0
  O  O59  1  0.38184000  0.33513000  0.60107000  1.0
  O  O60  1  0.56581000  0.35456000  0.40422000  1.0
  O  O61  1  0.93415000  0.64544000  0.90422000  1.0
  O  O62  1  0.43415000  0.85455000  0.09578000  1.0
  O  O63  1  0.06584000  0.14544000  0.59578000  1.0
