# generated using pymatgen
data_ZnH10(C2O)4
_symmetry_space_group_name_H-M   'P 1'
_cell_length_a   4.84544000
_cell_length_b   6.62226000
_cell_length_c   26.00400000
_cell_angle_alpha   90.00010000
_cell_angle_beta   90.00050000
_cell_angle_gamma   89.99960000
_symmetry_Int_Tables_number   1
_chemical_formula_structural   ZnH10(C2O)4
_chemical_formula_sum   'Zn4 H40 C32 O16'
_cell_volume   834.41020186
_cell_formula_units_Z   4
loop_
 _symmetry_equiv_pos_site_id
 _symmetry_equiv_pos_as_xyz
  1  'x, y, z'
loop_
 _atom_site_type_symbol
 _atom_site_label
 _atom_site_symmetry_multiplicity
 _atom_site_fract_x
 _atom_site_fract_y
 _atom_site_fract_z
 _atom_site_occupancy
  Zn  Zn0  1  0.05064000  0.91215000  0.03968000  1.0
  Zn  Zn1  1  0.44936000  0.08786000  0.53968000  1.0
  Zn  Zn2  1  0.94936000  0.41214000  0.46032000  1.0
  Zn  Zn3  1  0.55065000  0.58786000  0.96032000  1.0
  H  H4  1  0.77548000  0.09532000  0.86228000  1.0
  H  H5  1  0.72451000  0.90468000  0.36228000  1.0
  H  H6  1  0.22453000  0.59532000  0.63773000  1.0
  H  H7  1  0.27547000  0.40469000  0.13773000  1.0
  H  H8  1  0.29712000  0.83677000  0.85638000  1.0
  H  H9  1  0.20287000  0.16323000  0.35637000  1.0
  H  H10  1  0.70289000  0.33678000  0.64362000  1.0
  H  H11  1  0.79712000  0.66322000  0.14363000  1.0
  H  H12  1  0.96120000  0.76021000  0.83753000  1.0
  H  H13  1  0.53880000  0.23978000  0.33753000  1.0
  H  H14  1  0.03881000  0.26022000  0.66247000  1.0
  H  H15  1  0.46120000  0.73979000  0.16247000  1.0
  H  H16  1  0.23440000  0.88169000  0.76140000  1.0
  H  H17  1  0.26559000  0.11829000  0.26140000  1.0
  H  H18  1  0.76559000  0.38170000  0.73859000  1.0
  H  H19  1  0.73441000  0.61830000  0.23860000  1.0
  H  H20  1  0.94133000  0.03389000  0.77216000  1.0
  H  H21  1  0.55866000  0.96610000  0.27216000  1.0
  H  H22  1  0.05866000  0.53389000  0.72784000  1.0
  H  H23  1  0.44134000  0.46611000  0.22785000  1.0
  H  H24  1  0.34167000  0.25322000  0.75512000  1.0
  H  H25  1  0.15832000  0.74677000  0.25512000  1.0
  H  H26  1  0.65834000  0.75323000  0.74488000  1.0
  H  H27  1  0.84167000  0.24677000  0.24488000  1.0
  H  H28  1  0.53574000  0.13106000  0.80328000  1.0
  H  H29  1  0.96426000  0.86893000  0.30328000  1.0
  H  H30  1  0.46427000  0.63109000  0.69671000  1.0
  H  H31  1  0.03574000  0.36892000  0.19672000  1.0
  H  H32  1  0.02272000  0.39480000  0.81836000  1.0
  H  H33  1  0.47729000  0.60520000  0.31836000  1.0
  H  H34  1  0.97731000  0.89480000  0.68164000  1.0
  H  H35  1  0.52271000  0.10520000  0.18164000  1.0
  H  H36  1  0.36364000  0.45357000  0.83762000  1.0
  H  H37  1  0.13637000  0.54642000  0.33762000  1.0
  H  H38  1  0.63639000  0.95359000  0.66238000  1.0
  H  H39  1  0.86362000  0.04642000  0.16238000  1.0
  H  H40  1  0.35674000  0.18343000  0.90289000  1.0
  H  H41  1  0.14326000  0.81656000  0.40288000  1.0
  H  H42  1  0.64328000  0.68344000  0.59711000  1.0
  H  H43  1  0.85673000  0.31657000  0.09712000  1.0
  C  C44  1  0.97283000  0.04463000  0.87856000  1.0
  C  C45  1  0.52716000  0.95536000  0.37856000  1.0
  C  C46  1  0.02719000  0.54464000  0.62144000  1.0
  C  C47  1  0.47282000  0.45537000  0.12145000  1.0
  C  C48  1  0.09921000  0.89140000  0.84083000  1.0
  C  C49  1  0.40078000  0.10860000  0.34083000  1.0
  C  C50  1  0.90079000  0.39140000  0.65917000  1.0
  C  C51  1  0.59921000  0.60860000  0.15917000  1.0
  C  C52  1  0.14305000  0.99053000  0.78842000  1.0
  C  C53  1  0.35694000  0.00946000  0.28842000  1.0
  C  C54  1  0.85695000  0.49053000  0.71158000  1.0
  C  C55  1  0.64306000  0.50947000  0.21158000  1.0
  C  C56  1  0.32524000  0.17798000  0.79274000  1.0
  C  C57  1  0.17475000  0.82201000  0.29274000  1.0
  C  C58  1  0.67477000  0.67799000  0.70726000  1.0
  C  C59  1  0.82524000  0.32201000  0.20726000  1.0
  C  C60  1  0.21691000  0.32844000  0.83260000  1.0
  C  C61  1  0.28309000  0.67155000  0.33260000  1.0
  C  C62  1  0.78311000  0.82845000  0.66740000  1.0
  C  C63  1  0.71690000  0.17155000  0.16740000  1.0
  C  C64  1  0.16006000  0.22903000  0.88535000  1.0
  C  C65  1  0.33993000  0.77096000  0.38535000  1.0
  C  C66  1  0.83996000  0.72904000  0.61465000  1.0
  C  C67  1  0.66005000  0.27096000  0.11465000  1.0
  C  C68  1  0.89864000  0.94153000  0.92884000  1.0
  C  C69  1  0.60134000  0.05848000  0.42884000  1.0
  C  C70  1  0.10138000  0.44152000  0.57116000  1.0
  C  C71  1  0.39862000  0.55848000  0.07116000  1.0
  C  C72  1  0.02608000  0.38608000  0.91997000  1.0
  C  C73  1  0.47392000  0.61391000  0.41997000  1.0
  C  C74  1  0.97393000  0.88609000  0.58003000  1.0
  C  C75  1  0.52607000  0.11392000  0.08003000  1.0
  O  O76  1  0.67658000  0.83826000  0.92845000  1.0
  O  O77  1  0.82339000  0.16174000  0.42845000  1.0
  O  O78  1  0.32344000  0.33827000  0.57155000  1.0
  O  O79  1  0.17658000  0.66173000  0.07155000  1.0
  O  O80  1  0.06445000  0.96484000  0.96624000  1.0
  O  O81  1  0.43552000  0.03516000  0.46624000  1.0
  O  O82  1  0.93557000  0.46485000  0.53375000  1.0
  O  O83  1  0.56445000  0.53516000  0.03376000  1.0
  O  O84  1  0.76368000  0.37576000  0.92442000  1.0
  O  O85  1  0.73632000  0.62424000  0.42442000  1.0
  O  O86  1  0.23633000  0.87577000  0.57558000  1.0
  O  O87  1  0.26367000  0.12424000  0.07558000  1.0
  O  O88  1  0.16373000  0.52713000  0.94108000  1.0
  O  O89  1  0.33628000  0.47286000  0.44108000  1.0
  O  O90  1  0.83629000  0.02713000  0.55892000  1.0
  O  O91  1  0.66371000  0.97287000  0.05892000  1.0
