# generated using pymatgen
data_CdH5C5O4
_symmetry_space_group_name_H-M   'P 1'
_cell_length_a   6.81053000
_cell_length_b   7.43751000
_cell_length_c   11.50360000
_cell_angle_alpha   89.99980000
_cell_angle_beta   88.28820000
_cell_angle_gamma   89.99980000
_symmetry_Int_Tables_number   1
_chemical_formula_structural   CdH5C5O4
_chemical_formula_sum   'Cd4 H20 C20 O16'
_cell_volume   582.43623911
_cell_formula_units_Z   4
loop_
 _symmetry_equiv_pos_site_id
 _symmetry_equiv_pos_as_xyz
  1  'x, y, z'
loop_
 _atom_site_type_symbol
 _atom_site_label
 _atom_site_symmetry_multiplicity
 _atom_site_fract_x
 _atom_site_fract_y
 _atom_site_fract_z
 _atom_site_occupancy
  Cd  Cd0  1  0.32432000  0.83159000  0.98632000  1.0
  Cd  Cd1  1  0.17568000  0.33159000  0.01368000  1.0
  Cd  Cd2  1  0.67568000  0.16841000  0.01367000  1.0
  Cd  Cd3  1  0.82432000  0.66841000  0.98632000  1.0
  H  H4  1  0.68911000  0.32401000  0.50916000  1.0
  H  H5  1  0.81090000  0.82401000  0.49085000  1.0
  H  H6  1  0.31089000  0.67599000  0.49084000  1.0
  H  H7  1  0.18911000  0.17599000  0.50916000  1.0
  H  H8  1  0.10802000  0.66915000  0.67318000  1.0
  H  H9  1  0.39197000  0.16915000  0.32682000  1.0
  H  H10  1  0.89197000  0.33085000  0.32682000  1.0
  H  H11  1  0.60803000  0.83085000  0.67318000  1.0
  H  H12  1  0.58437000  0.29421000  0.71703000  1.0
  H  H13  1  0.91563000  0.79421000  0.28297000  1.0
  H  H14  1  0.41563000  0.70579000  0.28297000  1.0
  H  H15  1  0.08437000  0.20579000  0.71703000  1.0
  H  H16  1  0.50758000  0.47623000  0.62824000  1.0
  H  H17  1  0.99243000  0.97623000  0.37176000  1.0
  H  H18  1  0.49242000  0.52377000  0.37177000  1.0
  H  H19  1  0.00757000  0.02377000  0.62823000  1.0
  H  H20  1  0.12719000  0.62250000  0.14863000  1.0
  H  H21  1  0.37281000  0.12250000  0.85137000  1.0
  H  H22  1  0.87281000  0.37750000  0.85137000  1.0
  H  H23  1  0.62719000  0.87750000  0.14863000  1.0
  C  C24  1  0.82378000  0.40291000  0.50583000  1.0
  C  C25  1  0.67622000  0.90291000  0.49417000  1.0
  C  C26  1  0.17621000  0.59709000  0.49417000  1.0
  C  C27  1  0.32379000  0.09709000  0.50583000  1.0
  C  C28  1  0.06123000  0.59631000  0.59667000  1.0
  C  C29  1  0.43876000  0.09631000  0.40332000  1.0
  C  C30  1  0.93876000  0.40369000  0.40332000  1.0
  C  C31  1  0.56124000  0.90369000  0.59668000  1.0
  C  C32  1  0.88467000  0.50033000  0.60260000  1.0
  C  C33  1  0.61533000  0.00033000  0.39740000  1.0
  C  C34  1  0.11532000  0.49967000  0.39740000  1.0
  C  C35  1  0.38467000  0.99967000  0.60260000  1.0
  C  C36  1  0.58253000  0.44176000  0.70890000  1.0
  C  C37  1  0.91747000  0.94175000  0.29110000  1.0
  C  C38  1  0.41747000  0.55824000  0.29110000  1.0
  C  C39  1  0.08253000  0.05825000  0.70890000  1.0
  C  C40  1  0.45823000  0.52149000  0.80871000  1.0
  C  C41  1  0.04177000  0.02149000  0.19129000  1.0
  C  C42  1  0.54177000  0.47851000  0.19129000  1.0
  C  C43  1  0.95822000  0.97852000  0.80871000  1.0
  O  O44  1  0.77862000  0.51070000  0.70666000  1.0
  O  O45  1  0.72138000  0.01070000  0.29334000  1.0
  O  O46  1  0.22138000  0.48929000  0.29334000  1.0
  O  O47  1  0.27862000  0.98929000  0.70666000  1.0
  O  O48  1  0.52880000  0.64978000  0.86936000  1.0
  O  O49  1  0.97120000  0.14978000  0.13064000  1.0
  O  O50  1  0.47120000  0.35022000  0.13064000  1.0
  O  O51  1  0.02880000  0.85022000  0.86936000  1.0
  O  O52  1  0.28906000  0.45562000  0.82104000  1.0
  O  O53  1  0.21094000  0.95562000  0.17896000  1.0
  O  O54  1  0.71094000  0.54438000  0.17897000  1.0
  O  O55  1  0.78906000  0.04438000  0.82103000  1.0
  O  O56  1  0.13084000  0.61959000  0.06363000  1.0
  O  O57  1  0.36916000  0.11959000  0.93637000  1.0
  O  O58  1  0.86916000  0.38041000  0.93637000  1.0
  O  O59  1  0.63084000  0.88041000  0.06363000  1.0
