# generated using pymatgen
data_NaH11C6(N4O)2
_symmetry_space_group_name_H-M   'P 1'
_cell_length_a   6.18482000
_cell_length_b   8.98377000
_cell_length_c   21.05810000
_cell_angle_alpha   78.77480000
_cell_angle_beta   81.62660000
_cell_angle_gamma   69.87680000
_symmetry_Int_Tables_number   1
_chemical_formula_structural   NaH11C6(N4O)2
_chemical_formula_sum   'Na4 H44 C24 N32 O8'
_cell_volume   1073.67176355
_cell_formula_units_Z   4
loop_
 _symmetry_equiv_pos_site_id
 _symmetry_equiv_pos_as_xyz
  1  'x, y, z'
loop_
 _atom_site_type_symbol
 _atom_site_label
 _atom_site_symmetry_multiplicity
 _atom_site_fract_x
 _atom_site_fract_y
 _atom_site_fract_z
 _atom_site_occupancy
  Na  Na0  1  0.28201000  0.97265000  0.46456000  1.0
  Na  Na1  1  0.71981000  0.52694000  0.03549000  1.0
  Na  Na2  1  0.71799000  0.02735000  0.53544000  1.0
  Na  Na3  1  0.28019000  0.47306000  0.96451000  1.0
  H  H4  1  0.07312000  0.20526000  0.55378000  1.0
  H  H5  1  0.83111000  0.29495000  0.94621000  1.0
  H  H6  1  0.92688000  0.79474000  0.44622000  1.0
  H  H7  1  0.16889000  0.70505000  0.05379000  1.0
  H  H8  1  0.28728000  0.92175000  0.60543000  1.0
  H  H9  1  0.81455000  0.57847000  0.89453000  1.0
  H  H10  1  0.71272000  0.07825000  0.39457000  1.0
  H  H11  1  0.18545000  0.42153000  0.10547000  1.0
  H  H12  1  0.56945000  0.53248000  0.27893000  1.0
  H  H13  1  0.38100000  0.96776000  0.22119000  1.0
  H  H14  1  0.43055000  0.46752000  0.72108000  1.0
  H  H15  1  0.61900000  0.03224000  0.77881000  1.0
  H  H16  1  0.18663000  0.62132000  0.33456000  1.0
  H  H17  1  0.14316000  0.87857000  0.16546000  1.0
  H  H18  1  0.81337000  0.37868000  0.66544000  1.0
  H  H19  1  0.85685000  0.12143000  0.83454000  1.0
  H  H20  1  0.97272000  0.49762000  0.23886000  1.0
  H  H21  1  0.70997000  0.00247000  0.26097000  1.0
  H  H22  1  0.02728000  0.50238000  0.76114000  1.0
  H  H23  1  0.29003000  0.99753000  0.73903000  1.0
  H  H24  1  0.00185000  0.41093000  0.47439000  1.0
  H  H25  1  0.88646000  0.08934000  0.02555000  1.0
  H  H26  1  0.99815000  0.58907000  0.52561000  1.0
  H  H27  1  0.11354000  0.91066000  0.97445000  1.0
  H  H28  1  0.72389000  0.39002000  0.50026000  1.0
  H  H29  1  0.61320000  0.11014000  0.99973000  1.0
  H  H30  1  0.27611000  0.60998000  0.49974000  1.0
  H  H31  1  0.38679000  0.88986000  0.00027000  1.0
  H  H32  1  0.89012000  0.30753000  0.43059000  1.0
  H  H33  1  0.62790000  0.19274000  0.06935000  1.0
  H  H34  1  0.10988000  0.69247000  0.56941000  1.0
  H  H35  1  0.37210000  0.80726000  0.93065000  1.0
  H  H36  1  0.41796000  0.66369000  0.62165000  1.0
  H  H37  1  0.70344000  0.83654000  0.87821000  1.0
  H  H38  1  0.58204000  0.33631000  0.37835000  1.0
  H  H39  1  0.29656000  0.16346000  0.12179000  1.0
  H  H40  1  0.68120000  0.70690000  0.61860000  1.0
  H  H41  1  0.00678000  0.79330000  0.88137000  1.0
  H  H42  1  0.31880000  0.29310000  0.38140000  1.0
  H  H43  1  0.99322000  0.20670000  0.11863000  1.0
  H  H44  1  0.59886000  0.66390000  0.54777000  1.0
  H  H45  1  0.81081000  0.83652000  0.95214000  1.0
  H  H46  1  0.40113000  0.33611000  0.45223000  1.0
  H  H47  1  0.18919000  0.16348000  0.04786000  1.0
  C  C48  1  0.82854000  0.64095000  0.34757000  1.0
  C  C49  1  0.81775000  0.85903000  0.15239000  1.0
  C  C50  1  0.17146000  0.35905000  0.65243000  1.0
  C  C51  1  0.18224000  0.14097000  0.84761000  1.0
  C  C52  1  0.32740000  0.48097000  0.22405000  1.0
  C  C53  1  0.03299000  0.01920000  0.27594000  1.0
  C  C54  1  0.67261000  0.51903000  0.77595000  1.0
  C  C55  1  0.96701000  0.98080000  0.72406000  1.0
  C  C56  1  0.05581000  0.59258000  0.31404000  1.0
  C  C57  1  0.96318000  0.90745000  0.18593000  1.0
  C  C58  1  0.94419000  0.40742000  0.68597000  1.0
  C  C59  1  0.03682000  0.09255000  0.81407000  1.0
  C  C60  1  0.10485000  0.52240000  0.26015000  1.0
  C  C61  1  0.88804000  0.97775000  0.23975000  1.0
  C  C62  1  0.89515000  0.47760000  0.73985000  1.0
  C  C63  1  0.11196000  0.02225000  0.76025000  1.0
  C  C64  1  0.89907000  0.33060000  0.47917000  1.0
  C  C65  1  0.70809000  0.16961000  0.02078000  1.0
  C  C66  1  0.10093000  0.66939000  0.52083000  1.0
  C  C67  1  0.29190000  0.83039000  0.97922000  1.0
  C  C68  1  0.53495000  0.72194000  0.59119000  1.0
  C  C69  1  0.84829000  0.77836000  0.90874000  1.0
  C  C70  1  0.46505000  0.27805000  0.40881000  1.0
  C  C71  1  0.15171000  0.22164000  0.09126000  1.0
  N  N72  1  0.52873000  0.48697000  0.23976000  1.0
  N  N73  1  0.25597000  0.01314000  0.26032000  1.0
  N  N74  1  0.47128000  0.51303000  0.76024000  1.0
  N  N75  1  0.74403000  0.98686000  0.73968000  1.0
  N  N76  1  0.63857000  0.61489000  0.33371000  1.0
  N  N77  1  0.58797000  0.88510000  0.16623000  1.0
  N  N78  1  0.36143000  0.38511000  0.66629000  1.0
  N  N79  1  0.41203000  0.11490000  0.83377000  1.0
  N  N80  1  0.37038000  0.42976000  0.16616000  1.0
  N  N81  1  0.96701000  0.07035000  0.33381000  1.0
  N  N82  1  0.62962000  0.57024000  0.83384000  1.0
  N  N83  1  0.03299000  0.92965000  0.66619000  1.0
  N  N84  1  0.77446000  0.72257000  0.39838000  1.0
  N  N85  1  0.89585000  0.77747000  0.10158000  1.0
  N  N86  1  0.22554000  0.27743000  0.60162000  1.0
  N  N87  1  0.10415000  0.22253000  0.89842000  1.0
  N  N88  1  0.54887000  0.74593000  0.41525000  1.0
  N  N89  1  0.71044000  0.75406000  0.08467000  1.0
  N  N90  1  0.45113000  0.25407000  0.58475000  1.0
  N  N91  1  0.28956000  0.24594000  0.91533000  1.0
  N  N92  1  0.46719000  0.68134000  0.37662000  1.0
  N  N93  1  0.52578000  0.81862000  0.12328000  1.0
  N  N94  1  0.53281000  0.31866000  0.62338000  1.0
  N  N95  1  0.47421000  0.18138000  0.87672000  1.0
  N  N96  1  0.59690000  0.40659000  0.14805000  1.0
  N  N97  1  0.15225000  0.09350000  0.35204000  1.0
  N  N98  1  0.40310000  0.59342000  0.85195000  1.0
  N  N99  1  0.84775000  0.90650000  0.64796000  1.0
  N  N100  1  0.69410000  0.44031000  0.19207000  1.0
  N  N101  1  0.32707000  0.05979000  0.30809000  1.0
  N  N102  1  0.30590000  0.55969000  0.80793000  1.0
  N  N103  1  0.67292000  0.94021000  0.69191000  1.0
  O  O104  1  0.00652000  0.17957000  0.51823000  1.0
  O  O105  1  0.70331000  0.32063000  0.98168000  1.0
  O  O106  1  0.99348000  0.82043000  0.48177000  1.0
  O  O107  1  0.29668000  0.67937000  0.01832000  1.0
  O  O108  1  0.41444000  0.88927000  0.57087000  1.0
  O  O109  1  0.87484000  0.61103000  0.92911000  1.0
  O  O110  1  0.58556000  0.11073000  0.42913000  1.0
  O  O111  1  0.12516000  0.38897000  0.07089000  1.0
