# generated using pymatgen
data_AlH11C14N4O9
_symmetry_space_group_name_H-M   'P 1'
_cell_length_a   6.61001000
_cell_length_b   20.61240000
_cell_length_c   23.37490000
_cell_angle_alpha   77.64480000
_cell_angle_beta   87.74130000
_cell_angle_gamma   88.13940000
_symmetry_Int_Tables_number   1
_chemical_formula_structural   AlH11C14N4O9
_chemical_formula_sum   'Al4 H44 C56 N16 O36'
_cell_volume   3107.66765658
_cell_formula_units_Z   4
loop_
 _symmetry_equiv_pos_site_id
 _symmetry_equiv_pos_as_xyz
  1  'x, y, z'
loop_
 _atom_site_type_symbol
 _atom_site_label
 _atom_site_symmetry_multiplicity
 _atom_site_fract_x
 _atom_site_fract_y
 _atom_site_fract_z
 _atom_site_occupancy
  Al  Al0  1  0.23502000  0.74771000  0.74574000  1.0
  Al  Al1  1  0.74708000  0.25183000  0.25002000  1.0
  Al  Al2  1  0.73434000  0.74913000  0.74963000  1.0
  Al  Al3  1  0.24829000  0.25019000  0.24496000  1.0
  H  H4  1  0.21933000  0.51270000  0.99676000  1.0
  H  H5  1  0.76011000  0.48804000  0.99962000  1.0
  H  H6  1  0.72135000  0.98538000  0.49480000  1.0
  H  H7  1  0.25740000  0.00864000  0.49668000  1.0
  H  H8  1  0.80657000  0.53287000  0.46611000  1.0
  H  H9  1  0.16789000  0.45998000  0.53600000  1.0
  H  H10  1  0.30221000  0.96093000  0.03460000  1.0
  H  H11  1  0.67023000  0.03129000  0.96428000  1.0
  H  H12  1  0.23886000  0.49508000  0.30232000  1.0
  H  H13  1  0.08806000  0.49511000  0.21601000  1.0
  H  H14  1  0.94032000  0.42546000  0.24856000  1.0
  H  H15  1  0.19441000  0.41314000  0.22388000  1.0
  H  H16  1  0.75050000  0.49931000  0.70050000  1.0
  H  H17  1  0.91025000  0.50004000  0.78520000  1.0
  H  H18  1  0.80299000  0.58184000  0.77806000  1.0
  H  H19  1  0.05438000  0.57006000  0.75119000  1.0
  H  H20  1  0.71491000  0.01055000  0.20360000  1.0
  H  H21  1  0.04185000  0.05449000  0.17236000  1.0
  H  H22  1  0.97486000  0.06519000  0.24442000  1.0
  H  H23  1  0.95027000  0.13347000  0.18352000  1.0
  H  H24  1  0.19916000  0.98601000  0.79925000  1.0
  H  H25  1  0.90574000  0.92951000  0.84637000  1.0
  H  H26  1  0.00167000  0.85653000  0.82416000  1.0
  H  H27  1  0.92780000  0.92785000  0.77058000  1.0
  H  H28  1  0.21217000  0.73062000  0.51933000  1.0
  H  H29  1  0.04028000  0.82301000  0.53884000  1.0
  H  H30  1  0.14641000  0.79805000  0.60934000  1.0
  H  H31  1  0.89881000  0.77369000  0.59758000  1.0
  H  H32  1  0.76037000  0.26380000  0.47872000  1.0
  H  H33  1  0.92961000  0.17124000  0.45895000  1.0
  H  H34  1  0.07966000  0.22085000  0.40246000  1.0
  H  H35  1  0.83287000  0.19824000  0.38744000  1.0
  H  H36  1  0.70542000  0.76255000  0.88241000  1.0
  H  H37  1  0.80955000  0.69172000  0.96377000  1.0
  H  H38  1  0.69786000  0.74177000  0.01028000  1.0
  H  H39  1  0.93981000  0.76195000  0.97621000  1.0
  H  H40  1  0.29008000  0.24242000  0.01860000  1.0
  H  H41  1  0.45099000  0.33452000  0.03158000  1.0
  H  H42  1  0.63547000  0.28321000  0.07460000  1.0
  H  H43  1  0.40377000  0.30609000  0.10804000  1.0
  H  H44  1  0.50333000  0.67176000  0.72925000  1.0
  H  H45  1  0.47643000  0.32355000  0.27239000  1.0
  H  H46  1  0.98223000  0.83664000  0.72978000  1.0
  H  H47  1  0.00178000  0.16489000  0.27250000  1.0
  C  C48  1  0.45553000  0.81854000  0.81870000  1.0
  C  C49  1  0.52571000  0.18702000  0.17166000  1.0
  C  C50  1  0.99903000  0.67552000  0.67849000  1.0
  C  C51  1  0.98602000  0.31995000  0.32105000  1.0
  C  C52  1  0.49757000  0.83685000  0.66008000  1.0
  C  C53  1  0.48762000  0.15781000  0.33218000  1.0
  C  C54  1  0.97899000  0.66419000  0.83711000  1.0
  C  C55  1  0.99844000  0.33856000  0.16079000  1.0
  C  C56  1  0.98417000  0.38775000  0.10705000  1.0
  C  C57  1  0.99447000  0.61407000  0.89019000  1.0
  C  C58  1  0.47604000  0.10653000  0.38467000  1.0
  C  C59  1  0.50626000  0.88723000  0.60691000  1.0
  C  C60  1  0.91670000  0.48062000  0.01358000  1.0
  C  C61  1  0.06273000  0.52013000  0.98282000  1.0
  C  C62  1  0.41448000  0.01585000  0.48063000  1.0
  C  C63  1  0.56433000  0.97804000  0.51088000  1.0
  C  C64  1  0.02311000  0.57018000  0.93344000  1.0
  C  C65  1  0.95616000  0.43078000  0.06316000  1.0
  C  C66  1  0.52892000  0.92968000  0.56209000  1.0
  C  C67  1  0.45081000  0.06416000  0.42942000  1.0
  C  C68  1  0.99967000  0.35899000  0.36754000  1.0
  C  C69  1  0.98215000  0.63591000  0.63272000  1.0
  C  C70  1  0.54645000  0.14794000  0.12416000  1.0
  C  C71  1  0.44733000  0.85806000  0.86538000  1.0
  C  C72  1  0.10693000  0.41969000  0.35508000  1.0
  C  C73  1  0.87687000  0.57482000  0.64638000  1.0
  C  C74  1  0.63687000  0.08417000  0.13840000  1.0
  C  C75  1  0.32150000  0.91504000  0.85891000  1.0
  C  C76  1  0.15144000  0.44878000  0.40412000  1.0
  C  C77  1  0.82907000  0.54506000  0.59804000  1.0
  C  C78  1  0.63521000  0.04369000  0.09622000  1.0
  C  C79  1  0.31263000  0.95099000  0.90452000  1.0
  C  C80  1  0.04968000  0.42875000  0.45861000  1.0
  C  C81  1  0.92694000  0.56471000  0.54294000  1.0
  C  C82  1  0.54507000  0.06402000  0.04197000  1.0
  C  C83  1  0.42823000  0.93178000  0.95487000  1.0
  C  C84  1  0.92696000  0.37310000  0.46809000  1.0
  C  C85  1  0.04856000  0.62072000  0.53216000  1.0
  C  C86  1  0.44840000  0.12701000  0.03000000  1.0
  C  C87  1  0.56117000  0.87725000  0.95754000  1.0
  C  C88  1  0.91685000  0.33318000  0.42442000  1.0
  C  C89  1  0.06075000  0.66139000  0.57519000  1.0
  C  C90  1  0.45353000  0.17162000  0.06956000  1.0
  C  C91  1  0.57363000  0.83748000  0.91468000  1.0
  C  C92  1  0.05382000  0.47098000  0.50270000  1.0
  C  C93  1  0.92054000  0.52182000  0.49944000  1.0
  C  C94  1  0.55289000  0.02044000  0.99888000  1.0
  C  C95  1  0.42273000  0.97161000  0.00093000  1.0
  C  C96  1  0.09355000  0.44542000  0.24465000  1.0
  C  C97  1  0.90168000  0.54965000  0.75651000  1.0
  C  C98  1  0.93444000  0.07987000  0.19820000  1.0
  C  C99  1  0.99958000  0.91076000  0.81296000  1.0
  C  C100  1  0.05146000  0.78230000  0.57765000  1.0
  C  C101  1  0.92445000  0.21267000  0.42057000  1.0
  C  C102  1  0.79045000  0.74280000  0.97007000  1.0
  C  C103  1  0.47206000  0.29232000  0.06865000  1.0
  N  N104  1  0.16324000  0.45244000  0.30082000  1.0
  N  N105  1  0.82568000  0.54228000  0.70116000  1.0
  N  N106  1  0.72294000  0.06123000  0.19330000  1.0
  N  N107  1  0.20843000  0.93519000  0.80761000  1.0
  N  N108  1  0.13129000  0.72382000  0.55834000  1.0
  N  N109  1  0.84383000  0.27092000  0.44016000  1.0
  N  N110  1  0.69029000  0.78122000  0.91925000  1.0
  N  N111  1  0.37943000  0.23495000  0.05421000  1.0
  N  N112  1  0.83313000  0.35036000  0.52553000  1.0
  N  N113  1  0.13872000  0.64296000  0.47418000  1.0
  N  N114  1  0.35537000  0.14939000  0.97373000  1.0
  N  N115  1  0.70670000  0.86513000  0.00487000  1.0
  N  N116  1  0.68059000  0.49359000  0.60515000  1.0
  N  N117  1  0.30027000  0.49993000  0.39828000  1.0
  N  N118  1  0.17741000  0.00895000  0.90004000  1.0
  N  N119  1  0.75383000  0.98140000  0.10761000  1.0
  O  O120  1  0.66853000  0.81240000  0.67833000  1.0
  O  O121  1  0.31737000  0.18024000  0.31169000  1.0
  O  O122  1  0.14315000  0.67609000  0.80721000  1.0
  O  O123  1  0.83136000  0.32396000  0.18851000  1.0
  O  O124  1  0.29377000  0.79501000  0.80528000  1.0
  O  O125  1  0.68618000  0.20689000  0.18962000  1.0
  O  O126  1  0.83432000  0.68562000  0.70643000  1.0
  O  O127  1  0.15365000  0.30810000  0.29553000  1.0
  O  O128  1  0.32401000  0.82130000  0.68386000  1.0
  O  O129  1  0.66253000  0.17637000  0.31127000  1.0
  O  O130  1  0.80525000  0.69109000  0.82425000  1.0
  O  O131  1  0.17313000  0.31539000  0.17647000  1.0
  O  O132  1  0.17103000  0.69717000  0.68798000  1.0
  O  O133  1  0.81355000  0.30069000  0.30902000  1.0
  O  O134  1  0.63062000  0.80899000  0.79592000  1.0
  O  O135  1  0.34763000  0.19692000  0.19149000  1.0
  O  O136  1  0.48918000  0.70734000  0.75060000  1.0
  O  O137  1  0.49255000  0.29115000  0.24773000  1.0
  O  O138  1  0.98266000  0.78869000  0.74208000  1.0
  O  O139  1  0.99980000  0.21100000  0.25190000  1.0
  O  O140  1  0.68343000  0.31291000  0.52978000  1.0
  O  O141  1  0.90304000  0.36698000  0.56851000  1.0
  O  O142  1  0.28718000  0.68111000  0.46864000  1.0
  O  O143  1  0.06707000  0.62524000  0.43194000  1.0
  O  O144  1  0.21141000  0.19144000  0.97040000  1.0
  O  O145  1  0.42161000  0.12732000  0.93124000  1.0
  O  O146  1  0.88877000  0.86850000  0.98950000  1.0
  O  O147  1  0.63963000  0.85337000  0.05613000  1.0
  O  O148  1  0.63819000  0.45949000  0.65575000  1.0
  O  O149  1  0.59319000  0.48596000  0.56124000  1.0
  O  O150  1  0.38407000  0.50719000  0.44290000  1.0
  O  O151  1  0.34683000  0.53427000  0.34809000  1.0
  O  O152  1  0.16064000  0.04705000  0.85096000  1.0
  O  O153  1  0.08546000  0.01761000  0.94520000  1.0
  O  O154  1  0.87545000  0.97109000  0.06876000  1.0
  O  O155  1  0.73017000  0.94340000  0.15663000  1.0
