# generated using pymatgen
data_ZnSiH16C24(N2F5)2
_symmetry_space_group_name_H-M   'P 1'
_cell_length_a   7.76357000
_cell_length_b   13.82450000
_cell_length_c   13.82440000
_cell_angle_alpha   89.64730000
_cell_angle_beta   86.05350000
_cell_angle_gamma   86.05300000
_symmetry_Int_Tables_number   1
_chemical_formula_structural   ZnSiH16C24(N2F5)2
_chemical_formula_sum   'Zn1 Si1 H16 C24 N4 F10'
_cell_volume   1476.70725306
_cell_formula_units_Z   1
loop_
 _symmetry_equiv_pos_site_id
 _symmetry_equiv_pos_as_xyz
  1  'x, y, z'
loop_
 _atom_site_type_symbol
 _atom_site_label
 _atom_site_symmetry_multiplicity
 _atom_site_fract_x
 _atom_site_fract_y
 _atom_site_fract_z
 _atom_site_occupancy
  Zn  Zn0  1  0.49998000  0.50000000  0.50000000  1.0
  Si  Si1  1  0.99999000  0.50000000  0.50000000  1.0
  H  H2  1  0.25286000  0.50008000  0.33687000  1.0
  H  H3  1  0.25824000  0.50002000  0.15917000  1.0
  H  H4  1  0.81746000  0.49999000  0.15436000  1.0
  H  H5  1  0.78840000  0.50002000  0.33372000  1.0
  H  H6  1  0.18251000  0.50001000  0.84564000  1.0
  H  H7  1  0.74173000  0.49998000  0.84083000  1.0
  H  H8  1  0.74712000  0.49992000  0.66313000  1.0
  H  H9  1  0.21158000  0.49999000  0.66628000  1.0
  H  H10  1  0.25286000  0.33687000  0.50008000  1.0
  H  H11  1  0.25825000  0.15918000  0.50002000  1.0
  H  H12  1  0.81746000  0.15436000  0.49999000  1.0
  H  H13  1  0.78841000  0.33372000  0.50001000  1.0
  H  H14  1  0.18251000  0.84564000  0.50001000  1.0
  H  H15  1  0.74172000  0.84084000  0.49998000  1.0
  H  H16  1  0.74712000  0.66313000  0.49993000  1.0
  H  H17  1  0.21158000  0.66628000  0.49998000  1.0
  C  C18  1  0.37579000  0.50004000  0.29395000  1.0
  C  C19  1  0.37980000  0.50001000  0.19340000  1.0
  C  C20  1  0.54017000  0.49999000  0.13907000  1.0
  C  C21  1  0.68944000  0.49999000  0.19157000  1.0
  C  C22  1  0.67405000  0.50002000  0.29225000  1.0
  C  C23  1  0.56021000  0.49998000  0.03358000  1.0
  C  C24  1  0.43979000  0.50001000  0.96642000  1.0
  C  C25  1  0.31053000  0.50000000  0.80843000  1.0
  C  C26  1  0.45981000  0.50000000  0.86092000  1.0
  C  C27  1  0.62017000  0.49999000  0.80660000  1.0
  C  C28  1  0.62419000  0.49996000  0.70605000  1.0
  C  C29  1  0.32593000  0.49998000  0.70775000  1.0
  C  C30  1  0.37580000  0.29395000  0.50004000  1.0
  C  C31  1  0.37981000  0.19340000  0.50001000  1.0
  C  C32  1  0.54017000  0.13907000  0.49999000  1.0
  C  C33  1  0.68945000  0.19157000  0.49999000  1.0
  C  C34  1  0.67406000  0.29225000  0.50002000  1.0
  C  C35  1  0.56021000  0.03358000  0.49999000  1.0
  C  C36  1  0.43979000  0.96642000  0.50001000  1.0
  C  C37  1  0.31053000  0.80843000  0.50000000  1.0
  C  C38  1  0.45981000  0.86093000  0.50001000  1.0
  C  C39  1  0.62017000  0.80660000  0.49999000  1.0
  C  C40  1  0.62419000  0.70605000  0.49996000  1.0
  C  C41  1  0.32593000  0.70775000  0.49998000  1.0
  N  N42  1  0.51970000  0.50005000  0.34326000  1.0
  N  N43  1  0.48027000  0.49996000  0.65674000  1.0
  N  N44  1  0.51971000  0.34326000  0.50004000  1.0
  N  N45  1  0.48028000  0.65675000  0.49996000  1.0
  F  F46  1  0.22657000  0.50040000  0.50040000  1.0
  F  F47  1  0.77341000  0.49959000  0.49959000  1.0
  F  F48  1  0.00000000  0.58727000  0.41272000  1.0
  F  F49  1  0.99999000  0.41272000  0.58728000  1.0
  F  F50  1  0.02183000  0.41285000  0.41285000  1.0
  F  F51  1  0.97817000  0.58714000  0.58714000  1.0
  F  F52  1  0.72879000  0.49993000  0.99758000  1.0
  F  F53  1  0.27121000  0.50006000  0.00242000  1.0
  F  F54  1  0.72879000  0.99758000  0.49994000  1.0
  F  F55  1  0.27121000  0.00242000  0.50006000  1.0
