# generated using pymatgen
data_CuH18C20(NO2)2
_symmetry_space_group_name_H-M   'P 1'
_cell_length_a   9.80688000
_cell_length_b   9.92791000
_cell_length_c   11.79300000
_cell_angle_alpha   65.79100000
_cell_angle_beta   89.72910000
_cell_angle_gamma   62.83900000
_symmetry_Int_Tables_number   1
_chemical_formula_structural   CuH18C20(NO2)2
_chemical_formula_sum   'Cu2 H36 C40 N4 O8'
_cell_volume   907.87336943
_cell_formula_units_Z   2
loop_
 _symmetry_equiv_pos_site_id
 _symmetry_equiv_pos_as_xyz
  1  'x, y, z'
loop_
 _atom_site_type_symbol
 _atom_site_label
 _atom_site_symmetry_multiplicity
 _atom_site_fract_x
 _atom_site_fract_y
 _atom_site_fract_z
 _atom_site_occupancy
  Cu  Cu0  1  0.87330000  0.98745000  0.50065000  1.0
  Cu  Cu1  1  0.12672000  0.01256000  0.49935000  1.0
  H  H2  1  0.88383000  0.78375000  0.90036000  1.0
  H  H3  1  0.11616000  0.21624000  0.09965000  1.0
  H  H4  1  0.92378000  0.68608000  0.13554000  1.0
  H  H5  1  0.07621000  0.31392000  0.86446000  1.0
  H  H6  1  0.12769000  0.70103000  0.24654000  1.0
  H  H7  1  0.87231000  0.29898000  0.75345000  1.0
  H  H8  1  0.29533000  0.80673000  0.12392000  1.0
  H  H9  1  0.70467000  0.19327000  0.87608000  1.0
  H  H10  1  0.25612000  0.90043000  0.89024000  1.0
  H  H11  1  0.74387000  0.09957000  0.10975000  1.0
  H  H12  1  0.35609000  0.82754000  0.30416000  1.0
  H  H13  1  0.64390000  0.17246000  0.69585000  1.0
  H  H14  1  0.48985000  0.99914000  0.25181000  1.0
  H  H15  1  0.51015000  0.00086000  0.74819000  1.0
  H  H16  1  0.78189000  0.85545000  0.30316000  1.0
  H  H17  1  0.21811000  0.14455000  0.69684000  1.0
  H  H18  1  0.51625000  0.51051000  0.39137000  1.0
  H  H19  1  0.48374000  0.48949000  0.60863000  1.0
  H  H20  1  0.94034000  0.53887000  0.39306000  1.0
  H  H21  1  0.05966000  0.46112000  0.60695000  1.0
  H  H22  1  0.54336000  0.22528000  0.35492000  1.0
  H  H23  1  0.45665000  0.77472000  0.64508000  1.0
  H  H24  1  0.14813000  0.29030000  0.28236000  1.0
  H  H25  1  0.85188000  0.70969000  0.71764000  1.0
  H  H26  1  0.27725000  0.37726000  0.23988000  1.0
  H  H27  1  0.72275000  0.62274000  0.76012000  1.0
  H  H28  1  0.17748000  0.39213000  0.36474000  1.0
  H  H29  1  0.82252000  0.60787000  0.63526000  1.0
  H  H30  1  0.39230000  0.58778000  0.78155000  1.0
  H  H31  1  0.60770000  0.41222000  0.21845000  1.0
  H  H32  1  0.20564000  0.40927000  0.00495000  1.0
  H  H33  1  0.79436000  0.59073000  0.99505000  1.0
  H  H34  1  0.25965000  0.42568000  0.85716000  1.0
  H  H35  1  0.74035000  0.57432000  0.14284000  1.0
  H  H36  1  0.37062000  0.23370000  0.00107000  1.0
  H  H37  1  0.62937000  0.76630000  0.99893000  1.0
  C  C38  1  0.04227000  0.90828000  0.74075000  1.0
  C  C39  1  0.95773000  0.09172000  0.25925000  1.0
  C  C40  1  0.06765000  0.84773000  0.88159000  1.0
  C  C41  1  0.93235000  0.15227000  0.11841000  1.0
  C  C42  1  0.97440000  0.78658000  0.95085000  1.0
  C  C43  1  0.02559000  0.21343000  0.04914000  1.0
  C  C44  1  0.99700000  0.73253000  0.08193000  1.0
  C  C45  1  0.00299000  0.26747000  0.91807000  1.0
  C  C46  1  0.11178000  0.74064000  0.14427000  1.0
  C  C47  1  0.88820000  0.25936000  0.85573000  1.0
  C  C48  1  0.20545000  0.80056000  0.07569000  1.0
  C  C49  1  0.79453000  0.19944000  0.92431000  1.0
  C  C50  1  0.18383000  0.85358000  0.94485000  1.0
  C  C51  1  0.81616000  0.14642000  0.05515000  1.0
  C  C52  1  0.83419000  0.31753000  0.44300000  1.0
  C  C53  1  0.16582000  0.68248000  0.55700000  1.0
  C  C54  1  0.73780000  0.50616000  0.39580000  1.0
  C  C55  1  0.26221000  0.49384000  0.60420000  1.0
  C  C56  1  0.57294000  0.58753000  0.37065000  1.0
  C  C57  1  0.42706000  0.41247000  0.62935000  1.0
  C  C58  1  0.48399000  0.76442000  0.31994000  1.0
  C  C59  1  0.51600000  0.23557000  0.68007000  1.0
  C  C60  1  0.55921000  0.86086000  0.29232000  1.0
  C  C61  1  0.44078000  0.13914000  0.70768000  1.0
  C  C62  1  0.72342000  0.78052000  0.31974000  1.0
  C  C63  1  0.27658000  0.21949000  0.68025000  1.0
  C  C64  1  0.81232000  0.60373000  0.37151000  1.0
  C  C65  1  0.18768000  0.39627000  0.62849000  1.0
  C  C66  1  0.52375000  0.12415000  0.42080000  1.0
  C  C67  1  0.47626000  0.87584000  0.57920000  1.0
  C  C68  1  0.37188000  0.14660000  0.41353000  1.0
  C  C69  1  0.62812000  0.85340000  0.58647000  1.0
  C  C70  1  0.23583000  0.31086000  0.31864000  1.0
  C  C71  1  0.76417000  0.68914000  0.68135000  1.0
  C  C72  1  0.44169000  0.54775000  0.88012000  1.0
  C  C73  1  0.55831000  0.45225000  0.11988000  1.0
  C  C74  1  0.40822000  0.43874000  0.98137000  1.0
  C  C75  1  0.59178000  0.56126000  0.01863000  1.0
  C  C76  1  0.30533000  0.37352000  0.95927000  1.0
  C  C77  1  0.69467000  0.62648000  0.04073000  1.0
  N  N78  1  0.65006000  0.98105000  0.50543000  1.0
  N  N79  1  0.34994000  0.01895000  0.49457000  1.0
  N  N80  1  0.53193000  0.60873000  0.89762000  1.0
  N  N81  1  0.46807000  0.39127000  0.10237000  1.0
  O  O82  1  0.92150000  0.92111000  0.68626000  1.0
  O  O83  1  0.07851000  0.07889000  0.31373000  1.0
  O  O84  1  0.14302000  0.94239000  0.68573000  1.0
  O  O85  1  0.85698000  0.05762000  0.31428000  1.0
  O  O86  1  0.76003000  0.23651000  0.45607000  1.0
  O  O87  1  0.23999000  0.76348000  0.54393000  1.0
  O  O88  1  0.98320000  0.25342000  0.46327000  1.0
  O  O89  1  0.01681000  0.74660000  0.53673000  1.0
