# generated using pymatgen
data_HgP2H18Au2C30(ClF4)4
_symmetry_space_group_name_H-M   'P 1'
_cell_length_a   10.84210000
_cell_length_b   11.49280000
_cell_length_c   18.48020000
_cell_angle_alpha   91.42980000
_cell_angle_beta   107.04700000
_cell_angle_gamma   118.13800000
_symmetry_Int_Tables_number   1
_chemical_formula_structural   HgP2H18Au2C30(ClF4)4
_chemical_formula_sum   'Hg2 P4 H36 Au4 C60 Cl8 F32'
_cell_volume   1904.65584803
_cell_formula_units_Z   2
loop_
 _symmetry_equiv_pos_site_id
 _symmetry_equiv_pos_as_xyz
  1  'x, y, z'
loop_
 _atom_site_type_symbol
 _atom_site_label
 _atom_site_symmetry_multiplicity
 _atom_site_fract_x
 _atom_site_fract_y
 _atom_site_fract_z
 _atom_site_occupancy
  Hg  Hg0  1  0.00000000  0.00000000  0.00000000  1.0
  Hg  Hg1  1  0.50000000  0.50000000  0.50000000  1.0
  P  P2  1  0.54349000  0.63403000  0.86548000  1.0
  P  P3  1  0.54380000  0.86572000  0.63456000  1.0
  P  P4  1  0.45651000  0.36597000  0.13452000  1.0
  P  P5  1  0.45620000  0.13428000  0.36544000  1.0
  H  H6  1  0.43492000  0.42012000  0.90583000  1.0
  H  H7  1  0.60874000  0.07965000  0.59419000  1.0
  H  H8  1  0.56508000  0.57988000  0.09417000  1.0
  H  H9  1  0.39126000  0.92035000  0.40581000  1.0
  H  H10  1  0.63458000  0.51039000  0.94706000  1.0
  H  H11  1  0.67694000  0.98942000  0.55294000  1.0
  H  H12  1  0.36542000  0.48961000  0.05294000  1.0
  H  H13  1  0.32306000  0.01058000  0.44706000  1.0
  H  H14  1  0.54461000  0.42453000  0.84898000  1.0
  H  H15  1  0.77083000  0.07523000  0.65102000  1.0
  H  H16  1  0.45539000  0.57547000  0.15102000  1.0
  H  H17  1  0.22917000  0.92477000  0.34898000  1.0
  H  H18  1  0.37658000  0.52058000  0.73504000  1.0
  H  H19  1  0.62089000  0.97932000  0.76500000  1.0
  H  H20  1  0.62342000  0.47942000  0.26496000  1.0
  H  H21  1  0.37911000  0.02067000  0.23500000  1.0
  H  H22  1  0.36504000  0.66210000  0.76534000  1.0
  H  H23  1  0.43752000  0.83783000  0.73475000  1.0
  H  H24  1  0.63496000  0.33790000  0.23466000  1.0
  H  H25  1  0.56248000  0.16217000  0.26525000  1.0
  H  H26  1  0.27492000  0.51087000  0.79844000  1.0
  H  H27  1  0.46556000  0.98902000  0.70158000  1.0
  H  H28  1  0.72508000  0.48913000  0.20156000  1.0
  H  H29  1  0.53444000  0.01098000  0.29842000  1.0
  H  H30  1  0.50919000  0.79786000  0.92877000  1.0
  H  H31  1  0.28238000  0.70176000  0.57135000  1.0
  H  H32  1  0.49081000  0.20214000  0.07123000  1.0
  H  H33  1  0.71762000  0.29824000  0.42865000  1.0
  H  H34  1  0.60369000  0.73515000  0.99646000  1.0
  H  H35  1  0.37190000  0.76452000  0.50363000  1.0
  H  H36  1  0.39631000  0.26485000  0.00354000  1.0
  H  H37  1  0.62810000  0.23548000  0.49637000  1.0
  H  H38  1  0.40587000  0.63442000  0.94809000  1.0
  H  H39  1  0.32312000  0.86520000  0.55200000  1.0
  H  H40  1  0.59413000  0.36558000  0.05191000  1.0
  H  H41  1  0.67687000  0.13480000  0.44800000  1.0
  Au  Au42  1  0.75566000  0.77427000  0.84082000  1.0
  Au  Au43  1  0.64052000  0.72555000  0.65915000  1.0
  Au  Au44  1  0.24434000  0.22573000  0.15918000  1.0
  Au  Au45  1  0.35948000  0.27445000  0.34085000  1.0
  C  C46  1  0.95521000  0.89269000  0.82390000  1.0
  C  C47  1  0.73863000  0.60716000  0.67605000  1.0
  C  C48  1  0.04479000  0.10732000  0.17610000  1.0
  C  C49  1  0.26137000  0.39283000  0.32395000  1.0
  C  C50  1  0.06127000  0.85241000  0.83719000  1.0
  C  C51  1  0.87182000  0.64746000  0.66292000  1.0
  C  C52  1  0.93873000  0.14760000  0.16281000  1.0
  C  C53  1  0.12818000  0.35254000  0.33708000  1.0
  C  C54  1  0.99403000  0.01361000  0.79837000  1.0
  C  C55  1  0.68187000  0.48619000  0.70151000  1.0
  C  C56  1  0.00597000  0.98640000  0.20163000  1.0
  C  C57  1  0.31813000  0.51381000  0.29849000  1.0
  C  C58  1  0.12886000  0.09287000  0.78658000  1.0
  C  C59  1  0.74910000  0.40683000  0.71338000  1.0
  C  C60  1  0.87115000  0.90713000  0.21342000  1.0
  C  C61  1  0.25090000  0.59317000  0.28662000  1.0
  C  C62  1  0.23099000  0.04726000  0.80165000  1.0
  C  C63  1  0.88194000  0.45247000  0.69848000  1.0
  C  C64  1  0.76902000  0.95274000  0.19836000  1.0
  C  C65  1  0.11806000  0.54753000  0.30151000  1.0
  C  C66  1  0.19925000  0.92661000  0.82769000  1.0
  C  C67  1  0.94502000  0.57319000  0.67252000  1.0
  C  C68  1  0.80075000  0.07339000  0.17231000  1.0
  C  C69  1  0.05498000  0.42681000  0.32748000  1.0
  C  C70  1  0.53872000  0.48230000  0.89463000  1.0
  C  C71  1  0.66155000  0.01745000  0.60538000  1.0
  C  C72  1  0.46128000  0.51770000  0.10537000  1.0
  C  C73  1  0.33844000  0.98255000  0.39462000  1.0
  C  C74  1  0.37326000  0.57526000  0.78326000  1.0
  C  C75  1  0.51466000  0.92462000  0.71680000  1.0
  C  C76  1  0.62674000  0.42474000  0.21674000  1.0
  C  C77  1  0.48534000  0.07538000  0.28320000  1.0
  C  C78  1  0.51195000  0.70665000  0.94198000  1.0
  C  C79  1  0.36309000  0.79297000  0.55813000  1.0
  C  C80  1  0.48805000  0.29335000  0.05802000  1.0
  C  C81  1  0.63691000  0.20703000  0.44187000  1.0
  C  C82  1  0.94661000  0.14872000  0.96468000  1.0
  C  C83  1  0.33350000  0.35094000  0.53529000  1.0
  C  C84  1  0.05339000  0.85128000  0.03532000  1.0
  C  C85  1  0.66649000  0.64906000  0.46471000  1.0
  C  C86  1  0.04440000  0.26315000  0.94479000  1.0
  C  C87  1  0.33673000  0.23652000  0.55522000  1.0
  C  C88  1  0.95560000  0.73685000  0.05521000  1.0
  C  C89  1  0.66327000  0.76348000  0.44478000  1.0
  C  C90  1  0.01447000  0.36578000  0.92545000  1.0
  C  C91  1  0.22339000  0.13396000  0.57455000  1.0
  C  C92  1  0.98552000  0.63422000  0.07455000  1.0
  C  C93  1  0.77661000  0.86604000  0.42545000  1.0
  C  C94  1  0.88119000  0.35458000  0.92644000  1.0
  C  C95  1  0.10030000  0.14520000  0.57346000  1.0
  C  C96  1  0.11880000  0.64542000  0.07356000  1.0
  C  C97  1  0.89970000  0.85480000  0.42654000  1.0
  C  C98  1  0.77933000  0.24055000  0.94547000  1.0
  C  C99  1  0.09352000  0.25924000  0.55438000  1.0
  C  C100  1  0.22067000  0.75944000  0.05453000  1.0
  C  C101  1  0.90648000  0.74076000  0.44562000  1.0
  C  C102  1  0.81389000  0.13998000  0.96380000  1.0
  C  C103  1  0.21041000  0.35975000  0.53609000  1.0
  C  C104  1  0.18611000  0.86002000  0.03620000  1.0
  C  C105  1  0.78958000  0.64025000  0.46391000  1.0
  Cl  Cl106  1  0.32798000  0.87457000  0.84968000  1.0
  Cl  Cl107  1  0.10388000  0.62515000  0.65061000  1.0
  Cl  Cl108  1  0.67202000  0.12543000  0.15032000  1.0
  Cl  Cl109  1  0.89612000  0.37485000  0.34939000  1.0
  Cl  Cl110  1  0.17017000  0.24267000  0.75663000  1.0
  Cl  Cl111  1  0.67042000  0.25704000  0.74330000  1.0
  Cl  Cl112  1  0.82984000  0.75734000  0.24337000  1.0
  Cl  Cl113  1  0.32958000  0.74296000  0.25670000  1.0
  F  F114  1  0.03140000  0.73395000  0.86148000  1.0
  F  F115  1  0.93625000  0.76592000  0.63866000  1.0
  F  F116  1  0.96860000  0.26605000  0.13852000  1.0
  F  F117  1  0.06375000  0.23408000  0.36134000  1.0
  F  F118  1  0.36291000  0.12148000  0.79136000  1.0
  F  F119  1  0.94990000  0.37824000  0.70886000  1.0
  F  F120  1  0.63710000  0.87852000  0.20864000  1.0
  F  F121  1  0.05010000  0.62176000  0.29114000  1.0
  F  F122  1  0.89610000  0.06062000  0.78374000  1.0
  F  F123  1  0.55149000  0.43928000  0.71608000  1.0
  F  F124  1  0.10390000  0.93938000  0.21626000  1.0
  F  F125  1  0.44850000  0.56071000  0.28392000  1.0
  F  F126  1  0.17736000  0.27922000  0.94400000  1.0
  F  F127  1  0.45443000  0.22043000  0.55613000  1.0
  F  F128  1  0.82265000  0.72079000  0.05600000  1.0
  F  F129  1  0.54557000  0.77958000  0.44387000  1.0
  F  F130  1  0.11290000  0.47628000  0.90652000  1.0
  F  F131  1  0.23017000  0.02347000  0.59356000  1.0
  F  F132  1  0.88709000  0.52372000  0.09348000  1.0
  F  F133  1  0.76983000  0.97653000  0.40644000  1.0
  F  F134  1  0.85114000  0.45390000  0.90923000  1.0
  F  F135  1  0.98800000  0.04596000  0.59063000  1.0
  F  F136  1  0.14886000  0.54610000  0.09077000  1.0
  F  F137  1  0.01199000  0.95404000  0.40937000  1.0
  F  F138  1  0.65022000  0.23003000  0.94617000  1.0
  F  F139  1  0.97429000  0.26987000  0.55366000  1.0
  F  F140  1  0.34978000  0.76997000  0.05383000  1.0
  F  F141  1  0.02571000  0.73012000  0.44634000  1.0
  F  F142  1  0.71245000  0.03045000  0.98275000  1.0
  F  F143  1  0.19967000  0.46934000  0.51714000  1.0
  F  F144  1  0.28756000  0.96955000  0.01725000  1.0
  F  F145  1  0.80033000  0.53065000  0.48286000  1.0
