# generated using pymatgen
data_ZnH12C20N2(OF)4
_symmetry_space_group_name_H-M   'P 1'
_cell_length_a   10.47170000
_cell_length_b   11.71300000
_cell_length_c   13.34250000
_cell_angle_alpha   103.26200000
_cell_angle_beta   110.70900000
_cell_angle_gamma   107.00900000
_symmetry_Int_Tables_number   1
_chemical_formula_structural   ZnH12C20N2(OF)4
_chemical_formula_sum   'Zn3 H36 C60 N6 O12 F12'
_cell_volume   1358.70591833
_cell_formula_units_Z   3
loop_
 _symmetry_equiv_pos_site_id
 _symmetry_equiv_pos_as_xyz
  1  'x, y, z'
loop_
 _atom_site_type_symbol
 _atom_site_label
 _atom_site_symmetry_multiplicity
 _atom_site_fract_x
 _atom_site_fract_y
 _atom_site_fract_z
 _atom_site_occupancy
  Zn  Zn0  1  0.50000000  0.50000000  0.50000000  1.0
  Zn  Zn1  1  0.44378000  0.66607000  0.24773000  1.0
  Zn  Zn2  1  0.55622000  0.33393000  0.75227000  1.0
  H  H3  1  0.54943000  0.32799000  0.32000000  1.0
  H  H4  1  0.45057000  0.67201000  0.68000000  1.0
  H  H5  1  0.17733000  0.35222000  0.34910000  1.0
  H  H6  1  0.82267000  0.64778000  0.65090000  1.0
  H  H7  1  0.39135000  0.13809000  0.13525000  1.0
  H  H8  1  0.60865000  0.86190000  0.86475000  1.0
  H  H9  1  0.00403000  0.16637000  0.16706000  1.0
  H  H10  1  0.99597000  0.83363000  0.83294000  1.0
  H  H11  1  0.10960000  0.93622000  0.03849000  1.0
  H  H12  1  0.89040000  0.06378000  0.96151000  1.0
  H  H13  1  0.12142000  0.03477000  0.95876000  1.0
  H  H14  1  0.87858000  0.96523000  0.04124000  1.0
  H  H15  1  0.49073000  0.46482000  0.08864000  1.0
  H  H16  1  0.50927000  0.53518000  0.91136000  1.0
  H  H17  1  0.11270000  0.49686000  0.09908000  1.0
  H  H18  1  0.88730000  0.50314000  0.90092000  1.0
  H  H19  1  0.33984000  0.26622000  0.91145000  1.0
  H  H20  1  0.66016000  0.73378000  0.08855000  1.0
  H  H21  1  0.94288000  0.29498000  0.92559000  1.0
  H  H22  1  0.05713000  0.70502000  0.07441000  1.0
  H  H23  1  0.09183000  0.09468000  0.77086000  1.0
  H  H24  1  0.90817000  0.90532000  0.22914000  1.0
  H  H25  1  0.94865000  0.07366000  0.81540000  1.0
  H  H26  1  0.05135000  0.92634000  0.18460000  1.0
  H  H27  1  0.73061000  0.87481000  0.32151000  1.0
  H  H28  1  0.26939000  0.12519000  0.67850000  1.0
  H  H29  1  0.47057000  0.81739000  0.49261000  1.0
  H  H30  1  0.52943000  0.18261000  0.50739000  1.0
  H  H31  1  0.93254000  0.07061000  0.48947000  1.0
  H  H32  1  0.06746000  0.92939000  0.51053000  1.0
  H  H33  1  0.66051000  0.01117000  0.66772000  1.0
  H  H34  1  0.33949000  0.98883000  0.33228000  1.0
  H  H35  1  0.00813000  0.23454000  0.67374000  1.0
  H  H36  1  0.99187000  0.76546000  0.32626000  1.0
  H  H37  1  0.87669000  0.22901000  0.72982000  1.0
  H  H38  1  0.12331000  0.77099000  0.27018000  1.0
  C  C39  1  0.25844000  0.60448000  0.37625000  1.0
  C  C40  1  0.74156000  0.39552000  0.62375000  1.0
  C  C41  1  0.11085000  0.58598000  0.37964000  1.0
  C  C42  1  0.88915000  0.41402000  0.62036000  1.0
  C  C43  1  0.97337000  0.50831000  0.28261000  1.0
  C  C44  1  0.02663000  0.49169000  0.71739000  1.0
  C  C45  1  0.10664000  0.65558000  0.47768000  1.0
  C  C46  1  0.89336000  0.34442000  0.52232000  1.0
  C  C47  1  0.83917000  0.50555000  0.28127000  1.0
  C  C48  1  0.16083000  0.49445000  0.71873000  1.0
  C  C49  1  0.97231000  0.65493000  0.47559000  1.0
  C  C50  1  0.02770000  0.34507000  0.52441000  1.0
  C  C51  1  0.83563000  0.58309000  0.37627000  1.0
  C  C52  1  0.16437000  0.41691000  0.62373000  1.0
  C  C53  1  0.69340000  0.59877000  0.36661000  1.0
  C  C54  1  0.30661000  0.40123000  0.63339000  1.0
  C  C55  1  0.40650000  0.84022000  0.12512000  1.0
  C  C56  1  0.59350000  0.15978000  0.87488000  1.0
  C  C57  1  0.45614000  0.92088000  0.05987000  1.0
  C  C58  1  0.54386000  0.07912000  0.94012000  1.0
  C  C59  1  0.35697000  0.90739000  0.95102000  1.0
  C  C60  1  0.64303000  0.09261000  0.04898000  1.0
  C  C61  1  0.60103000  0.01549000  0.10716000  1.0
  C  C62  1  0.39897000  0.98451000  0.89284000  1.0
  C  C63  1  0.42772000  0.28938000  0.28169000  1.0
  C  C64  1  0.57228000  0.71062000  0.71831000  1.0
  C  C65  1  0.22007000  0.30333000  0.29796000  1.0
  C  C66  1  0.77993000  0.69667000  0.70204000  1.0
  C  C67  1  0.33854000  0.18310000  0.17932000  1.0
  C  C68  1  0.66146000  0.81690000  0.82068000  1.0
  C  C69  1  0.12377000  0.19741000  0.19622000  1.0
  C  C70  1  0.87623000  0.80260000  0.80378000  1.0
  C  C71  1  0.18189000  0.13412000  0.13380000  1.0
  C  C72  1  0.81811000  0.86588000  0.86620000  1.0
  C  C73  1  0.08404000  0.01766000  0.02356000  1.0
  C  C74  1  0.91596000  0.98234000  0.97644000  1.0
  C  C75  1  0.36893000  0.42457000  0.04869000  1.0
  C  C76  1  0.63107000  0.57543000  0.95131000  1.0
  C  C77  1  0.15753000  0.44218000  0.05468000  1.0
  C  C78  1  0.84247000  0.55782000  0.94532000  1.0
  C  C79  1  0.28299000  0.31252000  0.95015000  1.0
  C  C80  1  0.71700000  0.68748000  0.04985000  1.0
  C  C81  1  0.06414000  0.33008000  0.95795000  1.0
  C  C82  1  0.93585000  0.66992000  0.04205000  1.0
  C  C83  1  0.12677000  0.26228000  0.90340000  1.0
  C  C84  1  0.87323000  0.73772000  0.09659000  1.0
  C  C85  1  0.02608000  0.14205000  0.79711000  1.0
  C  C86  1  0.97392000  0.85795000  0.20289000  1.0
  C  C87  1  0.72035000  0.90772000  0.40039000  1.0
  C  C88  1  0.27966000  0.09228000  0.59961000  1.0
  C  C89  1  0.57444000  0.87577000  0.49516000  1.0
  C  C90  1  0.42556000  0.12423000  0.50484000  1.0
  C  C91  1  0.83247000  0.01647000  0.49464000  1.0
  C  C92  1  0.16754000  0.98353000  0.50536000  1.0
  C  C93  1  0.68143000  0.98313000  0.59312000  1.0
  C  C94  1  0.31857000  0.01687000  0.40688000  1.0
  C  C95  1  0.81466000  0.05637000  0.59420000  1.0
  C  C96  1  0.18534000  0.94363000  0.40580000  1.0
  C  C97  1  0.93203000  0.17350000  0.69783000  1.0
  C  C98  1  0.06797000  0.82650000  0.30217000  1.0
  N  N99  1  0.36967000  0.34944000  0.34069000  1.0
  N  N100  1  0.63033000  0.65056000  0.65931000  1.0
  N  N101  1  0.30808000  0.48889000  0.10100000  1.0
  N  N102  1  0.69192000  0.51111000  0.89900000  1.0
  N  N103  1  0.59257000  0.83753000  0.39986000  1.0
  N  N104  1  0.40743000  0.16247000  0.60014000  1.0
  O  O105  1  0.35725000  0.59755000  0.45880000  1.0
  O  O106  1  0.64276000  0.40245000  0.54120000  1.0
  O  O107  1  0.26857000  0.63162000  0.29159000  1.0
  O  O108  1  0.73143000  0.36838000  0.70841000  1.0
  O  O109  1  0.65991000  0.59851000  0.44787000  1.0
  O  O110  1  0.34009000  0.40149000  0.55213000  1.0
  O  O111  1  0.62413000  0.61553000  0.27520000  1.0
  O  O112  1  0.37587000  0.38447000  0.72480000  1.0
  O  O113  1  0.47418000  0.76652000  0.14466000  1.0
  O  O114  1  0.52582000  0.23348000  0.85534000  1.0
  O  O115  1  0.30878000  0.85357000  0.15341000  1.0
  O  O116  1  0.69122000  0.14643000  0.84659000  1.0
  F  F117  1  0.96873000  0.43532000  0.18583000  1.0
  F  F118  1  0.03127000  0.56468000  0.81417000  1.0
  F  F119  1  0.23524000  0.73387000  0.57519000  1.0
  F  F120  1  0.76476000  0.26613000  0.42481000  1.0
  F  F121  1  0.71074000  0.42716000  0.18394000  1.0
  F  F122  1  0.28926000  0.57284000  0.81606000  1.0
  F  F123  1  0.97958000  0.73445000  0.57108000  1.0
  F  F124  1  0.02042000  0.26555000  0.42892000  1.0
  F  F125  1  0.21478000  0.81574000  0.89852000  1.0
  F  F126  1  0.78522000  0.18426000  0.10148000  1.0
  F  F127  1  0.70491000  0.03581000  0.21326000  1.0
  F  F128  1  0.29509000  0.96419000  0.78674000  1.0
