# generated using pymatgen
data_NiH11C12N3O5
_symmetry_space_group_name_H-M   'P 1'
_cell_length_a   8.69156000
_cell_length_b   11.60830000
_cell_length_c   13.85140000
_cell_angle_alpha   104.41900000
_cell_angle_beta   89.99980000
_cell_angle_gamma   90.00000000
_symmetry_Int_Tables_number   1
_chemical_formula_structural   NiH11C12N3O5
_chemical_formula_sum   'Ni4 H44 C48 N12 O20'
_cell_volume   1353.50523085
_cell_formula_units_Z   4
loop_
 _symmetry_equiv_pos_site_id
 _symmetry_equiv_pos_as_xyz
  1  'x, y, z'
loop_
 _atom_site_type_symbol
 _atom_site_label
 _atom_site_symmetry_multiplicity
 _atom_site_fract_x
 _atom_site_fract_y
 _atom_site_fract_z
 _atom_site_occupancy
  Ni  Ni0  1  0.63131000  0.81417000  0.03078000  1.0
  Ni  Ni1  1  0.13131000  0.68583000  0.46922000  1.0
  Ni  Ni2  1  0.36868000  0.18582000  0.96922000  1.0
  Ni  Ni3  1  0.86868000  0.31418000  0.53078000  1.0
  H  H4  1  0.60656000  0.93412000  0.89480000  1.0
  H  H5  1  0.10656000  0.56588000  0.60520000  1.0
  H  H6  1  0.39344000  0.06588000  0.10520000  1.0
  H  H7  1  0.89344000  0.43412000  0.39480000  1.0
  H  H8  1  0.55224000  0.79921000  0.85819000  1.0
  H  H9  1  0.05224000  0.70079000  0.64181000  1.0
  H  H10  1  0.44776000  0.20079000  0.14181000  1.0
  H  H11  1  0.94777000  0.29921000  0.35819000  1.0
  H  H12  1  0.27750000  0.87017000  0.57962000  1.0
  H  H13  1  0.77750000  0.62983000  0.92038000  1.0
  H  H14  1  0.72250000  0.12983000  0.42038000  1.0
  H  H15  1  0.22250000  0.37017000  0.07962000  1.0
  H  H16  1  0.54478000  0.39584000  0.28810000  1.0
  H  H17  1  0.04478000  0.10416000  0.21190000  1.0
  H  H18  1  0.45522000  0.60416000  0.71190000  1.0
  H  H19  1  0.95522000  0.89584000  0.78810000  1.0
  H  H20  1  0.47817000  0.77884000  0.33916000  1.0
  H  H21  1  0.97817000  0.72116000  0.16085000  1.0
  H  H22  1  0.52183000  0.22116000  0.66085000  1.0
  H  H23  1  0.02183000  0.27884000  0.83915000  1.0
  H  H24  1  0.29744000  0.07810000  0.24509000  1.0
  H  H25  1  0.79744000  0.42190000  0.25491000  1.0
  H  H26  1  0.70255000  0.92189000  0.75491000  1.0
  H  H27  1  0.20256000  0.57810000  0.74509000  1.0
  H  H28  1  0.14773000  0.01562000  0.52273000  1.0
  H  H29  1  0.64773000  0.48438000  0.97727000  1.0
  H  H30  1  0.85227000  0.98438000  0.47727000  1.0
  H  H31  1  0.35227000  0.51562000  0.02273000  1.0
  H  H32  1  0.45353000  0.74229000  0.59990000  1.0
  H  H33  1  0.95353000  0.75771000  0.90010000  1.0
  H  H34  1  0.54647000  0.25771000  0.40010000  1.0
  H  H35  1  0.04647000  0.24229000  0.09990000  1.0
  H  H36  1  0.55849000  0.80372000  0.51449000  1.0
  H  H37  1  0.05849000  0.69628000  0.98552000  1.0
  H  H38  1  0.44151000  0.19628000  0.48552000  1.0
  H  H39  1  0.94151000  0.30372000  0.01449000  1.0
  H  H40  1  0.69163000  0.57196000  0.40166000  1.0
  H  H41  1  0.19163000  0.92804000  0.09834000  1.0
  H  H42  1  0.30837000  0.42804000  0.59835000  1.0
  H  H43  1  0.80837000  0.07196000  0.90166000  1.0
  H  H44  1  0.25491000  0.41360000  0.32013000  1.0
  H  H45  1  0.75491000  0.08640000  0.17987000  1.0
  H  H46  1  0.74509000  0.58640000  0.67987000  1.0
  H  H47  1  0.24509000  0.91360000  0.82013000  1.0
  C  C48  1  0.31580000  0.89007000  0.44114000  1.0
  C  C49  1  0.81580000  0.60993000  0.05886000  1.0
  C  C50  1  0.68420000  0.10994000  0.55886000  1.0
  C  C51  1  0.18420000  0.39006000  0.94114000  1.0
  C  C52  1  0.40511000  0.85748000  0.35456000  1.0
  C  C53  1  0.90510000  0.64253000  0.14544000  1.0
  C  C54  1  0.59489000  0.14253000  0.64544000  1.0
  C  C55  1  0.09489000  0.35747000  0.85456000  1.0
  C  C56  1  0.39736000  0.92440000  0.28337000  1.0
  C  C57  1  0.89736000  0.57559000  0.21663000  1.0
  C  C58  1  0.60264000  0.07559000  0.71663000  1.0
  C  C59  1  0.10264000  0.42440000  0.78337000  1.0
  C  C60  1  0.30222000  0.02431000  0.29907000  1.0
  C  C61  1  0.80222000  0.47568000  0.20093000  1.0
  C  C62  1  0.69778000  0.97568000  0.70093000  1.0
  C  C63  1  0.19778000  0.52431000  0.79907000  1.0
  C  C64  1  0.21244000  0.05628000  0.38534000  1.0
  C  C65  1  0.71244000  0.44372000  0.11466000  1.0
  C  C66  1  0.78756000  0.94372000  0.61466000  1.0
  C  C67  1  0.28756000  0.55628000  0.88534000  1.0
  C  C68  1  0.21979000  0.98973000  0.45645000  1.0
  C  C69  1  0.71979000  0.51027000  0.04355000  1.0
  C  C70  1  0.78021000  0.01027000  0.54355000  1.0
  C  C71  1  0.28021000  0.48973000  0.95645000  1.0
  C  C72  1  0.45474000  0.75299000  0.52329000  1.0
  C  C73  1  0.95474000  0.74702000  0.97672000  1.0
  C  C74  1  0.54526000  0.24701000  0.47671000  1.0
  C  C75  1  0.04526000  0.25299000  0.02329000  1.0
  C  C76  1  0.45265000  0.63455000  0.44998000  1.0
  C  C77  1  0.95265000  0.86545000  0.05003000  1.0
  C  C78  1  0.54735000  0.36545000  0.55002000  1.0
  C  C79  1  0.04735000  0.13455000  0.94998000  1.0
  C  C80  1  0.56758000  0.56204000  0.40035000  1.0
  C  C81  1  0.06758000  0.93796000  0.09965000  1.0
  C  C82  1  0.43242000  0.43796000  0.59965000  1.0
  C  C83  1  0.93242000  0.06204000  0.90035000  1.0
  C  C84  1  0.34033000  0.47846000  0.35596000  1.0
  C  C85  1  0.84033000  0.02155000  0.14404000  1.0
  C  C86  1  0.65967000  0.52154000  0.64404000  1.0
  C  C87  1  0.15967000  0.97846000  0.85596000  1.0
  C  C88  1  0.48607000  0.88408000  0.18888000  1.0
  C  C89  1  0.98606000  0.61592000  0.31112000  1.0
  C  C90  1  0.51394000  0.11591000  0.81112000  1.0
  C  C91  1  0.01393000  0.38408000  0.68888000  1.0
  C  C92  1  0.10334000  0.15911000  0.39956000  1.0
  C  C93  1  0.60334000  0.34089000  0.10044000  1.0
  C  C94  1  0.89666000  0.84089000  0.60044000  1.0
  C  C95  1  0.39666000  0.65911000  0.89956000  1.0
  N  N96  1  0.31311000  0.81981000  0.51210000  1.0
  N  N97  1  0.81311000  0.68020000  0.98790000  1.0
  N  N98  1  0.68689000  0.18019000  0.48790000  1.0
  N  N99  1  0.18689000  0.31981000  0.01210000  1.0
  N  N100  1  0.31202000  0.58144000  0.42139000  1.0
  N  N101  1  0.81203000  0.91856000  0.07861000  1.0
  N  N102  1  0.68797000  0.41856000  0.57861000  1.0
  N  N103  1  0.18798000  0.08144000  0.92139000  1.0
  N  N104  1  0.49421000  0.46385000  0.34202000  1.0
  N  N105  1  0.99421000  0.03616000  0.15798000  1.0
  N  N106  1  0.50579000  0.53615000  0.65798000  1.0
  N  N107  1  0.00579000  0.96385000  0.84202000  1.0
  O  O108  1  0.58250000  0.79993000  0.17832000  1.0
  O  O109  1  0.08250000  0.70007000  0.32168000  1.0
  O  O110  1  0.41749000  0.20007000  0.82168000  1.0
  O  O111  1  0.91750000  0.29993000  0.67832000  1.0
  O  O112  1  0.46335000  0.93353000  0.11593000  1.0
  O  O113  1  0.96335000  0.56647000  0.38407000  1.0
  O  O114  1  0.53665000  0.06647000  0.88407000  1.0
  O  O115  1  0.03664000  0.43353000  0.61594000  1.0
  O  O116  1  0.03507000  0.19012000  0.48319000  1.0
  O  O117  1  0.53507000  0.30988000  0.01681000  1.0
  O  O118  1  0.96493000  0.80988000  0.51681000  1.0
  O  O119  1  0.46493000  0.69012000  0.98319000  1.0
  O  O120  1  0.08334000  0.20677000  0.32615000  1.0
  O  O121  1  0.58333000  0.29323000  0.17385000  1.0
  O  O122  1  0.91666000  0.79323000  0.67385000  1.0
  O  O123  1  0.41667000  0.70677000  0.82615000  1.0
  O  O124  1  0.64067000  0.85120000  0.89186000  1.0
  O  O125  1  0.14067000  0.64880000  0.60814000  1.0
  O  O126  1  0.35933000  0.14880000  0.10814000  1.0
  O  O127  1  0.85933000  0.35121000  0.39186000  1.0
