# generated using pymatgen
data_Co2H14C24Br4N4O9
_symmetry_space_group_name_H-M   'P 1'
_cell_length_a   11.30590000
_cell_length_b   11.30580000
_cell_length_c   14.42400000
_cell_angle_alpha   109.68700000
_cell_angle_beta   109.68800000
_cell_angle_gamma   96.77830000
_symmetry_Int_Tables_number   1
_chemical_formula_structural   Co2H14C24Br4N4O9
_chemical_formula_sum   'Co4 H28 C48 Br8 N8 O18'
_cell_volume   1577.73238605
_cell_formula_units_Z   2
loop_
 _symmetry_equiv_pos_site_id
 _symmetry_equiv_pos_as_xyz
  1  'x, y, z'
loop_
 _atom_site_type_symbol
 _atom_site_label
 _atom_site_symmetry_multiplicity
 _atom_site_fract_x
 _atom_site_fract_y
 _atom_site_fract_z
 _atom_site_occupancy
  Co  Co0  1  0.46874000  0.71476000  0.70660000  1.0
  Co  Co1  1  0.28524000  0.53126000  0.79340000  1.0
  Co  Co2  1  0.53126000  0.28524000  0.29340000  1.0
  Co  Co3  1  0.71476000  0.46874000  0.20660000  1.0
  H  H4  1  0.61727000  0.50455000  0.00409000  1.0
  H  H5  1  0.49545000  0.38273000  0.49590000  1.0
  H  H6  1  0.38273000  0.49545000  0.99590000  1.0
  H  H7  1  0.50455000  0.61727000  0.50409000  1.0
  H  H8  1  0.95064000  0.57284000  0.41388000  1.0
  H  H9  1  0.42717000  0.04937000  0.08612000  1.0
  H  H10  1  0.04937000  0.42717000  0.58612000  1.0
  H  H11  1  0.57283000  0.95063000  0.91388000  1.0
  H  H12  1  0.70049000  0.91629000  0.07516000  1.0
  H  H13  1  0.08370000  0.29952000  0.42483000  1.0
  H  H14  1  0.29952000  0.08370000  0.92483000  1.0
  H  H15  1  0.91630000  0.70049000  0.57517000  1.0
  H  H16  1  0.29473000  0.60273000  0.34771000  1.0
  H  H17  1  0.39727000  0.70527000  0.15229000  1.0
  H  H18  1  0.70527000  0.39727000  0.65229000  1.0
  H  H19  1  0.60273000  0.29473000  0.84771000  1.0
  H  H20  1  0.81726000  0.76469000  0.32203000  1.0
  H  H21  1  0.23530000  0.18273000  0.17797000  1.0
  H  H22  1  0.18274000  0.23530000  0.67797000  1.0
  H  H23  1  0.76468000  0.81726000  0.82203000  1.0
  H  H24  1  0.90485000  0.43719000  0.09527000  1.0
  H  H25  1  0.56281000  0.09515000  0.40473000  1.0
  H  H26  1  0.09515000  0.56281000  0.90473000  1.0
  H  H27  1  0.43720000  0.90485000  0.59527000  1.0
  H  H28  1  0.31136000  0.76696000  0.81735000  1.0
  H  H29  1  0.23305000  0.68866000  0.68266000  1.0
  H  H30  1  0.68865000  0.23305000  0.18266000  1.0
  H  H31  1  0.76695000  0.31135000  0.31735000  1.0
  C  C32  1  0.66066000  0.60586000  0.06036000  1.0
  C  C33  1  0.39414000  0.33935000  0.43963000  1.0
  C  C34  1  0.33934000  0.39413000  0.93963000  1.0
  C  C35  1  0.60586000  0.66066000  0.56036000  1.0
  C  C36  1  0.99682000  0.55857000  0.35747000  1.0
  C  C37  1  0.44143000  0.00318000  0.14253000  1.0
  C  C38  1  0.00318000  0.44143000  0.64253000  1.0
  C  C39  1  0.55857000  0.99682000  0.85747000  1.0
  C  C40  1  0.65077000  0.70621000  0.02447000  1.0
  C  C41  1  0.29379000  0.34923000  0.47553000  1.0
  C  C42  1  0.34923000  0.29379000  0.97553000  1.0
  C  C43  1  0.70621000  0.65077000  0.52447000  1.0
  C  C44  1  0.13207000  0.59721000  0.39510000  1.0
  C  C45  1  0.40279000  0.86793000  0.10490000  1.0
  C  C46  1  0.86793000  0.40279000  0.60490000  1.0
  C  C47  1  0.59721000  0.13207000  0.89510000  1.0
  C  C48  1  0.70689000  0.83529000  0.09996000  1.0
  C  C49  1  0.16471000  0.29311000  0.40004000  1.0
  C  C50  1  0.29311000  0.16471000  0.90004000  1.0
  C  C51  1  0.83528000  0.70689000  0.59996000  1.0
  C  C52  1  0.18929000  0.57531000  0.32079000  1.0
  C  C53  1  0.42469000  0.81071000  0.17921000  1.0
  C  C54  1  0.81071000  0.42469000  0.67921000  1.0
  C  C55  1  0.57531000  0.18929000  0.82079000  1.0
  C  C56  1  0.76577000  0.85615000  0.20830000  1.0
  C  C57  1  0.14385000  0.23424000  0.29169000  1.0
  C  C58  1  0.23424000  0.14384000  0.79170000  1.0
  C  C59  1  0.85615000  0.76577000  0.70830000  1.0
  C  C60  1  0.10623000  0.51678000  0.21202000  1.0
  C  C61  1  0.48322000  0.89377000  0.28798000  1.0
  C  C62  1  0.89377000  0.48322000  0.78798000  1.0
  C  C63  1  0.51678000  0.10623000  0.71202000  1.0
  C  C64  1  0.77313000  0.75119000  0.23815000  1.0
  C  C65  1  0.24880000  0.22687000  0.26185000  1.0
  C  C66  1  0.22687000  0.24880000  0.76185000  1.0
  C  C67  1  0.75119000  0.77314000  0.73815000  1.0
  C  C68  1  0.97161000  0.48283000  0.17977000  1.0
  C  C69  1  0.51717000  0.02839000  0.32023000  1.0
  C  C70  1  0.02839000  0.51717000  0.82023000  1.0
  C  C71  1  0.48283000  0.97161000  0.67977000  1.0
  C  C72  1  0.56954000  0.66960000  0.90714000  1.0
  C  C73  1  0.33040000  0.43046000  0.59286000  1.0
  C  C74  1  0.43046000  0.33039000  0.09286000  1.0
  C  C75  1  0.66960000  0.56954000  0.40714000  1.0
  C  C76  1  0.20968000  0.65740000  0.51487000  1.0
  C  C77  1  0.34261000  0.79033000  0.98513000  1.0
  C  C78  1  0.79032000  0.34261000  0.48513000  1.0
  C  C79  1  0.65739000  0.20968000  0.01487000  1.0
  Br  Br80  1  0.82999000  0.02638000  0.31907000  1.0
  Br  Br81  1  0.97361000  0.17001000  0.18093000  1.0
  Br  Br82  1  0.17001000  0.97361000  0.68093000  1.0
  Br  Br83  1  0.02637000  0.83000000  0.81908000  1.0
  Br  Br84  1  0.17418000  0.47823000  0.10445000  1.0
  Br  Br85  1  0.52177000  0.82581000  0.39554000  1.0
  Br  Br86  1  0.82582000  0.52177000  0.89554000  1.0
  Br  Br87  1  0.47823000  0.17417000  0.60445000  1.0
  N  N88  1  0.72210000  0.62775000  0.16438000  1.0
  N  N89  1  0.37224000  0.27790000  0.33561000  1.0
  N  N90  1  0.27789000  0.37224000  0.83561000  1.0
  N  N91  1  0.62775000  0.72210000  0.66438000  1.0
  N  N92  1  0.91796000  0.50385000  0.25234000  1.0
  N  N93  1  0.49615000  0.08204000  0.24766000  1.0
  N  N94  1  0.08204000  0.49615000  0.74766000  1.0
  N  N95  1  0.50385000  0.91796000  0.75234000  1.0
  O  O96  1  0.59095000  0.74773000  0.86490000  1.0
  O  O97  1  0.25225000  0.40906000  0.63510000  1.0
  O  O98  1  0.40905000  0.25226000  0.13510000  1.0
  O  O99  1  0.74774000  0.59095000  0.36490000  1.0
  O  O100  1  0.33349000  0.68740000  0.54914000  1.0
  O  O101  1  0.31261000  0.66651000  0.95086000  1.0
  O  O102  1  0.66651000  0.31260000  0.45086000  1.0
  O  O103  1  0.68740000  0.33349000  0.04914000  1.0
  O  O104  1  0.14437000  0.67161000  0.57270000  1.0
  O  O105  1  0.32840000  0.85564000  0.92731000  1.0
  O  O106  1  0.85564000  0.32840000  0.42731000  1.0
  O  O107  1  0.67161000  0.14436000  0.07270000  1.0
  O  O108  1  0.48275000  0.56226000  0.86029000  1.0
  O  O109  1  0.43774000  0.51724000  0.63971000  1.0
  O  O110  1  0.51724000  0.43773000  0.13971000  1.0
  O  O111  1  0.56226000  0.48276000  0.36029000  1.0
  O  O112  1  0.30770000  0.69231000  0.75000000  1.0
  O  O113  1  0.69231000  0.30769000  0.25000000  1.0
