# generated using pymatgen
data_CdH19C20SN5O7
_symmetry_space_group_name_H-M   'P 1'
_cell_length_a   10.23730000
_cell_length_b   10.28060000
_cell_length_c   11.73580000
_cell_angle_alpha   110.87700000
_cell_angle_beta   102.29600000
_cell_angle_gamma   101.95400000
_symmetry_Int_Tables_number   1
_chemical_formula_structural   CdH19C20SN5O7
_chemical_formula_sum   'Cd2 H38 C40 S2 N10 O14'
_cell_volume   1072.02343815
_cell_formula_units_Z   2
loop_
 _symmetry_equiv_pos_site_id
 _symmetry_equiv_pos_as_xyz
  1  'x, y, z'
loop_
 _atom_site_type_symbol
 _atom_site_label
 _atom_site_symmetry_multiplicity
 _atom_site_fract_x
 _atom_site_fract_y
 _atom_site_fract_z
 _atom_site_occupancy
  Cd  Cd0  1  0.62208000  0.96432000  0.62133000  1.0
  Cd  Cd1  1  0.37792000  0.03568000  0.37866000  1.0
  H  H2  1  0.56312000  0.42488000  0.94291000  1.0
  H  H3  1  0.43688000  0.57512000  0.05709000  1.0
  H  H4  1  0.59938000  0.70222000  0.97861000  1.0
  H  H5  1  0.40062000  0.29777000  0.02139000  1.0
  H  H6  1  0.16273000  0.92400000  0.73352000  1.0
  H  H7  1  0.83727000  0.07600000  0.26648000  1.0
  H  H8  1  0.70995000  0.73453000  0.25028000  1.0
  H  H9  1  0.29005000  0.26547000  0.74972000  1.0
  H  H10  1  0.31437000  0.82851000  0.65526000  1.0
  H  H11  1  0.68563000  0.17149000  0.34474000  1.0
  H  H12  1  0.28311000  0.73594000  0.48833000  1.0
  H  H13  1  0.71689000  0.26406000  0.51167000  1.0
  H  H14  1  0.30797000  0.56683000  0.59356000  1.0
  H  H15  1  0.69203000  0.43317000  0.40644000  1.0
  H  H16  1  0.13421000  0.50637000  0.48676000  1.0
  H  H17  1  0.86579000  0.49363000  0.51324000  1.0
  H  H18  1  0.16738000  0.59752000  0.65560000  1.0
  H  H19  1  0.83262000  0.40248000  0.34440000  1.0
  H  H20  1  0.17389000  0.49453000  0.21349000  1.0
  H  H21  1  0.82610000  0.50547000  0.78651000  1.0
  H  H22  1  0.12004000  0.38231000  0.04513000  1.0
  H  H23  1  0.87996000  0.61769000  0.95487000  1.0
  H  H24  1  0.13865000  0.22433000  0.16052000  1.0
  H  H25  1  0.86135000  0.77567000  0.83948000  1.0
  H  H26  1  0.02838000  0.29717000  0.24865000  1.0
  H  H27  1  0.97162000  0.70283000  0.75135000  1.0
  H  H28  1  0.76734000  0.23662000  0.11331000  1.0
  H  H29  1  0.23265000  0.76338000  0.88669000  1.0
  H  H30  1  0.71929000  0.12258000  0.94516000  1.0
  H  H31  1  0.28071000  0.87742000  0.05483000  1.0
  H  H32  1  0.87667000  0.31777000  0.91555000  1.0
  H  H33  1  0.12333000  0.68223000  0.08445000  1.0
  H  H34  1  0.75845000  0.39122000  0.99095000  1.0
  H  H35  1  0.24155000  0.60878000  0.00905000  1.0
  H  H36  1  0.90328000  0.06760000  0.07470000  1.0
  H  H37  1  0.09672000  0.93240000  0.92530000  1.0
  H  H38  1  0.95755000  0.12059000  0.96785000  1.0
  H  H39  1  0.04246000  0.87941000  0.03215000  1.0
  C  C40  1  0.55017000  0.21974000  0.69728000  1.0
  C  C41  1  0.44983000  0.78026000  0.30272000  1.0
  C  C42  1  0.54851000  0.37284000  0.74335000  1.0
  C  C43  1  0.45149000  0.62716000  0.25665000  1.0
  C  C44  1  0.56256000  0.46422000  0.86840000  1.0
  C  C45  1  0.43744000  0.53578000  0.13160000  1.0
  C  C46  1  0.58140000  0.61105000  0.88760000  1.0
  C  C47  1  0.41860000  0.38895000  0.11240000  1.0
  C  C48  1  0.57888000  0.63016000  0.77611000  1.0
  C  C49  1  0.42112000  0.36984000  0.22389000  1.0
  C  C50  1  0.60542000  0.77124000  0.76249000  1.0
  C  C51  1  0.39458000  0.22876000  0.23751000  1.0
  C  C52  1  0.94986000  0.02669000  0.75229000  1.0
  C  C53  1  0.05014000  0.97331000  0.24771000  1.0
  C  C54  1  0.96311000  0.92288000  0.63073000  1.0
  C  C55  1  0.03689000  0.07712000  0.36927000  1.0
  C  C56  1  0.86022000  0.86791000  0.50478000  1.0
  C  C57  1  0.13979000  0.13210000  0.49522000  1.0
  C  C58  1  0.89368000  0.76703000  0.40085000  1.0
  C  C59  1  0.10632000  0.23297000  0.59915000  1.0
  C  C60  1  0.01599000  0.72396000  0.41949000  1.0
  C  C61  1  0.98401000  0.27604000  0.58052000  1.0
  C  C62  1  0.08223000  0.87896000  0.64032000  1.0
  C  C63  1  0.91777000  0.12105000  0.35968000  1.0
  C  C64  1  0.80359000  0.70176000  0.27274000  1.0
  C  C65  1  0.19642000  0.29824000  0.72726000  1.0
  C  C66  1  0.94530000  0.56464000  0.20884000  1.0
  C  C67  1  0.05469000  0.43536000  0.79116000  1.0
  C  C68  1  0.23901000  0.74001000  0.56622000  1.0
  C  C69  1  0.76100000  0.25999000  0.43378000  1.0
  C  C70  1  0.20962000  0.59393000  0.57633000  1.0
  C  C71  1  0.79038000  0.40607000  0.42367000  1.0
  C  C72  1  0.08774000  0.40758000  0.13219000  1.0
  C  C73  1  0.91226000  0.59242000  0.86781000  1.0
  C  C74  1  0.05209000  0.27161000  0.15764000  1.0
  C  C75  1  0.94791000  0.72839000  0.84236000  1.0
  C  C76  1  0.80264000  0.21129000  0.02788000  1.0
  C  C77  1  0.19736000  0.78871000  0.97212000  1.0
  C  C78  1  0.84589000  0.34703000  0.00318000  1.0
  C  C79  1  0.15411000  0.65297000  0.99682000  1.0
  S  S80  1  0.55281000  0.46787000  0.64832000  1.0
  S  S81  1  0.44719000  0.53213000  0.35168000  1.0
  N  N82  1  0.82596000  0.60199000  0.17774000  1.0
  N  N83  1  0.17404000  0.39801000  0.82226000  1.0
  N  N84  1  0.04294000  0.62471000  0.32544000  1.0
  N  N85  1  0.95706000  0.37529000  0.67456000  1.0
  N  N86  1  0.11099000  0.78414000  0.54212000  1.0
  N  N87  1  0.88901000  0.21586000  0.45788000  1.0
  N  N88  1  0.96535000  0.45763000  0.11157000  1.0
  N  N89  1  0.03464000  0.54237000  0.88843000  1.0
  N  N90  1  0.92612000  0.15742000  0.05193000  1.0
  N  N91  1  0.07388000  0.84258000  0.94807000  1.0
  O  O92  1  0.54600000  0.15396000  0.76986000  1.0
  O  O93  1  0.45400000  0.84605000  0.23014000  1.0
  O  O94  1  0.56681000  0.16035000  0.58551000  1.0
  O  O95  1  0.43319000  0.83965000  0.41449000  1.0
  O  O96  1  0.66889000  0.88785000  0.86108000  1.0
  O  O97  1  0.33111000  0.11215000  0.13891000  1.0
  O  O98  1  0.56290000  0.75904000  0.64592000  1.0
  O  O99  1  0.43710000  0.24096000  0.35408000  1.0
  O  O100  1  0.74730000  0.89976000  0.47987000  1.0
  O  O101  1  0.25271000  0.10025000  0.52013000  1.0
  O  O102  1  0.85311000  0.08659000  0.74747000  1.0
  O  O103  1  0.14689000  0.91340000  0.25253000  1.0
  O  O104  1  0.03896000  0.05263000  0.85892000  1.0
  O  O105  1  0.96105000  0.94737000  0.14108000  1.0
