# generated using pymatgen
data_Sm2Cd3H48C28N6(ClO13)2
_symmetry_space_group_name_H-M   'P 1'
_cell_length_a   8.57177000
_cell_length_b   9.06367000
_cell_length_c   15.42200000
_cell_angle_alpha   98.44140000
_cell_angle_beta   101.61900000
_cell_angle_gamma   103.24700000
_symmetry_Int_Tables_number   1
_chemical_formula_structural   Sm2Cd3H48C28N6(ClO13)2
_chemical_formula_sum   'Sm2 Cd3 H48 C28 N6 Cl2 O26'
_cell_volume   1118.74398277
_cell_formula_units_Z   1
loop_
 _symmetry_equiv_pos_site_id
 _symmetry_equiv_pos_as_xyz
  1  'x, y, z'
loop_
 _atom_site_type_symbol
 _atom_site_label
 _atom_site_symmetry_multiplicity
 _atom_site_fract_x
 _atom_site_fract_y
 _atom_site_fract_z
 _atom_site_occupancy
  Sm  Sm0  1  0.81652000  0.68733000  0.27486000  1.0
  Sm  Sm1  1  0.18348000  0.31267000  0.72514000  1.0
  Cd  Cd2  1  0.00000000  0.00000000  0.00000000  1.0
  Cd  Cd3  1  0.91551000  0.75014000  0.59749000  1.0
  Cd  Cd4  1  0.08449000  0.24986000  0.40251000  1.0
  H  H5  1  0.07356000  0.94669000  0.16845000  1.0
  H  H6  1  0.92644000  0.05331000  0.83155000  1.0
  H  H7  1  0.06441000  0.12268000  0.18861000  1.0
  H  H8  1  0.93559000  0.87732000  0.81139000  1.0
  H  H9  1  0.65599000  0.95242000  0.04286000  1.0
  H  H10  1  0.34401000  0.04758000  0.95714000  1.0
  H  H11  1  0.66471000  0.03899000  0.96175000  1.0
  H  H12  1  0.33529000  0.96101000  0.03825000  1.0
  H  H13  1  0.12314000  0.78028000  0.43333000  1.0
  H  H14  1  0.87685000  0.21971000  0.56667000  1.0
  H  H15  1  0.16240000  0.89432000  0.36918000  1.0
  H  H16  1  0.83760000  0.10567000  0.63082000  1.0
  H  H17  1  0.64891000  0.87184000  0.45499000  1.0
  H  H18  1  0.35109000  0.12816000  0.54501000  1.0
  H  H19  1  0.53660000  0.99015000  0.40398000  1.0
  H  H20  1  0.46340000  0.00985000  0.59603000  1.0
  H  H21  1  0.97540000  0.41258000  0.11543000  1.0
  H  H22  1  0.02460000  0.58742000  0.88457000  1.0
  H  H23  1  0.81412000  0.24700000  0.10304000  1.0
  H  H24  1  0.18588000  0.75300000  0.89696000  1.0
  H  H25  1  0.65951000  0.57255000  0.02819000  1.0
  H  H26  1  0.34049000  0.42745000  0.97181000  1.0
  H  H27  1  0.78627000  0.45484000  0.99526000  1.0
  H  H28  1  0.21373000  0.54516000  0.00474000  1.0
  H  H29  1  0.68217000  0.31801000  0.36208000  1.0
  H  H30  1  0.31783000  0.68199000  0.63792000  1.0
  H  H31  1  0.50300000  0.35324000  0.38900000  1.0
  H  H32  1  0.49700000  0.64677000  0.61100000  1.0
  H  H33  1  0.42120000  0.24289000  0.18910000  1.0
  H  H34  1  0.57880000  0.75711000  0.81090000  1.0
  H  H35  1  0.63154000  0.25057000  0.22599000  1.0
  H  H36  1  0.36846000  0.74943000  0.77401000  1.0
  H  H37  1  0.31221000  0.67218000  0.33393000  1.0
  H  H38  1  0.68779000  0.32782000  0.66607000  1.0
  H  H39  1  0.48456000  0.64544000  0.40606000  1.0
  H  H40  1  0.51544000  0.35456000  0.59394000  1.0
  H  H41  1  0.54383000  0.26999000  0.06283000  1.0
  H  H42  1  0.45617000  0.73000000  0.93717000  1.0
  H  H43  1  0.50014000  0.44817000  0.09915000  1.0
  H  H44  1  0.49986000  0.55183000  0.90085000  1.0
  H  H45  1  0.31842000  0.41260000  0.28164000  1.0
  H  H46  1  0.68158000  0.58741000  0.71836000  1.0
  H  H47  1  0.37975000  0.51960000  0.20115000  1.0
  H  H48  1  0.62025000  0.48040000  0.79885000  1.0
  H  H49  1  0.46070000  0.96255000  0.25665000  1.0
  H  H50  1  0.53931000  0.03745000  0.74336000  1.0
  H  H51  1  0.33080000  0.77631000  0.21411000  1.0
  H  H52  1  0.66920000  0.22369000  0.78589000  1.0
  C  C53  1  0.62029000  0.91712000  0.39296000  1.0
  C  C54  1  0.37971000  0.08288000  0.60704000  1.0
  C  C55  1  0.86859000  0.36648000  0.14221000  1.0
  C  C56  1  0.13141000  0.63352000  0.85779000  1.0
  C  C57  1  0.72539000  0.53454000  0.44422000  1.0
  C  C58  1  0.27461000  0.46546000  0.55578000  1.0
  C  C59  1  0.77056000  0.53499000  0.05203000  1.0
  C  C60  1  0.22943000  0.46501000  0.94797000  1.0
  C  C61  1  0.61424000  0.40662000  0.36793000  1.0
  C  C62  1  0.38576000  0.59338000  0.63207000  1.0
  C  C63  1  0.54744000  0.32017000  0.20405000  1.0
  C  C64  1  0.45256000  0.67983000  0.79595000  1.0
  C  C65  1  0.43603000  0.65435000  0.33619000  1.0
  C  C66  1  0.56397000  0.34565000  0.66381000  1.0
  C  C67  1  0.91163000  0.68326000  0.07667000  1.0
  C  C68  1  0.08838000  0.31674000  0.92333000  1.0
  C  C69  1  0.57860000  0.37224000  0.11837000  1.0
  C  C70  1  0.42140000  0.62776000  0.88163000  1.0
  C  C71  1  0.53752000  0.82686000  0.15605000  1.0
  C  C72  1  0.46248000  0.17315000  0.84395000  1.0
  C  C73  1  0.41782000  0.50476000  0.27114000  1.0
  C  C74  1  0.58218000  0.49524000  0.72886000  1.0
  C  C75  1  0.46236000  0.84143000  0.23706000  1.0
  C  C76  1  0.53763000  0.15857000  0.76294000  1.0
  C  C77  1  0.93751000  0.36469000  0.23989000  1.0
  C  C78  1  0.06248000  0.63531000  0.76011000  1.0
  C  C79  1  0.78236000  0.01776000  0.38523000  1.0
  C  C80  1  0.21764000  0.98224000  0.61477000  1.0
  N  N81  1  0.75183000  0.46270000  0.12973000  1.0
  N  N82  1  0.24817000  0.53730000  0.87027000  1.0
  N  N83  1  0.57242000  0.45311000  0.27984000  1.0
  N  N84  1  0.42758000  0.54689000  0.72016000  1.0
  N  N85  1  0.54724000  0.78784000  0.31491000  1.0
  N  N86  1  0.45276000  0.21216000  0.68509000  1.0
  Cl  Cl87  1  0.70287000  0.88898000  0.62114000  1.0
  Cl  Cl88  1  0.29713000  0.11102000  0.37886000  1.0
  O  O89  1  0.80252000  0.66189000  0.42676000  1.0
  O  O90  1  0.19748000  0.33812000  0.57324000  1.0
  O  O91  1  0.92587000  0.46602000  0.30208000  1.0
  O  O92  1  0.07413000  0.53398000  0.69792000  1.0
  O  O93  1  0.97633000  0.74416000  0.16079000  1.0
  O  O94  1  0.02367000  0.25584000  0.83921000  1.0
  O  O95  1  0.85959000  0.96456000  0.33124000  1.0
  O  O96  1  0.14041000  0.03544000  0.66876000  1.0
  O  O97  1  0.10827000  0.04917000  0.15222000  1.0
  O  O98  1  0.89173000  0.95083000  0.84778000  1.0
  O  O99  1  0.73488000  0.00682000  0.01089000  1.0
  O  O100  1  0.26512000  0.99317000  0.98911000  1.0
  O  O101  1  0.83848000  0.15377000  0.43536000  1.0
  O  O102  1  0.16152000  0.84622000  0.56464000  1.0
  O  O103  1  0.94961000  0.73817000  0.01090000  1.0
  O  O104  1  0.05039000  0.26183000  0.98910000  1.0
  O  O105  1  0.00913000  0.25841000  0.25496000  1.0
  O  O106  1  0.99087000  0.74159000  0.74504000  1.0
  O  O107  1  0.10188000  0.78619000  0.36895000  1.0
  O  O108  1  0.89812000  0.21381000  0.63105000  1.0
  O  O109  1  0.74216000  0.51109000  0.52402000  1.0
  O  O110  1  0.25784000  0.48891000  0.47598000  1.0
  O  O111  1  0.63613000  0.74124000  0.15363000  1.0
  O  O112  1  0.36387000  0.25876000  0.84637000  1.0
  O  O113  1  0.49790000  0.89876000  0.09436000  1.0
  O  O114  1  0.50210000  0.10125000  0.90564000  1.0
