# generated using pymatgen
data_ZnH7C24Br2N(OF)4
_symmetry_space_group_name_H-M   'P 1'
_cell_length_a   21.53720000
_cell_length_b   21.67220000
_cell_length_c   22.12480000
_cell_angle_alpha   60.72950000
_cell_angle_beta   63.50570000
_cell_angle_gamma   89.99810000
_symmetry_Int_Tables_number   1
_chemical_formula_structural   ZnH7C24Br2N(OF)4
_chemical_formula_sum   'Zn4 H28 C96 Br8 N4 O16 F16'
_cell_volume   7741.38595244
_cell_formula_units_Z   4
loop_
 _symmetry_equiv_pos_site_id
 _symmetry_equiv_pos_as_xyz
  1  'x, y, z'
loop_
 _atom_site_type_symbol
 _atom_site_label
 _atom_site_symmetry_multiplicity
 _atom_site_fract_x
 _atom_site_fract_y
 _atom_site_fract_z
 _atom_site_occupancy
  Zn  Zn0  1  0.53835000  0.04188000  0.91613000  1.0
  Zn  Zn1  1  0.46172000  0.95818000  0.08376000  1.0
  Zn  Zn2  1  0.96167000  0.45805000  0.08387000  1.0
  Zn  Zn3  1  0.03829000  0.54180000  0.91622000  1.0
  H  H4  1  0.82301000  0.25146000  0.49681000  1.0
  H  H5  1  0.67694000  0.24854000  0.50320000  1.0
  H  H6  1  0.17704000  0.74846000  0.50299000  1.0
  H  H7  1  0.32296000  0.75154000  0.49700000  1.0
  H  H8  1  0.58000000  0.07401000  0.12981000  1.0
  H  H9  1  0.61569000  0.10666000  0.20484000  1.0
  H  H10  1  0.69711000  0.20252000  0.87150000  1.0
  H  H11  1  0.91994000  0.42619000  0.87004000  1.0
  H  H12  1  0.88425000  0.39353000  0.79501000  1.0
  H  H13  1  0.80283000  0.29765000  0.12836000  1.0
  H  H14  1  0.30153000  0.79568000  0.12995000  1.0
  H  H15  1  0.19742000  0.68776000  0.20491000  1.0
  H  H16  1  0.42021000  0.92613000  0.87164000  1.0
  H  H17  1  0.19896000  0.70377000  0.87004000  1.0
  H  H18  1  0.30331000  0.81157000  0.79502000  1.0
  H  H19  1  0.08031000  0.57337000  0.12835000  1.0
  H  H20  1  0.30105000  0.07422000  0.13008000  1.0
  H  H21  1  0.19643000  0.10691000  0.20495000  1.0
  H  H22  1  0.42056000  0.20226000  0.87176000  1.0
  H  H23  1  0.19867000  0.42552000  0.86983000  1.0
  H  H24  1  0.30323000  0.39279000  0.79495000  1.0
  H  H25  1  0.07917000  0.29752000  0.12813000  1.0
  H  H26  1  0.57934000  0.79577000  0.12987000  1.0
  H  H27  1  0.61461000  0.68778000  0.20499000  1.0
  H  H28  1  0.69678000  0.92522000  0.87155000  1.0
  H  H29  1  0.91914000  0.70260000  0.87034000  1.0
  H  H30  1  0.88324000  0.80988000  0.79525000  1.0
  H  H31  1  0.80164000  0.57297000  0.12867000  1.0
  C  C32  1  0.41431000  0.91408000  0.00087000  1.0
  C  C33  1  0.41437000  0.08512000  0.00102000  1.0
  C  C34  1  0.58497000  0.08511000  0.00074000  1.0
  C  C35  1  0.58470000  0.91382000  0.00078000  1.0
  C  C36  1  0.08549000  0.41474000  0.99887000  1.0
  C  C37  1  0.08590000  0.58564000  0.99915000  1.0
  C  C38  1  0.91475000  0.58549000  0.99936000  1.0
  C  C39  1  0.91499000  0.41498000  0.99916000  1.0
  C  C40  1  0.82958000  0.37196000  0.25624000  1.0
  C  C41  1  0.78849000  0.33007000  0.34010000  1.0
  C  C42  1  0.82203000  0.30678000  0.38644000  1.0
  C  C43  1  0.89823000  0.32938000  0.34088000  1.0
  C  C44  1  0.93524000  0.37132000  0.25696000  1.0
  C  C45  1  0.78620000  0.26302000  0.47390000  1.0
  C  C46  1  0.71375000  0.23698000  0.52611000  1.0
  C  C47  1  0.60173000  0.17059000  0.65913000  1.0
  C  C48  1  0.67792000  0.19321000  0.61357000  1.0
  C  C49  1  0.71147000  0.16992000  0.65991000  1.0
  C  C50  1  0.67037000  0.12799000  0.74376000  1.0
  C  C51  1  0.56471000  0.12861000  0.74305000  1.0
  C  C52  1  0.17045000  0.62826000  0.74345000  1.0
  C  C53  1  0.21156000  0.67015000  0.65963000  1.0
  C  C54  1  0.17798000  0.69326000  0.61336000  1.0
  C  C55  1  0.10181000  0.67054000  0.65886000  1.0
  C  C56  1  0.06483000  0.62862000  0.74275000  1.0
  C  C57  1  0.21377000  0.73698000  0.52599000  1.0
  C  C58  1  0.28623000  0.76303000  0.47399000  1.0
  C  C59  1  0.39819000  0.82948000  0.34112000  1.0
  C  C60  1  0.32203000  0.80675000  0.38663000  1.0
  C  C61  1  0.28844000  0.82986000  0.34037000  1.0
  C  C62  1  0.32955000  0.87176000  0.25654000  1.0
  C  C63  1  0.43517000  0.87144000  0.25723000  1.0
  C  C64  1  0.62396000  0.12064000  0.07341000  1.0
  C  C65  1  0.66948000  0.16619000  0.07410000  1.0
  C  C66  1  0.65960000  0.15317000  0.14824000  1.0
  C  C67  1  0.69034000  0.19341000  0.92725000  1.0
  C  C68  1  0.73712000  0.24037000  0.92503000  1.0
  C  C69  1  0.79577000  0.30225000  0.85169000  1.0
  C  C70  1  0.87597000  0.37957000  0.92645000  1.0
  C  C71  1  0.83043000  0.33403000  0.92575000  1.0
  C  C72  1  0.84032000  0.34704000  0.85161000  1.0
  C  C73  1  0.80958000  0.30677000  0.07261000  1.0
  C  C74  1  0.76278000  0.25984000  0.07482000  1.0
  C  C75  1  0.70415000  0.19795000  0.14817000  1.0
  C  C76  1  0.63422000  0.13421000  0.00060000  1.0
  C  C77  1  0.72693000  0.22704000  0.99951000  1.0
  C  C78  1  0.86571000  0.36595000  0.99927000  1.0
  C  C79  1  0.77295000  0.27320000  0.00034000  1.0
  C  C80  1  0.30910000  0.80559000  0.07351000  1.0
  C  C81  1  0.26303000  0.75926000  0.07419000  1.0
  C  C82  1  0.20521000  0.69800000  0.14829000  1.0
  C  C83  1  0.37617000  0.87929000  0.92737000  1.0
  C  C84  1  0.33148000  0.83451000  0.92513000  1.0
  C  C85  1  0.33988000  0.84612000  0.85176000  1.0
  C  C86  1  0.19147000  0.69382000  0.92646000  1.0
  C  C87  1  0.23767000  0.74005000  0.92575000  1.0
  C  C88  1  0.29549000  0.80134000  0.85165000  1.0
  C  C89  1  0.12441000  0.62015000  0.07260000  1.0
  C  C90  1  0.16919000  0.66485000  0.07481000  1.0
  C  C91  1  0.16078000  0.65328000  0.14817000  1.0
  C  C92  1  0.36527000  0.86501000  0.00073000  1.0
  C  C93  1  0.27372000  0.77316000  0.99957000  1.0
  C  C94  1  0.13519000  0.63449000  0.99926000  1.0
  C  C95  1  0.22700000  0.72615000  0.00036000  1.0
  C  C96  1  0.30873000  0.12070000  0.07363000  1.0
  C  C97  1  0.26248000  0.16619000  0.07423000  1.0
  C  C98  1  0.20435000  0.15326000  0.14829000  1.0
  C  C99  1  0.37624000  0.19321000  0.92749000  1.0
  C  C100  1  0.33139000  0.24006000  0.92518000  1.0
  C  C101  1  0.33990000  0.30175000  0.85177000  1.0
  C  C102  1  0.19096000  0.37901000  0.92628000  1.0
  C  C103  1  0.23721000  0.33352000  0.92567000  1.0
  C  C104  1  0.29534000  0.34646000  0.85160000  1.0
  C  C105  1  0.12344000  0.30651000  0.07242000  1.0
  C  C106  1  0.16827000  0.25963000  0.07472000  1.0
  C  C107  1  0.15975000  0.19793000  0.14813000  1.0
  C  C108  1  0.36520000  0.13417000  0.00087000  1.0
  C  C109  1  0.27329000  0.22682000  0.99958000  1.0
  C  C110  1  0.13454000  0.36558000  0.99903000  1.0
  C  C111  1  0.22638000  0.27287000  0.00031000  1.0
  C  C112  1  0.62324000  0.80536000  0.07348000  1.0
  C  C113  1  0.66851000  0.75885000  0.07424000  1.0
  C  C114  1  0.65850000  0.69775000  0.14840000  1.0
  C  C115  1  0.68979000  0.87852000  0.92733000  1.0
  C  C116  1  0.73636000  0.83355000  0.92516000  1.0
  C  C117  1  0.79501000  0.84483000  0.85185000  1.0
  C  C118  1  0.87500000  0.69274000  0.92674000  1.0
  C  C119  1  0.82933000  0.73885000  0.92600000  1.0
  C  C120  1  0.83933000  0.79991000  0.85183000  1.0
  C  C121  1  0.80847000  0.61953000  0.07289000  1.0
  C  C122  1  0.76152000  0.66414000  0.07507000  1.0
  C  C123  1  0.70287000  0.65286000  0.14837000  1.0
  C  C124  1  0.63372000  0.86462000  0.00064000  1.0
  C  C125  1  0.72593000  0.77236000  0.99968000  1.0
  C  C126  1  0.86484000  0.63379000  0.99957000  1.0
  C  C127  1  0.77179000  0.72520000  0.00056000  1.0
  Br  Br128  1  0.68728000  0.17702000  0.24954000  1.0
  Br  Br129  1  0.81271000  0.32311000  0.75032000  1.0
  Br  Br130  1  0.08515000  0.57261000  0.24949000  1.0
  Br  Br131  1  0.41547000  0.92687000  0.75046000  1.0
  Br  Br132  1  0.08370000  0.17715000  0.24940000  1.0
  Br  Br133  1  0.41594000  0.32251000  0.75052000  1.0
  Br  Br134  1  0.68584000  0.57253000  0.24977000  1.0
  Br  Br135  1  0.81218000  0.92529000  0.75042000  1.0
  N  N136  1  0.90155000  0.39234000  0.21520000  1.0
  N  N137  1  0.59840000  0.10758000  0.78481000  1.0
  N  N138  1  0.09854000  0.60778000  0.78442000  1.0
  N  N139  1  0.40145000  0.89227000  0.21557000  1.0
  O  O140  1  0.46444000  0.96734000  0.93246000  1.0
  O  O141  1  0.40185000  0.89859000  0.06943000  1.0
  O  O142  1  0.40181000  0.03206000  0.06959000  1.0
  O  O143  1  0.46467000  0.10036000  0.93260000  1.0
  O  O144  1  0.53471000  0.03204000  0.06934000  1.0
  O  O145  1  0.59734000  0.10028000  0.93236000  1.0
  O  O146  1  0.59708000  0.96696000  0.93240000  1.0
  O  O147  1  0.53458000  0.89853000  0.06938000  1.0
  O  O148  1  0.03529000  0.39959000  0.06730000  1.0
  O  O149  1  0.09803000  0.46777000  0.93030000  1.0
  O  O150  1  0.09832000  0.60114000  0.93059000  1.0
  O  O151  1  0.03564000  0.53253000  0.06757000  1.0
  O  O152  1  0.96527000  0.60123000  0.93073000  1.0
  O  O153  1  0.90270000  0.53265000  0.06771000  1.0
  O  O154  1  0.90267000  0.39970000  0.06756000  1.0
  O  O155  1  0.96520000  0.46808000  0.93058000  1.0
  F  F156  1  0.00713000  0.39162000  0.21609000  1.0
  F  F157  1  0.93649000  0.31041000  0.37848000  1.0
  F  F158  1  0.79601000  0.39299000  0.21443000  1.0
  F  F159  1  0.71586000  0.31265000  0.37528000  1.0
  F  F160  1  0.78411000  0.18735000  0.62472000  1.0
  F  F161  1  0.70394000  0.10693000  0.78558000  1.0
  F  F162  1  0.56347000  0.18955000  0.62152000  1.0
  F  F163  1  0.49283000  0.10827000  0.78391000  1.0
  F  F164  1  0.99292000  0.60822000  0.78353000  1.0
  F  F165  1  0.06359000  0.68937000  0.62118000  1.0
  F  F166  1  0.20414000  0.60739000  0.78516000  1.0
  F  F167  1  0.28423000  0.68771000  0.62443000  1.0
  F  F168  1  0.21578000  0.81228000  0.37556000  1.0
  F  F169  1  0.29585000  0.89261000  0.21483000  1.0
  F  F170  1  0.43642000  0.81066000  0.37879000  1.0
  F  F171  1  0.50708000  0.89189000  0.21643000  1.0
