# generated using pymatgen
data_Cd3H20C12(N5O4)2
_symmetry_space_group_name_H-M   'P 1'
_cell_length_a   7.12248000
_cell_length_b   12.56532407
_cell_length_c   13.79390000
_cell_angle_alpha   107.06989829
_cell_angle_beta   90.01860000
_cell_angle_gamma   106.45277071
_symmetry_Int_Tables_number   1
_chemical_formula_structural   Cd3H20C12(N5O4)2
_chemical_formula_sum   'Cd6 H40 C24 N20 O16'
_cell_volume   1127.09812238
_cell_formula_units_Z   2
loop_
 _symmetry_equiv_pos_site_id
 _symmetry_equiv_pos_as_xyz
  1  'x, y, z'
loop_
 _atom_site_type_symbol
 _atom_site_label
 _atom_site_symmetry_multiplicity
 _atom_site_fract_x
 _atom_site_fract_y
 _atom_site_fract_z
 _atom_site_occupancy
  Cd  Cd0  1  0.28806000  0.99991000  0.24995000  1.0
  Cd  Cd1  1  0.71192000  0.00008000  0.75005000  1.0
  Cd  Cd2  1  0.08025000  0.16667000  0.04436000  1.0
  Cd  Cd3  1  0.91364000  0.83334000  0.45569000  1.0
  Cd  Cd4  1  0.91975000  0.83333000  0.95564000  1.0
  Cd  Cd5  1  0.08636000  0.16666000  0.54431000  1.0
  H  H6  1  0.95009000  0.28143000  0.32073000  1.0
  H  H7  1  0.66831000  0.71897000  0.17909000  1.0
  H  H8  1  0.04991000  0.71857000  0.67927000  1.0
  H  H9  1  0.33168000  0.28103000  0.82091000  1.0
  H  H10  1  0.16551000  0.36635000  0.28286000  1.0
  H  H11  1  0.79831000  0.63376000  0.21701000  1.0
  H  H12  1  0.83448000  0.63365000  0.71714000  1.0
  H  H13  1  0.20168000  0.36623000  0.78299000  1.0
  H  H14  1  0.15423000  0.36278000  0.41215000  1.0
  H  H15  1  0.79073000  0.63734000  0.08773000  1.0
  H  H16  1  0.84577000  0.63722000  0.58786000  1.0
  H  H17  1  0.20927000  0.36266000  0.91227000  1.0
  H  H18  1  0.75728000  0.26500000  0.15167000  1.0
  H  H19  1  0.49249000  0.73499000  0.34828000  1.0
  H  H20  1  0.24272000  0.73500000  0.84833000  1.0
  H  H21  1  0.50751000  0.26501000  0.65172000  1.0
  H  H22  1  0.52190000  0.21484000  0.18356000  1.0
  H  H23  1  0.30703000  0.78509000  0.31651000  1.0
  H  H24  1  0.47810000  0.78516000  0.81644000  1.0
  H  H25  1  0.69297000  0.21491000  0.68349000  1.0
  H  H26  1  0.38797000  0.57864000  0.15126000  1.0
  H  H27  1  0.80947000  0.42152000  0.34846000  1.0
  H  H28  1  0.61203000  0.42136000  0.84875000  1.0
  H  H29  1  0.19054000  0.57848000  0.65154000  1.0
  H  H30  1  0.15934000  0.56503000  0.08784000  1.0
  H  H31  1  0.59428000  0.43484000  0.41174000  1.0
  H  H32  1  0.84066000  0.43497000  0.91216000  1.0
  H  H33  1  0.40573000  0.56516000  0.58826000  1.0
  H  H34  1  0.16799000  0.56473000  0.21592000  1.0
  H  H35  1  0.60339000  0.43543000  0.28375000  1.0
  H  H36  1  0.83201000  0.43527000  0.78408000  1.0
  H  H37  1  0.39662000  0.56457000  0.71625000  1.0
  H  H38  1  0.49529000  0.72857000  0.00708000  1.0
  H  H39  1  0.76617000  0.27144000  0.49306000  1.0
  H  H40  1  0.50471000  0.27143000  0.99292000  1.0
  H  H41  1  0.23383000  0.72856000  0.50693000  1.0
  H  H42  1  0.30528000  0.77569000  0.06127000  1.0
  H  H43  1  0.52890000  0.22422000  0.43897000  1.0
  H  H44  1  0.69472000  0.22431000  0.93873000  1.0
  H  H45  1  0.47110000  0.77578000  0.56103000  1.0
  C  C46  1  0.65332000  0.09025000  0.12622000  1.0
  C  C47  1  0.56301000  0.90974000  0.37377000  1.0
  C  C48  1  0.34667000  0.90975000  0.87378000  1.0
  C  C49  1  0.43699000  0.09026000  0.62623000  1.0
  C  C50  1  0.11190000  0.31216000  0.33208000  1.0
  C  C51  1  0.79920000  0.68800000  0.16779000  1.0
  C  C52  1  0.88810000  0.68784000  0.66793000  1.0
  C  C53  1  0.20080000  0.31200000  0.83221000  1.0
  C  C54  1  0.18283000  0.20659000  0.30383000  1.0
  C  C55  1  0.97603000  0.79336000  0.19604000  1.0
  C  C56  1  0.81717000  0.79341000  0.69617000  1.0
  C  C57  1  0.02396000  0.20663000  0.80395000  1.0
  C  C58  1  0.22943000  0.53692000  0.14290000  1.0
  C  C59  1  0.69253000  0.46316000  0.35682000  1.0
  C  C60  1  0.77057000  0.46308000  0.85710000  1.0
  C  C61  1  0.30748000  0.53684000  0.64318000  1.0
  C  C62  1  0.17997000  0.40586000  0.10750000  1.0
  C  C63  1  0.77392000  0.59420000  0.39246000  1.0
  C  C64  1  0.82003000  0.59414000  0.89250000  1.0
  C  C65  1  0.22608000  0.40580000  0.60754000  1.0
  C  C66  1  0.56063000  0.90286000  0.07542000  1.0
  C  C67  1  0.65742000  0.09712000  0.42469000  1.0
  C  C68  1  0.43937000  0.09714000  0.92458000  1.0
  C  C69  1  0.34258000  0.90288000  0.57531000  1.0
  N  N70  1  0.50436000  0.99618000  0.13039000  1.0
  N  N71  1  0.50776000  0.00379000  0.36983000  1.0
  N  N72  1  0.49564000  0.00382000  0.86961000  1.0
  N  N73  1  0.49224000  0.99621000  0.63017000  1.0
  N  N74  1  0.79535000  0.05820000  0.07308000  1.0
  N  N75  1  0.73736000  0.94180000  0.42667000  1.0
  N  N76  1  0.20465000  0.94180000  0.92691000  1.0
  N  N77  1  0.26264000  0.05820000  0.57333000  1.0
  N  N78  1  0.65700000  0.20274000  0.17410000  1.0
  N  N79  1  0.45425000  0.79723000  0.32589000  1.0
  N  N80  1  0.34300000  0.79726000  0.82590000  1.0
  N  N81  1  0.54575000  0.20277000  0.67411000  1.0
  N  N82  1  0.73467000  0.93619000  0.03984000  1.0
  N  N83  1  0.79854000  0.06382000  0.46002000  1.0
  N  N84  1  0.26533000  0.06381000  0.96016000  1.0
  N  N85  1  0.20146000  0.93618000  0.53998000  1.0
  N  N86  1  0.45329000  0.78966000  0.06187000  1.0
  N  N87  1  0.66298000  0.21029000  0.43835000  1.0
  N  N88  1  0.54671000  0.21034000  0.93813000  1.0
  N  N89  1  0.33703000  0.78971000  0.56165000  1.0
  O  O90  1  0.99849000  0.34545000  0.09519000  1.0
  O  O91  1  0.65275000  0.65456000  0.40505000  1.0
  O  O92  1  0.00151000  0.65455000  0.90481000  1.0
  O  O93  1  0.34726000  0.34544000  0.59495000  1.0
  O  O94  1  0.31753000  0.35768000  0.09060000  1.0
  O  O95  1  0.95967000  0.64246000  0.40929000  1.0
  O  O96  1  0.68247000  0.64232000  0.90940000  1.0
  O  O97  1  0.04034000  0.35754000  0.59071000  1.0
  O  O98  1  0.20932000  0.15924000  0.37118000  1.0
  O  O99  1  0.05001000  0.84063000  0.12867000  1.0
  O  O100  1  0.79069000  0.84077000  0.62882000  1.0
  O  O101  1  0.94998000  0.15937000  0.87133000  1.0
  O  O102  1  0.21370000  0.16121000  0.21137000  1.0
  O  O103  1  0.05227000  0.83874000  0.28853000  1.0
  O  O104  1  0.78629000  0.83879000  0.78863000  1.0
  O  O105  1  0.94773000  0.16126000  0.71147000  1.0
