# generated using pymatgen
data_CdH20C18(SN5)2
_symmetry_space_group_name_H-M   'P 1'
_cell_length_a   10.49670000
_cell_length_b   10.79980000
_cell_length_c   11.85030000
_cell_angle_alpha   66.33610000
_cell_angle_beta   73.46470000
_cell_angle_gamma   61.92980000
_symmetry_Int_Tables_number   1
_chemical_formula_structural   CdH20C18(SN5)2
_chemical_formula_sum   'Cd2 H40 C36 S4 N20'
_cell_volume   1078.04268520
_cell_formula_units_Z   2
loop_
 _symmetry_equiv_pos_site_id
 _symmetry_equiv_pos_as_xyz
  1  'x, y, z'
loop_
 _atom_site_type_symbol
 _atom_site_label
 _atom_site_symmetry_multiplicity
 _atom_site_fract_x
 _atom_site_fract_y
 _atom_site_fract_z
 _atom_site_occupancy
  Cd  Cd0  1  0.50000000  0.50000000  0.50000000  1.0
  Cd  Cd1  1  0.50000000  0.50000000  0.00000000  1.0
  H  H2  1  0.70305000  0.29400000  0.30576000  1.0
  H  H3  1  0.29694000  0.70601000  0.69424000  1.0
  H  H4  1  0.97437000  0.41956000  0.69631000  1.0
  H  H5  1  0.02563000  0.58044000  0.30369000  1.0
  H  H6  1  0.15719000  0.38387000  0.62135000  1.0
  H  H7  1  0.84281000  0.61613000  0.37865000  1.0
  H  H8  1  0.11877000  0.24052000  0.74465000  1.0
  H  H9  1  0.88123000  0.75948000  0.25535000  1.0
  H  H10  1  0.35391000  0.99684000  0.57439000  1.0
  H  H11  1  0.64609000  0.00316000  0.42561000  1.0
  H  H12  1  0.32102000  0.14792000  0.62044000  1.0
  H  H13  1  0.67898000  0.85208000  0.37956000  1.0
  H  H14  1  0.38339000  0.15351000  0.46422000  1.0
  H  H15  1  0.61661000  0.84648000  0.53578000  1.0
  H  H16  1  0.34105000  0.04197000  0.35335000  1.0
  H  H17  1  0.65895000  0.95803000  0.64665000  1.0
  H  H18  1  0.19972000  0.08681000  0.26965000  1.0
  H  H19  1  0.80028000  0.91319000  0.73035000  1.0
  H  H20  1  0.23400000  0.93754000  0.40972000  1.0
  H  H21  1  0.76599000  0.06246000  0.59028000  1.0
  H  H22  1  0.59853000  0.13206000  0.18577000  1.0
  H  H23  1  0.40147000  0.86794000  0.81423000  1.0
  H  H24  1  0.03806000  0.50747000  0.85871000  1.0
  H  H25  1  0.96194000  0.49252000  0.14129000  1.0
  H  H26  1  0.20604000  0.35815000  0.83352000  1.0
  H  H27  1  0.79396000  0.64185000  0.16648000  1.0
  H  H28  1  0.17216000  0.41638000  0.96222000  1.0
  H  H29  1  0.82784000  0.58362000  0.03778000  1.0
  H  H30  1  0.35289000  0.97322000  0.07360000  1.0
  H  H31  1  0.64711000  0.02677000  0.92640000  1.0
  H  H32  1  0.33210000  0.15684000  0.03931000  1.0
  H  H33  1  0.66790000  0.84316000  0.96069000  1.0
  H  H34  1  0.34330000  0.09591000  0.91831000  1.0
  H  H35  1  0.65670000  0.90408000  0.08169000  1.0
  H  H36  1  0.24801000  0.83442000  0.11030000  1.0
  H  H37  1  0.75199000  0.16558000  0.88970000  1.0
  H  H38  1  0.07391000  0.82798000  0.17029000  1.0
  H  H39  1  0.92609000  0.17202000  0.82971000  1.0
  H  H40  1  0.16241000  0.85988000  0.25545000  1.0
  H  H41  1  0.83759000  0.14012000  0.74455000  1.0
  C  C42  1  0.87599000  0.31345000  0.47461000  1.0
  C  C43  1  0.12401000  0.68655000  0.52538000  1.0
  C  C44  1  0.04387000  0.29211000  0.57521000  1.0
  C  C45  1  0.95613000  0.70789000  0.42479000  1.0
  C  C46  1  0.15821000  0.18838000  0.51744000  1.0
  C  C47  1  0.84179000  0.81162000  0.48256000  1.0
  C  C48  1  0.12578000  0.15216000  0.43227000  1.0
  C  C49  1  0.87422000  0.84784000  0.56773000  1.0
  C  C50  1  0.78364000  0.28284000  0.35381000  1.0
  C  C51  1  0.21636000  0.71716000  0.64618000  1.0
  C  C52  1  0.07486000  0.33765000  0.66450000  1.0
  C  C53  1  0.92514000  0.66235000  0.33550000  1.0
  C  C54  1  0.31220000  0.11787000  0.54605000  1.0
  C  C55  1  0.68779000  0.88213000  0.45395000  1.0
  C  C56  1  0.23119000  0.04966000  0.36214000  1.0
  C  C57  1  0.76881000  0.95034000  0.63786000  1.0
  C  C58  1  0.84244000  0.25772000  0.05721000  1.0
  C  C59  1  0.15756000  0.74228000  0.94279000  1.0
  C  C60  1  0.04995000  0.29501000  0.97912000  1.0
  C  C61  1  0.95006000  0.70499000  0.02088000  1.0
  C  C62  1  0.13731000  0.14146000  0.03335000  1.0
  C  C63  1  0.86270000  0.85854000  0.96665000  1.0
  C  C64  1  0.06967000  0.04510000  0.10029000  1.0
  C  C65  1  0.93033000  0.95490000  0.89971000  1.0
  C  C66  1  0.69880000  0.14855000  0.15030000  1.0
  C  C67  1  0.30120000  0.85145000  0.84970000  1.0
  C  C68  1  0.11999000  0.40006000  0.90397000  1.0
  C  C69  1  0.88001000  0.59994000  0.09603000  1.0
  C  C70  1  0.29970000  0.08770000  0.01599000  1.0
  C  C71  1  0.70030000  0.91229000  0.98401000  1.0
  C  C72  1  0.14246000  0.88328000  0.16132000  1.0
  C  C73  1  0.85753000  0.11673000  0.83868000  1.0
  C  C74  1  0.51948000  0.67204000  0.18180000  1.0
  C  C75  1  0.48052000  0.32796000  0.81820000  1.0
  C  C76  1  0.39328000  0.40149000  0.31509000  1.0
  C  C77  1  0.60671000  0.59851000  0.68490000  1.0
  S  S78  1  0.50967000  0.73472000  0.28995000  1.0
  S  S79  1  0.49033000  0.26528000  0.71005000  1.0
  S  S80  1  0.32148000  0.40340000  0.20885000  1.0
  S  S81  1  0.67852000  0.59660000  0.79115000  1.0
  N  N82  1  0.74758000  0.35491000  0.43687000  1.0
  N  N83  1  0.25242000  0.64510000  0.56313000  1.0
  N  N84  1  0.90501000  0.35242000  0.55435000  1.0
  N  N85  1  0.09499000  0.64758000  0.44565000  1.0
  N  N86  1  0.98316000  0.21684000  0.41270000  1.0
  N  N87  1  0.01684000  0.78316000  0.58730000  1.0
  N  N88  1  0.92469000  0.19705000  0.33517000  1.0
  N  N89  1  0.07531000  0.80295000  0.66483000  1.0
  N  N90  1  0.69976000  0.28378000  0.08346000  1.0
  N  N91  1  0.30024000  0.71622000  0.91654000  1.0
  N  N92  1  0.90478000  0.35168000  0.99202000  1.0
  N  N93  1  0.09522000  0.64832000  0.00798000  1.0
  N  N94  1  0.92089000  0.10749000  0.10997000  1.0
  N  N95  1  0.07911000  0.89251000  0.89003000  1.0
  N  N96  1  0.82925000  0.03728000  0.17007000  1.0
  N  N97  1  0.17075000  0.96272000  0.82993000  1.0
  N  N98  1  0.52781000  0.63103000  0.10015000  1.0
  N  N99  1  0.47219000  0.36897000  0.89985000  1.0
  N  N100  1  0.44488000  0.39755000  0.39392000  1.0
  N  N101  1  0.55512000  0.60245000  0.60608000  1.0
