# generated using pymatgen
data_Sm2H18C22O17
_symmetry_space_group_name_H-M   'P 1'
_cell_length_a   6.00084000
_cell_length_b   8.83935000
_cell_length_c   12.32980000
_cell_angle_alpha   104.78500000
_cell_angle_beta   91.71290000
_cell_angle_gamma   104.89100000
_symmetry_Int_Tables_number   1
_chemical_formula_structural   Sm2H18C22O17
_chemical_formula_sum   'Sm2 H18 C22 O17'
_cell_volume   607.92664920
_cell_formula_units_Z   1
loop_
 _symmetry_equiv_pos_site_id
 _symmetry_equiv_pos_as_xyz
  1  'x, y, z'
loop_
 _atom_site_type_symbol
 _atom_site_label
 _atom_site_symmetry_multiplicity
 _atom_site_fract_x
 _atom_site_fract_y
 _atom_site_fract_z
 _atom_site_occupancy
  Sm  Sm0  1  0.73522000  0.29140000  0.39713000  1.0
  Sm  Sm1  1  0.25777000  0.70168000  0.59005000  1.0
  H  H2  1  0.91454000  0.83990000  0.34093000  1.0
  H  H3  1  0.07186000  0.15816000  0.65405000  1.0
  H  H4  1  0.16844000  0.78171000  0.29555000  1.0
  H  H5  1  0.82079000  0.21754000  0.70270000  1.0
  H  H6  1  0.22347000  0.56373000  0.18439000  1.0
  H  H7  1  0.77366000  0.43752000  0.81098000  1.0
  H  H8  1  0.68174000  0.62682000  0.97532000  1.0
  H  H9  1  0.31584000  0.37483000  0.01996000  1.0
  H  H10  1  0.10595000  0.15934000  0.10823000  1.0
  H  H11  1  0.89404000  0.85049000  0.88988000  1.0
  H  H12  1  0.01146000  0.97458000  0.14908000  1.0
  H  H13  1  0.99048000  0.02992000  0.84313000  1.0
  H  H14  1  0.56959000  0.82639000  0.11784000  1.0
  H  H15  1  0.42750000  0.17255000  0.87586000  1.0
  H  H16  1  0.70333000  0.29527000  0.05423000  1.0
  H  H17  1  0.29355000  0.70369000  0.93952000  1.0
  H  H18  1  0.47576000  0.42555000  0.56211000  1.0
  H  H19  1  0.66869000  0.58807000  0.55918000  1.0
  C  C20  1  0.89579000  0.59201000  0.32884000  1.0
  C  C21  1  0.09002000  0.40549000  0.66480000  1.0
  C  C22  1  0.97755000  0.74245000  0.28736000  1.0
  C  C23  1  0.01143000  0.25649000  0.70827000  1.0
  C  C24  1  0.94513000  0.60977000  0.09053000  1.0
  C  C25  1  0.05223000  0.39186000  0.90468000  1.0
  C  C26  1  0.12317000  0.53769000  0.10345000  1.0
  C  C27  1  0.87457000  0.46411000  0.89178000  1.0
  C  C28  1  0.82177000  0.57205000  0.98466000  1.0
  C  C29  1  0.17604000  0.42980000  0.01049000  1.0
  C  C30  1  0.18446000  0.18456000  0.28378000  1.0
  C  C31  1  0.80813000  0.81468000  0.71481000  1.0
  C  C32  1  0.02825000  0.10610000  0.17466000  1.0
  C  C33  1  0.97059000  0.89801000  0.82082000  1.0
  C  C34  1  0.65003000  0.06639000  0.09355000  1.0
  C  C35  1  0.34693000  0.93260000  0.90024000  1.0
  C  C36  1  0.53725000  0.90057000  0.06403000  1.0
  C  C37  1  0.46016000  0.09831000  0.92955000  1.0
  C  C38  1  0.38404000  0.83280000  0.96593000  1.0
  C  C39  1  0.61335000  0.16608000  0.02766000  1.0
  C  C40  1  0.42716000  0.05244000  0.53636000  1.0
  C  C41  1  0.56356000  0.94596000  0.46068000  1.0
  O  O42  1  0.00412000  0.58848000  0.41978000  1.0
  O  O43  1  0.97475000  0.41171000  0.57733000  1.0
  O  O44  1  0.72767000  0.47513000  0.27694000  1.0
  O  O45  1  0.26774000  0.51884000  0.71242000  1.0
  O  O46  1  0.88121000  0.71996000  0.17578000  1.0
  O  O47  1  0.11445000  0.28096000  0.81895000  1.0
  O  O48  1  0.10907000  0.26772000  0.36642000  1.0
  O  O49  1  0.88090000  0.72333000  0.63371000  1.0
  O  O50  1  0.60850000  0.83518000  0.71204000  1.0
  O  O51  1  0.38403000  0.16116000  0.28424000  1.0
  O  O52  1  0.80504000  0.13564000  0.19165000  1.0
  O  O53  1  0.18988000  0.86334000  0.80276000  1.0
  O  O54  1  0.47822000  0.20107000  0.53758000  1.0
  O  O55  1  0.51663000  0.79807000  0.46102000  1.0
  O  O56  1  0.71089000  0.01569000  0.40506000  1.0
  O  O57  1  0.27773000  0.98159000  0.59077000  1.0
  O  O58  1  0.52388000  0.50276000  0.51651000  1.0
