# generated using pymatgen
data_Zr3H23C45Br5O16
_symmetry_space_group_name_H-M   'P 1'
_cell_length_a   19.02637495
_cell_length_b   19.15701141
_cell_length_c   19.15710000
_cell_angle_alpha   90.44984335
_cell_angle_beta   119.67284521
_cell_angle_gamma   119.67331526
_symmetry_Int_Tables_number   1
_chemical_formula_structural   Zr3H23C45Br5O16
_chemical_formula_sum   'Zr6 H46 C90 Br10 O32'
_cell_volume   4966.64518201
_cell_formula_units_Z   2
loop_
 _symmetry_equiv_pos_site_id
 _symmetry_equiv_pos_as_xyz
  1  'x, y, z'
loop_
 _atom_site_type_symbol
 _atom_site_label
 _atom_site_symmetry_multiplicity
 _atom_site_fract_x
 _atom_site_fract_y
 _atom_site_fract_z
 _atom_site_occupancy
  Zr  Zr0  1  0.49845000  0.90665000  0.90670000  1.0
  Zr  Zr1  1  0.50220000  0.09331000  0.09337000  1.0
  Zr  Zr2  1  0.68556000  0.09064000  0.09062000  1.0
  Zr  Zr3  1  0.31509000  0.90942000  0.90937000  1.0
  Zr  Zr4  1  0.50030000  0.90819000  0.09180000  1.0
  Zr  Zr5  1  0.50031000  0.09181000  0.90818000  1.0
  H  H6  1  0.64469000  0.92573000  0.07033000  1.0
  H  H7  1  0.35589000  0.92969000  0.07424000  1.0
  H  H8  1  0.64673000  0.21726000  0.07248000  1.0
  H  H9  1  0.35392000  0.92754000  0.78274000  1.0
  H  H10  1  0.50044000  0.45471000  0.11383000  1.0
  H  H11  1  0.50132000  0.54598000  0.88677000  1.0
  H  H12  1  0.49597000  0.68105000  0.10303000  1.0
  H  H13  1  0.49949000  0.55493000  0.11149000  1.0
  H  H14  1  0.49655000  0.31491000  0.89310000  1.0
  H  H15  1  0.49892000  0.44396000  0.88747000  1.0
  H  H16  1  0.49848000  0.11299000  0.45354000  1.0
  H  H17  1  0.49936000  0.88592000  0.54482000  1.0
  H  H18  1  0.50369000  0.10682000  0.68491000  1.0
  H  H19  1  0.50098000  0.11233000  0.55568000  1.0
  H  H20  1  0.50420000  0.89684000  0.31877000  1.0
  H  H21  1  0.50036000  0.88829000  0.44471000  1.0
  H  H22  1  0.84004000  0.45370000  0.88711000  1.0
  H  H23  1  0.16064000  0.54778000  0.11447000  1.0
  H  H24  1  0.07716000  0.67891000  0.89245000  1.0
  H  H25  1  0.94253000  0.55275000  0.88720000  1.0
  H  H26  1  0.92342000  0.31707000  0.10369000  1.0
  H  H27  1  0.05805000  0.44695000  0.11273000  1.0
  H  H28  1  0.83976000  0.88573000  0.45256000  1.0
  H  H29  1  0.16033000  0.11308000  0.54661000  1.0
  H  H30  1  0.07714000  0.89640000  0.68319000  1.0
  H  H31  1  0.94243000  0.88747000  0.55349000  1.0
  H  H32  1  0.92339000  0.10767000  0.32138000  1.0
  H  H33  1  0.05797000  0.11302000  0.44771000  1.0
  H  H34  1  0.29009000  0.11430000  0.11159000  1.0
  H  H35  1  0.24175000  0.17631000  0.17648000  1.0
  H  H36  1  0.07089000  0.89176000  0.88820000  1.0
  H  H37  1  0.71049000  0.88845000  0.88572000  1.0
  H  H38  1  0.75883000  0.82354000  0.82370000  1.0
  H  H39  1  0.92969000  0.11178000  0.10829000  1.0
  H  H40  1  0.06989000  0.45513000  0.45417000  1.0
  H  H41  1  0.93055000  0.54587000  0.54493000  1.0
  H  H42  1  0.28685000  0.68120000  0.68515000  1.0
  H  H43  1  0.16773000  0.55518000  0.55606000  1.0
  H  H44  1  0.71357000  0.31475000  0.31873000  1.0
  H  H45  1  0.83258000  0.44381000  0.44476000  1.0
  H  H46  1  0.17372000  0.19772000  0.26303000  1.0
  H  H47  1  0.06724000  0.19687000  0.19736000  1.0
  H  H48  1  0.17375000  0.26322000  0.19839000  1.0
  H  H49  1  0.82677000  0.73696000  0.80228000  1.0
  H  H50  1  0.93327000  0.80258000  0.80314000  1.0
  H  H51  1  0.82680000  0.80162000  0.73681000  1.0
  C  C52  1  0.49426000  0.76262000  0.99378000  1.0
  C  C53  1  0.50617000  0.00617000  0.23727000  1.0
  C  C54  1  0.49724000  0.23288000  0.00190000  1.0
  C  C55  1  0.50333000  0.99815000  0.76707000  1.0
  C  C56  1  0.73547000  0.00069000  0.99667000  1.0
  C  C57  1  0.25984000  0.76353000  0.76787000  1.0
  C  C58  1  0.26517000  0.00340000  0.99931000  1.0
  C  C59  1  0.74073000  0.23211000  0.23646000  1.0
  C  C60  1  0.73180000  0.99838000  0.23597000  1.0
  C  C61  1  0.73190000  0.23088000  0.99333000  1.0
  C  C62  1  0.26871000  0.00670000  0.76918000  1.0
  C  C63  1  0.26876000  0.76410000  0.00162000  1.0
  C  C64  1  0.49720000  0.31079000  0.00488000  1.0
  C  C65  1  0.49600000  0.68557000  0.99158000  1.0
  C  C66  1  0.49830000  0.35231000  0.06689000  1.0
  C  C67  1  0.49963000  0.42559000  0.06430000  1.0
  C  C68  1  0.49791000  0.64560000  0.93103000  1.0
  C  C69  1  0.49983000  0.57393000  0.93519000  1.0
  C  C70  1  0.49694000  0.65009000  0.05585000  1.0
  C  C71  1  0.49886000  0.57886000  0.06000000  1.0
  C  C72  1  0.49746000  0.34683000  0.94118000  1.0
  C  C73  1  0.49879000  0.41969000  0.93859000  1.0
  C  C74  1  0.49977000  0.46110000  0.00050000  1.0
  C  C75  1  0.49981000  0.53845000  0.99902000  1.0
  C  C76  1  0.50419000  0.00829000  0.31420000  1.0
  C  C77  1  0.50309000  0.99505000  0.68902000  1.0
  C  C78  1  0.50210000  0.06878000  0.35405000  1.0
  C  C79  1  0.50003000  0.06459000  0.42565000  1.0
  C  C80  1  0.50179000  0.93295000  0.64738000  1.0
  C  C81  1  0.50027000  0.93550000  0.57400000  1.0
  C  C82  1  0.50273000  0.05872000  0.65295000  1.0
  C  C83  1  0.50118000  0.06123000  0.57999000  1.0
  C  C84  1  0.50313000  0.94398000  0.34965000  1.0
  C  C85  1  0.50103000  0.93978000  0.42079000  1.0
  C  C86  1  0.50005000  0.00077000  0.46116000  1.0
  C  C87  1  0.50011000  0.99929000  0.53852000  1.0
  C  C88  1  0.80645000  0.31022000  0.99159000  1.0
  C  C89  1  0.19421000  0.68609000  0.00478000  1.0
  C  C90  1  0.78522000  0.35134000  0.93118000  1.0
  C  C91  1  0.86102000  0.42507000  0.93560000  1.0
  C  C92  1  0.21545000  0.64683000  0.06706000  1.0
  C  C93  1  0.13963000  0.57509000  0.06467000  1.0
  C  C94  1  0.09381000  0.64906000  0.94096000  1.0
  C  C95  1  0.01843000  0.57777000  0.93854000  1.0
  C  C96  1  0.90680000  0.34807000  0.05631000  1.0
  C  C97  1  0.98218000  0.42142000  0.06085000  1.0
  C  C98  1  0.96097000  0.46161000  0.99960000  1.0
  C  C99  1  0.03968000  0.53869000  0.00087000  1.0
  C  C100  1  0.80628000  0.99529000  0.31409000  1.0
  C  C101  1  0.19407000  0.00851000  0.68997000  1.0
  C  C102  1  0.78498000  0.93305000  0.35338000  1.0
  C  C103  1  0.86078000  0.93549000  0.42521000  1.0
  C  C104  1  0.21523000  0.06897000  0.64888000  1.0
  C  C105  1  0.13938000  0.06457000  0.57523000  1.0
  C  C106  1  0.09372000  0.94382000  0.65221000  1.0
  C  C107  1  0.01829000  0.93933000  0.57896000  1.0
  C  C108  1  0.90670000  0.05917000  0.35123000  1.0
  C  C109  1  0.98205000  0.06165000  0.42262000  1.0
  C  C110  1  0.96075000  0.99931000  0.46167000  1.0
  C  C111  1  0.03944000  0.00058000  0.53874000  1.0
  C  C112  1  0.21228000  0.06516000  0.06274000  1.0
  C  C113  1  0.13878000  0.06472000  0.06348000  1.0
  C  C114  1  0.16332000  0.12796000  0.12757000  1.0
  C  C115  1  0.08685000  0.93878000  0.93598000  1.0
  C  C116  1  0.01039000  0.93534000  0.93394000  1.0
  C  C117  1  0.90682000  0.87007000  0.86957000  1.0
  C  C118  1  0.78830000  0.93729000  0.93486000  1.0
  C  C119  1  0.86179000  0.93655000  0.93528000  1.0
  C  C120  1  0.83726000  0.87246000  0.87205000  1.0
  C  C121  1  0.91376000  0.06404000  0.06125000  1.0
  C  C122  1  0.99020000  0.06609000  0.06466000  1.0
  C  C123  1  0.09376000  0.13046000  0.12995000  1.0
  C  C124  1  0.18639000  0.00274000  0.99928000  1.0
  C  C125  1  0.03698000  0.99994000  0.99885000  1.0
  C  C126  1  0.81422000  0.00073000  0.99731000  1.0
  C  C127  1  0.96359000  0.00117000  0.00006000  1.0
  C  C128  1  0.82127000  0.31050000  0.31402000  1.0
  C  C129  1  0.17922000  0.68595000  0.68951000  1.0
  C  C130  1  0.92364000  0.35242000  0.35431000  1.0
  C  C131  1  0.99203000  0.42578000  0.42601000  1.0
  C  C132  1  0.07686000  0.64570000  0.64764000  1.0
  C  C133  1  0.00840000  0.57399000  0.57426000  1.0
  C  C134  1  0.20785000  0.65027000  0.65324000  1.0
  C  C135  1  0.13991000  0.57903000  0.58031000  1.0
  C  C136  1  0.79259000  0.34671000  0.34968000  1.0
  C  C137  1  0.86047000  0.41963000  0.42094000  1.0
  C  C138  1  0.96280000  0.46123000  0.46147000  1.0
  C  C139  1  0.03759000  0.53853000  0.53876000  1.0
  C  C140  1  0.12788000  0.20028000  0.20042000  1.0
  C  C141  1  0.87266000  0.79958000  0.79974000  1.0
  Br  Br142  1  0.49812000  0.31629000  0.15959000  1.0
  Br  Br143  1  0.49878000  0.68211000  0.83873000  1.0
  Br  Br144  1  0.50116000  0.16103000  0.31746000  1.0
  Br  Br145  1  0.50201000  0.84028000  0.68341000  1.0
  Br  Br146  1  0.65562000  0.31427000  0.83835000  1.0
  Br  Br147  1  0.34508000  0.68413000  0.16003000  1.0
  Br  Br148  1  0.65533000  0.84010000  0.31603000  1.0
  Br  Br149  1  0.34480000  0.16180000  0.68587000  1.0
  Br  Br150  1  0.98137000  0.31654000  0.31811000  1.0
  Br  Br151  1  0.01920000  0.68199000  0.68355000  1.0
  O  O152  1  0.49187000  0.79385000  0.93471000  1.0
  O  O153  1  0.50872000  0.06531000  0.20612000  1.0
  O  O154  1  0.49846000  0.20114000  0.06045000  1.0
  O  O155  1  0.50235000  0.93971000  0.79893000  1.0
  O  O156  1  0.76400000  0.06005000  0.05641000  1.0
  O  O157  1  0.23456000  0.79657000  0.80095000  1.0
  O  O158  1  0.23663000  0.94366000  0.93994000  1.0
  O  O159  1  0.76609000  0.19906000  0.20350000  1.0
  O  O160  1  0.64095000  0.94102000  0.20347000  1.0
  O  O161  1  0.64106000  0.19820000  0.93571000  1.0
  O  O162  1  0.35953000  0.06428000  0.80177000  1.0
  O  O163  1  0.35959000  0.79652000  0.05893000  1.0
  O  O164  1  0.76387000  0.20202000  0.05278000  1.0
  O  O165  1  0.23678000  0.94721000  0.79802000  1.0
  O  O166  1  0.23675000  0.79368000  0.94294000  1.0
  O  O167  1  0.76386000  0.05704000  0.20639000  1.0
  O  O168  1  0.64558000  0.94154000  0.93822000  1.0
  O  O169  1  0.65192000  0.20443000  0.20780000  1.0
  O  O170  1  0.35504000  0.06184000  0.05846000  1.0
  O  O171  1  0.34865000  0.79217000  0.79553000  1.0
  O  O172  1  0.50284000  0.05812000  0.79583000  1.0
  O  O173  1  0.49670000  0.79276000  0.05521000  1.0
  O  O174  1  0.50379000  0.94476000  0.20719000  1.0
  O  O175  1  0.49769000  0.20411000  0.94190000  1.0
  O  O176  1  0.39504000  0.94812000  0.84455000  1.0
  O  O177  1  0.60565000  0.15546000  0.05191000  1.0
  O  O178  1  0.39695000  0.94941000  0.05314000  1.0
  O  O179  1  0.60365000  0.94685000  0.05060000  1.0
  O  O180  1  0.57806000  0.03840000  0.11449000  1.0
  O  O181  1  0.42258000  0.88553000  0.96160000  1.0
  O  O182  1  0.42398000  0.03913000  0.96282000  1.0
  O  O183  1  0.57664000  0.03718000  0.96090000  1.0
