# generated using pymatgen
data_ZnH8(C5N7)2
_symmetry_space_group_name_H-M   'P 1'
_cell_length_a   8.19502000
_cell_length_b   8.22066000
_cell_length_c   11.84750000
_cell_angle_alpha   90.97540000
_cell_angle_beta   109.98500000
_cell_angle_gamma   98.82980000
_symmetry_Int_Tables_number   1
_chemical_formula_structural   ZnH8(C5N7)2
_chemical_formula_sum   'Zn2 H16 C20 N28'
_cell_volume   739.11793015
_cell_formula_units_Z   2
loop_
 _symmetry_equiv_pos_site_id
 _symmetry_equiv_pos_as_xyz
  1  'x, y, z'
loop_
 _atom_site_type_symbol
 _atom_site_label
 _atom_site_symmetry_multiplicity
 _atom_site_fract_x
 _atom_site_fract_y
 _atom_site_fract_z
 _atom_site_occupancy
  Zn  Zn0  1  0.01598000  0.70016000  0.48012000  1.0
  Zn  Zn1  1  0.98402000  0.29984000  0.51988000  1.0
  H  H2  1  0.86053000  0.66182000  0.20442000  1.0
  H  H3  1  0.13947000  0.33819000  0.79558000  1.0
  H  H4  1  0.96211000  0.64379000  0.03005000  1.0
  H  H5  1  0.03789000  0.35621000  0.96995000  1.0
  H  H6  1  0.49610000  0.70400000  0.28503000  1.0
  H  H7  1  0.50391000  0.29599000  0.71497000  1.0
  H  H8  1  0.36870000  0.71595000  0.44894000  1.0
  H  H9  1  0.63130000  0.28404000  0.55106000  1.0
  H  H10  1  0.66300000  0.71666000  0.50431000  1.0
  H  H11  1  0.33700000  0.28334000  0.49569000  1.0
  H  H12  1  0.53983000  0.82733000  0.65058000  1.0
  H  H13  1  0.46017000  0.17267000  0.34942000  1.0
  H  H14  1  0.06787000  0.89915000  0.91468000  1.0
  H  H15  1  0.93213000  0.10085000  0.08532000  1.0
  H  H16  1  0.16741000  0.79132000  0.75551000  1.0
  H  H17  1  0.83259000  0.20868000  0.24449000  1.0
  C  C18  1  0.99967000  0.66778000  0.21879000  1.0
  C  C19  1  0.00033000  0.33222000  0.78120000  1.0
  C  C20  1  0.05655000  0.65851000  0.12160000  1.0
  C  C21  1  0.94345000  0.34149000  0.87840000  1.0
  C  C22  1  0.23743000  0.67018000  0.14364000  1.0
  C  C23  1  0.76257000  0.32982000  0.85636000  1.0
  C  C24  1  0.35420000  0.69241000  0.26354000  1.0
  C  C25  1  0.64580000  0.30759000  0.73646000  1.0
  C  C26  1  0.28420000  0.69929000  0.35457000  1.0
  C  C27  1  0.71580000  0.30071000  0.64543000  1.0
  C  C28  1  0.74715000  0.75885000  0.59644000  1.0
  C  C29  1  0.25285000  0.24115000  0.40356000  1.0
  C  C30  1  0.67921000  0.81836000  0.67800000  1.0
  C  C31  1  0.32079000  0.18164000  0.32200000  1.0
  C  C32  1  0.79572000  0.86847000  0.79546000  1.0
  C  C33  1  0.20428000  0.13153000  0.20454000  1.0
  C  C34  1  0.97418000  0.85846000  0.82485000  1.0
  C  C35  1  0.02582000  0.14154000  0.17515000  1.0
  C  C36  1  0.02924000  0.79879000  0.73618000  1.0
  C  C37  1  0.97075000  0.20121000  0.26382000  1.0
  N  N38  1  0.82379000  0.47430000  0.42121000  1.0
  N  N39  1  0.17621000  0.52570000  0.57879000  1.0
  N  N40  1  0.70546000  0.44474000  0.32552000  1.0
  N  N41  1  0.29454000  0.55526000  0.67448000  1.0
  N  N42  1  0.58933000  0.41589000  0.23350000  1.0
  N  N43  1  0.41067000  0.58411000  0.76650000  1.0
  N  N44  1  0.81987000  0.84397000  0.36464000  1.0
  N  N45  1  0.18013000  0.15603000  0.63536000  1.0
  N  N46  1  0.79358000  0.96859000  0.40145000  1.0
  N  N47  1  0.20642000  0.03141000  0.59855000  1.0
  N  N48  1  0.76343000  0.09256000  0.43659000  1.0
  N  N49  1  0.23657000  0.90744000  0.56341000  1.0
  N  N50  1  0.11057000  0.68700000  0.33391000  1.0
  N  N51  1  0.88943000  0.31300000  0.66609000  1.0
  N  N52  1  0.28845000  0.66057000  0.04255000  1.0
  N  N53  1  0.71155000  0.33943000  0.95745000  1.0
  N  N54  1  0.44636000  0.67329000  0.05528000  1.0
  N  N55  1  0.55364000  0.32671000  0.94472000  1.0
  N  N56  1  0.58443000  0.68406000  0.05024000  1.0
  N  N57  1  0.41557000  0.31594000  0.94976000  1.0
  N  N58  1  0.91888000  0.75018000  0.62324000  1.0
  N  N59  1  0.08112000  0.24982000  0.37676000  1.0
  N  N60  1  0.74538000  0.92931000  0.88765000  1.0
  N  N61  1  0.25462000  0.07069000  0.11235000  1.0
  N  N62  1  0.58964000  0.93966000  0.86814000  1.0
  N  N63  1  0.41036000  0.06034000  0.13186000  1.0
  N  N64  1  0.45283000  0.95861000  0.86561000  1.0
  N  N65  1  0.54717000  0.04139000  0.13439000  1.0
