# generated using pymatgen
data_SmH4C6N2O7
_symmetry_space_group_name_H-M   'P 1'
_cell_length_a   6.76392000
_cell_length_b   11.37170000
_cell_length_c   13.27610000
_cell_angle_alpha   73.81000000
_cell_angle_beta   89.99620000
_cell_angle_gamma   72.71200000
_symmetry_Int_Tables_number   1
_chemical_formula_structural   SmH4C6N2O7
_chemical_formula_sum   'Sm4 H16 C24 N8 O28'
_cell_volume   932.53644795
_cell_formula_units_Z   4
loop_
 _symmetry_equiv_pos_site_id
 _symmetry_equiv_pos_as_xyz
  1  'x, y, z'
loop_
 _atom_site_type_symbol
 _atom_site_label
 _atom_site_symmetry_multiplicity
 _atom_site_fract_x
 _atom_site_fract_y
 _atom_site_fract_z
 _atom_site_occupancy
  Sm  Sm0  1  0.22318000  0.70134000  0.11813000  1.0
  Sm  Sm1  1  0.92415000  0.29873000  0.38191000  1.0
  Sm  Sm2  1  0.77682000  0.29867000  0.88186000  1.0
  Sm  Sm3  1  0.07585000  0.70127000  0.61810000  1.0
  H  H4  1  0.63183000  0.87355000  0.19072000  1.0
  H  H5  1  0.50501000  0.12630000  0.30920000  1.0
  H  H6  1  0.36817000  0.12645000  0.80928000  1.0
  H  H7  1  0.49498000  0.87370000  0.69080000  1.0
  H  H8  1  0.74733000  0.83681000  0.38430000  1.0
  H  H9  1  0.58369000  0.16304000  0.11560000  1.0
  H  H10  1  0.25266000  0.16319000  0.61571000  1.0
  H  H11  1  0.41630000  0.83697000  0.88440000  1.0
  H  H12  1  0.52276000  0.43448000  0.17628000  1.0
  H  H13  1  0.95745000  0.56556000  0.32370000  1.0
  H  H14  1  0.47724000  0.56552000  0.82373000  1.0
  H  H15  1  0.04255000  0.43443000  0.67630000  1.0
  H  H16  1  0.39439000  0.43562000  0.27122000  1.0
  H  H17  1  0.83033000  0.56432000  0.22876000  1.0
  H  H18  1  0.60561000  0.56438000  0.72878000  1.0
  H  H19  1  0.16967000  0.43568000  0.77124000  1.0
  C  C20  1  0.56087000  0.82750000  0.25744000  1.0
  C  C21  1  0.38799000  0.17238000  0.24250000  1.0
  C  C22  1  0.43913000  0.17250000  0.74256000  1.0
  C  C23  1  0.61200000  0.82763000  0.75751000  1.0
  C  C24  1  0.36997000  0.72906000  0.35730000  1.0
  C  C25  1  0.09876000  0.27093000  0.14268000  1.0
  C  C26  1  0.63002000  0.27095000  0.64270000  1.0
  C  C27  1  0.90124000  0.72907000  0.85732000  1.0
  C  C28  1  0.51308000  0.74477000  0.42423000  1.0
  C  C29  1  0.25749000  0.25519000  0.07572000  1.0
  C  C30  1  0.48690000  0.25524000  0.57577000  1.0
  C  C31  1  0.74250000  0.74481000  0.92428000  1.0
  C  C32  1  0.20931000  0.66304000  0.37834000  1.0
  C  C33  1  0.87212000  0.33691000  0.12168000  1.0
  C  C34  1  0.79068000  0.33696000  0.62165000  1.0
  C  C35  1  0.12787000  0.66309000  0.87833000  1.0
  C  C36  1  0.57201000  0.69473000  0.53928000  1.0
  C  C37  1  0.26634000  0.30537000  0.96068000  1.0
  C  C38  1  0.42798000  0.30527000  0.46072000  1.0
  C  C39  1  0.73366000  0.69463000  0.03932000  1.0
  C  C40  1  0.92829000  0.00332000  0.04573000  1.0
  C  C41  1  0.93182000  0.99661000  0.45419000  1.0
  C  C42  1  0.07174000  0.99669000  0.95425000  1.0
  C  C43  1  0.06816000  0.00340000  0.54580000  1.0
  N  N44  1  0.40386000  0.77994000  0.25383000  1.0
  N  N45  1  0.18348000  0.22000000  0.24616000  1.0
  N  N46  1  0.59614000  0.22006000  0.74617000  1.0
  N  N47  1  0.81652000  0.78000000  0.75384000  1.0
  N  N48  1  0.63015000  0.80783000  0.35813000  1.0
  N  N49  1  0.43760000  0.19210000  0.14179000  1.0
  N  N50  1  0.36985000  0.19217000  0.64187000  1.0
  N  N51  1  0.56240000  0.80790000  0.85821000  1.0
  O  O52  1  0.75306000  0.68772000  0.57053000  1.0
  O  O53  1  0.44030000  0.31251000  0.92938000  1.0
  O  O54  1  0.24693000  0.31228000  0.42947000  1.0
  O  O55  1  0.55971000  0.68750000  0.07062000  1.0
  O  O56  1  0.44412000  0.65933000  0.60188000  1.0
  O  O57  1  0.10301000  0.34082000  0.89812000  1.0
  O  O58  1  0.55588000  0.34066000  0.39812000  1.0
  O  O59  1  0.89699000  0.65919000  0.10188000  1.0
  O  O60  1  0.15379000  0.62594000  0.46918000  1.0
  O  O61  1  0.77941000  0.37377000  0.03090000  1.0
  O  O62  1  0.84621000  0.37405000  0.53083000  1.0
  O  O63  1  0.22059000  0.62623000  0.96910000  1.0
  O  O64  1  0.13104000  0.64627000  0.29724000  1.0
  O  O65  1  0.77722000  0.35385000  0.20278000  1.0
  O  O66  1  0.86896000  0.35373000  0.70276000  1.0
  O  O67  1  0.22278000  0.64615000  0.79723000  1.0
  O  O68  1  0.37947000  0.47542000  0.19407000  1.0
  O  O69  1  0.85510000  0.52459000  0.30593000  1.0
  O  O70  1  0.62053000  0.52458000  0.80594000  1.0
  O  O71  1  0.14490000  0.47541000  0.69407000  1.0
  O  O72  1  0.79880000  0.11319000  0.03792000  1.0
  O  O73  1  0.91312000  0.88655000  0.46178000  1.0
  O  O74  1  0.20121000  0.88682000  0.96206000  1.0
  O  O75  1  0.08688000  0.11343000  0.53822000  1.0
  O  O76  1  0.95015000  0.90104000  0.11906000  1.0
  O  O77  1  0.85085000  0.09895000  0.38104000  1.0
  O  O78  1  0.04988000  0.09898000  0.88093000  1.0
  O  O79  1  0.14916000  0.90104000  0.61897000  1.0
