# generated using pymatgen
data_YH6(C2O3)3
_symmetry_space_group_name_H-M   'P 1'
_cell_length_a   6.53808000
_cell_length_b   10.23790000
_cell_length_c   13.38020000
_cell_angle_alpha   89.99990000
_cell_angle_beta   89.99950000
_cell_angle_gamma   90.00000000
_symmetry_Int_Tables_number   1
_chemical_formula_structural   YH6(C2O3)3
_chemical_formula_sum   'Y4 H24 C24 O36'
_cell_volume   895.61986673
_cell_formula_units_Z   4
loop_
 _symmetry_equiv_pos_site_id
 _symmetry_equiv_pos_as_xyz
  1  'x, y, z'
loop_
 _atom_site_type_symbol
 _atom_site_label
 _atom_site_symmetry_multiplicity
 _atom_site_fract_x
 _atom_site_fract_y
 _atom_site_fract_z
 _atom_site_occupancy
  Y  Y0  1  0.13327000  0.50000000  0.30032000  1.0
  Y  Y1  1  0.86673000  0.50000000  0.69968000  1.0
  Y  Y2  1  0.63327000  0.00000000  0.19968000  1.0
  Y  Y3  1  0.36673000  0.00000000  0.80032000  1.0
  H  H4  1  0.21569000  0.27445000  0.15403000  1.0
  H  H5  1  0.78431000  0.27445000  0.84597000  1.0
  H  H6  1  0.71569000  0.22555000  0.34597000  1.0
  H  H7  1  0.28431000  0.22555000  0.65403000  1.0
  H  H8  1  0.78431000  0.72555000  0.84597000  1.0
  H  H9  1  0.21569000  0.72555000  0.15403000  1.0
  H  H10  1  0.28431000  0.77445000  0.65403000  1.0
  H  H11  1  0.71569000  0.77445000  0.34597000  1.0
  H  H12  1  0.97940000  0.31161000  0.15052000  1.0
  H  H13  1  0.02060000  0.31161000  0.84949000  1.0
  H  H14  1  0.47940000  0.18839000  0.34948000  1.0
  H  H15  1  0.52060000  0.18839000  0.65052000  1.0
  H  H16  1  0.02060000  0.68839000  0.84948000  1.0
  H  H17  1  0.97940000  0.68839000  0.15052000  1.0
  H  H18  1  0.52060000  0.81161000  0.65051000  1.0
  H  H19  1  0.47940000  0.81161000  0.34949000  1.0
  H  H20  1  0.22560000  0.42428000  0.51517000  1.0
  H  H21  1  0.77439000  0.42428000  0.48483000  1.0
  H  H22  1  0.72560000  0.07572000  0.98483000  1.0
  H  H23  1  0.27439000  0.07572000  0.01517000  1.0
  H  H24  1  0.77440000  0.57573000  0.48483000  1.0
  H  H25  1  0.22561000  0.57572000  0.51517000  1.0
  H  H26  1  0.27439000  0.92427000  0.01517000  1.0
  H  H27  1  0.72560000  0.92428000  0.98483000  1.0
  C  C28  1  0.07625000  0.75474000  0.39870000  1.0
  C  C29  1  0.92375000  0.75474000  0.60130000  1.0
  C  C30  1  0.57625000  0.74526000  0.10130000  1.0
  C  C31  1  0.42375000  0.74526000  0.89870000  1.0
  C  C32  1  0.92375000  0.24526000  0.60130000  1.0
  C  C33  1  0.07625000  0.24526000  0.39870000  1.0
  C  C34  1  0.42375000  0.25474000  0.89870000  1.0
  C  C35  1  0.57625000  0.25474000  0.10130000  1.0
  C  C36  1  0.03856000  0.88183000  0.45107000  1.0
  C  C37  1  0.96144000  0.88183000  0.54893000  1.0
  C  C38  1  0.53856000  0.61817000  0.04893000  1.0
  C  C39  1  0.46144000  0.61817000  0.95107000  1.0
  C  C40  1  0.96144000  0.11818000  0.54893000  1.0
  C  C41  1  0.03856000  0.11817000  0.45107000  1.0
  C  C42  1  0.46144000  0.38183000  0.95107000  1.0
  C  C43  1  0.53856000  0.38183000  0.04893000  1.0
  C  C44  1  0.07522000  0.00000000  0.40154000  1.0
  C  C45  1  0.92478000  0.00000000  0.59847000  1.0
  C  C46  1  0.57522000  0.50000000  0.09846000  1.0
  C  C47  1  0.42478000  0.50000000  0.90154000  1.0
  C  C48  1  0.12547000  0.00000000  0.29120000  1.0
  C  C49  1  0.87454000  0.00000000  0.70880000  1.0
  C  C50  1  0.62546000  0.50000000  0.20880000  1.0
  C  C51  1  0.37455000  0.50000000  0.79120000  1.0
  O  O52  1  0.25193000  0.72740000  0.36517000  1.0
  O  O53  1  0.74808000  0.72740000  0.63483000  1.0
  O  O54  1  0.75193000  0.77260000  0.13483000  1.0
  O  O55  1  0.24807000  0.77260000  0.86517000  1.0
  O  O56  1  0.74807000  0.27260000  0.63483000  1.0
  O  O57  1  0.25192000  0.27260000  0.36517000  1.0
  O  O58  1  0.24807000  0.22740000  0.86517000  1.0
  O  O59  1  0.75193000  0.22740000  0.13483000  1.0
  O  O60  1  0.92674000  0.67394000  0.38870000  1.0
  O  O61  1  0.07326000  0.67394000  0.61130000  1.0
  O  O62  1  0.42674000  0.82606000  0.11130000  1.0
  O  O63  1  0.57325000  0.82606000  0.88870000  1.0
  O  O64  1  0.07326000  0.32606000  0.61130000  1.0
  O  O65  1  0.92674000  0.32606000  0.38870000  1.0
  O  O66  1  0.57326000  0.17394000  0.88870000  1.0
  O  O67  1  0.42674000  0.17394000  0.11130000  1.0
  O  O68  1  0.97277000  0.00000000  0.23248000  1.0
  O  O69  1  0.02723000  0.00000000  0.76752000  1.0
  O  O70  1  0.47277000  0.50000000  0.26752000  1.0
  O  O71  1  0.52723000  0.50000000  0.73248000  1.0
  O  O72  1  0.30867000  0.00000000  0.26409000  1.0
  O  O73  1  0.69132000  0.00000000  0.73591000  1.0
  O  O74  1  0.80868000  0.50000000  0.23591000  1.0
  O  O75  1  0.19132000  0.50000000  0.76409000  1.0
  O  O76  1  0.11684000  0.34444000  0.16978000  1.0
  O  O77  1  0.88316000  0.34444000  0.83022000  1.0
  O  O78  1  0.61685000  0.15556000  0.33022000  1.0
  O  O79  1  0.38315000  0.15556000  0.66978000  1.0
  O  O80  1  0.88315000  0.65556000  0.83022000  1.0
  O  O81  1  0.11685000  0.65556000  0.16978000  1.0
  O  O82  1  0.38316000  0.84444000  0.66978000  1.0
  O  O83  1  0.61684000  0.84444000  0.33022000  1.0
  O  O84  1  0.24995000  0.50000000  0.47173000  1.0
  O  O85  1  0.75005000  0.50000000  0.52827000  1.0
  O  O86  1  0.74995000  0.00000000  0.02827000  1.0
  O  O87  1  0.25005000  0.00000000  0.97173000  1.0
