# generated using pymatgen
data_TbP2H10C6N3O11
_symmetry_space_group_name_H-M   'P 1'
_cell_length_a   8.67215000
_cell_length_b   8.67215000
_cell_length_c   9.92675000
_cell_angle_alpha   76.60660000
_cell_angle_beta   76.60650000
_cell_angle_gamma   76.52620000
_symmetry_Int_Tables_number   1
_chemical_formula_structural   TbP2H10C6N3O11
_chemical_formula_sum   'Tb2 P4 H20 C12 N6 O22'
_cell_volume   693.69322731
_cell_formula_units_Z   2
loop_
 _symmetry_equiv_pos_site_id
 _symmetry_equiv_pos_as_xyz
  1  'x, y, z'
loop_
 _atom_site_type_symbol
 _atom_site_label
 _atom_site_symmetry_multiplicity
 _atom_site_fract_x
 _atom_site_fract_y
 _atom_site_fract_z
 _atom_site_occupancy
  Tb  Tb0  1  0.86427000  0.13573000  0.25000000  1.0
  Tb  Tb1  1  0.13573000  0.86427000  0.75000000  1.0
  P  P2  1  0.94625000  0.74815000  0.11845000  1.0
  P  P3  1  0.25185000  0.05375000  0.38155000  1.0
  P  P4  1  0.05375000  0.25185000  0.88155000  1.0
  P  P5  1  0.74815000  0.94625000  0.61845000  1.0
  H  H6  1  0.74836000  0.61658000  0.14477000  1.0
  H  H7  1  0.38342000  0.25164000  0.35523000  1.0
  H  H8  1  0.25164000  0.38342000  0.85523000  1.0
  H  H9  1  0.61658000  0.74836000  0.64477000  1.0
  H  H10  1  0.06643000  0.46358000  0.15613000  1.0
  H  H11  1  0.53642000  0.93357000  0.34387000  1.0
  H  H12  1  0.93357000  0.53642000  0.84387000  1.0
  H  H13  1  0.46358000  0.06643000  0.65613000  1.0
  H  H14  1  0.20185000  0.58359000  0.16682000  1.0
  H  H15  1  0.41641000  0.79815000  0.33318000  1.0
  H  H16  1  0.79815000  0.41641000  0.83318000  1.0
  H  H17  1  0.58359000  0.20185000  0.66682000  1.0
  H  H18  1  0.77399000  0.39872000  0.60278000  1.0
  H  H19  1  0.60128000  0.22601000  0.89722000  1.0
  H  H20  1  0.22601000  0.60128000  0.39722000  1.0
  H  H21  1  0.39872000  0.77399000  0.10278000  1.0
  H  H22  1  0.95144000  0.24707000  0.60447000  1.0
  H  H23  1  0.75293000  0.04856000  0.89553000  1.0
  H  H24  1  0.04856000  0.75293000  0.39553000  1.0
  H  H25  1  0.24707000  0.95144000  0.10447000  1.0
  C  C26  1  0.07570000  0.56742000  0.19728000  1.0
  C  C27  1  0.43258000  0.92430000  0.30272000  1.0
  C  C28  1  0.92430000  0.43258000  0.80272000  1.0
  C  C29  1  0.56742000  0.07570000  0.69728000  1.0
  C  C30  1  0.94676000  0.41805000  0.41525000  1.0
  C  C31  1  0.58195000  0.05324000  0.08475000  1.0
  C  C32  1  0.05324000  0.58195000  0.58475000  1.0
  C  C33  1  0.41805000  0.94676000  0.91525000  1.0
  C  C34  1  0.90661000  0.37741000  0.57287000  1.0
  C  C35  1  0.62259000  0.09339000  0.92713000  1.0
  C  C36  1  0.09339000  0.62259000  0.42713000  1.0
  C  C37  1  0.37741000  0.90661000  0.07287000  1.0
  N  N38  1  0.03206000  0.53276000  0.35087000  1.0
  N  N39  1  0.46724000  0.96794000  0.14913000  1.0
  N  N40  1  0.96794000  0.46724000  0.64913000  1.0
  N  N41  1  0.53276000  0.03206000  0.85087000  1.0
  N  N42  1  0.57219000  0.42781000  0.25000000  1.0
  N  N43  1  0.42781000  0.57219000  0.75000000  1.0
  O  O44  1  0.95487000  0.88997000  0.17871000  1.0
  O  O45  1  0.11003000  0.04513000  0.32129000  1.0
  O  O46  1  0.04513000  0.11003000  0.82129000  1.0
  O  O47  1  0.88997000  0.95487000  0.67871000  1.0
  O  O48  1  0.99364000  0.76060000  0.95997000  1.0
  O  O49  1  0.23939000  0.00636000  0.54003000  1.0
  O  O50  1  0.00636000  0.23940000  0.04003000  1.0
  O  O51  1  0.76061000  0.99364000  0.45997000  1.0
  O  O52  1  0.76700000  0.71341000  0.17209000  1.0
  O  O53  1  0.28659000  0.23301000  0.32790000  1.0
  O  O54  1  0.23301000  0.28659000  0.82791000  1.0
  O  O55  1  0.71341000  0.76699000  0.67209000  1.0
  O  O56  1  0.89551000  0.34041000  0.34837000  1.0
  O  O57  1  0.65959000  0.10449000  0.15163000  1.0
  O  O58  1  0.10449000  0.65960000  0.65163000  1.0
  O  O59  1  0.34041000  0.89551000  0.84837000  1.0
  O  O60  1  0.69796000  0.42943000  0.15249000  1.0
  O  O61  1  0.57057000  0.30205000  0.34751000  1.0
  O  O62  1  0.30204000  0.57057000  0.84751000  1.0
  O  O63  1  0.42943000  0.69796000  0.65249000  1.0
  O  O64  1  0.45619000  0.54381000  0.25000000  1.0
  O  O65  1  0.54381000  0.45619000  0.75000000  1.0
