# generated using pymatgen
data_ZnPH14C14NO5
_symmetry_space_group_name_H-M   'P 1'
_cell_length_a   9.71797000
_cell_length_b   10.01550000
_cell_length_c   19.17306076
_cell_angle_alpha   74.87514867
_cell_angle_beta   81.01917887
_cell_angle_gamma   89.99740000
_symmetry_Int_Tables_number   1
_chemical_formula_structural   ZnPH14C14NO5
_chemical_formula_sum   'Zn4 P4 H56 C56 N4 O20'
_cell_volume   1777.77157475
_cell_formula_units_Z   4
loop_
 _symmetry_equiv_pos_site_id
 _symmetry_equiv_pos_as_xyz
  1  'x, y, z'
loop_
 _atom_site_type_symbol
 _atom_site_label
 _atom_site_symmetry_multiplicity
 _atom_site_fract_x
 _atom_site_fract_y
 _atom_site_fract_z
 _atom_site_occupancy
  Zn  Zn0  1  0.55885000  0.68046000  0.52785000  1.0
  Zn  Zn1  1  0.94127000  0.20845000  0.47191000  1.0
  Zn  Zn2  1  0.44115000  0.31955000  0.47215000  1.0
  Zn  Zn3  1  0.05873000  0.79155000  0.52809000  1.0
  P  P4  1  0.29445000  0.60873000  0.46500000  1.0
  P  P5  1  0.20540000  0.07378000  0.53490000  1.0
  P  P6  1  0.70555000  0.39127000  0.53500000  1.0
  P  P7  1  0.79460000  0.92623000  0.46510000  1.0
  H  H8  1  0.20780000  0.59103000  0.28459000  1.0
  H  H9  1  0.29209000  0.87561000  0.71524000  1.0
  H  H10  1  0.79220000  0.40896000  0.71542000  1.0
  H  H11  1  0.70791000  0.12440000  0.28476000  1.0
  H  H12  1  0.33917000  0.74520000  0.33720000  1.0
  H  H13  1  0.16071000  0.08252000  0.66271000  1.0
  H  H14  1  0.66083000  0.25480000  0.66280000  1.0
  H  H15  1  0.83929000  0.91748000  0.33729000  1.0
  H  H16  1  0.39536000  0.57272000  0.34655000  1.0
  H  H17  1  0.10444000  0.91940000  0.65336000  1.0
  H  H18  1  0.60464000  0.42728000  0.65345000  1.0
  H  H19  1  0.89556000  0.08060000  0.34664000  1.0
  H  H20  1  0.05339000  0.46597000  0.42895000  1.0
  H  H21  1  0.44650000  0.89504000  0.57086000  1.0
  H  H22  1  0.94661000  0.53404000  0.57105000  1.0
  H  H23  1  0.55350000  0.10496000  0.42914000  1.0
  H  H24  1  0.20873000  0.39168000  0.39618000  1.0
  H  H25  1  0.29119000  0.78799000  0.60354000  1.0
  H  H26  1  0.79127000  0.60833000  0.60382000  1.0
  H  H27  1  0.70881000  0.21201000  0.39646000  1.0
  H  H28  1  0.98537000  0.66389000  0.31627000  1.0
  H  H29  1  0.51444000  0.98027000  0.68360000  1.0
  H  H30  1  0.01463000  0.33611000  0.68373000  1.0
  H  H31  1  0.48557000  0.01973000  0.31640000  1.0
  H  H32  1  0.03522000  0.70425000  0.39423000  1.0
  H  H33  1  0.46453000  0.09862000  0.60569000  1.0
  H  H34  1  0.96478000  0.29575000  0.60577000  1.0
  H  H35  1  0.53547000  0.90139000  0.39430000  1.0
  H  H36  1  0.16924000  0.91153000  0.38420000  1.0
  H  H37  1  0.33027000  0.29574000  0.61583000  1.0
  H  H38  1  0.83075000  0.08847000  0.61580000  1.0
  H  H39  1  0.66973000  0.70427000  0.38416000  1.0
  H  H40  1  0.24486000  0.15046000  0.31437000  1.0
  H  H41  1  0.25487000  0.46480000  0.68582000  1.0
  H  H42  1  0.75514000  0.84954000  0.68563000  1.0
  H  H43  1  0.74513000  0.53520000  0.31418000  1.0
  H  H44  1  0.23563000  0.22883000  0.18137000  1.0
  H  H45  1  0.26453000  0.41013000  0.81875000  1.0
  H  H46  1  0.76436000  0.77118000  0.81862000  1.0
  H  H47  1  0.73547000  0.58987000  0.18125000  1.0
  H  H48  1  0.18716000  0.17914000  0.06893000  1.0
  H  H49  1  0.31314000  0.24805000  0.93112000  1.0
  H  H50  1  0.81284000  0.82086000  0.93107000  1.0
  H  H51  1  0.68685000  0.75194000  0.06888000  1.0
  H  H52  1  0.11208000  0.01483000  0.00392000  1.0
  H  H53  1  0.38838000  0.01880000  0.99602000  1.0
  H  H54  1  0.88792000  0.98516000  0.99608000  1.0
  H  H55  1  0.61161000  0.98120000  0.00398000  1.0
  H  H56  1  0.03755000  0.77186000  0.07260000  1.0
  H  H57  1  0.46288000  0.84454000  0.92721000  1.0
  H  H58  1  0.96245000  0.22812000  0.92741000  1.0
  H  H59  1  0.53711000  0.15546000  0.07279000  1.0
  H  H60  1  0.04205000  0.69040000  0.20417000  1.0
  H  H61  1  0.45790000  0.89464000  0.79569000  1.0
  H  H62  1  0.95795000  0.30959000  0.79584000  1.0
  H  H63  1  0.54210000  0.10537000  0.20430000  1.0
  C  C64  1  0.31176000  0.63605000  0.36445000  1.0
  C  C65  1  0.18805000  0.00058000  0.63545000  1.0
  C  C66  1  0.68824000  0.36394000  0.63556000  1.0
  C  C67  1  0.81195000  0.99941000  0.36456000  1.0
  C  C68  1  0.04875000  0.39359000  0.33042000  1.0
  C  C69  1  0.45110000  0.72413000  0.66935000  1.0
  C  C70  1  0.95124000  0.60642000  0.66958000  1.0
  C  C71  1  0.54890000  0.27587000  0.33065000  1.0
  C  C72  1  0.12283000  0.45723000  0.37959000  1.0
  C  C73  1  0.37703000  0.83693000  0.62019000  1.0
  C  C74  1  0.87717000  0.54277000  0.62041000  1.0
  C  C75  1  0.62297000  0.16307000  0.37981000  1.0
  C  C76  1  0.07035000  0.70514000  0.33709000  1.0
  C  C77  1  0.42941000  0.04232000  0.66282000  1.0
  C  C78  1  0.92965000  0.29486000  0.66291000  1.0
  C  C79  1  0.57060000  0.95769000  0.33718000  1.0
  C  C80  1  0.12050000  0.84767000  0.29172000  1.0
  C  C81  1  0.37931000  0.13947000  0.70825000  1.0
  C  C82  1  0.87950000  0.15233000  0.70828000  1.0
  C  C83  1  0.62069000  0.86054000  0.29175000  1.0
  C  C84  1  0.16701000  0.94192000  0.32553000  1.0
  C  C85  1  0.33263000  0.26747000  0.67450000  1.0
  C  C86  1  0.83298000  0.05809000  0.67446000  1.0
  C  C87  1  0.66737000  0.73253000  0.32550000  1.0
  C  C88  1  0.20998000  0.07892000  0.28591000  1.0
  C  C89  1  0.28989000  0.36483000  0.71420000  1.0
  C  C90  1  0.79002000  0.92108000  0.71409000  1.0
  C  C91  1  0.71011000  0.63517000  0.28580000  1.0
  C  C92  1  0.20503000  0.12225000  0.21204000  1.0
  C  C93  1  0.29510000  0.33426000  0.78804000  1.0
  C  C94  1  0.79496000  0.87775000  0.78796000  1.0
  C  C95  1  0.70490000  0.66574000  0.21196000  1.0
  C  C96  1  0.15920000  0.02961000  0.17483000  1.0
  C  C97  1  0.34099000  0.20443000  0.82518000  1.0
  C  C98  1  0.84080000  0.97039000  0.82517000  1.0
  C  C99  1  0.65900000  0.79556000  0.17482000  1.0
  C  C100  1  0.15481000  0.07237000  0.09866000  1.0
  C  C101  1  0.34546000  0.17104000  0.90135000  1.0
  C  C102  1  0.84519000  0.92762000  0.90134000  1.0
  C  C103  1  0.65453000  0.82895000  0.09865000  1.0
  C  C104  1  0.11211000  0.98132000  0.06267000  1.0
  C  C105  1  0.38821000  0.04401000  0.93729000  1.0
  C  C106  1  0.88788000  0.01868000  0.93733000  1.0
  C  C107  1  0.61178000  0.95599000  0.06271000  1.0
  C  C108  1  0.07112000  0.84327000  0.10160000  1.0
  C  C109  1  0.42917000  0.94492000  0.89831000  1.0
  C  C110  1  0.92889000  0.15672000  0.89840000  1.0
  C  C111  1  0.57083000  0.05507000  0.10169000  1.0
  C  C112  1  0.07335000  0.79789000  0.17583000  1.0
  C  C113  1  0.42678000  0.97378000  0.82409000  1.0
  C  C114  1  0.92666000  0.20211000  0.82417000  1.0
  C  C115  1  0.57323000  0.02622000  0.17591000  1.0
  C  C116  1  0.11703000  0.88906000  0.21469000  1.0
  C  C117  1  0.38305000  0.10379000  0.78525000  1.0
  C  C118  1  0.88297000  0.11093000  0.78532000  1.0
  C  C119  1  0.61695000  0.89622000  0.21474000  1.0
  N  N120  1  0.18298000  0.59827000  0.33815000  1.0
  N  N121  1  0.31685000  0.93650000  0.66170000  1.0
  N  N122  1  0.81703000  0.40173000  0.66185000  1.0
  N  N123  1  0.68315000  0.06351000  0.33830000  1.0
  O  O124  1  0.40275000  0.71158000  0.47386000  1.0
  O  O125  1  0.09726000  0.18565000  0.52599000  1.0
  O  O126  1  0.59725000  0.28842000  0.52614000  1.0
  O  O127  1  0.90274000  0.81435000  0.47401000  1.0
  O  O128  1  0.32181000  0.45708000  0.49926000  1.0
  O  O129  1  0.17794000  0.95636000  0.50065000  1.0
  O  O130  1  0.67819000  0.54292000  0.50074000  1.0
  O  O131  1  0.82207000  0.04364000  0.49935000  1.0
  O  O132  1  0.14456000  0.63956000  0.49251000  1.0
  O  O133  1  0.35534000  0.13199000  0.50744000  1.0
  O  O134  1  0.85544000  0.36044000  0.50749000  1.0
  O  O135  1  0.64466000  0.86801000  0.49256000  1.0
  O  O136  1  0.97524000  0.28060000  0.36358000  1.0
  O  O137  1  0.52462000  0.64427000  0.63618000  1.0
  O  O138  1  0.02476000  0.71940000  0.63642000  1.0
  O  O139  1  0.47538000  0.35572000  0.36382000  1.0
  O  O140  1  0.06655000  0.45023000  0.26356000  1.0
  O  O141  1  0.43319000  0.71392000  0.73620000  1.0
  O  O142  1  0.93345000  0.54978000  0.73644000  1.0
  O  O143  1  0.56680000  0.28609000  0.26379000  1.0
