# generated using pymatgen
data_NaPH8C8O3
_symmetry_space_group_name_H-M   'P 1'
_cell_length_a   5.90682000
_cell_length_b   7.65015000
_cell_length_c   18.73550000
_cell_angle_alpha   87.50850000
_cell_angle_beta   88.44120000
_cell_angle_gamma   89.83200000
_symmetry_Int_Tables_number   1
_chemical_formula_structural   NaPH8C8O3
_chemical_formula_sum   'Na4 P4 H32 C32 O12'
_cell_volume   845.50624695
_cell_formula_units_Z   4
loop_
 _symmetry_equiv_pos_site_id
 _symmetry_equiv_pos_as_xyz
  1  'x, y, z'
loop_
 _atom_site_type_symbol
 _atom_site_label
 _atom_site_symmetry_multiplicity
 _atom_site_fract_x
 _atom_site_fract_y
 _atom_site_fract_z
 _atom_site_occupancy
  Na  Na0  1  0.87979000  0.16316000  0.52700000  1.0
  Na  Na1  1  0.12027000  0.83680000  0.47301000  1.0
  Na  Na2  1  0.61915000  0.66968000  0.47319000  1.0
  Na  Na3  1  0.38087000  0.33025000  0.52682000  1.0
  P  P4  1  0.37335000  0.92706000  0.60594000  1.0
  P  P5  1  0.62668000  0.07286000  0.39406000  1.0
  P  P6  1  0.12310000  0.44783000  0.39558000  1.0
  P  P7  1  0.87691000  0.55212000  0.60444000  1.0
  H  H8  1  0.73680000  0.87922000  0.59711000  1.0
  H  H9  1  0.26325000  0.12073000  0.40288000  1.0
  H  H10  1  0.37393000  0.81304000  0.73170000  1.0
  H  H11  1  0.62610000  0.18698000  0.26833000  1.0
  H  H12  1  0.99266000  0.06262000  0.68210000  1.0
  H  H13  1  0.00739000  0.93735000  0.31789000  1.0
  H  H14  1  0.24769000  0.81283000  0.84255000  1.0
  H  H15  1  0.75231000  0.18719000  0.15746000  1.0
  H  H16  1  0.06350000  0.80287000  0.96231000  1.0
  H  H17  1  0.93647000  0.19721000  0.03770000  1.0
  H  H18  1  0.69116000  0.94711000  0.98252000  1.0
  H  H19  1  0.30882000  0.05297000  0.01746000  1.0
  H  H20  1  0.50102000  0.10318000  0.87990000  1.0
  H  H21  1  0.49900000  0.89690000  0.12007000  1.0
  H  H22  1  0.68658000  0.11275000  0.75944000  1.0
  H  H23  1  0.31347000  0.88727000  0.24053000  1.0
  H  H24  1  0.76054000  0.39754000  0.40401000  1.0
  H  H25  1  0.23947000  0.60238000  0.59600000  1.0
  H  H26  1  0.12946000  0.36078000  0.26975000  1.0
  H  H27  1  0.87057000  0.63919000  0.73025000  1.0
  H  H28  1  0.49363000  0.61129000  0.32089000  1.0
  H  H29  1  0.50634000  0.38873000  0.67911000  1.0
  H  H30  1  0.27028000  0.37490000  0.16062000  1.0
  H  H31  1  0.72967000  0.62513000  0.83939000  1.0
  H  H32  1  0.47345000  0.38118000  0.04406000  1.0
  H  H33  1  0.52648000  0.61884000  0.95595000  1.0
  H  H34  1  0.83421000  0.54655000  0.02553000  1.0
  H  H35  1  0.16573000  0.45345000  0.97448000  1.0
  H  H36  1  0.99841000  0.69945000  0.12729000  1.0
  H  H37  1  0.00152000  0.30059000  0.87270000  1.0
  H  H38  1  0.79739000  0.68792000  0.24567000  1.0
  H  H39  1  0.20257000  0.31213000  0.75433000  1.0
  C  C40  1  0.27516000  0.90051000  0.69684000  1.0
  C  C41  1  0.72489000  0.09946000  0.30316000  1.0
  C  C42  1  0.08443000  0.97905000  0.72036000  1.0
  C  C43  1  0.91561000  0.02095000  0.27963000  1.0
  C  C44  1  0.98051000  0.96487000  0.79219000  1.0
  C  C45  1  0.01949000  0.03514000  0.20780000  1.0
  C  C46  1  0.08410000  0.87651000  0.85022000  1.0
  C  C47  1  0.91593000  0.12354000  0.14978000  1.0
  C  C48  1  0.98004000  0.87059000  0.91784000  1.0
  C  C49  1  0.01993000  0.12944000  0.08215000  1.0
  C  C50  1  0.77028000  0.95200000  0.92915000  1.0
  C  C51  1  0.22968000  0.04808000  0.07083000  1.0
  C  C52  1  0.66427000  0.03889000  0.87200000  1.0
  C  C53  1  0.33571000  0.96114000  0.12798000  1.0
  C  C54  1  0.76860000  0.04494000  0.80418000  1.0
  C  C55  1  0.23145000  0.95511000  0.19579000  1.0
  C  C56  1  0.22213000  0.44398000  0.30485000  1.0
  C  C57  1  0.77788000  0.55601000  0.69515000  1.0
  C  C58  1  0.40918000  0.53255000  0.28226000  1.0
  C  C59  1  0.59082000  0.46747000  0.71775000  1.0
  C  C60  1  0.51919000  0.53317000  0.21150000  1.0
  C  C61  1  0.48077000  0.46684000  0.78850000  1.0
  C  C62  1  0.42933000  0.44657000  0.15385000  1.0
  C  C63  1  0.57063000  0.55346000  0.84616000  1.0
  C  C64  1  0.54309000  0.45116000  0.08782000  1.0
  C  C65  1  0.45687000  0.54886000  0.91219000  1.0
  C  C66  1  0.74704000  0.54290000  0.07766000  1.0
  C  C67  1  0.25290000  0.45713000  0.92234000  1.0
  C  C68  1  0.83904000  0.62844000  0.13442000  1.0
  C  C69  1  0.16090000  0.37159000  0.86557000  1.0
  C  C70  1  0.72607000  0.62270000  0.20084000  1.0
  C  C71  1  0.27388000  0.37734000  0.79916000  1.0
  O  O72  1  0.63197000  0.98771000  0.60860000  1.0
  O  O73  1  0.36807000  0.01223000  0.39140000  1.0
  O  O74  1  0.37686000  0.74879000  0.57130000  1.0
  O  O75  1  0.62319000  0.25114000  0.42872000  1.0
  O  O76  1  0.23412000  0.06543000  0.56665000  1.0
  O  O77  1  0.76592000  0.93448000  0.43335000  1.0
  O  O78  1  0.86442000  0.50887000  0.39313000  1.0
  O  O79  1  0.13560000  0.49107000  0.60689000  1.0
  O  O80  1  0.12273000  0.26063000  0.42872000  1.0
  O  O81  1  0.87735000  0.73931000  0.57129000  1.0
  O  O82  1  0.26165000  0.57615000  0.43570000  1.0
  O  O83  1  0.73837000  0.42380000  0.56431000  1.0
