# generated using pymatgen
data_GaCuH8C8(N2F3)2
_symmetry_space_group_name_H-M   'P 1'
_cell_length_a   7.58813000
_cell_length_b   9.78650000
_cell_length_c   9.78653000
_cell_angle_alpha   89.99980000
_cell_angle_beta   90.00010000
_cell_angle_gamma   90.00000000
_symmetry_Int_Tables_number   1
_chemical_formula_structural   GaCuH8C8(N2F3)2
_chemical_formula_sum   'Ga2 Cu2 H16 C16 N8 F12'
_cell_volume   726.75979677
_cell_formula_units_Z   2
loop_
 _symmetry_equiv_pos_site_id
 _symmetry_equiv_pos_as_xyz
  1  'x, y, z'
loop_
 _atom_site_type_symbol
 _atom_site_label
 _atom_site_symmetry_multiplicity
 _atom_site_fract_x
 _atom_site_fract_y
 _atom_site_fract_z
 _atom_site_occupancy
  Ga  Ga0  1  0.50000000  0.25000000  0.25000000  1.0
  Ga  Ga1  1  0.50000000  0.75000000  0.75000000  1.0
  Cu  Cu2  1  0.00000000  0.25000000  0.25000000  1.0
  Cu  Cu3  1  0.00000000  0.75000000  0.75000000  1.0
  H  H4  1  0.25924000  0.14690000  0.03357000  1.0
  H  H5  1  0.25924000  0.35311000  0.46643000  1.0
  H  H6  1  0.25924000  0.46643000  0.14690000  1.0
  H  H7  1  0.25924000  0.03357000  0.35310000  1.0
  H  H8  1  0.74076000  0.35310000  0.03357000  1.0
  H  H9  1  0.74076000  0.14690000  0.46643000  1.0
  H  H10  1  0.74076000  0.03357000  0.14689000  1.0
  H  H11  1  0.74076000  0.46643000  0.35311000  1.0
  H  H12  1  0.74081000  0.85264000  0.96604000  1.0
  H  H13  1  0.74081000  0.64736000  0.53396000  1.0
  H  H14  1  0.74081000  0.53396000  0.85265000  1.0
  H  H15  1  0.74081000  0.96604000  0.64735000  1.0
  H  H16  1  0.25919000  0.64736000  0.96604000  1.0
  H  H17  1  0.25919000  0.85264000  0.53396000  1.0
  H  H18  1  0.25919000  0.96604000  0.85264000  1.0
  H  H19  1  0.25919000  0.53396000  0.64736000  1.0
  C  C20  1  0.14244000  0.08207000  0.01872000  1.0
  C  C21  1  0.14244000  0.41793000  0.48128000  1.0
  C  C22  1  0.14244000  0.48128000  0.08207000  1.0
  C  C23  1  0.14244000  0.01872000  0.41793000  1.0
  C  C24  1  0.85756000  0.41793000  0.01872000  1.0
  C  C25  1  0.85756000  0.08207000  0.48128000  1.0
  C  C26  1  0.85756000  0.01872000  0.08206000  1.0
  C  C27  1  0.85756000  0.48128000  0.41793000  1.0
  C  C28  1  0.85755000  0.91753000  0.98091000  1.0
  C  C29  1  0.85755000  0.58247000  0.51909000  1.0
  C  C30  1  0.85755000  0.51909000  0.91754000  1.0
  C  C31  1  0.85755000  0.98091000  0.58246000  1.0
  C  C32  1  0.14245000  0.58246000  0.98091000  1.0
  C  C33  1  0.14245000  0.91754000  0.51909000  1.0
  C  C34  1  0.14245000  0.98091000  0.91754000  1.0
  C  C35  1  0.14245000  0.51909000  0.58247000  1.0
  N  N36  1  0.00000000  0.09821000  0.09821000  1.0
  N  N37  1  0.00000000  0.40179000  0.40179000  1.0
  N  N38  1  0.00000000  0.40179000  0.09821000  1.0
  N  N39  1  0.00000000  0.09821000  0.40179000  1.0
  N  N40  1  0.00000000  0.90144000  0.90144000  1.0
  N  N41  1  0.00000000  0.59856000  0.59856000  1.0
  N  N42  1  0.00000000  0.59856000  0.90144000  1.0
  N  N43  1  0.00000000  0.90144000  0.59856000  1.0
  F  F44  1  0.24317000  0.25000000  0.25000000  1.0
  F  F45  1  0.75683000  0.25000000  0.25000000  1.0
  F  F46  1  0.75673000  0.75000000  0.75000000  1.0
  F  F47  1  0.24327000  0.75000000  0.75000000  1.0
  F  F48  1  0.50000000  0.44341000  0.25000000  1.0
  F  F49  1  0.50000000  0.05659000  0.25000000  1.0
  F  F50  1  0.50001000  0.25000000  0.44341000  1.0
  F  F51  1  0.50000000  0.25000000  0.05659000  1.0
  F  F52  1  0.49999000  0.55660000  0.75000000  1.0
  F  F53  1  0.49999000  0.94340000  0.75000000  1.0
  F  F54  1  0.50001000  0.75000000  0.55660000  1.0
  F  F55  1  0.50001000  0.75000000  0.94340000  1.0
