# generated using pymatgen
data_CdH32C28(N3O)4
_symmetry_space_group_name_H-M   'P 1'
_cell_length_a   7.16128000
_cell_length_b   9.05992000
_cell_length_c   12.93160000
_cell_angle_alpha   73.72750000
_cell_angle_beta   87.86480000
_cell_angle_gamma   70.51840000
_symmetry_Int_Tables_number   1
_chemical_formula_structural   CdH32C28(N3O)4
_chemical_formula_sum   'Cd1 H32 C28 N12 O4'
_cell_volume   757.82411662
_cell_formula_units_Z   1
loop_
 _symmetry_equiv_pos_site_id
 _symmetry_equiv_pos_as_xyz
  1  'x, y, z'
loop_
 _atom_site_type_symbol
 _atom_site_label
 _atom_site_symmetry_multiplicity
 _atom_site_fract_x
 _atom_site_fract_y
 _atom_site_fract_z
 _atom_site_occupancy
  Cd  Cd0  1  0.50000000  0.50001000  0.00000000  1.0
  H  H1  1  0.63948000  0.44658000  0.24120000  1.0
  H  H2  1  0.36054000  0.55341000  0.75880000  1.0
  H  H3  1  0.57068000  0.32912000  0.43094000  1.0
  H  H4  1  0.42933000  0.67087000  0.56905000  1.0
  H  H5  1  0.02732000  0.31246000  0.30568000  1.0
  H  H6  1  0.97269000  0.68754000  0.69432000  1.0
  H  H7  1  0.11890000  0.43339000  0.12171000  1.0
  H  H8  1  0.88110000  0.56662000  0.87829000  1.0
  H  H9  1  0.43055000  0.28653000  0.72881000  1.0
  H  H10  1  0.56945000  0.71347000  0.27119000  1.0
  H  H11  1  0.19968000  0.29852000  0.78653000  1.0
  H  H12  1  0.80033000  0.70148000  0.21347000  1.0
  H  H13  1  0.20461000  0.40569000  0.64818000  1.0
  H  H14  1  0.79540000  0.59431000  0.35183000  1.0
  H  H15  1  0.41524000  0.87616000  0.74725000  1.0
  H  H16  1  0.58474000  0.12384000  0.25275000  1.0
  H  H17  1  0.31977000  0.98210000  0.84458000  1.0
  H  H18  1  0.68023000  0.01789000  0.15542000  1.0
  H  H19  1  0.54537000  0.99064000  0.78586000  1.0
  H  H20  1  0.45463000  0.00934000  0.21414000  1.0
  H  H21  1  0.92877000  0.99976000  0.60155000  1.0
  H  H22  1  0.07122000  0.00024000  0.39845000  1.0
  H  H23  1  0.08697000  0.90060000  0.72159000  1.0
  H  H24  1  0.91301000  0.09939000  0.27841000  1.0
  H  H25  1  0.19192000  0.92524000  0.59307000  1.0
  H  H26  1  0.80807000  0.07476000  0.40693000  1.0
  H  H27  1  0.89089000  0.35284000  0.69986000  1.0
  H  H28  1  0.10912000  0.64716000  0.30014000  1.0
  H  H29  1  0.92355000  0.15567000  0.78987000  1.0
  H  H30  1  0.07644000  0.84434000  0.21013000  1.0
  H  H31  1  0.76571000  0.22804000  0.67018000  1.0
  H  H32  1  0.23428000  0.77198000  0.32982000  1.0
  C  C33  1  0.50457000  0.41647000  0.25942000  1.0
  C  C34  1  0.49544000  0.58353000  0.74057000  1.0
  C  C35  1  0.46581000  0.35012000  0.36518000  1.0
  C  C36  1  0.53419000  0.64987000  0.63481000  1.0
  C  C37  1  0.29292000  0.30808000  0.38403000  1.0
  C  C38  1  0.70708000  0.69192000  0.61597000  1.0
  C  C39  1  0.16429000  0.34009000  0.29489000  1.0
  C  C40  1  0.83571000  0.65992000  0.70511000  1.0
  C  C41  1  0.21557000  0.40766000  0.19238000  1.0
  C  C42  1  0.78443000  0.59235000  0.80762000  1.0
  C  C43  1  0.24736000  0.23715000  0.49308000  1.0
  C  C44  1  0.75264000  0.76285000  0.50692000  1.0
  C  C45  1  0.28401000  0.13980000  0.68261000  1.0
  C  C46  1  0.71598000  0.86020000  0.31739000  1.0
  C  C47  1  0.07636000  0.14816000  0.64440000  1.0
  C  C48  1  0.92364000  0.85184000  0.35560000  1.0
  C  C49  1  0.27823000  0.29335000  0.71259000  1.0
  C  C50  1  0.72178000  0.70664000  0.28741000  1.0
  C  C51  1  0.39788000  0.98725000  0.76976000  1.0
  C  C52  1  0.60211000  0.01276000  0.23024000  1.0
  C  C53  1  0.07187000  0.98229000  0.63929000  1.0
  C  C54  1  0.92812000  0.01771000  0.36070000  1.0
  C  C55  1  0.90363000  0.22738000  0.70463000  1.0
  C  C56  1  0.09636000  0.77263000  0.29537000  1.0
  C  C57  1  0.03007000  0.74622000  0.95952000  1.0
  C  C58  1  0.96993000  0.25379000  0.04050000  1.0
  C  C59  1  0.71980000  0.76273000  0.01019000  1.0
  C  C60  1  0.28021000  0.23727000  0.98982000  1.0
  N  N61  1  0.38357000  0.44343000  0.17408000  1.0
  N  N62  1  0.61644000  0.55658000  0.82592000  1.0
  N  N63  1  0.38512000  0.15019000  0.57713000  1.0
  N  N64  1  0.61490000  0.84980000  0.42288000  1.0
  N  N65  1  0.06309000  0.25257000  0.52868000  1.0
  N  N66  1  0.93689000  0.74743000  0.47132000  1.0
  N  N67  1  0.58346000  0.71597000  0.02978000  1.0
  N  N68  1  0.41654000  0.28404000  0.97022000  1.0
  N  N69  1  0.18442000  0.68395000  0.92700000  1.0
  N  N70  1  0.81558000  0.31607000  0.07301000  1.0
  N  N71  1  0.86290000  0.82310000  0.99267000  1.0
  N  N72  1  0.13710000  0.17689000  0.00735000  1.0
  O  O73  1  0.57339000  0.10237000  0.57252000  1.0
  O  O74  1  0.42661000  0.89762000  0.42747000  1.0
  O  O75  1  0.89760000  0.33244000  0.47319000  1.0
  O  O76  1  0.10240000  0.66755000  0.52680000  1.0
