# generated using pymatgen
data_ZnH15C23N3(ClO)4
_symmetry_space_group_name_H-M   'P 1'
_cell_length_a   8.75809000
_cell_length_b   8.88763860
_cell_length_c   17.80442410
_cell_angle_alpha   89.36115333
_cell_angle_beta   75.78127286
_cell_angle_gamma   60.51215614
_symmetry_Int_Tables_number   1
_chemical_formula_structural   ZnH15C23N3(ClO)4
_chemical_formula_sum   'Zn2 H30 C46 N6 Cl8 O8'
_cell_volume   1159.45679799
_cell_formula_units_Z   2
loop_
 _symmetry_equiv_pos_site_id
 _symmetry_equiv_pos_as_xyz
  1  'x, y, z'
loop_
 _atom_site_type_symbol
 _atom_site_label
 _atom_site_symmetry_multiplicity
 _atom_site_fract_x
 _atom_site_fract_y
 _atom_site_fract_z
 _atom_site_occupancy
  Zn  Zn0  1  0.80878000  0.75014000  0.25005000  1.0
  Zn  Zn1  1  0.19120000  0.24987000  0.74995000  1.0
  H  H2  1  0.94631000  0.84817000  0.36737000  1.0
  H  H3  1  0.16095000  0.65268000  0.13248000  1.0
  H  H4  1  0.05368000  0.15182000  0.63262000  1.0
  H  H5  1  0.83904000  0.34731000  0.86752000  1.0
  H  H6  1  0.22674000  0.85623000  0.37204000  1.0
  H  H7  1  0.45474000  0.64337000  0.12777000  1.0
  H  H8  1  0.77325000  0.14377000  0.62795000  1.0
  H  H9  1  0.54525000  0.35660000  0.87223000  1.0
  H  H10  1  0.48660000  0.74944000  0.24992000  1.0
  H  H11  1  0.51340000  0.25054000  0.75008000  1.0
  H  H12  1  0.82672000  0.08886000  0.23164000  1.0
  H  H13  1  0.14716000  0.41140000  0.26853000  1.0
  H  H14  1  0.17326000  0.91112000  0.76835000  1.0
  H  H15  1  0.85282000  0.58861000  0.73148000  1.0
  H  H16  1  0.62882000  0.40850000  0.27843000  1.0
  H  H17  1  0.31563000  0.09176000  0.22159000  1.0
  H  H18  1  0.37123000  0.59148000  0.72156000  1.0
  H  H19  1  0.68437000  0.90824000  0.77842000  1.0
  H  H20  1  0.32095000  0.51627000  0.37338000  1.0
  H  H21  1  0.21060000  0.98404000  0.12648000  1.0
  H  H22  1  0.67912000  0.48376000  0.62661000  1.0
  H  H23  1  0.78942000  0.01595000  0.87353000  1.0
  H  H24  1  0.22529000  0.29972000  0.41937000  1.0
  H  H25  1  0.94434000  0.20052000  0.08058000  1.0
  H  H26  1  0.77471000  0.70036000  0.58065000  1.0
  H  H27  1  0.05570000  0.79947000  0.91941000  1.0
  H  H28  1  0.44109000  0.98359000  0.36579000  1.0
  H  H29  1  0.79044000  0.51657000  0.13432000  1.0
  H  H30  1  0.55887000  0.01647000  0.63423000  1.0
  H  H31  1  0.20958000  0.48342000  0.86567000  1.0
  C  C32  1  0.06155000  0.80742000  0.31575000  1.0
  C  C33  1  0.18422000  0.69315000  0.18408000  1.0
  C  C34  1  0.93844000  0.19257000  0.68424000  1.0
  C  C35  1  0.81576000  0.30684000  0.81592000  1.0
  C  C36  1  0.21808000  0.80970000  0.31775000  1.0
  C  C37  1  0.34536000  0.69022000  0.18206000  1.0
  C  C38  1  0.78191000  0.19029000  0.68224000  1.0
  C  C39  1  0.65462000  0.30976000  0.81794000  1.0
  C  C40  1  0.36252000  0.74976000  0.24992000  1.0
  C  C41  1  0.63745000  0.25023000  0.75008000  1.0
  C  C42  1  0.69190000  0.14114000  0.27270000  1.0
  C  C43  1  0.10567000  0.35911000  0.22741000  1.0
  C  C44  1  0.30809000  0.85887000  0.72729000  1.0
  C  C45  1  0.89431000  0.64089000  0.77260000  1.0
  C  C46  1  0.58066000  0.31896000  0.29825000  1.0
  C  C47  1  0.19781000  0.18129000  0.20177000  1.0
  C  C48  1  0.41937000  0.68104000  0.70174000  1.0
  C  C49  1  0.80220000  0.81870000  0.79823000  1.0
  C  C50  1  0.40992000  0.37835000  0.35117000  1.0
  C  C51  1  0.13940000  0.12192000  0.14877000  1.0
  C  C52  1  0.59010000  0.62169000  0.64883000  1.0
  C  C53  1  0.86060000  0.87808000  0.85123000  1.0
  C  C54  1  0.35539000  0.25869000  0.37633000  1.0
  C  C55  1  0.99039000  0.24155000  0.12365000  1.0
  C  C56  1  0.64460000  0.74138000  0.62368000  1.0
  C  C57  1  0.00964000  0.75843000  0.87635000  1.0
  C  C58  1  0.47491000  0.08331000  0.34749000  1.0
  C  C59  1  0.90569000  0.41688000  0.15258000  1.0
  C  C60  1  0.52508000  0.91673000  0.65252000  1.0
  C  C61  1  0.09432000  0.58311000  0.84742000  1.0
  C  C62  1  0.69866000  0.65520000  0.40436000  1.0
  C  C63  1  0.75770000  0.84459000  0.09583000  1.0
  C  C64  1  0.30131000  0.34481000  0.59565000  1.0
  C  C65  1  0.24229000  0.15541000  0.90417000  1.0
  C  C66  1  0.58515000  0.32018000  0.50017000  1.0
  C  C67  1  0.40591000  0.17983000  0.99981000  1.0
  C  C68  1  0.41485000  0.67981000  0.49984000  1.0
  C  C69  1  0.59409000  0.82017000  0.00019000  1.0
  C  C70  1  0.59634000  0.57574000  0.45523000  1.0
  C  C71  1  0.62706000  0.92414000  0.04487000  1.0
  C  C72  1  0.40367000  0.42425000  0.54477000  1.0
  C  C73  1  0.37295000  0.07585000  0.95513000  1.0
  C  C74  1  0.68108000  0.39519000  0.45649000  1.0
  C  C75  1  0.53294000  0.10471000  0.04357000  1.0
  C  C76  1  0.31893000  0.60481000  0.54351000  1.0
  C  C77  1  0.46706000  0.89529000  0.95643000  1.0
  N  N78  1  0.04525000  0.75043000  0.24992000  1.0
  N  N79  1  0.95474000  0.24956000  0.75007000  1.0
  N  N80  1  0.64046000  0.02497000  0.29701000  1.0
  N  N81  1  0.96242000  0.47526000  0.20311000  1.0
  N  N82  1  0.35952000  0.97505000  0.70299000  1.0
  N  N83  1  0.03758000  0.52474000  0.79689000  1.0
  Cl  Cl84  1  0.90422000  0.26433000  0.40172000  1.0
  Cl  Cl85  1  0.57077000  0.23540000  0.09839000  1.0
  Cl  Cl86  1  0.09578000  0.73566000  0.59829000  1.0
  Cl  Cl87  1  0.42923000  0.76459000  0.90162000  1.0
  Cl  Cl88  1  0.68791000  0.09634000  0.49618000  1.0
  Cl  Cl89  1  0.28127000  0.40363000  0.00378000  1.0
  Cl  Cl90  1  0.31208000  0.90365000  0.50383000  1.0
  Cl  Cl91  1  0.71874000  0.59636000  0.99622000  1.0
  O  O92  1  0.80347000  0.68515000  0.42876000  1.0
  O  O93  1  0.91697000  0.81423000  0.07145000  1.0
  O  O94  1  0.19654000  0.31483000  0.57124000  1.0
  O  O95  1  0.08304000  0.18574000  0.92855000  1.0
  O  O96  1  0.66264000  0.68176000  0.33771000  1.0
  O  O97  1  0.68142000  0.81834000  0.16249000  1.0
  O  O98  1  0.33733000  0.31826000  0.66230000  1.0
  O  O99  1  0.31858000  0.18167000  0.83751000  1.0
