# generated using pymatgen
data_CsH11C12N2O7
_symmetry_space_group_name_H-M   'P 1'
_cell_length_a   4.94335000
_cell_length_b   11.42730000
_cell_length_c   13.67035788
_cell_angle_alpha   89.44711451
_cell_angle_beta   82.44542154
_cell_angle_gamma   85.48820000
_symmetry_Int_Tables_number   1
_chemical_formula_structural   CsH11C12N2O7
_chemical_formula_sum   'Cs2 H22 C24 N4 O14'
_cell_volume   763.15150886
_cell_formula_units_Z   2
loop_
 _symmetry_equiv_pos_site_id
 _symmetry_equiv_pos_as_xyz
  1  'x, y, z'
loop_
 _atom_site_type_symbol
 _atom_site_label
 _atom_site_symmetry_multiplicity
 _atom_site_fract_x
 _atom_site_fract_y
 _atom_site_fract_z
 _atom_site_occupancy
  Cs  Cs0  1  0.92008000  0.95591000  0.86328000  1.0
  Cs  Cs1  1  0.07992000  0.04409000  0.13672000  1.0
  H  H2  1  0.03992000  0.59024000  0.28218000  1.0
  H  H3  1  0.96009000  0.40976000  0.71783000  1.0
  H  H4  1  0.24285000  0.76595000  0.20661000  1.0
  H  H5  1  0.75717000  0.23405000  0.79339000  1.0
  H  H6  1  0.91429000  0.54655000  0.05491000  1.0
  H  H7  1  0.08571000  0.45345000  0.94509000  1.0
  H  H8  1  0.71195000  0.36845000  0.12926000  1.0
  H  H9  1  0.28805000  0.63155000  0.87074000  1.0
  H  H10  1  0.99832000  0.60451000  0.68566000  1.0
  H  H11  1  0.00168000  0.39549000  0.31434000  1.0
  H  H12  1  0.65905000  0.55377000  0.53550000  1.0
  H  H13  1  0.34093000  0.44622000  0.46450000  1.0
  H  H14  1  0.83951000  0.69456000  0.40718000  1.0
  H  H15  1  0.16049000  0.30544000  0.59281000  1.0
  H  H16  1  0.12385000  0.93092000  0.48462000  1.0
  H  H17  1  0.87615000  0.06908000  0.51538000  1.0
  H  H18  1  0.93678000  0.79000000  0.61097000  1.0
  H  H19  1  0.06322000  0.21000000  0.38903000  1.0
  H  H20  1  0.43961000  0.24481000  0.23132000  1.0
  H  H21  1  0.56039000  0.75519000  0.76868000  1.0
  H  H22  1  0.52509000  0.11858000  0.27420000  1.0
  H  H23  1  0.47490000  0.88143000  0.72580000  1.0
  C  C24  1  0.36007000  0.46585000  0.21178000  1.0
  C  C25  1  0.63993000  0.53415000  0.78822000  1.0
  C  C26  1  0.23166000  0.58124000  0.23259000  1.0
  C  C27  1  0.76835000  0.41877000  0.76741000  1.0
  C  C28  1  0.34351000  0.67904000  0.19008000  1.0
  C  C29  1  0.65651000  0.32096000  0.80992000  1.0
  C  C30  1  0.58969000  0.66611000  0.12470000  1.0
  C  C31  1  0.41033000  0.33389000  0.87530000  1.0
  C  C32  1  0.72160000  0.55338000  0.10360000  1.0
  C  C33  1  0.27841000  0.44662000  0.89640000  1.0
  C  C34  1  0.60942000  0.45542000  0.14536000  1.0
  C  C35  1  0.39057000  0.54458000  0.85464000  1.0
  C  C36  1  0.28408000  0.66058000  0.57998000  1.0
  C  C37  1  0.71590000  0.33942000  0.42002000  1.0
  C  C38  1  0.54267000  0.63591000  0.52257000  1.0
  C  C39  1  0.45733000  0.36408000  0.47742000  1.0
  C  C40  1  0.64292000  0.71383000  0.45195000  1.0
  C  C41  1  0.35706000  0.28616000  0.54805000  1.0
  C  C42  1  0.48970000  0.82051000  0.43897000  1.0
  C  C43  1  0.51030000  0.17949000  0.56102000  1.0
  C  C44  1  0.23694000  0.84804000  0.49715000  1.0
  C  C45  1  0.76305000  0.15196000  0.50285000  1.0
  C  C46  1  0.13484000  0.76975000  0.56709000  1.0
  C  C47  1  0.86515000  0.23025000  0.43291000  1.0
  N  N48  1  0.70584000  0.76515000  0.07934000  1.0
  N  N49  1  0.29418000  0.23485000  0.92066000  1.0
  N  N50  1  0.59191000  0.90353000  0.36826000  1.0
  N  N51  1  0.40808000  0.09647000  0.63174000  1.0
  O  O52  1  0.25421000  0.37303000  0.25209000  1.0
  O  O53  1  0.74579000  0.62697000  0.74791000  1.0
  O  O54  1  0.58612000  0.86686000  0.09651000  1.0
  O  O55  1  0.41388000  0.13314000  0.90350000  1.0
  O  O56  1  0.92838000  0.75221000  0.02222000  1.0
  O  O57  1  0.07163000  0.24779000  0.97778000  1.0
  O  O58  1  0.19072000  0.57956000  0.64224000  1.0
  O  O59  1  0.80927000  0.42044000  0.35776000  1.0
  O  O60  1  0.81802000  0.88077000  0.31613000  1.0
  O  O61  1  0.18197000  0.11924000  0.68387000  1.0
  O  O62  1  0.45010000  0.99948000  0.36122000  1.0
  O  O63  1  0.54990000  0.00052000  0.63877000  1.0
  O  O64  1  0.53804000  0.16629000  0.21376000  1.0
  O  O65  1  0.46196000  0.83371000  0.78624000  1.0
