# generated using pymatgen
data_ZnH20C22(NO2)2
_symmetry_space_group_name_H-M   'P 1'
_cell_length_a   6.00500000
_cell_length_b   18.01660000
_cell_length_c   20.33810000
_cell_angle_alpha   89.99880000
_cell_angle_beta   96.92770000
_cell_angle_gamma   89.99950000
_symmetry_Int_Tables_number   1
_chemical_formula_structural   ZnH20C22(NO2)2
_chemical_formula_sum   'Zn4 H80 C88 N8 O16'
_cell_volume   2184.30798999
_cell_formula_units_Z   4
loop_
 _symmetry_equiv_pos_site_id
 _symmetry_equiv_pos_as_xyz
  1  'x, y, z'
loop_
 _atom_site_type_symbol
 _atom_site_label
 _atom_site_symmetry_multiplicity
 _atom_site_fract_x
 _atom_site_fract_y
 _atom_site_fract_z
 _atom_site_occupancy
  Zn  Zn0  1  0.21360000  0.47802000  0.77321000  1.0
  Zn  Zn1  1  0.28639000  0.97802000  0.72679000  1.0
  Zn  Zn2  1  0.78640000  0.52198000  0.22679000  1.0
  Zn  Zn3  1  0.71362000  0.02197000  0.27320000  1.0
  H  H4  1  0.98205000  0.19261000  0.60661000  1.0
  H  H5  1  0.51794000  0.69260000  0.89339000  1.0
  H  H6  1  0.01789000  0.80739000  0.39339000  1.0
  H  H7  1  0.48204000  0.30738000  0.10661000  1.0
  H  H8  1  0.19971000  0.23096000  0.51558000  1.0
  H  H9  1  0.30025000  0.73093000  0.98442000  1.0
  H  H10  1  0.80016000  0.76905000  0.48441000  1.0
  H  H11  1  0.69972000  0.26904000  0.01558000  1.0
  H  H12  1  0.58154000  0.28693000  0.54362000  1.0
  H  H13  1  0.91841000  0.78690000  0.95639000  1.0
  H  H14  1  0.41835000  0.71308000  0.45637000  1.0
  H  H15  1  0.08157000  0.21307000  0.04362000  1.0
  H  H16  1  0.73328000  0.30577000  0.66126000  1.0
  H  H17  1  0.76669000  0.80576000  0.83875000  1.0
  H  H18  1  0.26670000  0.69422000  0.33872000  1.0
  H  H19  1  0.23328000  0.19422000  0.16126000  1.0
  H  H20  1  0.72196000  0.28543000  0.77434000  1.0
  H  H21  1  0.77802000  0.78545000  0.72567000  1.0
  H  H22  1  0.27803000  0.71456000  0.22564000  1.0
  H  H23  1  0.22198000  0.21456000  0.27434000  1.0
  H  H24  1  0.52102000  0.22539000  0.80398000  1.0
  H  H25  1  0.97894000  0.72540000  0.69602000  1.0
  H  H26  1  0.47902000  0.77459000  0.19600000  1.0
  H  H27  1  0.02102000  0.27460000  0.30398000  1.0
  H  H28  1  0.11599000  0.23817000  0.78159000  1.0
  H  H29  1  0.38398000  0.73818000  0.71841000  1.0
  H  H30  1  0.88400000  0.76181000  0.21841000  1.0
  H  H31  1  0.61600000  0.26182000  0.28159000  1.0
  H  H32  1  0.91885000  0.19909000  0.71820000  1.0
  H  H33  1  0.58113000  0.69908000  0.78180000  1.0
  H  H34  1  0.08112000  0.80091000  0.28180000  1.0
  H  H35  1  0.41886000  0.30091000  0.21820000  1.0
  H  H36  1  0.73950000  0.52388000  0.73436000  1.0
  H  H37  1  0.76044000  0.02390000  0.76565000  1.0
  H  H38  1  0.26044000  0.47611000  0.26566000  1.0
  H  H39  1  0.23956000  0.97611000  0.23434000  1.0
  H  H40  1  0.46576000  0.52484000  0.63393000  1.0
  H  H41  1  0.03420000  0.02485000  0.86607000  1.0
  H  H42  1  0.53421000  0.47515000  0.36608000  1.0
  H  H43  1  0.96581000  0.97514000  0.13391000  1.0
  H  H44  1  0.93762000  0.39365000  0.53744000  1.0
  H  H45  1  0.56238000  0.89365000  0.96256000  1.0
  H  H46  1  0.06233000  0.60636000  0.46257000  1.0
  H  H47  1  0.43765000  0.10636000  0.03743000  1.0
  H  H48  1  0.19689000  0.39911000  0.64378000  1.0
  H  H49  1  0.30311000  0.89911000  0.85622000  1.0
  H  H50  1  0.80307000  0.60090000  0.35622000  1.0
  H  H51  1  0.69691000  0.10091000  0.14378000  1.0
  H  H52  1  0.57795000  0.42402000  0.47622000  1.0
  H  H53  1  0.92207000  0.92401000  0.02378000  1.0
  H  H54  1  0.42201000  0.57599000  0.52379000  1.0
  H  H55  1  0.07801000  0.07599000  0.97620000  1.0
  H  H56  1  0.35460000  0.43817000  0.52438000  1.0
  H  H57  1  0.14539000  0.93817000  0.97561000  1.0
  H  H58  1  0.64534000  0.56183000  0.47563000  1.0
  H  H59  1  0.85469000  0.06182000  0.02436000  1.0
  H  H60  1  0.02923000  0.60100000  0.84609000  1.0
  H  H61  1  0.47077000  0.10101000  0.65393000  1.0
  H  H62  1  0.97079000  0.39898000  0.15392000  1.0
  H  H63  1  0.52922000  0.89899000  0.34611000  1.0
  H  H64  1  0.80718000  0.61695000  0.94104000  1.0
  H  H65  1  0.69285000  0.11699000  0.55899000  1.0
  H  H66  1  0.19284000  0.38303000  0.05898000  1.0
  H  H67  1  0.30716000  0.88306000  0.44105000  1.0
  H  H68  1  0.73393000  0.37867000  0.94520000  1.0
  H  H69  1  0.76617000  0.87871000  0.55480000  1.0
  H  H70  1  0.26616000  0.62130000  0.05481000  1.0
  H  H71  1  0.23397000  0.12134000  0.44518000  1.0
  H  H72  1  0.96952000  0.37205000  0.85243000  1.0
  H  H73  1  0.53051000  0.87207000  0.64755000  1.0
  H  H74  1  0.03056000  0.62793000  0.14758000  1.0
  H  H75  1  0.46952000  0.12794000  0.35240000  1.0
  H  H76  1  0.68138000  0.45989000  0.04614000  1.0
  H  H77  1  0.81873000  0.95998000  0.45387000  1.0
  H  H78  1  0.31870000  0.54008000  0.95387000  1.0
  H  H79  1  0.18142000  0.04014000  0.54614000  1.0
  H  H80  1  0.66042000  0.55743000  0.03638000  1.0
  H  H81  1  0.83968000  0.05750000  0.46365000  1.0
  H  H82  1  0.33965000  0.44255000  0.96363000  1.0
  H  H83  1  0.16043000  0.94261000  0.53638000  1.0
  C  C84  1  0.44772000  0.25876000  0.70074000  1.0
  C  C85  1  0.05225000  0.75876000  0.79926000  1.0
  C  C86  1  0.55225000  0.74123000  0.29925000  1.0
  C  C87  1  0.94773000  0.24123000  0.20074000  1.0
  C  C88  1  0.23270000  0.22707000  0.68491000  1.0
  C  C89  1  0.26727000  0.72707000  0.81510000  1.0
  C  C90  1  0.76726000  0.77292000  0.31509000  1.0
  C  C91  1  0.73270000  0.27292000  0.18490000  1.0
  C  C92  1  0.14786000  0.21742000  0.61816000  1.0
  C  C93  1  0.35211000  0.71740000  0.88185000  1.0
  C  C94  1  0.85209000  0.78258000  0.38184000  1.0
  C  C95  1  0.64786000  0.28259000  0.11815000  1.0
  C  C96  1  0.27052000  0.23856000  0.56714000  1.0
  C  C97  1  0.22944000  0.73853000  0.93286000  1.0
  C  C98  1  0.72939000  0.76145000  0.43285000  1.0
  C  C99  1  0.77053000  0.26144000  0.06714000  1.0
  C  C100  1  0.48312000  0.26999000  0.58278000  1.0
  C  C101  1  0.01682000  0.76996000  0.91723000  1.0
  C  C102  1  0.51678000  0.73002000  0.41720000  1.0
  C  C103  1  0.98313000  0.23001000  0.08278000  1.0
  C  C104  1  0.56899000  0.28005000  0.64908000  1.0
  C  C105  1  0.93097000  0.78003000  0.85092000  1.0
  C  C106  1  0.43095000  0.71995000  0.35089000  1.0
  C  C107  1  0.06901000  0.21995000  0.14909000  1.0
  C  C108  1  0.54168000  0.27316000  0.77186000  1.0
  C  C109  1  0.95828000  0.77317000  0.72815000  1.0
  C  C110  1  0.45831000  0.72683000  0.22813000  1.0
  C  C111  1  0.04170000  0.22682000  0.27186000  1.0
  C  C112  1  0.43019000  0.34103000  0.79982000  1.0
  C  C113  1  0.06980000  0.84104000  0.70018000  1.0
  C  C114  1  0.56979000  0.65895000  0.20017000  1.0
  C  C115  1  0.93021000  0.15896000  0.29983000  1.0
  C  C116  1  0.09689000  0.20132000  0.73843000  1.0
  C  C117  1  0.40307000  0.70132000  0.76157000  1.0
  C  C118  1  0.90306000  0.79868000  0.26157000  1.0
  C  C119  1  0.59692000  0.29867000  0.23843000  1.0
  C  C120  1  0.16546000  0.12262000  0.76170000  1.0
  C  C121  1  0.33452000  0.62263000  0.73829000  1.0
  C  C122  1  0.83452000  0.87737000  0.23829000  1.0
  C  C123  1  0.66548000  0.37737000  0.26170000  1.0
  C  C124  1  0.77895000  0.49645000  0.68943000  1.0
  C  C125  1  0.72102000  0.99645000  0.81057000  1.0
  C  C126  1  0.22102000  0.50355000  0.31058000  1.0
  C  C127  1  0.27900000  0.00354000  0.18942000  1.0
  C  C128  1  0.62548000  0.49610000  0.63278000  1.0
  C  C129  1  0.87448000  0.99611000  0.86722000  1.0
  C  C130  1  0.37447000  0.50389000  0.36723000  1.0
  C  C131  1  0.12555000  0.00389000  0.13276000  1.0
  C  C132  1  0.67956000  0.45951000  0.57611000  1.0
  C  C133  1  0.82041000  0.95951000  0.92389000  1.0
  C  C134  1  0.32038000  0.54049000  0.42390000  1.0
  C  C135  1  0.17963000  0.04049000  0.07610000  1.0
  C  C136  1  0.88839000  0.42398000  0.57982000  1.0
  C  C137  1  0.61159000  0.92398000  0.92018000  1.0
  C  C138  1  0.11157000  0.57602000  0.42018000  1.0
  C  C139  1  0.38843000  0.07602000  0.07981000  1.0
  C  C140  1  0.03364000  0.42659000  0.63843000  1.0
  C  C141  1  0.46634000  0.92660000  0.86157000  1.0
  C  C142  1  0.96631000  0.57341000  0.36158000  1.0
  C  C143  1  0.53368000  0.07341000  0.13842000  1.0
  C  C144  1  0.51774000  0.46023000  0.51382000  1.0
  C  C145  1  0.98226000  0.96023000  0.98617000  1.0
  C  C146  1  0.48221000  0.53978000  0.48619000  1.0
  C  C147  1  0.01781000  0.03977000  0.01381000  1.0
  C  C148  1  0.95813000  0.55333000  0.86917000  1.0
  C  C149  1  0.54185000  0.05334000  0.63084000  1.0
  C  C150  1  0.04190000  0.44666000  0.13084000  1.0
  C  C151  1  0.45810000  0.94667000  0.36917000  1.0
  C  C152  1  0.83434000  0.56154000  0.92210000  1.0
  C  C153  1  0.66567000  0.06157000  0.57792000  1.0
  C  C154  1  0.16567000  0.43845000  0.07791000  1.0
  C  C155  1  0.33434000  0.93848000  0.42211000  1.0
  C  C156  1  0.75472000  0.49866000  0.95210000  1.0
  C  C157  1  0.74533000  0.99871000  0.54791000  1.0
  C  C158  1  0.24533000  0.50131000  0.04791000  1.0
  C  C159  1  0.25473000  0.00136000  0.45210000  1.0
  C  C160  1  0.79695000  0.42941000  0.92497000  1.0
  C  C161  1  0.70313000  0.92945000  0.57503000  1.0
  C  C162  1  0.20312000  0.57056000  0.07504000  1.0
  C  C163  1  0.29697000  0.07060000  0.42496000  1.0
  C  C164  1  0.92314000  0.42515000  0.87240000  1.0
  C  C165  1  0.57689000  0.92516000  0.62758000  1.0
  C  C166  1  0.07691000  0.57484000  0.12760000  1.0
  C  C167  1  0.42317000  0.07485000  0.37239000  1.0
  C  C168  1  0.62691000  0.50418000  0.01068000  1.0
  C  C169  1  0.87317000  0.00425000  0.48934000  1.0
  C  C170  1  0.37315000  0.49579000  0.98933000  1.0
  C  C171  1  0.12693000  0.99585000  0.51068000  1.0
  N  N172  1  0.98037000  0.46290000  0.69230000  1.0
  N  N173  1  0.51960000  0.96291000  0.80770000  1.0
  N  N174  1  0.01960000  0.53710000  0.30771000  1.0
  N  N175  1  0.48040000  0.03710000  0.19229000  1.0
  N  N176  1  0.00587000  0.48604000  0.84543000  1.0
  N  N177  1  0.49412000  0.98605000  0.65457000  1.0
  N  N178  1  0.99416000  0.51394000  0.15458000  1.0
  N  N179  1  0.50587000  0.01394000  0.34543000  1.0
  O  O180  1  0.42243000  0.39856000  0.76086000  1.0
  O  O181  1  0.07757000  0.89857000  0.73915000  1.0
  O  O182  1  0.57756000  0.60142000  0.23915000  1.0
  O  O183  1  0.92243000  0.10143000  0.26086000  1.0
  O  O184  1  0.35600000  0.33858000  0.85434000  1.0
  O  O185  1  0.14400000  0.83859000  0.64566000  1.0
  O  O186  1  0.64396000  0.66139000  0.14565000  1.0
  O  O187  1  0.85607000  0.16141000  0.35435000  1.0
  O  O188  1  0.13333000  0.07347000  0.71434000  1.0
  O  O189  1  0.36667000  0.57347000  0.78566000  1.0
  O  O190  1  0.86665000  0.92652000  0.28566000  1.0
  O  O191  1  0.63337000  0.42652000  0.21433000  1.0
  O  O192  1  0.24402000  0.10991000  0.81998000  1.0
  O  O193  1  0.25593000  0.60992000  0.68002000  1.0
  O  O194  1  0.75598000  0.89008000  0.18001000  1.0
  O  O195  1  0.74401000  0.39009000  0.31998000  1.0
