# generated using pymatgen
data_YAgH8C14(NO4)2
_symmetry_space_group_name_H-M   'P 1'
_cell_length_a   9.49322000
_cell_length_b   12.02080000
_cell_length_c   16.68500000
_cell_angle_alpha   96.26710000
_cell_angle_beta   90.00000000
_cell_angle_gamma   113.25700000
_symmetry_Int_Tables_number   1
_chemical_formula_structural   YAgH8C14(NO4)2
_chemical_formula_sum   'Y4 Ag4 H32 C56 N8 O32'
_cell_volume   1736.91942170
_cell_formula_units_Z   4
loop_
 _symmetry_equiv_pos_site_id
 _symmetry_equiv_pos_as_xyz
  1  'x, y, z'
loop_
 _atom_site_type_symbol
 _atom_site_label
 _atom_site_symmetry_multiplicity
 _atom_site_fract_x
 _atom_site_fract_y
 _atom_site_fract_z
 _atom_site_occupancy
  Y  Y0  1  0.30255000  0.01012000  0.93296000  1.0
  Y  Y1  1  0.29251000  0.98989000  0.56708000  1.0
  Y  Y2  1  0.69745000  0.98988000  0.06704000  1.0
  Y  Y3  1  0.70749000  0.01011000  0.43292000  1.0
  Ag  Ag4  1  0.71982000  0.67913000  0.91612000  1.0
  Ag  Ag5  1  0.04036000  0.32081000  0.58379000  1.0
  Ag  Ag6  1  0.28019000  0.32087000  0.08388000  1.0
  Ag  Ag7  1  0.95964000  0.67919000  0.41621000  1.0
  H  H8  1  0.02810000  0.91088000  0.16554000  1.0
  H  H9  1  0.11684000  0.08900000  0.33445000  1.0
  H  H10  1  0.97190000  0.08912000  0.83446000  1.0
  H  H11  1  0.88316000  0.91100000  0.66555000  1.0
  H  H12  1  0.40231000  0.80835000  0.21880000  1.0
  H  H13  1  0.59354000  0.19148000  0.28125000  1.0
  H  H14  1  0.59769000  0.19165000  0.78120000  1.0
  H  H15  1  0.40646000  0.80852000  0.71875000  1.0
  H  H16  1  0.89042000  0.79876000  0.27858000  1.0
  H  H17  1  0.09144000  0.20129000  0.22144000  1.0
  H  H18  1  0.10958000  0.20124000  0.72143000  1.0
  H  H19  1  0.90856000  0.79871000  0.77856000  1.0
  H  H20  1  0.24652000  0.69320000  0.32583000  1.0
  H  H21  1  0.55306000  0.30667000  0.17416000  1.0
  H  H22  1  0.75348000  0.30680000  0.67417000  1.0
  H  H23  1  0.44693000  0.69333000  0.82584000  1.0
  H  H24  1  0.42834000  0.58867000  0.04791000  1.0
  H  H25  1  0.83980000  0.41137000  0.45208000  1.0
  H  H26  1  0.57166000  0.41133000  0.95209000  1.0
  H  H27  1  0.16020000  0.58863000  0.54792000  1.0
  H  H28  1  0.12806000  0.64267000  0.87794000  1.0
  H  H29  1  0.48556000  0.35738000  0.62212000  1.0
  H  H30  1  0.87194000  0.35733000  0.12206000  1.0
  H  H31  1  0.51444000  0.64262000  0.37788000  1.0
  H  H32  1  0.04938000  0.28645000  0.94814000  1.0
  H  H33  1  0.76295000  0.71358000  0.55187000  1.0
  H  H34  1  0.95062000  0.71355000  0.05186000  1.0
  H  H35  1  0.23705000  0.28642000  0.44814000  1.0
  H  H36  1  0.97064000  0.41351000  0.86312000  1.0
  H  H37  1  0.55722000  0.58652000  0.63691000  1.0
  H  H38  1  0.02936000  0.58649000  0.13688000  1.0
  H  H39  1  0.44279000  0.41348000  0.36309000  1.0
  C  C40  1  0.22873000  0.87140000  0.18475000  1.0
  C  C41  1  0.35696000  0.12845000  0.31521000  1.0
  C  C42  1  0.77127000  0.12860000  0.81525000  1.0
  C  C43  1  0.64304000  0.87155000  0.68479000  1.0
  C  C44  1  0.08115000  0.86509000  0.20050000  1.0
  C  C45  1  0.21569000  0.13477000  0.29950000  1.0
  C  C46  1  0.91885000  0.13491000  0.79951000  1.0
  C  C47  1  0.78431000  0.86523000  0.70050000  1.0
  C  C48  1  0.96486000  0.93025000  0.98876000  1.0
  C  C49  1  0.03466000  0.06976000  0.51120000  1.0
  C  C50  1  0.03513000  0.06976000  0.01125000  1.0
  C  C51  1  0.96534000  0.93024000  0.48880000  1.0
  C  C52  1  0.28863000  0.80708000  0.22965000  1.0
  C  C53  1  0.48121000  0.19278000  0.27034000  1.0
  C  C54  1  0.71137000  0.19293000  0.77036000  1.0
  C  C55  1  0.51880000  0.80722000  0.72966000  1.0
  C  C56  1  0.22079000  0.92924000  0.74493000  1.0
  C  C57  1  0.29160000  0.07082000  0.75512000  1.0
  C  C58  1  0.77920000  0.07076000  0.25505000  1.0
  C  C59  1  0.70840000  0.92918000  0.24486000  1.0
  C  C60  1  0.00316000  0.80171000  0.26276000  1.0
  C  C61  1  0.20118000  0.19824000  0.23725000  1.0
  C  C62  1  0.99685000  0.19829000  0.73724000  1.0
  C  C63  1  0.79882000  0.80176000  0.76275000  1.0
  C  C64  1  0.32380000  0.94588000  0.12171000  1.0
  C  C65  1  0.37784000  0.05407000  0.37824000  1.0
  C  C66  1  0.67621000  0.05411000  0.87830000  1.0
  C  C67  1  0.62216000  0.94593000  0.62176000  1.0
  C  C68  1  0.20261000  0.74368000  0.28971000  1.0
  C  C69  1  0.45864000  0.25621000  0.21027000  1.0
  C  C70  1  0.79740000  0.25632000  0.71029000  1.0
  C  C71  1  0.54136000  0.74379000  0.78973000  1.0
  C  C72  1  0.38762000  0.76470000  0.97546000  1.0
  C  C73  1  0.62317000  0.23533000  0.52454000  1.0
  C  C74  1  0.61240000  0.23530000  0.02454000  1.0
  C  C75  1  0.37682000  0.76467000  0.47546000  1.0
  C  C76  1  0.29025000  0.63011000  0.96300000  1.0
  C  C77  1  0.66026000  0.36992000  0.53701000  1.0
  C  C78  1  0.70975000  0.36988000  0.03700000  1.0
  C  C79  1  0.33974000  0.63008000  0.46299000  1.0
  C  C80  1  0.32730000  0.55209000  0.00667000  1.0
  C  C81  1  0.77531000  0.44797000  0.49335000  1.0
  C  C82  1  0.67270000  0.44791000  0.99333000  1.0
  C  C83  1  0.22469000  0.55203000  0.50666000  1.0
  C  C84  1  0.15914000  0.58139000  0.91094000  1.0
  C  C85  1  0.57788000  0.41864000  0.58908000  1.0
  C  C86  1  0.84086000  0.41861000  0.08906000  1.0
  C  C87  1  0.42212000  0.58136000  0.41092000  1.0
  C  C88  1  0.11548000  0.38428000  0.95026000  1.0
  C  C89  1  0.73122000  0.61573000  0.54973000  1.0
  C  C90  1  0.88452000  0.61571000  0.04974000  1.0
  C  C91  1  0.26878000  0.38427000  0.45027000  1.0
  C  C92  1  0.07260000  0.45607000  0.90354000  1.0
  C  C93  1  0.61657000  0.54395000  0.59648000  1.0
  C  C94  1  0.92740000  0.54392000  0.09647000  1.0
  C  C95  1  0.38343000  0.45605000  0.40352000  1.0
  N  N96  1  0.06360000  0.74284000  0.30776000  1.0
  N  N97  1  0.32049000  0.25708000  0.19225000  1.0
  N  N98  1  0.93640000  0.25716000  0.69224000  1.0
  N  N99  1  0.67951000  0.74292000  0.80775000  1.0
  N  N100  1  0.24019000  0.43165000  0.00171000  1.0
  N  N101  1  0.80863000  0.56839000  0.49833000  1.0
  N  N102  1  0.75981000  0.56835000  0.99830000  1.0
  N  N103  1  0.19137000  0.43161000  0.50167000  1.0
  O  O104  1  0.21116000  0.87867000  0.80847000  1.0
  O  O105  1  0.33260000  0.12137000  0.69159000  1.0
  O  O106  1  0.78883000  0.12133000  0.19152000  1.0
  O  O107  1  0.66740000  0.87863000  0.30841000  1.0
  O  O108  1  0.03591000  0.88435000  0.94085000  1.0
  O  O109  1  0.15168000  0.11568000  0.55904000  1.0
  O  O110  1  0.96411000  0.11565000  0.05914000  1.0
  O  O111  1  0.84831000  0.88431000  0.44096000  1.0
  O  O112  1  0.25699000  0.98628000  0.07388000  1.0
  O  O113  1  0.27072000  0.01345000  0.42609000  1.0
  O  O114  1  0.74301000  0.01371000  0.92612000  1.0
  O  O115  1  0.72928000  0.98655000  0.57391000  1.0
  O  O116  1  0.17919000  0.87603000  0.67376000  1.0
  O  O117  1  0.30317000  0.12405000  0.82630000  1.0
  O  O118  1  0.82080000  0.12397000  0.32624000  1.0
  O  O119  1  0.69683000  0.87595000  0.17370000  1.0
  O  O120  1  0.46358000  0.96114000  0.12193000  1.0
  O  O121  1  0.50264000  0.03921000  0.37799000  1.0
  O  O122  1  0.53641000  0.03885000  0.87806000  1.0
  O  O123  1  0.49737000  0.96079000  0.62201000  1.0
  O  O124  1  0.83927000  0.87156000  0.02016000  1.0
  O  O125  1  0.96772000  0.12842000  0.47978000  1.0
  O  O126  1  0.16075000  0.12845000  0.97983000  1.0
  O  O127  1  0.03227000  0.87158000  0.52023000  1.0
  O  O128  1  0.32481000  0.83342000  0.95582000  1.0
  O  O129  1  0.49176000  0.16649000  0.54422000  1.0
  O  O130  1  0.67518000  0.16658000  0.04418000  1.0
  O  O131  1  0.50824000  0.83352000  0.45577000  1.0
  O  O132  1  0.52292000  0.79771000  0.00532000  1.0
  O  O133  1  0.72557000  0.20246000  0.49466000  1.0
  O  O134  1  0.47707000  0.20229000  0.99468000  1.0
  O  O135  1  0.27444000  0.79754000  0.50534000  1.0
