# generated using pymatgen
data_KH20C14(N5O3)4
_symmetry_space_group_name_H-M   'P 1'
_cell_length_a   8.15708000
_cell_length_b   9.93939466
_cell_length_c   10.57770000
_cell_angle_alpha   78.58825313
_cell_angle_beta   87.63640000
_cell_angle_gamma   86.90431043
_symmetry_Int_Tables_number   1
_chemical_formula_structural   KH20C14(N5O3)4
_chemical_formula_sum   'K1 H20 C14 N20 O12'
_cell_volume   839.01212366
_cell_formula_units_Z   1
loop_
 _symmetry_equiv_pos_site_id
 _symmetry_equiv_pos_as_xyz
  1  'x, y, z'
loop_
 _atom_site_type_symbol
 _atom_site_label
 _atom_site_symmetry_multiplicity
 _atom_site_fract_x
 _atom_site_fract_y
 _atom_site_fract_z
 _atom_site_occupancy
  K  K0  1  0.00024000  0.50031000  0.99992000  1.0
  H  H1  1  0.69813000  0.43630000  0.84497000  1.0
  H  H2  1  0.30249000  0.56322000  0.15519000  1.0
  H  H3  1  0.57682000  0.32003000  0.95812000  1.0
  H  H4  1  0.42381000  0.67953000  0.04203000  1.0
  H  H5  1  0.51996000  0.38202000  0.17245000  1.0
  H  H6  1  0.48072000  0.61751000  0.82773000  1.0
  H  H7  1  0.60912000  0.53400000  0.19847000  1.0
  H  H8  1  0.39151000  0.46556000  0.80164000  1.0
  H  H9  1  0.09672000  0.33788000  0.27555000  1.0
  H  H10  1  0.90320000  0.66227000  0.72436000  1.0
  H  H11  1  0.96185000  0.44440000  0.31576000  1.0
  H  H12  1  0.03813000  0.55582000  0.68405000  1.0
  H  H13  1  0.22368000  0.25945000  0.00840000  1.0
  H  H14  1  0.77615000  0.74072000  0.99158000  1.0
  H  H15  1  0.14374000  0.15877000  0.94126000  1.0
  H  H16  1  0.85517000  0.84161000  0.05898000  1.0
  H  H17  1  0.21249000  0.27303000  0.78186000  1.0
  H  H18  1  0.78741000  0.72710000  0.21821000  1.0
  H  H19  1  0.75722000  0.95895000  0.53935000  1.0
  H  H20  1  0.24264000  0.04120000  0.46067000  1.0
  C  C21  1  0.60329000  0.42900000  0.92223000  1.0
  C  C22  1  0.39725000  0.57049000  0.07789000  1.0
  C  C23  1  0.55130000  0.48750000  0.12692000  1.0
  C  C24  1  0.44928000  0.51201000  0.87322000  1.0
  C  C25  1  0.25986000  0.53879000  0.46506000  1.0
  C  C26  1  0.74013000  0.46131000  0.53487000  1.0
  C  C27  1  0.28666000  0.35414000  0.59579000  1.0
  C  C28  1  0.71323000  0.64601000  0.40427000  1.0
  C  C29  1  0.37295000  0.12952000  0.72506000  1.0
  C  C30  1  0.62683000  0.87060000  0.27495000  1.0
  C  C31  1  0.55639000  0.91353000  0.81422000  1.0
  C  C32  1  0.44324000  0.08647000  0.18570000  1.0
  C  C33  1  0.70877000  0.92588000  0.63680000  1.0
  C  C34  1  0.29099000  0.07422000  0.36316000  1.0
  N  N35  1  0.76787000  0.82221000  0.72549000  1.0
  N  N36  1  0.23180000  0.17783000  0.27447000  1.0
  N  N37  1  0.67391000  0.81321000  0.83650000  1.0
  N  N38  1  0.32568000  0.18674000  0.16342000  1.0
  N  N39  1  0.57663000  0.98631000  0.68841000  1.0
  N  N40  1  0.42312000  0.01373000  0.31156000  1.0
  N  N41  1  0.27750000  0.25096000  0.69941000  1.0
  N  N42  1  0.72237000  0.74919000  0.30068000  1.0
  N  N43  1  0.48502000  0.10114000  0.63810000  1.0
  N  N44  1  0.51478000  0.89896000  0.36190000  1.0
  N  N45  1  0.33422000  0.05193000  0.84416000  1.0
  N  N46  1  0.66559000  0.94817000  0.15581000  1.0
  N  N47  1  0.42920000  0.94313000  0.89143000  1.0
  N  N48  1  0.57047000  0.05689000  0.10851000  1.0
  N  N49  1  0.20327000  0.47379000  0.58224000  1.0
  N  N50  1  0.79668000  0.52639000  0.41769000  1.0
  N  N51  1  0.37024000  0.47146000  0.40409000  1.0
  N  N52  1  0.62970000  0.52855000  0.59591000  1.0
  N  N53  1  0.20277000  0.67791000  0.40753000  1.0
  N  N54  1  0.79732000  0.32214000  0.59233000  1.0
  O  O55  1  0.04864000  0.43240000  0.25138000  1.0
  O  O56  1  0.95143000  0.56777000  0.74849000  1.0
  O  O57  1  0.14213000  0.25760000  0.94084000  1.0
  O  O58  1  0.85761000  0.74280000  0.05913000  1.0
  O  O59  1  0.67102000  0.48359000  0.02419000  1.0
  O  O60  1  0.32954000  0.51593000  0.97594000  1.0
  O  O61  1  0.26860000  0.73139000  0.30318000  1.0
  O  O62  1  0.73153000  0.26857000  0.69667000  1.0
  O  O63  1  0.09324000  0.73309000  0.46831000  1.0
  O  O64  1  0.90678000  0.26705000  0.53145000  1.0
  O  O65  1  0.38834000  0.34425000  0.49190000  1.0
  O  O66  1  0.61160000  0.65577000  0.50815000  1.0
