# generated using pymatgen
data_AlH15C21(NO)6
_symmetry_space_group_name_H-M   'P 1'
_cell_length_a   3.95877000
_cell_length_b   27.90152172
_cell_length_c   27.90100000
_cell_angle_alpha   59.99985567
_cell_angle_beta   90.00040000
_cell_angle_gamma   89.99960000
_symmetry_Int_Tables_number   1
_chemical_formula_structural   AlH15C21(NO)6
_chemical_formula_sum   'Al2 H30 C42 N12 O12'
_cell_volume   2668.93458581
_cell_formula_units_Z   2
loop_
 _symmetry_equiv_pos_site_id
 _symmetry_equiv_pos_as_xyz
  1  'x, y, z'
loop_
 _atom_site_type_symbol
 _atom_site_label
 _atom_site_symmetry_multiplicity
 _atom_site_fract_x
 _atom_site_fract_y
 _atom_site_fract_z
 _atom_site_occupancy
  Al  Al0  1  0.04019000  0.50000000  0.00000000  1.0
  Al  Al1  1  0.04020000  0.16666000  0.66667000  1.0
  H  H2  1  0.84873000  0.29740000  0.51208000  1.0
  H  H3  1  0.85380000  0.34811000  0.40812000  1.0
  H  H4  1  0.29850000  0.21407000  0.41136000  1.0
  H  H5  1  0.29853000  0.45260000  0.25531000  1.0
  H  H6  1  0.85387000  0.31856000  0.25855000  1.0
  H  H7  1  0.84880000  0.36927000  0.15459000  1.0
  H  H8  1  0.84879000  0.19052000  0.79740000  1.0
  H  H9  1  0.85384000  0.24378000  0.84811000  1.0
  H  H10  1  0.29849000  0.37457000  0.71407000  1.0
  H  H11  1  0.29848000  0.29209000  0.95261000  1.0
  H  H12  1  0.85384000  0.42288000  0.81856000  1.0
  H  H13  1  0.84877000  0.47614000  0.86927000  1.0
  H  H14  1  0.84881000  0.01208000  0.69053000  1.0
  H  H15  1  0.85388000  0.90811000  0.74379000  1.0
  H  H16  1  0.29848000  0.91135000  0.87458000  1.0
  H  H17  1  0.29854000  0.75531000  0.79209000  1.0
  H  H18  1  0.85389000  0.75855000  0.92289000  1.0
  H  H19  1  0.84880000  0.65458000  0.97615000  1.0
  H  H20  1  0.15425000  0.14297000  0.55963000  1.0
  H  H21  1  0.05265000  0.14681000  0.49780000  1.0
  H  H22  1  0.15425000  0.52370000  0.10704000  1.0
  H  H23  1  0.05267000  0.51985000  0.16888000  1.0
  H  H24  1  0.15425000  0.29740000  0.64297000  1.0
  H  H25  1  0.05265000  0.35539000  0.64681000  1.0
  H  H26  1  0.15425000  0.36927000  0.02370000  1.0
  H  H27  1  0.05265000  0.31127000  0.01986000  1.0
  H  H28  1  0.15425000  0.05962000  0.79741000  1.0
  H  H29  1  0.05265000  0.99779000  0.85540000  1.0
  H  H30  1  0.15425000  0.60705000  0.86925000  1.0
  H  H31  1  0.05268000  0.66888000  0.81127000  1.0
  C  C32  1  0.54439000  0.58568000  0.95167000  1.0
  C  C33  1  0.54440000  0.46265000  0.08568000  1.0
  C  C34  1  0.54439000  0.45167000  0.96265000  1.0
  C  C35  1  0.54439000  0.20401000  0.58099000  1.0
  C  C36  1  0.54440000  0.21500000  0.70402000  1.0
  C  C37  1  0.54439000  0.08098000  0.71501000  1.0
  C  C38  1  0.54863000  0.22973000  0.52030000  1.0
  C  C39  1  0.72061000  0.28048000  0.48925000  1.0
  C  C40  1  0.72529000  0.30859000  0.43207000  1.0
  C  C41  1  0.57010000  0.28343000  0.40472000  1.0
  C  C42  1  0.41429000  0.23198000  0.43433000  1.0
  C  C43  1  0.38522000  0.20506000  0.49237000  1.0
  C  C44  1  0.41434000  0.43469000  0.23233000  1.0
  C  C45  1  0.57017000  0.38324000  0.26194000  1.0
  C  C46  1  0.72534000  0.35807000  0.23460000  1.0
  C  C47  1  0.72069000  0.38619000  0.17742000  1.0
  C  C48  1  0.54867000  0.43694000  0.14636000  1.0
  C  C49  1  0.38525000  0.46161000  0.17430000  1.0
  C  C50  1  0.54865000  0.24997000  0.72973000  1.0
  C  C51  1  0.72068000  0.23027000  0.78049000  1.0
  C  C52  1  0.72531000  0.25934000  0.80859000  1.0
  C  C53  1  0.57013000  0.31185000  0.78343000  1.0
  C  C54  1  0.41430000  0.33369000  0.73197000  1.0
  C  C55  1  0.38522000  0.30257000  0.70506000  1.0
  C  C56  1  0.41429000  0.33297000  0.93470000  1.0
  C  C57  1  0.57012000  0.35481000  0.88324000  1.0
  C  C58  1  0.72530000  0.40732000  0.85808000  1.0
  C  C59  1  0.72067000  0.43639000  0.88619000  1.0
  C  C60  1  0.54865000  0.41670000  0.93693000  1.0
  C  C61  1  0.38523000  0.36409000  0.96161000  1.0
  C  C62  1  0.54866000  0.02030000  0.74997000  1.0
  C  C63  1  0.72069000  0.98924000  0.73028000  1.0
  C  C64  1  0.72534000  0.93207000  0.75934000  1.0
  C  C65  1  0.57015000  0.90472000  0.81185000  1.0
  C  C66  1  0.41431000  0.93433000  0.83370000  1.0
  C  C67  1  0.38521000  0.99236000  0.80259000  1.0
  C  C68  1  0.41435000  0.73233000  0.83298000  1.0
  C  C69  1  0.57019000  0.76195000  0.85482000  1.0
  C  C70  1  0.72535000  0.73460000  0.90733000  1.0
  C  C71  1  0.72069000  0.67742000  0.93639000  1.0
  C  C72  1  0.54866000  0.64637000  0.91669000  1.0
  C  C73  1  0.38525000  0.67430000  0.86409000  1.0
  N  N74  1  0.56440000  0.30716000  0.34651000  1.0
  N  N75  1  0.56443000  0.35951000  0.32015000  1.0
  N  N76  1  0.56438000  0.34632000  0.80717000  1.0
  N  N77  1  0.56438000  0.32033000  0.85951000  1.0
  N  N78  1  0.56442000  0.84651000  0.84633000  1.0
  N  N79  1  0.56445000  0.82016000  0.82033000  1.0
  N  N80  1  0.22209000  0.15498000  0.52000000  1.0
  N  N81  1  0.22210000  0.51169000  0.14666000  1.0
  N  N82  1  0.22209000  0.32501000  0.65498000  1.0
  N  N83  1  0.22209000  0.34165000  0.01170000  1.0
  N  N84  1  0.22208000  0.02000000  0.82503000  1.0
  N  N85  1  0.22211000  0.64667000  0.84164000  1.0
  O  O86  1  0.30802000  0.44398000  0.99760000  1.0
  O  O87  1  0.30802000  0.55843000  0.94397000  1.0
  O  O88  1  0.30803000  0.49760000  0.05842000  1.0
  O  O89  1  0.77522000  0.48839000  0.94924000  1.0
  O  O90  1  0.77523000  0.44924000  0.06236000  1.0
  O  O91  1  0.77523000  0.56236000  0.98840000  1.0
  O  O92  1  0.30803000  0.10824000  0.72270000  1.0
  O  O93  1  0.30803000  0.16906000  0.60825000  1.0
  O  O94  1  0.30803000  0.22269000  0.66907000  1.0
  O  O95  1  0.77523000  0.10430000  0.67828000  1.0
  O  O96  1  0.77522000  0.17827000  0.71743000  1.0
  O  O97  1  0.77522000  0.21742000  0.60431000  1.0
