# generated using pymatgen
data_NiH17C19N3O4
_symmetry_space_group_name_H-M   'P 1'
_cell_length_a   9.32819000
_cell_length_b   9.51382000
_cell_length_c   12.88410000
_cell_angle_alpha   92.00260000
_cell_angle_beta   90.90280000
_cell_angle_gamma   91.66890000
_symmetry_Int_Tables_number   1
_chemical_formula_structural   NiH17C19N3O4
_chemical_formula_sum   'Ni2 H34 C38 N6 O8'
_cell_volume   1142.07750709
_cell_formula_units_Z   2
loop_
 _symmetry_equiv_pos_site_id
 _symmetry_equiv_pos_as_xyz
  1  'x, y, z'
loop_
 _atom_site_type_symbol
 _atom_site_label
 _atom_site_symmetry_multiplicity
 _atom_site_fract_x
 _atom_site_fract_y
 _atom_site_fract_z
 _atom_site_occupancy
  Ni  Ni0  1  0.70777000  0.75032000  0.24124000  1.0
  Ni  Ni1  1  0.29228000  0.24952000  0.75891000  1.0
  H  H2  1  0.91940000  0.96595000  0.15372000  1.0
  H  H3  1  0.08059000  0.03406000  0.84637000  1.0
  H  H4  1  0.18180000  0.01464000  0.13851000  1.0
  H  H5  1  0.81822000  0.98542000  0.86148000  1.0
  H  H6  1  0.35375000  0.83793000  0.21410000  1.0
  H  H7  1  0.64632000  0.16211000  0.78589000  1.0
  H  H8  1  0.25094000  0.62700000  0.29616000  1.0
  H  H9  1  0.74910000  0.37302000  0.70380000  1.0
  H  H10  1  0.98073000  0.59500000  0.30362000  1.0
  H  H11  1  0.01935000  0.40502000  0.69639000  1.0
  H  H12  1  0.54598000  0.00994000  0.25828000  1.0
  H  H13  1  0.45396000  0.99018000  0.74177000  1.0
  H  H14  1  0.51698000  0.20578000  0.39157000  1.0
  H  H15  1  0.48305000  0.79416000  0.60856000  1.0
  H  H16  1  0.66615000  0.20888000  0.55452000  1.0
  H  H17  1  0.33387000  0.79099000  0.44551000  1.0
  H  H18  1  0.84614000  0.01727000  0.57526000  1.0
  H  H19  1  0.15385000  0.98270000  0.42477000  1.0
  H  H20  1  0.85816000  0.82800000  0.43595000  1.0
  H  H21  1  0.14188000  0.17193000  0.56413000  1.0
  H  H22  1  0.49922000  0.52314000  0.21321000  1.0
  H  H23  1  0.50069000  0.47696000  0.78672000  1.0
  H  H24  1  0.46478000  0.30424000  0.10160000  1.0
  H  H25  1  0.53496000  0.69602000  0.89816000  1.0
  H  H26  1  0.65047000  0.24733000  0.96816000  1.0
  H  H27  1  0.34934000  0.75279000  0.03171000  1.0
  H  H28  1  0.86027000  0.41659000  0.95109000  1.0
  H  H29  1  0.13969000  0.58329000  0.04897000  1.0
  H  H30  1  0.87664000  0.63223000  0.06831000  1.0
  H  H31  1  0.12351000  0.36756000  0.93171000  1.0
  H  H32  1  0.66120000  0.47921000  0.52129000  1.0
  H  H33  1  0.33886000  0.52066000  0.47874000  1.0
  H  H34  1  0.57758000  0.97378000  0.89705000  1.0
  H  H35  1  0.42237000  0.02625000  0.10286000  1.0
  C  C36  1  0.99679000  0.89427000  0.18513000  1.0
  C  C37  1  0.00326000  0.10577000  0.81487000  1.0
  C  C38  1  0.14406000  0.92075000  0.17760000  1.0
  C  C39  1  0.85598000  0.07936000  0.82244000  1.0
  C  C40  1  0.23741000  0.82340000  0.21790000  1.0
  C  C41  1  0.76264000  0.17672000  0.78212000  1.0
  C  C42  1  0.17994000  0.70360000  0.26361000  1.0
  C  C43  1  0.82015000  0.29649000  0.73641000  1.0
  C  C44  1  0.03148000  0.68601000  0.26804000  1.0
  C  C45  1  0.96861000  0.31402000  0.73195000  1.0
  C  C46  1  0.60874000  0.01621000  0.33031000  1.0
  C  C47  1  0.39132000  0.98376000  0.66970000  1.0
  C  C48  1  0.59463000  0.12454000  0.40434000  1.0
  C  C49  1  0.40535000  0.87533000  0.59572000  1.0
  C  C50  1  0.67935000  0.12677000  0.49453000  1.0
  C  C51  1  0.32056000  0.87306000  0.50553000  1.0
  C  C52  1  0.77717000  0.02003000  0.50628000  1.0
  C  C53  1  0.22280000  0.97989000  0.49374000  1.0
  C  C54  1  0.78517000  0.91458000  0.42914000  1.0
  C  C55  1  0.21490000  0.08537000  0.57086000  1.0
  C  C56  1  0.57726000  0.49364000  0.15500000  1.0
  C  C57  1  0.42260000  0.50653000  0.84489000  1.0
  C  C58  1  0.55962000  0.37196000  0.09263000  1.0
  C  C59  1  0.44020000  0.62823000  0.90723000  1.0
  C  C60  1  0.66225000  0.34144000  0.01841000  1.0
  C  C61  1  0.33764000  0.65859000  0.98156000  1.0
  C  C62  1  0.77881000  0.43490000  0.00926000  1.0
  C  C63  1  0.22114000  0.56508000  0.99076000  1.0
  C  C64  1  0.78984000  0.55455000  0.07448000  1.0
  C  C65  1  0.21012000  0.44545000  0.92551000  1.0
  C  C66  1  0.66043000  0.88438000  0.04038000  1.0
  C  C67  1  0.33963000  0.11561000  0.95969000  1.0
  C  C68  1  0.55653000  0.96751000  0.97981000  1.0
  C  C69  1  0.44363000  0.03261000  0.02017000  1.0
  C  C70  1  0.58597000  0.60919000  0.39284000  1.0
  C  C71  1  0.41393000  0.39078000  0.60717000  1.0
  C  C72  1  0.56558000  0.51815000  0.48319000  1.0
  C  C73  1  0.43445000  0.48176000  0.51679000  1.0
  N  N74  1  0.94110000  0.77955000  0.22938000  1.0
  N  N75  1  0.05897000  0.22047000  0.77057000  1.0
  N  N76  1  0.70158000  0.91185000  0.34253000  1.0
  N  N77  1  0.29848000  0.08810000  0.65746000  1.0
  N  N78  1  0.69102000  0.58334000  0.14690000  1.0
  N  N79  1  0.30893000  0.41671000  0.85308000  1.0
  O  O80  1  0.71676000  0.62431000  0.36123000  1.0
  O  O81  1  0.28316000  0.37563000  0.63877000  1.0
  O  O82  1  0.48028000  0.66459000  0.35024000  1.0
  O  O83  1  0.51966000  0.33546000  0.64974000  1.0
  O  O84  1  0.62673000  0.86831000  0.13684000  1.0
  O  O85  1  0.37350000  0.13161000  0.86322000  1.0
  O  O86  1  0.76813000  0.83845000  0.99517000  1.0
  O  O87  1  0.23182000  0.16150000  0.00478000  1.0
