# generated using pymatgen
data_ZnH10(C8N5)2
_symmetry_space_group_name_H-M   'P 1'
_cell_length_a   7.76091000
_cell_length_b   14.81400000
_cell_length_c   15.90960000
_cell_angle_alpha   69.04000000
_cell_angle_beta   89.99960000
_cell_angle_gamma   89.99980000
_symmetry_Int_Tables_number   1
_chemical_formula_structural   ZnH10(C8N5)2
_chemical_formula_sum   'Zn4 H40 C64 N40'
_cell_volume   1708.09589911
_cell_formula_units_Z   4
loop_
 _symmetry_equiv_pos_site_id
 _symmetry_equiv_pos_as_xyz
  1  'x, y, z'
loop_
 _atom_site_type_symbol
 _atom_site_label
 _atom_site_symmetry_multiplicity
 _atom_site_fract_x
 _atom_site_fract_y
 _atom_site_fract_z
 _atom_site_occupancy
  Zn  Zn0  1  0.46308000  0.82563000  0.93671000  1.0
  Zn  Zn1  1  0.96308000  0.67437000  0.56329000  1.0
  Zn  Zn2  1  0.53691000  0.17436000  0.06329000  1.0
  Zn  Zn3  1  0.03693000  0.32563000  0.43671000  1.0
  H  H4  1  0.29416000  0.96377000  0.74820000  1.0
  H  H5  1  0.79416000  0.53623000  0.75181000  1.0
  H  H6  1  0.70585000  0.03623000  0.25181000  1.0
  H  H7  1  0.20585000  0.46377000  0.24819000  1.0
  H  H8  1  0.27483000  0.98032000  0.58693000  1.0
  H  H9  1  0.77484000  0.51969000  0.91308000  1.0
  H  H10  1  0.72517000  0.01968000  0.41308000  1.0
  H  H11  1  0.22518000  0.48031000  0.08692000  1.0
  H  H12  1  0.60380000  0.72924000  0.64978000  1.0
  H  H13  1  0.10381000  0.77077000  0.85021000  1.0
  H  H14  1  0.39619000  0.27076000  0.35022000  1.0
  H  H15  1  0.89620000  0.22925000  0.14978000  1.0
  H  H16  1  0.61818000  0.72696000  0.80697000  1.0
  H  H17  1  0.11818000  0.77304000  0.69303000  1.0
  H  H18  1  0.38182000  0.27304000  0.19303000  1.0
  H  H19  1  0.88182000  0.22697000  0.30697000  1.0
  H  H20  1  0.34494000  0.92383000  0.46635000  1.0
  H  H21  1  0.84496000  0.57617000  0.03366000  1.0
  H  H22  1  0.65505000  0.07617000  0.53366000  1.0
  H  H23  1  0.15505000  0.42383000  0.96634000  1.0
  H  H24  1  0.50021000  0.68424000  0.40821000  1.0
  H  H25  1  0.00023000  0.81577000  0.09178000  1.0
  H  H26  1  0.49976000  0.31576000  0.59179000  1.0
  H  H27  1  0.99975000  0.18424000  0.90821000  1.0
  H  H28  1  0.43090000  0.93048000  0.22003000  1.0
  H  H29  1  0.93091000  0.56951000  0.27996000  1.0
  H  H30  1  0.56909000  0.06951000  0.77997000  1.0
  H  H31  1  0.06908000  0.43049000  0.72003000  1.0
  H  H32  1  0.41853000  0.94804000  0.05810000  1.0
  H  H33  1  0.91854000  0.55196000  0.44190000  1.0
  H  H34  1  0.58146000  0.05196000  0.94190000  1.0
  H  H35  1  0.08147000  0.44804000  0.55809000  1.0
  H  H36  1  0.50453000  0.65570000  0.11879000  1.0
  H  H37  1  0.00455000  0.84430000  0.38121000  1.0
  H  H38  1  0.49545000  0.34429000  0.88122000  1.0
  H  H39  1  0.99545000  0.15569000  0.61879000  1.0
  H  H40  1  0.52295000  0.62461000  0.28212000  1.0
  H  H41  1  0.02297000  0.87538000  0.21788000  1.0
  H  H42  1  0.47703000  0.37538000  0.71788000  1.0
  H  H43  1  0.97702000  0.12462000  0.78213000  1.0
  C  C44  1  0.36329000  0.91412000  0.72366000  1.0
  C  C45  1  0.86329000  0.58588000  0.77634000  1.0
  C  C46  1  0.63671000  0.08588000  0.27634000  1.0
  C  C47  1  0.13672000  0.41411000  0.22365000  1.0
  C  C48  1  0.35135000  0.92245000  0.63383000  1.0
  C  C49  1  0.85136000  0.57756000  0.86618000  1.0
  C  C50  1  0.64865000  0.07756000  0.36618000  1.0
  C  C51  1  0.14866000  0.42244000  0.13382000  1.0
  C  C52  1  0.43794000  0.85573000  0.60472000  1.0
  C  C53  1  0.93796000  0.64428000  0.89528000  1.0
  C  C54  1  0.56206000  0.14427000  0.39528000  1.0
  C  C55  1  0.06206000  0.35573000  0.10472000  1.0
  C  C56  1  0.53517000  0.78322000  0.66866000  1.0
  C  C57  1  0.03519000  0.71679000  0.83134000  1.0
  C  C58  1  0.46482000  0.21678000  0.33134000  1.0
  C  C59  1  0.96483000  0.28322000  0.16865000  1.0
  C  C60  1  0.54196000  0.78152000  0.75626000  1.0
  C  C61  1  0.04196000  0.71848000  0.74373000  1.0
  C  C62  1  0.45804000  0.21848000  0.24374000  1.0
  C  C63  1  0.95804000  0.28152000  0.25626000  1.0
  C  C64  1  0.42649000  0.86554000  0.51044000  1.0
  C  C65  1  0.92651000  0.63447000  0.98956000  1.0
  C  C66  1  0.57350000  0.13446000  0.48956000  1.0
  C  C67  1  0.07351000  0.36554000  0.01043000  1.0
  C  C68  1  0.49284000  0.75947000  0.36107000  1.0
  C  C69  1  0.99287000  0.74053000  0.13893000  1.0
  C  C70  1  0.50712000  0.24053000  0.63894000  1.0
  C  C71  1  0.00713000  0.25947000  0.86106000  1.0
  C  C72  1  0.48111000  0.77601000  0.26514000  1.0
  C  C73  1  0.98113000  0.72399000  0.23486000  1.0
  C  C74  1  0.51886000  0.22399000  0.73486000  1.0
  C  C75  1  0.01886000  0.27602000  0.76514000  1.0
  C  C76  1  0.45060000  0.86820000  0.20007000  1.0
  C  C77  1  0.95060000  0.63180000  0.29993000  1.0
  C  C78  1  0.54940000  0.13180000  0.79992000  1.0
  C  C79  1  0.04939000  0.36820000  0.70007000  1.0
  C  C80  1  0.44277000  0.87790000  0.11021000  1.0
  C  C81  1  0.94278000  0.62211000  0.38978000  1.0
  C  C82  1  0.55723000  0.12210000  0.88979000  1.0
  C  C83  1  0.05722000  0.37789000  0.61021000  1.0
  C  C84  1  0.49003000  0.71475000  0.14378000  1.0
  C  C85  1  0.99003000  0.78524000  0.35622000  1.0
  C  C86  1  0.50995000  0.28524000  0.85622000  1.0
  C  C87  1  0.00996000  0.21475000  0.64378000  1.0
  C  C88  1  0.49982000  0.69804000  0.23547000  1.0
  C  C89  1  0.99983000  0.80196000  0.26453000  1.0
  C  C90  1  0.50016000  0.30196000  0.76453000  1.0
  C  C91  1  0.00016000  0.19803000  0.73547000  1.0
  C  C92  1  0.12131000  0.93807000  0.91666000  1.0
  C  C93  1  0.62131000  0.56194000  0.58333000  1.0
  C  C94  1  0.87869000  0.06194000  0.08333000  1.0
  C  C95  1  0.37871000  0.43806000  0.41667000  1.0
  C  C96  1  0.41090000  0.62300000  0.93686000  1.0
  C  C97  1  0.91093000  0.87700000  0.56314000  1.0
  C  C98  1  0.58909000  0.37700000  0.06313000  1.0
  C  C99  1  0.08910000  0.12300000  0.43687000  1.0
  C  C100  1  0.82698000  0.92378000  0.91827000  1.0
  C  C101  1  0.32698000  0.57623000  0.58173000  1.0
  C  C102  1  0.17301000  0.07623000  0.08173000  1.0
  C  C103  1  0.67303000  0.42377000  0.41827000  1.0
  C  C104  1  0.39995000  0.53669000  0.84249000  1.0
  C  C105  1  0.89995000  0.96330000  0.65753000  1.0
  C  C106  1  0.60008000  0.46331000  0.15751000  1.0
  C  C107  1  0.10006000  0.03669000  0.34249000  1.0
  N  N108  1  0.45592000  0.84457000  0.78459000  1.0
  N  N109  1  0.95592000  0.65544000  0.71541000  1.0
  N  N110  1  0.54408000  0.15543000  0.21541000  1.0
  N  N111  1  0.04408000  0.34457000  0.28459000  1.0
  N  N112  1  0.51015000  0.80835000  0.47963000  1.0
  N  N113  1  0.01017000  0.69166000  0.02038000  1.0
  N  N114  1  0.48984000  0.19165000  0.52038000  1.0
  N  N115  1  0.98983000  0.30835000  0.97961000  1.0
  N  N116  1  0.49367000  0.83154000  0.38869000  1.0
  N  N117  1  0.99370000  0.66846000  0.11131000  1.0
  N  N118  1  0.50630000  0.16845000  0.61131000  1.0
  N  N119  1  0.00630000  0.33155000  0.88868000  1.0
  N  N120  1  0.46206000  0.80294000  0.08180000  1.0
  N  N121  1  0.96208000  0.69706000  0.41819000  1.0
  N  N122  1  0.53792000  0.19706000  0.91820000  1.0
  N  N123  1  0.03793000  0.30294000  0.58181000  1.0
  N  N124  1  0.26815000  0.91923000  0.91357000  1.0
  N  N125  1  0.76815000  0.58077000  0.58643000  1.0
  N  N126  1  0.73185000  0.08077000  0.08643000  1.0
  N  N127  1  0.23186000  0.41923000  0.41357000  1.0
  N  N128  1  0.45495000  0.68405000  0.96404000  1.0
  N  N129  1  0.95498000  0.81595000  0.53596000  1.0
  N  N130  1  0.54503000  0.31594000  0.03596000  1.0
  N  N131  1  0.04503000  0.18405000  0.46404000  1.0
  N  N132  1  0.68950000  0.89059000  0.91863000  1.0
  N  N133  1  0.18950000  0.60941000  0.58137000  1.0
  N  N134  1  0.31048000  0.10941000  0.08137000  1.0
  N  N135  1  0.81050000  0.39058000  0.41863000  1.0
  N  N136  1  0.35635000  0.55270000  0.91549000  1.0
  N  N137  1  0.85638000  0.94729000  0.58451000  1.0
  N  N138  1  0.64367000  0.44730000  0.08450000  1.0
  N  N139  1  0.14367000  0.05270000  0.41550000  1.0
  N  N140  1  0.96798000  0.96797000  0.92104000  1.0
  N  N141  1  0.46799000  0.53203000  0.57896000  1.0
  N  N142  1  0.03202000  0.03203000  0.07896000  1.0
  N  N143  1  0.53203000  0.46797000  0.42104000  1.0
  N  N144  1  0.43119000  0.51569000  0.77936000  1.0
  N  N145  1  0.93119000  0.98430000  0.72065000  1.0
  N  N146  1  0.56886000  0.48431000  0.22063000  1.0
  N  N147  1  0.06883000  0.01569000  0.27937000  1.0
