# generated using pymatgen
data_Zr3H41C69O16
_symmetry_space_group_name_H-M   'P 1'
_cell_length_a   19.99950000
_cell_length_b   20.01810000
_cell_length_c   20.14780000
_cell_angle_alpha   92.71430000
_cell_angle_beta   91.94460000
_cell_angle_gamma   92.86760000
_symmetry_Int_Tables_number   1
_chemical_formula_structural   Zr3H41C69O16
_chemical_formula_sum   'Zr6 H82 C138 O32'
_cell_volume   8041.74367718
_cell_formula_units_Z   2
loop_
 _symmetry_equiv_pos_site_id
 _symmetry_equiv_pos_as_xyz
  1  'x, y, z'
loop_
 _atom_site_type_symbol
 _atom_site_label
 _atom_site_symmetry_multiplicity
 _atom_site_fract_x
 _atom_site_fract_y
 _atom_site_fract_z
 _atom_site_occupancy
  Zr  Zr0  1  0.18756000  0.13352000  0.04079000  1.0
  Zr  Zr1  1  0.22624000  0.99619000  0.13584000  1.0
  Zr  Zr2  1  0.02133000  0.06761000  0.01538000  1.0
  Zr  Zr3  1  0.09106000  0.09460000  0.17896000  1.0
  Zr  Zr4  1  0.15582000  0.96844000  0.97292000  1.0
  Zr  Zr5  1  0.05955000  0.92996000  0.11098000  1.0
  H  H6  1  0.08557000  0.41025000  0.71341000  1.0
  H  H7  1  0.09215000  0.62513000  0.73246000  1.0
  H  H8  1  0.05816000  0.50846000  0.90358000  1.0
  H  H9  1  0.19002000  0.55918000  0.25066000  1.0
  H  H10  1  0.13944000  0.43790000  0.41466000  1.0
  H  H11  1  0.14398000  0.65250000  0.43866000  1.0
  H  H12  1  0.95569000  0.96672000  0.55899000  1.0
  H  H13  1  0.77669000  0.98427000  0.66984000  1.0
  H  H14  1  0.76509000  0.97797000  0.45587000  1.0
  H  H15  1  0.29702000  0.08789000  0.59661000  1.0
  H  H16  1  0.46424000  0.03477000  0.47918000  1.0
  H  H17  1  0.48496000  0.04822000  0.69236000  1.0
  H  H18  1  0.50092000  0.66818000  0.04388000  1.0
  H  H19  1  0.71605000  0.69299000  0.04916000  1.0
  H  H20  1  0.59604000  0.85960000  0.00724000  1.0
  H  H21  1  0.74599000  0.39849000  0.10839000  1.0
  H  H22  1  0.53121000  0.36988000  0.10201000  1.0
  H  H23  1  0.65428000  0.20386000  0.13782000  1.0
  H  H24  1  0.22966000  0.13376000  0.17638000  1.0
  H  H25  1  0.11860000  0.08988000  0.91943000  1.0
  H  H26  1  0.96660000  0.02952000  0.13699000  1.0
  H  H27  1  0.17856000  0.87293000  0.07046000  1.0
  H  H28  1  0.76262000  0.23210000  0.22868000  1.0
  H  H29  1  0.80043000  0.30288000  0.03428000  1.0
  H  H30  1  0.90566000  0.24133000  0.03208000  1.0
  H  H31  1  0.87200000  0.17691000  0.22939000  1.0
  H  H32  1  0.48057000  0.29020000  0.03455000  1.0
  H  H33  1  0.55244000  0.17171000  0.19263000  1.0
  H  H34  1  0.44624000  0.10079000  0.18264000  1.0
  H  H35  1  0.37359000  0.22183000  0.02795000  1.0
  H  H36  1  0.69799000  0.88698000  0.95017000  1.0
  H  H37  1  0.76746000  0.77484000  0.11404000  1.0
  H  H38  1  0.87505000  0.84214000  0.11864000  1.0
  H  H39  1  0.80477000  0.95721000  0.95811000  1.0
  H  H40  1  0.44885000  0.76478000  0.11454000  1.0
  H  H41  1  0.48817000  0.83508000  0.92025000  1.0
  H  H42  1  0.38071000  0.89370000  0.92018000  1.0
  H  H43  1  0.34596000  0.82992000  0.11746000  1.0
  H  H44  1  0.70099000  0.62015000  0.13148000  1.0
  H  H45  1  0.53170000  0.56340000  0.99933000  1.0
  H  H46  1  0.54457000  0.44506000  0.02269000  1.0
  H  H47  1  0.71386000  0.50174000  0.15488000  1.0
  H  H48  1  0.26990000  0.00841000  0.67715000  1.0
  H  H49  1  0.42914000  0.13795000  0.76809000  1.0
  H  H50  1  0.36744000  0.14352000  0.87379000  1.0
  H  H51  1  0.21119000  0.01020000  0.78390000  1.0
  H  H52  1  0.41808000  0.07901000  0.40376000  1.0
  H  H53  1  0.23780000  0.05837000  0.51461000  1.0
  H  H54  1  0.16970000  0.06227000  0.41041000  1.0
  H  H55  1  0.34947000  0.07317000  0.29949000  1.0
  H  H56  1  0.98450000  0.90814000  0.65214000  1.0
  H  H57  1  0.84784000  0.04793000  0.73294000  1.0
  H  H58  1  0.91465000  0.05610000  0.83924000  1.0
  H  H59  1  0.05266000  0.91920000  0.75840000  1.0
  H  H60  1  0.83492000  0.89458000  0.38460000  1.0
  H  H61  1  0.97163000  0.04784000  0.47584000  1.0
  H  H62  1  0.03119000  0.05491000  0.36945000  1.0
  H  H63  1  0.89802000  0.89865000  0.27969000  1.0
  H  H64  1  0.68886000  0.05879000  0.48420000  1.0
  H  H65  1  0.67295000  0.93271000  0.65099000  1.0
  H  H66  1  0.55477000  0.95973000  0.66128000  1.0
  H  H67  1  0.57070000  0.08562000  0.49442000  1.0
  H  H68  1  0.27039000  0.66873000  0.27429000  1.0
  H  H69  1  0.07178000  0.70258000  0.34018000  1.0
  H  H70  1  0.07081000  0.80700000  0.27748000  1.0
  H  H71  1  0.27183000  0.77708000  0.21757000  1.0
  H  H72  1  0.18960000  0.36471000  0.36671000  1.0
  H  H73  1  0.15327000  0.47483000  0.19108000  1.0
  H  H74  1  0.15461000  0.36974000  0.12176000  1.0
  H  H75  1  0.18062000  0.25935000  0.29802000  1.0
  H  H76  1  0.07992000  0.59164000  0.96026000  1.0
  H  H77  1  0.05535000  0.70201000  0.78266000  1.0
  H  H78  1  0.06292000  0.80739000  0.85140000  1.0
  H  H79  1  0.07762000  0.69688000  0.02864000  1.0
  H  H80  1  0.99547000  0.33605000  0.78436000  1.0
  H  H81  1  0.14940000  0.42916000  0.91749000  1.0
  H  H82  1  0.15315000  0.32421000  0.97925000  1.0
  H  H83  1  0.99583000  0.23285000  0.84973000  1.0
  H  H84  1  0.16732000  0.44254000  0.63743000  1.0
  H  H85  1  0.03726000  0.60735000  0.63032000  1.0
  H  H86  1  0.06081000  0.61915000  0.51213000  1.0
  H  H87  1  0.19086000  0.45439000  0.51926000  1.0
  C  C88  1  0.07275000  0.45325000  0.81223000  1.0
  C  C89  1  0.08181000  0.45640000  0.74380000  1.0
  C  C90  1  0.08773000  0.51874000  0.71465000  1.0
  C  C91  1  0.08365000  0.57728000  0.75510000  1.0
  C  C92  1  0.07246000  0.57559000  0.82346000  1.0
  C  C93  1  0.06728000  0.51260000  0.85090000  1.0
  C  C94  1  0.16651000  0.61229000  0.34125000  1.0
  C  C95  1  0.17649000  0.55412000  0.30218000  1.0
  C  C96  1  0.16682000  0.49033000  0.32744000  1.0
  C  C97  1  0.14989000  0.48664000  0.39432000  1.0
  C  C98  1  0.14248000  0.54408000  0.43550000  1.0
  C  C99  1  0.14951000  0.60697000  0.40779000  1.0
  C  C100  1  0.86378000  0.97051000  0.50067000  1.0
  C  C101  1  0.90143000  0.96938000  0.56055000  1.0
  C  C102  1  0.87075000  0.97379000  0.62195000  1.0
  C  C103  1  0.80116000  0.97951000  0.62244000  1.0
  C  C104  1  0.76231000  0.98155000  0.56340000  1.0
  C  C105  1  0.79425000  0.97609000  0.50247000  1.0
  C  C106  1  0.38709000  0.06757000  0.65099000  1.0
  C  C107  1  0.34869000  0.07388000  0.59229000  1.0
  C  C108  1  0.37535000  0.06352000  0.52943000  1.0
  C  C109  1  0.44267000  0.04697000  0.52690000  1.0
  C  C110  1  0.48298000  0.04222000  0.58462000  1.0
  C  C111  1  0.45463000  0.05274000  0.64688000  1.0
  C  C112  1  0.54176000  0.76604000  0.02186000  1.0
  C  C113  1  0.54668000  0.69907000  0.03793000  1.0
  C  C114  1  0.60942000  0.67186000  0.04785000  1.0
  C  C115  1  0.66704000  0.71385000  0.04297000  1.0
  C  C116  1  0.66345000  0.78152000  0.02849000  1.0
  C  C117  1  0.60029000  0.80669000  0.01633000  1.0
  C  C118  1  0.70696000  0.29909000  0.12686000  1.0
  C  C119  1  0.70076000  0.36652000  0.11314000  1.0
  C  C120  1  0.63750000  0.39288000  0.10416000  1.0
  C  C121  1  0.58057000  0.34965000  0.10743000  1.0
  C  C122  1  0.58531000  0.28147000  0.11921000  1.0
  C  C123  1  0.64904000  0.25705000  0.13059000  1.0
  C  C124  1  0.08055000  0.21080000  0.95621000  1.0
  C  C125  1  0.33595000  0.12078000  0.10111000  1.0
  C  C126  1  0.15790000  0.24178000  0.16728000  1.0
  C  C127  1  0.24853000  0.07281000  0.89814000  1.0
  C  C128  1  0.16561000  0.85744000  0.20190000  1.0
  C  C129  1  0.91351000  0.94060000  0.04349000  1.0
  C  C130  1  0.21702000  0.06055000  0.28319000  1.0
  C  C131  1  0.29865000  0.90827000  0.02640000  1.0
  C  C132  1  0.02643000  0.99659000  0.87011000  1.0
  C  C133  1  0.95340000  0.16237000  0.12327000  1.0
  C  C134  1  0.00415000  0.98575000  0.25551000  1.0
  C  C135  1  0.08184000  0.82413000  0.98284000  1.0
  C  C136  1  0.79471000  0.23518000  0.18609000  1.0
  C  C137  1  0.77381000  0.27042000  0.13112000  1.0
  C  C138  1  0.81612000  0.27530000  0.07707000  1.0
  C  C139  1  0.87511000  0.24156000  0.07589000  1.0
  C  C140  1  0.89496000  0.20525000  0.13045000  1.0
  C  C141  1  0.85570000  0.20417000  0.18662000  1.0
  C  C142  1  0.47279000  0.24973000  0.06829000  1.0
  C  C143  1  0.52378000  0.23710000  0.11524000  1.0
  C  C144  1  0.51370000  0.18235000  0.15573000  1.0
  C  C145  1  0.45415000  0.14268000  0.15060000  1.0
  C  C146  1  0.40293000  0.15743000  0.10522000  1.0
  C  C147  1  0.41326000  0.21108000  0.06364000  1.0
  C  C148  1  0.73634000  0.87772000  0.98796000  1.0
  C  C149  1  0.72550000  0.82497000  0.03074000  1.0
  C  C150  1  0.77597000  0.81362000  0.07861000  1.0
  C  C151  1  0.83579000  0.85172000  0.08208000  1.0
  C  C152  1  0.84681000  0.90350000  0.03845000  1.0
  C  C153  1  0.79619000  0.91691000  0.99189000  1.0
  C  C154  1  0.43379000  0.79279000  0.07184000  1.0
  C  C155  1  0.47584000  0.79638000  0.01753000  1.0
  C  C156  1  0.45604000  0.83267000  0.96287000  1.0
  C  C157  1  0.39616000  0.86561000  0.96268000  1.0
  C  C158  1  0.35710000  0.86544000  0.01897000  1.0
  C  C159  1  0.37613000  0.82856000  0.07340000  1.0
  C  C160  1  0.66704000  0.58178000  0.10662000  1.0
  C  C161  1  0.61558000  0.60093000  0.06331000  1.0
  C  C162  1  0.57114000  0.55030000  0.03441000  1.0
  C  C163  1  0.57847000  0.48343000  0.04765000  1.0
  C  C164  1  0.63028000  0.46415000  0.09053000  1.0
  C  C165  1  0.67435000  0.51488000  0.11989000  1.0
  C  C166  1  0.29111000  0.03844000  0.72008000  1.0
  C  C167  1  0.35355000  0.07310000  0.71520000  1.0
  C  C168  1  0.38091000  0.11053000  0.77127000  1.0
  C  C169  1  0.34646000  0.11393000  0.83045000  1.0
  C  C170  1  0.28532000  0.07753000  0.83513000  1.0
  C  C171  1  0.25808000  0.03951000  0.77941000  1.0
  C  C172  1  0.36373000  0.07366000  0.40598000  1.0
  C  C173  1  0.33363000  0.06772000  0.46773000  1.0
  C  C174  1  0.26307000  0.06415000  0.46799000  1.0
  C  C175  1  0.22425000  0.06555000  0.40933000  1.0
  C  C176  1  0.25526000  0.06757000  0.34820000  1.0
  C  C177  1  0.32545000  0.07179000  0.34719000  1.0
  C  C178  1  0.96945000  0.94135000  0.69284000  1.0
  C  C179  1  0.91101000  0.97700000  0.68493000  1.0
  C  C180  1  0.89184000  0.01838000  0.73859000  1.0
  C  C181  1  0.92934000  0.02377000  0.79788000  1.0
  C  C182  1  0.98768000  0.98826000  0.80538000  1.0
  C  C183  1  0.00751000  0.94697000  0.75228000  1.0
  C  C184  1  0.87841000  0.92928000  0.38152000  1.0
  C  C185  1  0.89918000  0.97075000  0.43738000  1.0
  C  C186  1  0.95567000  0.01487000  0.43296000  1.0
  C  C187  1  0.98912000  0.01887000  0.37402000  1.0
  C  C188  1  0.96849000  0.97694000  0.31854000  1.0
  C  C189  1  0.91357000  0.93132000  0.32291000  1.0
  C  C190  1  0.65930000  0.03572000  0.52235000  1.0
  C  C191  1  0.69009000  0.99367000  0.56681000  1.0
  C  C192  1  0.65094000  0.96695000  0.61684000  1.0
  C  C193  1  0.58423000  0.98236000  0.62281000  1.0
  C  C194  1  0.55370000  0.02503000  0.57882000  1.0
  C  C195  1  0.59260000  0.05104000  0.52826000  1.0
  C  C196  1  0.22711000  0.69979000  0.27611000  1.0
  C  C197  1  0.17086000  0.67824000  0.31084000  1.0
  C  C198  1  0.11572000  0.71902000  0.31346000  1.0
  C  C199  1  0.11511000  0.77743000  0.27893000  1.0
  C  C200  1  0.17121000  0.79832000  0.24382000  1.0
  C  C201  1  0.22801000  0.76017000  0.24420000  1.0
  C  C202  1  0.18033000  0.36654000  0.31325000  1.0
  C  C203  1  0.17075000  0.42838000  0.28470000  1.0
  C  C204  1  0.16220000  0.42823000  0.21502000  1.0
  C  C205  1  0.16208000  0.36899000  0.17562000  1.0
  C  C206  1  0.16737000  0.30763000  0.20535000  1.0
  C  C207  1  0.17679000  0.30712000  0.27469000  1.0
  C  C208  1  0.07380000  0.63826000  0.93547000  1.0
  C  C209  1  0.06881000  0.63801000  0.86550000  1.0
  C  C210  1  0.06196000  0.70000000  0.83640000  1.0
  C  C211  1  0.06477000  0.75949000  0.87480000  1.0
  C  C212  1  0.07082000  0.75890000  0.94432000  1.0
  C  C213  1  0.07323000  0.69755000  0.97456000  1.0
  C  C214  1  0.02968000  0.33361000  0.82743000  1.0
  C  C215  1  0.07215000  0.38964000  0.84682000  1.0
  C  C216  1  0.11568000  0.38609000  0.90274000  1.0
  C  C217  1  0.11776000  0.32803000  0.93743000  1.0
  C  C218  1  0.07431000  0.27268000  0.91857000  1.0
  C  C219  1  0.02969000  0.27597000  0.86386000  1.0
  C  C220  1  0.14279000  0.48067000  0.60989000  1.0
  C  C221  1  0.10044000  0.52404000  0.64307000  1.0
  C  C222  1  0.07174000  0.57408000  0.60634000  1.0
  C  C223  1  0.08503000  0.58075000  0.53954000  1.0
  C  C224  1  0.12755000  0.53753000  0.50638000  1.0
  C  C225  1  0.15607000  0.48739000  0.54310000  1.0
  O  O226  1  0.03126000  0.16873000  0.95953000  1.0
  O  O227  1  0.32566000  0.06622000  0.12969000  1.0
  O  O228  1  0.18222000  0.23243000  0.11045000  1.0
  O  O229  1  0.24788000  0.12153000  0.94061000  1.0
  O  O230  1  0.21773000  0.01520000  0.90268000  1.0
  O  O231  1  0.12413000  0.19761000  0.19871000  1.0
  O  O232  1  0.29116000  0.15081000  0.06790000  1.0
  O  O233  1  0.13934000  0.20531000  0.98281000  1.0
  O  O234  1  0.20647000  0.03292000  0.04351000  1.0
  O  O235  1  0.09411000  0.11548000  0.07921000  1.0
  O  O236  1  0.19915000  0.10495000  0.14809000  1.0
  O  O237  1  0.12060000  0.07360000  0.96398000  1.0
  O  O238  1  0.21618000  0.89658000  0.19315000  1.0
  O  O239  1  0.92366000  0.99590000  0.01604000  1.0
  O  O240  1  0.16100000  0.08683000  0.27532000  1.0
  O  O241  1  0.25757000  0.91539000  0.97820000  1.0
  O  O242  1  0.08155000  0.96863000  0.87835000  1.0
  O  O243  1  0.99309000  0.15351000  0.17224000  1.0
  O  O244  1  0.00462000  0.93793000  0.21176000  1.0
  O  O245  1  0.05847000  0.83320000  0.04020000  1.0
  O  O246  1  0.03192000  0.04457000  0.25082000  1.0
  O  O247  1  0.11785000  0.86724000  0.95245000  1.0
  O  O248  1  0.24713000  0.02681000  0.23827000  1.0
  O  O249  1  0.95692000  0.13537000  0.06431000  1.0
  O  O250  1  0.99941000  0.03433000  0.91404000  1.0
  O  O251  1  0.29536000  0.93515000  0.08545000  1.0
  O  O252  1  0.10654000  0.86238000  0.17591000  1.0
  O  O253  1  0.95756000  0.91131000  0.07821000  1.0
  O  O254  1  0.06762000  0.97796000  0.02249000  1.0
  O  O255  1  0.12622000  0.00058000  0.15877000  1.0
  O  O256  1  0.01112000  0.03041000  0.11934000  1.0
  O  O257  1  0.16349000  0.91825000  0.07160000  1.0
