# generated using pymatgen
data_Zn2H19C40N2O8F3
_symmetry_space_group_name_H-M   'P 1'
_cell_length_a   9.70589000
_cell_length_b   11.05790000
_cell_length_c   14.38620000
_cell_angle_alpha   91.61320000
_cell_angle_beta   100.53070000
_cell_angle_gamma   91.08360000
_symmetry_Int_Tables_number   1
_chemical_formula_structural   Zn2H19C40N2O8F3
_chemical_formula_sum   'Zn2 H19 C40 N2 O8 F3'
_cell_volume   1516.96210670
_cell_formula_units_Z   1
loop_
 _symmetry_equiv_pos_site_id
 _symmetry_equiv_pos_as_xyz
  1  'x, y, z'
loop_
 _atom_site_type_symbol
 _atom_site_label
 _atom_site_symmetry_multiplicity
 _atom_site_fract_x
 _atom_site_fract_y
 _atom_site_fract_z
 _atom_site_occupancy
  Zn  Zn0  1  0.86927000  0.52681000  0.52311000  1.0
  Zn  Zn1  1  0.14725000  0.52651000  0.49374000  1.0
  H  H2  1  0.23667000  0.30476000  0.10468000  1.0
  H  H3  1  0.61773000  0.41427000  0.40654000  1.0
  H  H4  1  0.07295000  0.55946000  0.18907000  1.0
  H  H5  1  0.79742000  0.51444000  0.87886000  1.0
  H  H6  1  0.33559000  0.50170000  0.77046000  1.0
  H  H7  1  0.98544000  0.55181000  0.01430000  1.0
  H  H8  1  0.21850000  0.14398000  0.51098000  1.0
  H  H9  1  0.35350000  0.41794000  0.39434000  1.0
  H  H10  1  0.03763000  0.30897000  0.97366000  1.0
  H  H11  1  0.93489000  0.36879000  0.80917000  1.0
  H  H12  1  0.47844000  0.35866000  0.17390000  1.0
  H  H13  1  0.74105000  0.79404000  0.48473000  1.0
  H  H14  1  0.51828000  0.89752000  0.48404000  1.0
  H  H15  1  0.51807000  0.12282000  0.50512000  1.0
  H  H16  1  0.73775000  0.24176000  0.51087000  1.0
  H  H17  1  0.28042000  0.70029000  0.62569000  1.0
  H  H18  1  0.43757000  0.81771000  0.75278000  1.0
  H  H19  1  0.69655000  0.79435000  0.77625000  1.0
  H  H20  1  0.80008000  0.65808000  0.66896000  1.0
  C  C21  1  0.01294000  0.76067000  0.51409000  1.0
  C  C22  1  0.77458000  0.49700000  0.02600000  1.0
  C  C23  1  0.67929000  0.46434000  0.08706000  1.0
  C  C24  1  0.07087000  0.48479000  0.68711000  1.0
  C  C25  1  0.91596000  0.52988000  0.06329000  1.0
  C  C26  1  0.96444000  0.53455000  0.15929000  1.0
  C  C27  1  0.73538000  0.47474000  0.18531000  1.0
  C  C28  1  0.74058000  0.89192000  0.49088000  1.0
  C  C29  1  0.61613000  0.94995000  0.49081000  1.0
  C  C30  1  0.61559000  0.07702000  0.50113000  1.0
  C  C31  1  0.73799000  0.14382000  0.50526000  1.0
  C  C32  1  0.33735000  0.42305000  0.90805000  1.0
  C  C33  1  0.86806000  0.08778000  0.50230000  1.0
  C  C34  1  0.87064000  0.95702000  0.50065000  1.0
  C  C35  1  0.00197000  0.89583000  0.50826000  1.0
  C  C36  1  0.00826000  0.29065000  0.49621000  1.0
  C  C37  1  0.12191000  0.96761000  0.51318000  1.0
  C  C38  1  0.12055000  0.09353000  0.50868000  1.0
  C  C39  1  0.99661000  0.15494000  0.50266000  1.0
  C  C40  1  0.39313000  0.69121000  0.63567000  1.0
  C  C41  1  0.48169000  0.75585000  0.70627000  1.0
  C  C42  1  0.62868000  0.74285000  0.71946000  1.0
  C  C43  1  0.24735000  0.37218000  0.96609000  1.0
  C  C44  1  0.68727000  0.66716000  0.66063000  1.0
  C  C45  1  0.59922000  0.60140000  0.58634000  1.0
  C  C46  1  0.44958000  0.61094000  0.57494000  1.0
  C  C47  1  0.42330000  0.47227000  0.44838000  1.0
  C  C48  1  0.92801000  0.52475000  0.32704000  1.0
  C  C49  1  0.57004000  0.46803000  0.45629000  1.0
  C  C50  1  0.13183000  0.44180000  0.78313000  1.0
  C  C51  1  0.87304000  0.50992000  0.22276000  1.0
  C  C52  1  0.10317000  0.35061000  0.92869000  1.0
  C  C53  1  0.04566000  0.38435000  0.83867000  1.0
  C  C54  1  0.48515000  0.44174000  0.94705000  1.0
  C  C55  1  0.27455000  0.45816000  0.81658000  1.0
  C  C56  1  0.53554000  0.42884000  0.04595000  1.0
  C  C57  1  0.44071000  0.37708000  0.10022000  1.0
  C  C58  1  0.30459000  0.34661000  0.06137000  1.0
  C  C59  1  0.58778000  0.47017000  0.89094000  1.0
  C  C60  1  0.72550000  0.49532000  0.92686000  1.0
  N  N61  1  0.36456000  0.54238000  0.50573000  1.0
  N  N62  1  0.65540000  0.53029000  0.52415000  1.0
  O  O63  1  0.92518000  0.70486000  0.55470000  1.0
  O  O64  1  0.10970000  0.71023000  0.47958000  1.0
  O  O65  1  0.93819000  0.47565000  0.66020000  1.0
  O  O66  1  0.15589000  0.52795000  0.63807000  1.0
  O  O67  1  0.89581000  0.35074000  0.48294000  1.0
  O  O68  1  0.13096000  0.33754000  0.50366000  1.0
  O  O69  1  0.84409000  0.56021000  0.37985000  1.0
  O  O70  1  0.05762000  0.50262000  0.35380000  1.0
  F  F71  1  0.25147000  0.91802000  0.52522000  1.0
  F  F72  1  0.64936000  0.44941000  0.24781000  1.0
  F  F73  1  0.55016000  0.46718000  0.79451000  1.0
