# generated using pymatgen
data_CuH10C14(NO2)2
_symmetry_space_group_name_H-M   'P 1'
_cell_length_a   7.41815000
_cell_length_b   8.96424000
_cell_length_c   11.10520000
_cell_angle_alpha   76.75260000
_cell_angle_beta   75.28800000
_cell_angle_gamma   71.03960000
_symmetry_Int_Tables_number   1
_chemical_formula_structural   CuH10C14(NO2)2
_chemical_formula_sum   'Cu2 H20 C28 N4 O8'
_cell_volume   666.77325973
_cell_formula_units_Z   2
loop_
 _symmetry_equiv_pos_site_id
 _symmetry_equiv_pos_as_xyz
  1  'x, y, z'
loop_
 _atom_site_type_symbol
 _atom_site_label
 _atom_site_symmetry_multiplicity
 _atom_site_fract_x
 _atom_site_fract_y
 _atom_site_fract_z
 _atom_site_occupancy
  Cu  Cu0  1  0.33348000  0.24140000  0.71530000  1.0
  Cu  Cu1  1  0.66652000  0.75860000  0.28470000  1.0
  H  H2  1  0.93171000  0.21313000  0.85121000  1.0
  H  H3  1  0.06829000  0.78687000  0.14878000  1.0
  H  H4  1  0.62966000  0.40215000  0.95021000  1.0
  H  H5  1  0.37034000  0.59784000  0.04979000  1.0
  H  H6  1  0.63503000  0.68316000  0.95266000  1.0
  H  H7  1  0.36498000  0.31682000  0.04736000  1.0
  H  H8  1  0.93744000  0.76028000  0.85770000  1.0
  H  H9  1  0.06256000  0.23971000  0.14231000  1.0
  H  H10  1  0.22467000  0.79375000  0.79450000  1.0
  H  H11  1  0.77532000  0.20626000  0.20551000  1.0
  H  H12  1  0.53757000  0.83161000  0.67237000  1.0
  H  H13  1  0.46242000  0.16839000  0.32763000  1.0
  H  H14  1  0.78538000  0.60471000  0.56737000  1.0
  H  H15  1  0.21463000  0.39530000  0.43264000  1.0
  H  H16  1  0.70043000  0.35101000  0.59244000  1.0
  H  H17  1  0.29958000  0.64899000  0.40756000  1.0
  H  H18  1  0.91402000  0.83472000  0.61692000  1.0
  H  H19  1  0.08598000  0.16528000  0.38307000  1.0
  H  H20  1  0.21696000  0.88450000  0.57966000  1.0
  H  H21  1  0.78305000  0.11551000  0.42033000  1.0
  C  C22  1  0.92858000  0.33314000  0.85897000  1.0
  C  C23  1  0.07142000  0.66686000  0.14103000  1.0
  C  C24  1  0.76093000  0.44023000  0.91283000  1.0
  C  C25  1  0.23908000  0.55975000  0.08718000  1.0
  C  C26  1  0.76435000  0.59479000  0.91353000  1.0
  C  C27  1  0.23564000  0.40521000  0.08648000  1.0
  C  C28  1  0.93517000  0.63828000  0.86149000  1.0
  C  C29  1  0.06483000  0.36171000  0.13852000  1.0
  C  C30  1  0.10027000  0.52383000  0.81172000  1.0
  C  C31  1  0.89972000  0.47617000  0.18828000  1.0
  C  C32  1  0.28949000  0.55427000  0.75336000  1.0
  C  C33  1  0.71051000  0.44573000  0.24664000  1.0
  C  C34  1  0.33109000  0.69649000  0.74949000  1.0
  C  C35  1  0.66891000  0.30351000  0.25052000  1.0
  C  C36  1  0.50972000  0.71704000  0.68124000  1.0
  C  C37  1  0.49028000  0.28296000  0.31876000  1.0
  C  C38  1  0.64502000  0.59309000  0.62278000  1.0
  C  C39  1  0.35498000  0.40691000  0.37723000  1.0
  C  C40  1  0.59731000  0.45167000  0.63469000  1.0
  C  C41  1  0.40270000  0.54833000  0.36532000  1.0
  C  C42  1  0.90034000  0.96264000  0.58362000  1.0
  C  C43  1  0.09966000  0.03736000  0.41637000  1.0
  C  C44  1  0.73021000  0.05459000  0.67301000  1.0
  C  C45  1  0.26979000  0.94541000  0.32698000  1.0
  C  C46  1  0.11968000  0.12450000  0.61724000  1.0
  C  C47  1  0.88031000  0.87551000  0.38275000  1.0
  C  C48  1  0.10271000  0.99376000  0.55902000  1.0
  C  C49  1  0.89729000  0.00624000  0.44097000  1.0
  N  N50  1  0.09410000  0.37446000  0.81108000  1.0
  N  N51  1  0.90590000  0.62554000  0.18892000  1.0
  N  N52  1  0.42391000  0.43341000  0.69752000  1.0
  N  N53  1  0.57609000  0.56659000  0.30249000  1.0
  O  O54  1  0.22032000  0.07509000  0.70660000  1.0
  O  O55  1  0.77968000  0.92493000  0.29338000  1.0
  O  O56  1  0.04638000  0.26837000  0.57590000  1.0
  O  O57  1  0.95359000  0.73164000  0.42409000  1.0
  O  O58  1  0.57481000  0.12014000  0.62444000  1.0
  O  O59  1  0.42519000  0.87986000  0.37555000  1.0
  O  O60  1  0.74560000  0.05744000  0.78169000  1.0
  O  O61  1  0.25441000  0.94256000  0.21830000  1.0
