# generated using pymatgen
data_Cu3H24C24(N2O7)2
_symmetry_space_group_name_H-M   'P 1'
_cell_length_a   6.39217000
_cell_length_b   10.70340000
_cell_length_c   11.86403778
_cell_angle_alpha   105.54964115
_cell_angle_beta   105.45902614
_cell_angle_gamma   98.91680000
_symmetry_Int_Tables_number   1
_chemical_formula_structural   Cu3H24C24(N2O7)2
_chemical_formula_sum   'Cu3 H24 C24 N4 O14'
_cell_volume   730.95315412
_cell_formula_units_Z   1
loop_
 _symmetry_equiv_pos_site_id
 _symmetry_equiv_pos_as_xyz
  1  'x, y, z'
loop_
 _atom_site_type_symbol
 _atom_site_label
 _atom_site_symmetry_multiplicity
 _atom_site_fract_x
 _atom_site_fract_y
 _atom_site_fract_z
 _atom_site_occupancy
  Cu  Cu0  1  0.49956000  0.00159000  0.50055000  1.0
  Cu  Cu1  1  0.65941000  0.30298000  0.58029000  1.0
  Cu  Cu2  1  0.34119000  0.69654000  0.41983000  1.0
  H  H3  1  0.18597000  0.15834000  0.59250000  1.0
  H  H4  1  0.81382000  0.84082000  0.40680000  1.0
  H  H5  1  0.12903000  0.13639000  0.45163000  1.0
  H  H6  1  0.86942000  0.86287000  0.54751000  1.0
  H  H7  1  0.02049000  0.50944000  0.62308000  1.0
  H  H8  1  0.97989000  0.49084000  0.37708000  1.0
  H  H9  1  0.04006000  0.37573000  0.53367000  1.0
  H  H10  1  0.95977000  0.62428000  0.46663000  1.0
  H  H11  1  0.77641000  0.12864000  0.43791000  1.0
  H  H12  1  0.22241000  0.87079000  0.56197000  1.0
  H  H13  1  0.81162000  0.39596000  0.96376000  1.0
  H  H14  1  0.18820000  0.60423000  0.03636000  1.0
  H  H15  1  0.91620000  0.42166000  0.18726000  1.0
  H  H16  1  0.08368000  0.57849000  0.81295000  1.0
  H  H17  1  0.81734000  0.99582000  0.09962000  1.0
  H  H18  1  0.18287000  0.00429000  0.90032000  1.0
  H  H19  1  0.71258000  0.97113000  0.87350000  1.0
  H  H20  1  0.28791000  0.02915000  0.12637000  1.0
  H  H21  1  0.47883000  0.83107000  0.71673000  1.0
  H  H22  1  0.52019000  0.16837000  0.28235000  1.0
  H  H23  1  0.60193000  0.73557000  0.89219000  1.0
  H  H24  1  0.39805000  0.26467000  0.10752000  1.0
  H  H25  1  0.65546000  0.49793000  0.83385000  1.0
  H  H26  1  0.34524000  0.50245000  0.16651000  1.0
  C  C27  1  0.68423000  0.16725000  0.76851000  1.0
  C  C28  1  0.31561000  0.83350000  0.23176000  1.0
  C  C29  1  0.75205000  0.18143000  0.90411000  1.0
  C  C30  1  0.24823000  0.81896000  0.09608000  1.0
  C  C31  1  0.81208000  0.30839000  0.99385000  1.0
  C  C32  1  0.18791000  0.69191000  0.00639000  1.0
  C  C33  1  0.87258000  0.32243000  0.11909000  1.0
  C  C34  1  0.12746000  0.67776000  0.88110000  1.0
  C  C35  1  0.87528000  0.20926000  0.15750000  1.0
  C  C36  1  0.12474000  0.79080000  0.84249000  1.0
  C  C37  1  0.81490000  0.08253000  0.06816000  1.0
  C  C38  1  0.18517000  0.91756000  0.93179000  1.0
  C  C39  1  0.75495000  0.06898000  0.94294000  1.0
  C  C40  1  0.24533000  0.93122000  0.05703000  1.0
  C  C41  1  0.94075000  0.22093000  0.29237000  1.0
  C  C42  1  0.05909000  0.77900000  0.70759000  1.0
  C  C43  1  0.51275000  0.53707000  0.56342000  1.0
  C  C44  1  0.48726000  0.46220000  0.43654000  1.0
  C  C45  1  0.50489000  0.73031000  0.70129000  1.0
  C  C46  1  0.49461000  0.26923000  0.29821000  1.0
  C  C47  1  0.57392000  0.67761000  0.79661000  1.0
  C  C48  1  0.42618000  0.32241000  0.20318000  1.0
  C  C49  1  0.60548000  0.54832000  0.76619000  1.0
  C  C50  1  0.39500000  0.45176000  0.23394000  1.0
  N  N51  1  0.46866000  0.65762000  0.58354000  1.0
  N  N52  1  0.53064000  0.34144000  0.41613000  1.0
  N  N53  1  0.57923000  0.47903000  0.64902000  1.0
  N  N54  1  0.42151000  0.52076000  0.35121000  1.0
  O  O55  1  0.60826000  0.04981000  0.69132000  1.0
  O  O56  1  0.39152000  0.95101000  0.30890000  1.0
  O  O57  1  0.70770000  0.27750000  0.74500000  1.0
  O  O58  1  0.29129000  0.72325000  0.25530000  1.0
  O  O59  1  0.01749000  0.33761000  0.37273000  1.0
  O  O60  1  0.98248000  0.66224000  0.62729000  1.0
  O  O61  1  0.91353000  0.11314000  0.31854000  1.0
  O  O62  1  0.08599000  0.88667000  0.68127000  1.0
  O  O63  1  0.25685000  0.15686000  0.52907000  1.0
  O  O64  1  0.74214000  0.84182000  0.46984000  1.0
  O  O65  1  0.02828000  0.41576000  0.61682000  1.0
  O  O66  1  0.97164000  0.58446000  0.38344000  1.0
  O  O67  1  0.74102000  0.14057000  0.51578000  1.0
  O  O68  1  0.26375000  0.85959000  0.48588000  1.0
