# generated using pymatgen
data_TbAgH6C14(NO4)2
_symmetry_space_group_name_H-M   'P 1'
_cell_length_a   7.22170000
_cell_length_b   10.18600000
_cell_length_c   11.50340000
_cell_angle_alpha   97.85170000
_cell_angle_beta   101.37700000
_cell_angle_gamma   94.90720000
_symmetry_Int_Tables_number   1
_chemical_formula_structural   TbAgH6C14(NO4)2
_chemical_formula_sum   'Tb2 Ag2 H12 C28 N4 O16'
_cell_volume   816.25681387
_cell_formula_units_Z   2
loop_
 _symmetry_equiv_pos_site_id
 _symmetry_equiv_pos_as_xyz
  1  'x, y, z'
loop_
 _atom_site_type_symbol
 _atom_site_label
 _atom_site_symmetry_multiplicity
 _atom_site_fract_x
 _atom_site_fract_y
 _atom_site_fract_z
 _atom_site_occupancy
  Tb  Tb0  1  0.25916000  0.47486000  0.56888000  1.0
  Tb  Tb1  1  0.74084000  0.52514000  0.43111000  1.0
  Ag  Ag2  1  0.28729000  0.76907000  0.19954000  1.0
  Ag  Ag3  1  0.71271000  0.23093000  0.80046000  1.0
  H  H4  1  0.20047000  0.65542000  0.92920000  1.0
  H  H5  1  0.79953000  0.34458000  0.07080000  1.0
  H  H6  1  0.56606000  0.62448000  0.02347000  1.0
  H  H7  1  0.43394000  0.37552000  0.97653000  1.0
  H  H8  1  0.86064000  0.69830000  0.18099000  1.0
  H  H9  1  0.13936000  0.30170000  0.81901000  1.0
  H  H10  1  0.73068000  0.85018000  0.26829000  1.0
  H  H11  1  0.26932000  0.14983000  0.73171000  1.0
  H  H12  1  0.95852000  0.03521000  0.39367000  1.0
  H  H13  1  0.04148000  0.96479000  0.60633000  1.0
  H  H14  1  0.26831000  0.03611000  0.34339000  1.0
  H  H15  1  0.73169000  0.96389000  0.65662000  1.0
  C  C16  1  0.05828000  0.64806000  0.94807000  1.0
  C  C17  1  0.94172000  0.35194000  0.05193000  1.0
  C  C18  1  0.90300000  0.60095000  0.85429000  1.0
  C  C19  1  0.09701000  0.39905000  0.14571000  1.0
  C  C20  1  0.71998000  0.59352000  0.87927000  1.0
  C  C21  1  0.28002000  0.40648000  0.12073000  1.0
  C  C22  1  0.70398000  0.63052000  0.99819000  1.0
  C  C23  1  0.29601000  0.36949000  0.00180000  1.0
  C  C24  1  0.86661000  0.67408000  0.08685000  1.0
  C  C25  1  0.13339000  0.32592000  0.91315000  1.0
  C  C26  1  0.93822000  0.55947000  0.73063000  1.0
  C  C27  1  0.06179000  0.44053000  0.26937000  1.0
  C  C28  1  0.54505000  0.54733000  0.78182000  1.0
  C  C29  1  0.45496000  0.45267000  0.21818000  1.0
  C  C30  1  0.67936000  0.93709000  0.31192000  1.0
  C  C31  1  0.32063000  0.06291000  0.68807000  1.0
  C  C32  1  0.80636000  0.04104000  0.38240000  1.0
  C  C33  1  0.19364000  0.95896000  0.61760000  1.0
  C  C34  1  0.73735000  0.14871000  0.44264000  1.0
  C  C35  1  0.26265000  0.85129000  0.55736000  1.0
  C  C36  1  0.53921000  0.14808000  0.42649000  1.0
  C  C37  1  0.46079000  0.85191000  0.57351000  1.0
  C  C38  1  0.42196000  0.03947000  0.35451000  1.0
  C  C39  1  0.57803000  0.96053000  0.64549000  1.0
  C  C40  1  0.87917000  0.25082000  0.53131000  1.0
  C  C41  1  0.12083000  0.74918000  0.46869000  1.0
  C  C42  1  0.45040000  0.25890000  0.48408000  1.0
  C  C43  1  0.54960000  0.74111000  0.51592000  1.0
  N  N44  1  0.04220000  0.68476000  0.06224000  1.0
  N  N45  1  0.95780000  0.31524000  0.93776000  1.0
  N  N46  1  0.48910000  0.93508000  0.29814000  1.0
  N  N47  1  0.51090000  0.06492000  0.70187000  1.0
  O  O48  1  0.09975000  0.52132000  0.72546000  1.0
  O  O49  1  0.90025000  0.47868000  0.27454000  1.0
  O  O50  1  0.80470000  0.56660000  0.64332000  1.0
  O  O51  1  0.19530000  0.43340000  0.35668000  1.0
  O  O52  1  0.48930000  0.42225000  0.75144000  1.0
  O  O53  1  0.51070000  0.57774000  0.24856000  1.0
  O  O54  1  0.45825000  0.63589000  0.73480000  1.0
  O  O55  1  0.54175000  0.36411000  0.26520000  1.0
  O  O56  1  0.93864000  0.22028000  0.63215000  1.0
  O  O57  1  0.06136000  0.77972000  0.36785000  1.0
  O  O58  1  0.93622000  0.35812000  0.49357000  1.0
  O  O59  1  0.06378000  0.64188000  0.50642000  1.0
  O  O60  1  0.54295000  0.37605000  0.50997000  1.0
  O  O61  1  0.45704000  0.62395000  0.49003000  1.0
  O  O62  1  0.28722000  0.23847000  0.50726000  1.0
  O  O63  1  0.71278000  0.76153000  0.49274000  1.0
