# generated using pymatgen
data_LiH12C9NO3
_symmetry_space_group_name_H-M   'P 1'
_cell_length_a   5.40429000
_cell_length_b   7.47566000
_cell_length_c   11.76540000
_cell_angle_alpha   90.24930000
_cell_angle_beta   91.39420000
_cell_angle_gamma   100.47410000
_symmetry_Int_Tables_number   1
_chemical_formula_structural   LiH12C9NO3
_chemical_formula_sum   'Li2 H24 C18 N2 O6'
_cell_volume   467.25231048
_cell_formula_units_Z   2
loop_
 _symmetry_equiv_pos_site_id
 _symmetry_equiv_pos_as_xyz
  1  'x, y, z'
loop_
 _atom_site_type_symbol
 _atom_site_label
 _atom_site_symmetry_multiplicity
 _atom_site_fract_x
 _atom_site_fract_y
 _atom_site_fract_z
 _atom_site_occupancy
  Li  Li0  1  0.34469000  0.04272000  0.58206000  1.0
  Li  Li1  1  0.65532000  0.95728000  0.41795000  1.0
  H  H2  1  0.67192000  0.24470000  0.26657000  1.0
  H  H3  1  0.32808000  0.75529000  0.73342000  1.0
  H  H4  1  0.67729000  0.32752000  0.04055000  1.0
  H  H5  1  0.32270000  0.67248000  0.95944000  1.0
  H  H6  1  0.19040000  0.22716000  0.96222000  1.0
  H  H7  1  0.80956000  0.77283000  0.03778000  1.0
  H  H8  1  0.91835000  0.09439000  0.14502000  1.0
  H  H9  1  0.08164000  0.90561000  0.85499000  1.0
  H  H10  1  0.65737000  0.36420000  0.51518000  1.0
  H  H11  1  0.34262000  0.63580000  0.48482000  1.0
  H  H12  1  0.58339000  0.52700000  0.61501000  1.0
  H  H13  1  0.41662000  0.47300000  0.38500000  1.0
  H  H14  1  0.05205000  0.35399000  0.61260000  1.0
  H  H15  1  0.94794000  0.64600000  0.38739000  1.0
  H  H16  1  0.02144000  0.57553000  0.65790000  1.0
  H  H17  1  0.97857000  0.42447000  0.34209000  1.0
  H  H18  1  0.99728000  0.24849000  0.79582000  1.0
  H  H19  1  0.00275000  0.75152000  0.20418000  1.0
  H  H20  1  0.94677000  0.46368000  0.84581000  1.0
  H  H21  1  0.05325000  0.53633000  0.15419000  1.0
  H  H22  1  0.50651000  0.38456000  0.82340000  1.0
  H  H23  1  0.49352000  0.61544000  0.17661000  1.0
  H  H24  1  0.55518000  0.15324000  0.82707000  1.0
  H  H25  1  0.44486000  0.84676000  0.17293000  1.0
  C  C26  1  0.51988000  0.22974000  0.20378000  1.0
  C  C27  1  0.48011000  0.77026000  0.79622000  1.0
  C  C28  1  0.51548000  0.26837000  0.08948000  1.0
  C  C29  1  0.48450000  0.73163000  0.91051000  1.0
  C  C30  1  0.26061000  0.21656000  0.04853000  1.0
  C  C31  1  0.73938000  0.78344000  0.95147000  1.0
  C  C32  1  0.11723000  0.14857000  0.13898000  1.0
  C  C33  1  0.88276000  0.85144000  0.86103000  1.0
  C  C34  1  0.19679000  0.10132000  0.34616000  1.0
  C  C35  1  0.80320000  0.89867000  0.65384000  1.0
  C  C36  1  0.66787000  0.40458000  0.60497000  1.0
  C  C37  1  0.33213000  0.59542000  0.39503000  1.0
  C  C38  1  0.93232000  0.43164000  0.65880000  1.0
  C  C39  1  0.06769000  0.56836000  0.34119000  1.0
  C  C40  1  0.88970000  0.35751000  0.78083000  1.0
  C  C41  1  0.11033000  0.64250000  0.21917000  1.0
  C  C42  1  0.60511000  0.28424000  0.78410000  1.0
  C  C43  1  0.39490000  0.71575000  0.21590000  1.0
  N  N44  1  0.27577000  0.15718000  0.23420000  1.0
  N  N45  1  0.72422000  0.84282000  0.76581000  1.0
  O  O46  1  0.96415000  0.06081000  0.35915000  1.0
  O  O47  1  0.03585000  0.93918000  0.64084000  1.0
  O  O48  1  0.37236000  0.10070000  0.42012000  1.0
  O  O49  1  0.62764000  0.89930000  0.57988000  1.0
  O  O50  1  0.52081000  0.25725000  0.66656000  1.0
  O  O51  1  0.47920000  0.74275000  0.33345000  1.0
