# generated using pymatgen
data_CuH6C9SN3
_symmetry_space_group_name_H-M   'P 1'
_cell_length_a   13.52240000
_cell_length_b   13.52280000
_cell_length_c   15.81041008
_cell_angle_alpha   110.98416778
_cell_angle_beta   102.24002894
_cell_angle_gamma   109.35700000
_symmetry_Int_Tables_number   1
_chemical_formula_structural   CuH6C9SN3
_chemical_formula_sum   'Cu8 H48 C72 S8 N24'
_cell_volume   2360.49230555
_cell_formula_units_Z   8
loop_
 _symmetry_equiv_pos_site_id
 _symmetry_equiv_pos_as_xyz
  1  'x, y, z'
loop_
 _atom_site_type_symbol
 _atom_site_label
 _atom_site_symmetry_multiplicity
 _atom_site_fract_x
 _atom_site_fract_y
 _atom_site_fract_z
 _atom_site_occupancy
  Cu  Cu0  1  0.79345000  0.70276000  0.71512000  1.0
  Cu  Cu1  1  0.98697000  0.57818000  0.78448000  1.0
  Cu  Cu2  1  0.20655000  0.29724000  0.28489000  1.0
  Cu  Cu3  1  0.01305000  0.42183000  0.21554000  1.0
  Cu  Cu4  1  0.96014000  0.68283000  0.65776000  1.0
  Cu  Cu5  1  0.02435000  0.80221000  0.84178000  1.0
  Cu  Cu6  1  0.03985000  0.31717000  0.34224000  1.0
  Cu  Cu7  1  0.97565000  0.19780000  0.15822000  1.0
  H  H8  1  0.43436000  0.71628000  0.55106000  1.0
  H  H9  1  0.16382000  0.38288000  0.94867000  1.0
  H  H10  1  0.56562000  0.28370000  0.44893000  1.0
  H  H11  1  0.83618000  0.61712000  0.05133000  1.0
  H  H12  1  0.62330000  0.71967000  0.57504000  1.0
  H  H13  1  0.14338000  0.54784000  0.92449000  1.0
  H  H14  1  0.37669000  0.28032000  0.42495000  1.0
  H  H15  1  0.85661000  0.45217000  0.07552000  1.0
  H  H16  1  0.49216000  0.77733000  0.84794000  1.0
  H  H17  1  0.92883000  0.14445000  0.65181000  1.0
  H  H18  1  0.50784000  0.22267000  0.15206000  1.0
  H  H19  1  0.07117000  0.85555000  0.34819000  1.0
  H  H20  1  0.68031000  0.77415000  0.85890000  1.0
  H  H21  1  0.91479000  0.32164000  0.64070000  1.0
  H  H22  1  0.31969000  0.22585000  0.14110000  1.0
  H  H23  1  0.08521000  0.67837000  0.35931000  1.0
  H  H24  1  0.54328000  0.59676000  0.88899000  1.0
  H  H25  1  0.70764000  0.15502000  0.61059000  1.0
  H  H26  1  0.45672000  0.40326000  0.11103000  1.0
  H  H27  1  0.29237000  0.84498000  0.38940000  1.0
  H  H28  1  0.69454000  0.32118000  0.86460000  1.0
  H  H29  1  0.45687000  0.33098000  0.63561000  1.0
  H  H30  1  0.30545000  0.67881000  0.13540000  1.0
  H  H31  1  0.54313000  0.66901000  0.36438000  1.0
  H  H32  1  0.34421000  0.52109000  0.88283000  1.0
  H  H33  1  0.63821000  0.96196000  0.61661000  1.0
  H  H34  1  0.65580000  0.47893000  0.11719000  1.0
  H  H35  1  0.36180000  0.03803000  0.38337000  1.0
  H  H36  1  0.53054000  0.26205000  0.85931000  1.0
  H  H37  1  0.40302000  0.17223000  0.64133000  1.0
  H  H38  1  0.46944000  0.73794000  0.14066000  1.0
  H  H39  1  0.59700000  0.82777000  0.35868000  1.0
  H  H40  1  0.33477000  0.20167000  0.85460000  1.0
  H  H41  1  0.34727000  0.98088000  0.64562000  1.0
  H  H42  1  0.66521000  0.79832000  0.14536000  1.0
  H  H43  1  0.65275000  0.01911000  0.35439000  1.0
  H  H44  1  0.87701000  0.39721000  0.84386000  1.0
  H  H45  1  0.55380000  0.53405000  0.65620000  1.0
  H  H46  1  0.12298000  0.60278000  0.15615000  1.0
  H  H47  1  0.44622000  0.46595000  0.34381000  1.0
  H  H48  1  0.29469000  0.74939000  0.54902000  1.0
  H  H49  1  0.19917000  0.24524000  0.95061000  1.0
  H  H50  1  0.70530000  0.25062000  0.45098000  1.0
  H  H51  1  0.80083000  0.75477000  0.04940000  1.0
  H  H52  1  0.10206000  0.72839000  0.54215000  1.0
  H  H53  1  0.18539000  0.05948000  0.95734000  1.0
  H  H54  1  0.89793000  0.27160000  0.45785000  1.0
  H  H55  1  0.81462000  0.94052000  0.04265000  1.0
  C  C56  1  0.81924000  0.62179000  0.87162000  1.0
  C  C57  1  0.75032000  0.44813000  0.62816000  1.0
  C  C58  1  0.18077000  0.37821000  0.12839000  1.0
  C  C59  1  0.24969000  0.55188000  0.37185000  1.0
  C  C60  1  0.48540000  0.72974000  0.62087000  1.0
  C  C61  1  0.10767000  0.36426000  0.87882000  1.0
  C  C62  1  0.51458000  0.27025000  0.37912000  1.0
  C  C63  1  0.89232000  0.63573000  0.12118000  1.0
  C  C64  1  0.59087000  0.73161000  0.63377000  1.0
  C  C65  1  0.09674000  0.45683000  0.86582000  1.0
  C  C66  1  0.40911000  0.26838000  0.36622000  1.0
  C  C67  1  0.90326000  0.54318000  0.13420000  1.0
  C  C68  1  0.51894000  0.76382000  0.78611000  1.0
  C  C69  1  0.97699000  0.23294000  0.71358000  1.0
  C  C70  1  0.48105000  0.23617000  0.21388000  1.0
  C  C71  1  0.02301000  0.76706000  0.28642000  1.0
  C  C72  1  0.67026000  0.47713000  0.87490000  1.0
  C  C73  1  0.60242000  0.29617000  0.62522000  1.0
  C  C74  1  0.32974000  0.52288000  0.12510000  1.0
  C  C75  1  0.39759000  0.70383000  0.37478000  1.0
  C  C76  1  0.62284000  0.76342000  0.79267000  1.0
  C  C77  1  0.97009000  0.33026000  0.70694000  1.0
  C  C78  1  0.37715000  0.23659000  0.20733000  1.0
  C  C79  1  0.02991000  0.66975000  0.29307000  1.0
  C  C80  1  0.44697000  0.74623000  0.69831000  1.0
  C  C81  1  0.04697000  0.24860000  0.80142000  1.0
  C  C82  1  0.55302000  0.25376000  0.30168000  1.0
  C  C83  1  0.95303000  0.75142000  0.19859000  1.0
  C  C84  1  0.49917000  0.50868000  0.88137000  1.0
  C  C85  1  0.62726000  0.11850000  0.61838000  1.0
  C  C86  1  0.50084000  0.49134000  0.11864000  1.0
  C  C87  1  0.37273000  0.88148000  0.38160000  1.0
  C  C88  1  0.72810000  0.40714000  0.86625000  1.0
  C  C89  1  0.54116000  0.36275000  0.63390000  1.0
  C  C90  1  0.27190000  0.59286000  0.13375000  1.0
  C  C91  1  0.45885000  0.63725000  0.36610000  1.0
  C  C92  1  0.55435000  0.43627000  0.87478000  1.0
  C  C93  1  0.56154000  0.18036000  0.62531000  1.0
  C  C94  1  0.44565000  0.56374000  0.12522000  1.0
  C  C95  1  0.43846000  0.81963000  0.37468000  1.0
  C  C96  1  0.38871000  0.46604000  0.87791000  1.0
  C  C97  1  0.58811000  0.01143000  0.62174000  1.0
  C  C98  1  0.61130000  0.53397000  0.12210000  1.0
  C  C99  1  0.41189000  0.98855000  0.37824000  1.0
  C  C100  1  0.49380000  0.32356000  0.86520000  1.0
  C  C101  1  0.45854000  0.12949000  0.63511000  1.0
  C  C102  1  0.50619000  0.67643000  0.13478000  1.0
  C  C103  1  0.54147000  0.87050000  0.36489000  1.0
  C  C104  1  0.38352000  0.28924000  0.86232000  1.0
  C  C105  1  0.42707000  0.02197000  0.63782000  1.0
  C  C106  1  0.61648000  0.71077000  0.13766000  1.0
  C  C107  1  0.57295000  0.97803000  0.36218000  1.0
  C  C108  1  0.33556000  0.74501000  0.68906000  1.0
  C  C109  1  0.05507000  0.14644000  0.81066000  1.0
  C  C110  1  0.66444000  0.25499000  0.31094000  1.0
  C  C111  1  0.94491000  0.85355000  0.18933000  1.0
  C  C112  1  0.83026000  0.44959000  0.85491000  1.0
  C  C113  1  0.59499000  0.47612000  0.64508000  1.0
  C  C114  1  0.16974000  0.55041000  0.14510000  1.0
  C  C115  1  0.40502000  0.52387000  0.35492000  1.0
  C  C116  1  0.26771000  0.74431000  0.60800000  1.0
  C  C117  1  0.13529000  0.15946000  0.89167000  1.0
  C  C118  1  0.73229000  0.25570000  0.39200000  1.0
  C  C119  1  0.86470000  0.84053000  0.10833000  1.0
  C  C120  1  0.19859000  0.73823000  0.75576000  1.0
  C  C121  1  0.98201000  0.94297000  0.74384000  1.0
  C  C122  1  0.80140000  0.26177000  0.24424000  1.0
  C  C123  1  0.01799000  0.05704000  0.25617000  1.0
  C  C124  1  0.16141000  0.73434000  0.60465000  1.0
  C  C125  1  0.12885000  0.05651000  0.89492000  1.0
  C  C126  1  0.83858000  0.26566000  0.39535000  1.0
  C  C127  1  0.87115000  0.94348000  0.10507000  1.0
  S  S128  1  0.87484000  0.76312000  0.88108000  1.0
  S  S129  1  0.88210000  0.49414000  0.61846000  1.0
  S  S130  1  0.12516000  0.23688000  0.11892000  1.0
  S  S131  1  0.11790000  0.50587000  0.38155000  1.0
  S  S132  1  0.15985000  0.74251000  0.85528000  1.0
  S  S133  1  0.88715000  0.80501000  0.64430000  1.0
  S  S134  1  0.84015000  0.25749000  0.14472000  1.0
  S  S135  1  0.11284000  0.19498000  0.35570000  1.0
  N  N136  1  0.65933000  0.74733000  0.71800000  1.0
  N  N137  1  0.02852000  0.44122000  0.78155000  1.0
  N  N138  1  0.34067000  0.25266000  0.28200000  1.0
  N  N139  1  0.97148000  0.55879000  0.21846000  1.0
  N  N140  1  0.71853000  0.58515000  0.88096000  1.0
  N  N141  1  0.70435000  0.33822000  0.61902000  1.0
  N  N142  1  0.28147000  0.41486000  0.11904000  1.0
  N  N143  1  0.29566000  0.66178000  0.38098000  1.0
  N  N144  1  0.33061000  0.35817000  0.86851000  1.0
  N  N145  1  0.48971000  0.96273000  0.63129000  1.0
  N  N146  1  0.66939000  0.64184000  0.13148000  1.0
  N  N147  1  0.51031000  0.03727000  0.36870000  1.0
  N  N148  1  0.87570000  0.55369000  0.85355000  1.0
  N  N149  1  0.70032000  0.52269000  0.64620000  1.0
  N  N150  1  0.12430000  0.44630000  0.14645000  1.0
  N  N151  1  0.29967000  0.47730000  0.35380000  1.0
  N  N152  1  0.30074000  0.74362000  0.76252000  1.0
  N  N153  1  0.98053000  0.03839000  0.73715000  1.0
  N  N154  1  0.69926000  0.25639000  0.23748000  1.0
  N  N155  1  0.01947000  0.96162000  0.26286000  1.0
  N  N156  1  0.12402000  0.72872000  0.67591000  1.0
  N  N157  1  0.05221000  0.94804000  0.82368000  1.0
  N  N158  1  0.87597000  0.27128000  0.32409000  1.0
  N  N159  1  0.94779000  0.05197000  0.17632000  1.0
