# generated using pymatgen
data_AgH5C5(NO2)2
_symmetry_space_group_name_H-M   'P 1'
_cell_length_a   5.10169000
_cell_length_b   7.82008000
_cell_length_c   18.06030000
_cell_angle_alpha   90.00040000
_cell_angle_beta   90.00130000
_cell_angle_gamma   85.84850000
_symmetry_Int_Tables_number   1
_chemical_formula_structural   AgH5C5(NO2)2
_chemical_formula_sum   'Ag4 H20 C20 N8 O16'
_cell_volume   718.63635688
_cell_formula_units_Z   4
loop_
 _symmetry_equiv_pos_site_id
 _symmetry_equiv_pos_as_xyz
  1  'x, y, z'
loop_
 _atom_site_type_symbol
 _atom_site_label
 _atom_site_symmetry_multiplicity
 _atom_site_fract_x
 _atom_site_fract_y
 _atom_site_fract_z
 _atom_site_occupancy
  Ag  Ag0  1  0.73047000  0.70593000  0.83463000  1.0
  Ag  Ag1  1  0.76954000  0.79406000  0.33462000  1.0
  Ag  Ag2  1  0.26953000  0.29407000  0.16538000  1.0
  Ag  Ag3  1  0.23046000  0.20592000  0.66537000  1.0
  H  H4  1  0.58917000  0.00982000  0.05941000  1.0
  H  H5  1  0.91082000  0.49018000  0.55940000  1.0
  H  H6  1  0.41082000  0.99018000  0.94060000  1.0
  H  H7  1  0.08920000  0.50980000  0.44060000  1.0
  H  H8  1  0.10182000  0.63135000  0.95949000  1.0
  H  H9  1  0.39815000  0.86866000  0.45948000  1.0
  H  H10  1  0.89816000  0.36866000  0.04052000  1.0
  H  H11  1  0.60187000  0.13133000  0.54051000  1.0
  H  H12  1  0.37340000  0.61849000  0.07498000  1.0
  H  H13  1  0.12661000  0.88152000  0.57498000  1.0
  H  H14  1  0.62660000  0.38152000  0.92502000  1.0
  H  H15  1  0.87341000  0.11847000  0.42501000  1.0
  H  H16  1  0.24251000  0.80642000  0.18205000  1.0
  H  H17  1  0.25751000  0.69360000  0.68205000  1.0
  H  H18  1  0.75748000  0.19360000  0.81795000  1.0
  H  H19  1  0.74251000  0.30640000  0.31795000  1.0
  H  H20  1  0.82940000  0.00730000  0.16982000  1.0
  H  H21  1  0.67062000  0.49270000  0.66981000  1.0
  H  H22  1  0.17060000  0.99271000  0.83019000  1.0
  H  H23  1  0.32939000  0.50729000  0.33019000  1.0
  C  C24  1  0.81345000  0.82001000  0.00289000  1.0
  C  C25  1  0.68654000  0.68001000  0.50288000  1.0
  C  C26  1  0.18654000  0.18001000  0.99712000  1.0
  C  C27  1  0.31348000  0.31998000  0.49711000  1.0
  C  C28  1  0.04606000  0.70923000  0.00771000  1.0
  C  C29  1  0.45393000  0.79078000  0.50770000  1.0
  C  C30  1  0.95393000  0.29078000  0.99229000  1.0
  C  C31  1  0.54610000  0.20920000  0.49229000  1.0
  C  C32  1  0.19590000  0.70497000  0.07141000  1.0
  C  C33  1  0.30410000  0.79505000  0.57140000  1.0
  C  C34  1  0.80409000  0.29504000  0.92860000  1.0
  C  C35  1  0.69592000  0.20495000  0.42859000  1.0
  C  C36  1  0.12404000  0.81133000  0.13218000  1.0
  C  C37  1  0.37598000  0.68868000  0.63217000  1.0
  C  C38  1  0.87595000  0.18869000  0.86783000  1.0
  C  C39  1  0.62403000  0.31132000  0.36782000  1.0
  C  C40  1  0.90057000  0.91953000  0.12632000  1.0
  C  C41  1  0.59944000  0.58048000  0.62631000  1.0
  C  C42  1  0.09942000  0.08049000  0.87369000  1.0
  C  C43  1  0.40057000  0.41951000  0.37368000  1.0
  N  N44  1  0.75337000  0.92140000  0.06372000  1.0
  N  N45  1  0.74661000  0.57861000  0.56371000  1.0
  N  N46  1  0.24660000  0.07862000  0.93629000  1.0
  N  N47  1  0.25340000  0.42138000  0.43628000  1.0
  N  N48  1  0.72186000  0.98544000  0.70779000  1.0
  N  N49  1  0.77813000  0.51455000  0.20778000  1.0
  N  N50  1  0.27814000  0.01455000  0.29221000  1.0
  N  N51  1  0.22186000  0.48545000  0.79221000  1.0
  O  O52  1  0.65736000  0.83295000  0.94696000  1.0
  O  O53  1  0.84262000  0.66706000  0.44696000  1.0
  O  O54  1  0.34263000  0.16706000  0.05304000  1.0
  O  O55  1  0.15740000  0.33293000  0.55303000  1.0
  O  O56  1  0.48700000  0.98578000  0.73158000  1.0
  O  O57  1  0.01300000  0.51422000  0.23158000  1.0
  O  O58  1  0.51300000  0.01422000  0.26842000  1.0
  O  O59  1  0.98699000  0.48578000  0.76842000  1.0
  O  O60  1  0.89631000  0.87755000  0.73284000  1.0
  O  O61  1  0.60368000  0.62244000  0.23284000  1.0
  O  O62  1  0.10369000  0.12245000  0.26717000  1.0
  O  O63  1  0.39630000  0.37756000  0.76716000  1.0
  O  O64  1  0.77979000  0.09403000  0.65894000  1.0
  O  O65  1  0.72019000  0.40596000  0.15893000  1.0
  O  O66  1  0.22020000  0.90596000  0.34106000  1.0
  O  O67  1  0.27981000  0.59403000  0.84106000  1.0
