# generated using pymatgen
data_AgH5C7N3(OF)3
_symmetry_space_group_name_H-M   'P 1'
_cell_length_a   7.06340000
_cell_length_b   7.15134000
_cell_length_c   10.66240000
_cell_angle_alpha   92.40740000
_cell_angle_beta   95.87770000
_cell_angle_gamma   114.49600000
_symmetry_Int_Tables_number   1
_chemical_formula_structural   AgH5C7N3(OF)3
_chemical_formula_sum   'Ag2 H10 C14 N6 O6 F6'
_cell_volume   485.40558471
_cell_formula_units_Z   2
loop_
 _symmetry_equiv_pos_site_id
 _symmetry_equiv_pos_as_xyz
  1  'x, y, z'
loop_
 _atom_site_type_symbol
 _atom_site_label
 _atom_site_symmetry_multiplicity
 _atom_site_fract_x
 _atom_site_fract_y
 _atom_site_fract_z
 _atom_site_occupancy
  Ag  Ag0  1  0.68043000  0.44376000  0.47241000  1.0
  Ag  Ag1  1  0.31957000  0.55624000  0.52759000  1.0
  H  H2  1  0.19417000  0.35213000  0.79501000  1.0
  H  H3  1  0.80584000  0.64788000  0.20499000  1.0
  H  H4  1  0.96819000  0.19847000  0.86556000  1.0
  H  H5  1  0.03181000  0.80153000  0.13444000  1.0
  H  H6  1  0.23857000  0.10716000  0.53046000  1.0
  H  H7  1  0.76142000  0.89283000  0.46955000  1.0
  H  H8  1  0.36006000  0.85436000  0.87501000  1.0
  H  H9  1  0.63995000  0.14564000  0.12499000  1.0
  H  H10  1  0.09355000  0.86769000  0.69971000  1.0
  H  H11  1  0.90645000  0.13230000  0.30029000  1.0
  C  C12  1  0.64583000  0.63791000  0.75208000  1.0
  C  C13  1  0.35415000  0.36208000  0.24792000  1.0
  C  C14  1  0.75065000  0.66820000  0.89180000  1.0
  C  C15  1  0.24934000  0.33181000  0.10820000  1.0
  C  C16  1  0.67641000  0.16162000  0.69602000  1.0
  C  C17  1  0.32360000  0.83838000  0.30398000  1.0
  C  C18  1  0.34078000  0.08448000  0.60637000  1.0
  C  C19  1  0.65921000  0.91552000  0.39363000  1.0
  C  C20  1  0.40861000  0.94638000  0.79539000  1.0
  C  C21  1  0.59140000  0.05362000  0.20462000  1.0
  C  C22  1  0.26214000  0.95557000  0.70054000  1.0
  C  C23  1  0.73787000  0.04442000  0.29946000  1.0
  C  C24  1  0.90968000  0.26896000  0.68806000  1.0
  C  C25  1  0.09032000  0.73104000  0.31195000  1.0
  N  N26  1  0.54828000  0.18864000  0.60376000  1.0
  N  N27  1  0.45171000  0.81136000  0.39624000  1.0
  N  N28  1  0.61605000  0.04829000  0.79313000  1.0
  N  N29  1  0.38395000  0.95171000  0.20687000  1.0
  N  N30  1  0.03480000  0.27263000  0.79144000  1.0
  N  N31  1  0.96520000  0.72737000  0.20856000  1.0
  O  O32  1  0.76559000  0.70740000  0.66996000  1.0
  O  O33  1  0.23440000  0.29259000  0.33003000  1.0
  O  O34  1  0.44803000  0.53859000  0.73766000  1.0
  O  O35  1  0.55196000  0.46141000  0.26234000  1.0
  O  O36  1  0.97166000  0.34558000  0.58842000  1.0
  O  O37  1  0.02833000  0.65442000  0.41158000  1.0
  F  F38  1  0.75806000  0.48848000  0.92561000  1.0
  F  F39  1  0.24196000  0.51154000  0.07439000  1.0
  F  F40  1  0.95284000  0.81592000  0.91091000  1.0
  F  F41  1  0.04716000  0.18410000  0.08908000  1.0
  F  F42  1  0.64507000  0.72213000  0.97575000  1.0
  F  F43  1  0.35493000  0.27787000  0.02425000  1.0
