# generated using pymatgen
data_ZnH20C22(NO)4
_symmetry_space_group_name_H-M   'P 1'
_cell_length_a   9.00983000
_cell_length_b   11.73920000
_cell_length_c   11.73930000
_cell_angle_alpha   89.91860000
_cell_angle_beta   68.46800000
_cell_angle_gamma   68.46800000
_symmetry_Int_Tables_number   1
_chemical_formula_structural   ZnH20C22(NO)4
_chemical_formula_sum   'Zn2 H40 C44 N8 O8'
_cell_volume   1061.56776528
_cell_formula_units_Z   2
loop_
 _symmetry_equiv_pos_site_id
 _symmetry_equiv_pos_as_xyz
  1  'x, y, z'
loop_
 _atom_site_type_symbol
 _atom_site_label
 _atom_site_symmetry_multiplicity
 _atom_site_fract_x
 _atom_site_fract_y
 _atom_site_fract_z
 _atom_site_occupancy
  Zn  Zn0  1  0.25000000  0.57750000  0.42250000  1.0
  Zn  Zn1  1  0.75000000  0.42250000  0.57750000  1.0
  H  H2  1  0.61806000  0.40204000  0.24393000  1.0
  H  H3  1  0.88194000  0.75608000  0.59796000  1.0
  H  H4  1  0.38194000  0.59797000  0.75608000  1.0
  H  H5  1  0.11806000  0.24392000  0.40204000  1.0
  H  H6  1  0.24446000  0.30923000  0.52151000  1.0
  H  H7  1  0.25554000  0.47849000  0.69077000  1.0
  H  H8  1  0.75555000  0.69077000  0.47849000  1.0
  H  H9  1  0.74447000  0.52151000  0.30923000  1.0
  H  H10  1  0.55886000  0.10061000  0.42707000  1.0
  H  H11  1  0.94114000  0.57293000  0.89939000  1.0
  H  H12  1  0.44115000  0.89939000  0.57293000  1.0
  H  H13  1  0.05887000  0.42707000  0.10061000  1.0
  H  H14  1  0.81453000  0.24245000  0.08012000  1.0
  H  H15  1  0.68547000  0.91989000  0.75755000  1.0
  H  H16  1  0.18547000  0.75755000  0.91988000  1.0
  H  H17  1  0.31454000  0.08011000  0.24245000  1.0
  H  H18  1  0.11501000  0.10761000  0.94748000  1.0
  H  H19  1  0.38499000  0.05252000  0.89239000  1.0
  H  H20  1  0.88500000  0.89239000  0.05252000  1.0
  H  H21  1  0.61502000  0.94748000  0.10761000  1.0
  H  H22  1  0.15941000  0.90967000  0.25231000  1.0
  H  H23  1  0.34059000  0.74768000  0.09032000  1.0
  H  H24  1  0.84060000  0.09033000  0.74769000  1.0
  H  H25  1  0.65941000  0.25231000  0.90967000  1.0
  H  H26  1  0.86343000  0.04934000  0.38561000  1.0
  H  H27  1  0.63657000  0.61438000  0.95066000  1.0
  H  H28  1  0.13658000  0.95066000  0.61439000  1.0
  H  H29  1  0.36342000  0.38561000  0.04934000  1.0
  H  H30  1  0.45451000  0.90606000  0.30176000  1.0
  H  H31  1  0.04548000  0.69824000  0.09394000  1.0
  H  H32  1  0.54549000  0.09394000  0.69824000  1.0
  H  H33  1  0.95451000  0.30176000  0.90607000  1.0
  H  H34  1  0.57559000  0.76498000  0.19368000  1.0
  H  H35  1  0.92440000  0.80632000  0.23503000  1.0
  H  H36  1  0.42441000  0.23503000  0.80632000  1.0
  H  H37  1  0.07559000  0.19368000  0.76498000  1.0
  H  H38  1  0.61886000  0.77957000  0.32732000  1.0
  H  H39  1  0.88112000  0.67268000  0.22043000  1.0
  H  H40  1  0.38113000  0.22043000  0.67268000  1.0
  H  H41  1  0.11886000  0.32732000  0.77957000  1.0
  C  C42  1  0.55787000  0.34874000  0.30568000  1.0
  C  C43  1  0.94213000  0.69432000  0.65126000  1.0
  C  C44  1  0.44213000  0.65126000  0.69432000  1.0
  C  C45  1  0.05787000  0.30568000  0.34874000  1.0
  C  C46  1  0.36991000  0.29653000  0.45001000  1.0
  C  C47  1  0.13009000  0.54999000  0.70347000  1.0
  C  C48  1  0.63009000  0.70347000  0.54999000  1.0
  C  C49  1  0.86992000  0.45001000  0.29653000  1.0
  C  C50  1  0.52306000  0.19375000  0.40478000  1.0
  C  C51  1  0.97694000  0.59522000  0.80625000  1.0
  C  C52  1  0.47695000  0.80625000  0.59522000  1.0
  C  C53  1  0.02307000  0.40478000  0.19375000  1.0
  C  C54  1  0.81811000  0.15203000  0.23989000  1.0
  C  C55  1  0.68189000  0.76011000  0.84797000  1.0
  C  C56  1  0.18189000  0.84797000  0.76011000  1.0
  C  C57  1  0.31811000  0.23989000  0.15203000  1.0
  C  C58  1  0.89255000  0.17160000  0.11817000  1.0
  C  C59  1  0.60744000  0.88183000  0.82840000  1.0
  C  C60  1  0.10745000  0.82840000  0.88183000  1.0
  C  C61  1  0.39256000  0.11816000  0.17160000  1.0
  C  C62  1  0.06216000  0.09470000  0.04376000  1.0
  C  C63  1  0.43784000  0.95624000  0.90530000  1.0
  C  C64  1  0.93785000  0.90530000  0.95624000  1.0
  C  C65  1  0.56216000  0.04376000  0.09470000  1.0
  C  C66  1  0.16131000  0.99604000  0.08740000  1.0
  C  C67  1  0.33868000  0.91260000  0.00396000  1.0
  C  C68  1  0.83869000  0.00396000  0.91260000  1.0
  C  C69  1  0.66132000  0.08740000  0.99604000  1.0
  C  C70  1  0.08566000  0.98055000  0.21144000  1.0
  C  C71  1  0.41434000  0.78856000  0.01944000  1.0
  C  C72  1  0.91434000  0.01945000  0.78856000  1.0
  C  C73  1  0.58566000  0.21144000  0.98055000  1.0
  C  C74  1  0.91602000  0.05832000  0.28784000  1.0
  C  C75  1  0.58397000  0.71216000  0.94167000  1.0
  C  C76  1  0.08398000  0.94168000  0.71216000  1.0
  C  C77  1  0.41603000  0.28784000  0.05832000  1.0
  C  C78  1  0.38281000  0.75283000  0.36205000  1.0
  C  C79  1  0.11718000  0.63795000  0.24717000  1.0
  C  C80  1  0.61718000  0.24717000  0.63795000  1.0
  C  C81  1  0.88281000  0.36205000  0.75284000  1.0
  C  C82  1  0.51567000  0.80507000  0.29227000  1.0
  C  C83  1  0.98432000  0.70774000  0.19493000  1.0
  C  C84  1  0.48433000  0.19493000  0.70773000  1.0
  C  C85  1  0.01567000  0.29227000  0.80507000  1.0
  N  N86  1  0.39433000  0.39231000  0.38732000  1.0
  N  N87  1  0.10566000  0.61269000  0.60769000  1.0
  N  N88  1  0.60567000  0.60769000  0.61269000  1.0
  N  N89  1  0.89434000  0.38731000  0.39231000  1.0
  N  N90  1  0.64176000  0.22805000  0.31351000  1.0
  N  N91  1  0.85824000  0.68649000  0.77195000  1.0
  N  N92  1  0.35824000  0.77195000  0.68649000  1.0
  N  N93  1  0.14176000  0.31351000  0.22805000  1.0
  O  O94  1  0.22533000  0.82173000  0.41381000  1.0
  O  O95  1  0.27467000  0.58618000  0.17827000  1.0
  O  O96  1  0.77467000  0.17827000  0.58618000  1.0
  O  O97  1  0.72533000  0.41382000  0.82174000  1.0
  O  O98  1  0.44532000  0.63354000  0.36122000  1.0
  O  O99  1  0.05467000  0.63878000  0.36646000  1.0
  O  O100  1  0.55467000  0.36646000  0.63877000  1.0
  O  O101  1  0.94531000  0.36122000  0.63354000  1.0
