# generated using pymatgen
data_NiH20C18(N2O3)2
_symmetry_space_group_name_H-M   'P 1'
_cell_length_a   7.42963000
_cell_length_b   8.55916000
_cell_length_c   8.74031291
_cell_angle_alpha   66.47803782
_cell_angle_beta   65.30425284
_cell_angle_gamma   71.11200000
_symmetry_Int_Tables_number   1
_chemical_formula_structural   NiH20C18(N2O3)2
_chemical_formula_sum   'Ni1 H20 C18 N4 O6'
_cell_volume   454.71962593
_cell_formula_units_Z   1
loop_
 _symmetry_equiv_pos_site_id
 _symmetry_equiv_pos_as_xyz
  1  'x, y, z'
loop_
 _atom_site_type_symbol
 _atom_site_label
 _atom_site_symmetry_multiplicity
 _atom_site_fract_x
 _atom_site_fract_y
 _atom_site_fract_z
 _atom_site_occupancy
  Ni  Ni0  1  0.00000000  0.50000000  0.50000000  1.0
  H  H1  1  0.64777000  0.37282000  0.15250000  1.0
  H  H2  1  0.35223000  0.62717000  0.84750000  1.0
  H  H3  1  0.78870000  0.26673000  0.87846000  1.0
  H  H4  1  0.21130000  0.73327000  0.12154000  1.0
  H  H5  1  0.02315000  0.83586000  0.55832000  1.0
  H  H6  1  0.97686000  0.16414000  0.44168000  1.0
  H  H7  1  0.94371000  0.04213000  0.72632000  1.0
  H  H8  1  0.05628000  0.95787000  0.27369000  1.0
  H  H9  1  0.76176000  0.96235000  0.04961000  1.0
  H  H10  1  0.23823000  0.03764000  0.95040000  1.0
  H  H11  1  0.64139000  0.68178000  0.21361000  1.0
  H  H12  1  0.35860000  0.31821000  0.78640000  1.0
  H  H13  1  0.30701000  0.96819000  0.66154000  1.0
  H  H14  1  0.69299000  0.03181000  0.33846000  1.0
  H  H15  1  0.51873000  0.02942000  0.65502000  1.0
  H  H16  1  0.48128000  0.97058000  0.34498000  1.0
  H  H17  1  0.63311000  0.32975000  0.50488000  1.0
  H  H18  1  0.36689000  0.67025000  0.49512000  1.0
  H  H19  1  0.63143000  0.44971000  0.60152000  1.0
  H  H20  1  0.36857000  0.55029000  0.39848000  1.0
  C  C21  1  0.80370000  0.38780000  0.88002000  1.0
  C  C22  1  0.19630000  0.61220000  0.11998000  1.0
  C  C23  1  0.94036000  0.80441000  0.69946000  1.0
  C  C24  1  0.05963000  0.19559000  0.30054000  1.0
  C  C25  1  0.89700000  0.91661000  0.79504000  1.0
  C  C26  1  0.10299000  0.08339000  0.20497000  1.0
  C  C27  1  0.79217000  0.87193000  0.97860000  1.0
  C  C28  1  0.20781000  0.12807000  0.02141000  1.0
  C  C29  1  0.72686000  0.71442000  0.07293000  1.0
  C  C30  1  0.27313000  0.28558000  0.92707000  1.0
  C  C31  1  0.76937000  0.60255000  0.97680000  1.0
  C  C32  1  0.23062000  0.39746000  0.02320000  1.0
  C  C33  1  0.87499000  0.64549000  0.79255000  1.0
  C  C34  1  0.12500000  0.35451000  0.20745000  1.0
  C  C35  1  0.34625000  0.22973000  0.50465000  1.0
  C  C36  1  0.65375000  0.77027000  0.49535000  1.0
  C  C37  1  0.43111000  0.03884000  0.57518000  1.0
  C  C38  1  0.56890000  0.96116000  0.42482000  1.0
  N  N39  1  0.72735000  0.43921000  0.02654000  1.0
  N  N40  1  0.27264000  0.56078000  0.97346000  1.0
  N  N41  1  0.89348000  0.50736000  0.73690000  1.0
  N  N42  1  0.10653000  0.49264000  0.26309000  1.0
  O  O43  1  0.15449000  0.27427000  0.57390000  1.0
  O  O44  1  0.84551000  0.72573000  0.42610000  1.0
  O  O45  1  0.46487000  0.33170000  0.38881000  1.0
  O  O46  1  0.53514000  0.66830000  0.61119000  1.0
  O  O47  1  0.67589000  0.32883000  0.59738000  1.0
  O  O48  1  0.32410000  0.67117000  0.40263000  1.0
