# generated using pymatgen
data_CdPH17C21(NO2)2
_symmetry_space_group_name_H-M   'P 1'
_cell_length_a   11.34880000
_cell_length_b   12.34330000
_cell_length_c   26.41870000
_cell_angle_alpha   100.79300000
_cell_angle_beta   91.30630000
_cell_angle_gamma   112.13400000
_symmetry_Int_Tables_number   1
_chemical_formula_structural   CdPH17C21(NO2)2
_chemical_formula_sum   'Cd6 P6 H102 C126 N12 O24'
_cell_volume   3349.63656813
_cell_formula_units_Z   6
loop_
 _symmetry_equiv_pos_site_id
 _symmetry_equiv_pos_as_xyz
  1  'x, y, z'
loop_
 _atom_site_type_symbol
 _atom_site_label
 _atom_site_symmetry_multiplicity
 _atom_site_fract_x
 _atom_site_fract_y
 _atom_site_fract_z
 _atom_site_occupancy
  Cd  Cd0  1  0.45842000  0.89073000  0.04034000  1.0
  Cd  Cd1  1  0.54158000  0.10927000  0.95966000  1.0
  Cd  Cd2  1  0.01211000  0.38459000  0.23487000  1.0
  Cd  Cd3  1  0.98789000  0.61542000  0.76513000  1.0
  Cd  Cd4  1  0.95942000  0.25319000  0.38974000  1.0
  Cd  Cd5  1  0.04059000  0.74681000  0.61026000  1.0
  P  P6  1  0.85743000  0.11735000  0.26918000  1.0
  P  P7  1  0.14256000  0.88266000  0.73082000  1.0
  P  P8  1  0.47051000  0.20294000  0.07257000  1.0
  P  P9  1  0.52949000  0.79707000  0.92743000  1.0
  P  P10  1  0.08801000  0.51528000  0.35594000  1.0
  P  P11  1  0.91200000  0.48473000  0.64406000  1.0
  H  H12  1  0.08810000  0.06311000  0.26574000  1.0
  H  H13  1  0.91190000  0.93689000  0.73427000  1.0
  H  H14  1  0.13269000  0.88899000  0.28166000  1.0
  H  H15  1  0.86731000  0.11102000  0.71835000  1.0
  H  H16  1  0.95577000  0.71079000  0.30129000  1.0
  H  H17  1  0.04423000  0.28921000  0.69871000  1.0
  H  H18  1  0.73704000  0.71017000  0.30487000  1.0
  H  H19  1  0.26296000  0.28983000  0.69513000  1.0
  H  H20  1  0.69359000  0.88340000  0.28849000  1.0
  H  H21  1  0.30641000  0.11660000  0.71151000  1.0
  H  H22  1  0.63946000  0.00098000  0.23324000  1.0
  H  H23  1  0.36053000  0.99901000  0.76676000  1.0
  H  H24  1  0.70046000  0.14542000  0.21943000  1.0
  H  H25  1  0.29953000  0.85457000  0.78057000  1.0
  H  H26  1  0.83217000  0.08360000  0.15367000  1.0
  H  H27  1  0.16783000  0.91639000  0.84633000  1.0
  H  H28  1  0.78089000  0.94061000  0.16780000  1.0
  H  H29  1  0.21911000  0.05938000  0.83220000  1.0
  H  H30  1  0.24096000  0.24651000  0.06290000  1.0
  H  H31  1  0.75904000  0.75350000  0.93710000  1.0
  H  H32  1  0.03873000  0.18784000  0.10746000  1.0
  H  H33  1  0.96127000  0.81217000  0.89255000  1.0
  H  H34  1  0.01341000  0.06206000  0.17249000  1.0
  H  H35  1  0.98660000  0.93795000  0.82752000  1.0
  H  H36  1  0.18499000  0.99421000  0.19362000  1.0
  H  H37  1  0.81502000  0.00579000  0.80639000  1.0
  H  H38  1  0.38390000  0.05170000  0.14939000  1.0
  H  H39  1  0.61610000  0.94830000  0.85061000  1.0
  H  H40  1  0.59531000  0.34063000  0.14902000  1.0
  H  H41  1  0.40470000  0.65938000  0.85098000  1.0
  H  H42  1  0.57415000  0.19166000  0.15044000  1.0
  H  H43  1  0.42585000  0.80835000  0.84956000  1.0
  H  H44  1  0.72562000  0.19531000  0.08111000  1.0
  H  H45  1  0.27437000  0.80469000  0.91889000  1.0
  H  H46  1  0.75174000  0.34529000  0.08230000  1.0
  H  H47  1  0.24826000  0.65472000  0.91770000  1.0
  H  H48  1  0.15198000  0.74117000  0.32438000  1.0
  H  H49  1  0.84802000  0.25882000  0.67562000  1.0
  H  H50  1  0.35784000  0.90481000  0.31678000  1.0
  H  H51  1  0.64216000  0.09518000  0.68321000  1.0
  H  H52  1  0.56345000  0.88802000  0.33863000  1.0
  H  H53  1  0.43655000  0.11199000  0.66137000  1.0
  H  H54  1  0.56341000  0.70413000  0.36457000  1.0
  H  H55  1  0.43660000  0.29588000  0.63543000  1.0
  H  H56  1  0.35617000  0.54034000  0.37217000  1.0
  H  H57  1  0.64384000  0.45967000  0.62783000  1.0
  H  H58  1  0.01408000  0.65271000  0.40660000  1.0
  H  H59  1  0.98594000  0.34730000  0.59340000  1.0
  H  H60  1  0.94318000  0.50839000  0.41989000  1.0
  H  H61  1  0.05683000  0.49161000  0.58011000  1.0
  H  H62  1  0.15594000  0.53688000  0.46643000  1.0
  H  H63  1  0.84407000  0.46313000  0.53357000  1.0
  H  H64  1  0.22306000  0.68378000  0.45674000  1.0
  H  H65  1  0.77695000  0.31622000  0.54326000  1.0
  H  H66  1  0.23825000  0.98092000  0.99824000  1.0
  H  H67  1  0.76173000  0.01906000  0.00176000  1.0
  H  H68  1  0.99970000  0.91960000  0.99271000  1.0
  H  H69  1  0.00028000  0.08039000  0.00729000  1.0
  H  H70  1  0.86596000  0.73815000  0.02470000  1.0
  H  H71  1  0.13403000  0.26184000  0.97531000  1.0
  H  H72  1  0.85407000  0.55716000  0.05866000  1.0
  H  H73  1  0.14593000  0.44284000  0.94134000  1.0
  H  H74  1  0.96513000  0.43019000  0.08261000  1.0
  H  H75  1  0.03487000  0.56981000  0.91739000  1.0
  H  H76  1  0.16068000  0.39133000  0.09060000  1.0
  H  H77  1  0.83931000  0.60867000  0.90940000  1.0
  H  H78  1  0.39645000  0.45232000  0.07854000  1.0
  H  H79  1  0.60355000  0.54769000  0.92146000  1.0
  H  H80  1  0.51311000  0.65294000  0.05624000  1.0
  H  H81  1  0.48689000  0.34707000  0.94376000  1.0
  H  H82  1  0.98066000  0.61549000  0.19703000  1.0
  H  H83  1  0.01933000  0.38452000  0.80297000  1.0
  H  H84  1  0.11268000  0.80668000  0.17065000  1.0
  H  H85  1  0.88732000  0.19331000  0.82935000  1.0
  H  H86  1  0.35134000  0.86260000  0.16990000  1.0
  H  H87  1  0.64866000  0.13739000  0.83009000  1.0
  H  H88  1  0.53772000  0.80940000  0.18277000  1.0
  H  H89  1  0.46228000  0.19060000  0.81722000  1.0
  H  H90  1  0.62758000  0.66697000  0.20499000  1.0
  H  H91  1  0.37243000  0.33303000  0.79501000  1.0
  H  H92  1  0.59281000  0.47229000  0.23190000  1.0
  H  H93  1  0.40720000  0.52771000  0.76811000  1.0
  H  H94  1  0.44028000  0.28615000  0.25568000  1.0
  H  H95  1  0.55972000  0.71385000  0.74432000  1.0
  H  H96  1  0.20673000  0.25546000  0.25706000  1.0
  H  H97  1  0.79327000  0.74454000  0.74294000  1.0
  H  H98  1  0.69662000  0.05312000  0.42337000  1.0
  H  H99  1  0.30338000  0.94688000  0.57663000  1.0
  H  H100  1  0.62624000  0.86243000  0.45695000  1.0
  H  H101  1  0.37376000  0.13757000  0.54305000  1.0
  H  H102  1  0.78783000  0.77183000  0.46899000  1.0
  H  H103  1  0.21217000  0.22817000  0.53101000  1.0
  H  H104  1  0.00962000  0.78552000  0.46526000  1.0
  H  H105  1  0.99037000  0.21448000  0.53474000  1.0
  H  H106  1  0.22772000  0.88293000  0.43899000  1.0
  H  H107  1  0.77228000  0.11706000  0.56102000  1.0
  H  H108  1  0.38510000  0.05010000  0.40407000  1.0
  H  H109  1  0.61491000  0.94989000  0.59593000  1.0
  H  H110  1  0.43223000  0.23746000  0.37021000  1.0
  H  H111  1  0.56777000  0.76253000  0.62979000  1.0
  H  H112  1  0.25437000  0.31305000  0.36272000  1.0
  H  H113  1  0.74563000  0.68693000  0.63728000  1.0
  C  C114  1  0.88843000  0.98559000  0.27625000  1.0
  C  C115  1  0.11157000  0.01441000  0.72375000  1.0
  C  C116  1  0.01160000  0.98531000  0.27423000  1.0
  C  C117  1  0.98840000  0.01470000  0.72577000  1.0
  C  C118  1  0.03616000  0.88753000  0.28339000  1.0
  C  C119  1  0.96384000  0.11248000  0.71661000  1.0
  C  C120  1  0.93782000  0.78809000  0.29447000  1.0
  C  C121  1  0.06218000  0.21191000  0.70553000  1.0
  C  C122  1  0.81445000  0.78740000  0.29629000  1.0
  C  C123  1  0.18555000  0.21260000  0.70371000  1.0
  C  C124  1  0.79019000  0.88518000  0.28715000  1.0
  C  C125  1  0.20981000  0.11482000  0.71285000  1.0
  C  C126  1  0.72272000  0.06620000  0.22007000  1.0
  C  C127  1  0.27728000  0.93379000  0.77993000  1.0
  C  C128  1  0.75123000  0.01566000  0.16668000  1.0
  C  C129  1  0.24877000  0.98433000  0.83332000  1.0
  C  C130  1  0.64092000  0.97018000  0.12419000  1.0
  C  C131  1  0.35909000  0.02981000  0.87581000  1.0
  C  C132  1  0.32407000  0.15367000  0.10357000  1.0
  C  C133  1  0.67593000  0.84633000  0.89643000  1.0
  C  C134  1  0.22611000  0.19031000  0.09142000  1.0
  C  C135  1  0.77390000  0.80969000  0.90858000  1.0
  C  C136  1  0.11354000  0.15632000  0.11557000  1.0
  C  C137  1  0.88647000  0.84369000  0.88443000  1.0
  C  C138  1  0.09890000  0.08515000  0.15219000  1.0
  C  C139  1  0.90112000  0.91486000  0.84782000  1.0
  C  C140  1  0.19608000  0.04793000  0.16432000  1.0
  C  C141  1  0.80393000  0.95207000  0.83568000  1.0
  C  C142  1  0.30832000  0.08139000  0.14008000  1.0
  C  C143  1  0.69168000  0.91861000  0.85992000  1.0
  C  C144  1  0.59639000  0.25758000  0.12565000  1.0
  C  C145  1  0.40361000  0.74243000  0.87435000  1.0
  C  C146  1  0.72666000  0.27728000  0.10633000  1.0
  C  C147  1  0.27334000  0.72272000  0.89367000  1.0
  C  C148  1  0.83405000  0.31652000  0.14955000  1.0
  C  C149  1  0.16595000  0.68349000  0.85045000  1.0
  C  C150  1  0.24109000  0.63087000  0.34930000  1.0
  C  C151  1  0.75891000  0.36913000  0.65070000  1.0
  C  C152  1  0.24236000  0.73377000  0.33361000  1.0
  C  C153  1  0.75765000  0.26622000  0.66639000  1.0
  C  C154  1  0.35773000  0.82549000  0.32941000  1.0
  C  C155  1  0.64228000  0.17451000  0.67059000  1.0
  C  C156  1  0.47334000  0.81534000  0.34104000  1.0
  C  C157  1  0.52666000  0.18467000  0.65895000  1.0
  C  C158  1  0.47308000  0.71241000  0.35595000  1.0
  C  C159  1  0.52693000  0.28760000  0.64405000  1.0
  C  C160  1  0.35745000  0.62072000  0.36026000  1.0
  C  C161  1  0.64256000  0.37929000  0.63974000  1.0
  C  C162  1  0.03488000  0.57707000  0.41431000  1.0
  C  C163  1  0.96513000  0.42293000  0.58568000  1.0
  C  C164  1  0.13205000  0.61307000  0.46158000  1.0
  C  C165  1  0.86796000  0.38693000  0.53842000  1.0
  C  C166  1  0.08877000  0.65661000  0.51279000  1.0
  C  C167  1  0.91124000  0.34339000  0.48721000  1.0
  C  C168  1  0.17674000  0.90070000  0.01078000  1.0
  C  C169  1  0.82325000  0.09929000  0.98922000  1.0
  C  C170  1  0.04339000  0.86666000  0.00838000  1.0
  C  C171  1  0.95659000  0.13333000  0.99162000  1.0
  C  C172  1  0.96941000  0.76523000  0.02528000  1.0
  C  C173  1  0.03057000  0.23476000  0.97472000  1.0
  C  C174  1  0.02801000  0.69397000  0.04240000  1.0
  C  C175  1  0.97198000  0.30603000  0.95760000  1.0
  C  C176  1  0.95738000  0.58449000  0.05814000  1.0
  C  C177  1  0.04262000  0.41550000  0.94186000  1.0
  C  C178  1  0.01716000  0.51426000  0.07086000  1.0
  C  C179  1  0.98284000  0.48574000  0.92914000  1.0
  C  C180  1  0.15192000  0.54822000  0.06875000  1.0
  C  C181  1  0.84807000  0.45178000  0.93124000  1.0
  C  C182  1  0.21584000  0.47481000  0.07895000  1.0
  C  C183  1  0.78416000  0.52520000  0.92105000  1.0
  C  C184  1  0.34520000  0.50950000  0.07364000  1.0
  C  C185  1  0.65480000  0.49051000  0.92637000  1.0
  C  C186  1  0.41108000  0.62105000  0.06069000  1.0
  C  C187  1  0.58892000  0.37896000  0.93931000  1.0
  C  C188  1  0.22603000  0.65812000  0.05512000  1.0
  C  C189  1  0.77397000  0.34188000  0.94488000  1.0
  C  C190  1  0.16296000  0.73288000  0.04190000  1.0
  C  C191  1  0.83702000  0.26712000  0.95810000  1.0
  C  C192  1  0.08381000  0.64268000  0.19595000  1.0
  C  C193  1  0.91618000  0.35732000  0.80404000  1.0
  C  C194  1  0.15855000  0.75026000  0.18173000  1.0
  C  C195  1  0.84145000  0.24974000  0.81826000  1.0
  C  C196  1  0.28888000  0.78095000  0.18120000  1.0
  C  C197  1  0.71112000  0.21905000  0.81879000  1.0
  C  C198  1  0.34351000  0.70291000  0.19444000  1.0
  C  C199  1  0.65649000  0.29709000  0.80556000  1.0
  C  C200  1  0.47701000  0.72691000  0.19374000  1.0
  C  C201  1  0.52299000  0.27309000  0.80625000  1.0
  C  C202  1  0.52573000  0.64804000  0.20572000  1.0
  C  C203  1  0.47427000  0.35196000  0.79428000  1.0
  C  C204  1  0.44508000  0.53944000  0.21978000  1.0
  C  C205  1  0.55492000  0.46057000  0.78022000  1.0
  C  C206  1  0.49133000  0.45559000  0.23277000  1.0
  C  C207  1  0.50866000  0.54442000  0.76723000  1.0
  C  C208  1  0.40738000  0.35289000  0.24615000  1.0
  C  C209  1  0.59261000  0.64711000  0.75385000  1.0
  C  C210  1  0.27737000  0.33453000  0.24677000  1.0
  C  C211  1  0.72263000  0.66547000  0.75323000  1.0
  C  C212  1  0.31196000  0.51284000  0.22116000  1.0
  C  C213  1  0.68804000  0.48716000  0.77884000  1.0
  C  C214  1  0.26021000  0.59579000  0.20789000  1.0
  C  C215  1  0.73979000  0.40421000  0.79211000  1.0
  C  C216  1  0.76218000  0.00904000  0.42823000  1.0
  C  C217  1  0.23782000  0.99096000  0.57177000  1.0
  C  C218  1  0.72390000  0.90305000  0.44727000  1.0
  C  C219  1  0.27610000  0.09696000  0.55273000  1.0
  C  C220  1  0.81223000  0.85304000  0.45370000  1.0
  C  C221  1  0.18777000  0.14697000  0.54630000  1.0
  C  C222  1  0.93794000  0.90906000  0.44087000  1.0
  C  C223  1  0.06206000  0.09094000  0.55913000  1.0
  C  C224  1  0.03460000  0.86369000  0.44774000  1.0
  C  C225  1  0.96540000  0.13631000  0.55226000  1.0
  C  C226  1  0.15467000  0.91870000  0.43412000  1.0
  C  C227  1  0.84533000  0.08129000  0.56588000  1.0
  C  C228  1  0.18804000  0.02464000  0.41362000  1.0
  C  C229  1  0.81196000  0.97536000  0.58639000  1.0
  C  C230  1  0.31152000  0.08550000  0.39974000  1.0
  C  C231  1  0.68848000  0.91450000  0.60026000  1.0
  C  C232  1  0.33757000  0.18864000  0.38098000  1.0
  C  C233  1  0.66243000  0.81134000  0.61902000  1.0
  C  C234  1  0.23980000  0.23142000  0.37660000  1.0
  C  C235  1  0.76020000  0.76858000  0.62340000  1.0
  C  C236  1  0.09514000  0.07415000  0.40756000  1.0
  C  C237  1  0.90486000  0.92584000  0.59244000  1.0
  C  C238  1  0.96717000  0.01478000  0.42128000  1.0
  C  C239  1  0.03282000  0.98522000  0.57872000  1.0
  N  N240  1  0.23426000  0.83618000  0.02764000  1.0
  N  N241  1  0.76573000  0.16382000  0.97235000  1.0
  N  N242  1  0.35380000  0.69350000  0.05267000  1.0
  N  N243  1  0.64619000  0.30651000  0.94733000  1.0
  N  N244  1  0.13312000  0.56829000  0.20860000  1.0
  N  N245  1  0.86687000  0.43170000  0.79139000  1.0
  N  N246  1  0.23165000  0.41194000  0.23459000  1.0
  N  N247  1  0.76835000  0.58806000  0.76541000  1.0
  N  N248  1  0.87964000  0.06259000  0.41568000  1.0
  N  N249  1  0.12035000  0.93741000  0.58432000  1.0
  N  N250  1  0.12299000  0.17573000  0.38955000  1.0
  N  N251  1  0.87701000  0.82426000  0.61045000  1.0
  O  O252  1  0.97743000  0.20077000  0.25024000  1.0
  O  O253  1  0.02257000  0.79923000  0.74975000  1.0
  O  O254  1  0.81484000  0.16529000  0.32000000  1.0
  O  O255  1  0.18516000  0.83472000  0.68001000  1.0
  O  O256  1  0.53012000  0.96361000  0.13546000  1.0
  O  O257  1  0.46988000  0.03638000  0.86454000  1.0
  O  O258  1  0.66474000  0.93886000  0.07792000  1.0
  O  O259  1  0.33526000  0.06114000  0.92208000  1.0
  O  O260  1  0.47971000  0.08847000  0.03904000  1.0
  O  O261  1  0.52030000  0.91153000  0.96096000  1.0
  O  O262  1  0.47535000  0.29793000  0.04337000  1.0
  O  O263  1  0.52465000  0.70207000  0.95663000  1.0
  O  O264  1  0.93849000  0.30673000  0.13826000  1.0
  O  O265  1  0.06152000  0.69329000  0.86174000  1.0
  O  O266  1  0.81555000  0.35748000  0.19557000  1.0
  O  O267  1  0.18444000  0.64251000  0.80443000  1.0
  O  O268  1  0.11411000  0.40632000  0.36378000  1.0
  O  O269  1  0.88589000  0.59368000  0.63622000  1.0
  O  O270  1  0.99389000  0.49785000  0.30996000  1.0
  O  O271  1  0.00612000  0.50215000  0.69004000  1.0
  O  O272  1  0.97933000  0.66230000  0.51411000  1.0
  O  O273  1  0.02067000  0.33769000  0.48590000  1.0
  O  O274  1  0.16764000  0.68659000  0.55339000  1.0
  O  O275  1  0.83238000  0.31343000  0.44661000  1.0
