# generated using pymatgen
data_SmH21(C9O2)3
_symmetry_space_group_name_H-M   'P 1'
_cell_length_a   7.64212000
_cell_length_b   13.30580000
_cell_length_c   13.30580000
_cell_angle_alpha   116.41600000
_cell_angle_beta   101.04600000
_cell_angle_gamma   101.04600000
_symmetry_Int_Tables_number   1
_chemical_formula_structural   SmH21(C9O2)3
_chemical_formula_sum   'Sm2 H42 C54 O12'
_cell_volume   1128.75315643
_cell_formula_units_Z   2
loop_
 _symmetry_equiv_pos_site_id
 _symmetry_equiv_pos_as_xyz
  1  'x, y, z'
loop_
 _atom_site_type_symbol
 _atom_site_label
 _atom_site_symmetry_multiplicity
 _atom_site_fract_x
 _atom_site_fract_y
 _atom_site_fract_z
 _atom_site_occupancy
  Sm  Sm0  1  0.00087000  0.00004000  0.00004000  1.0
  Sm  Sm1  1  0.50087000  0.00004000  0.00004000  1.0
  H  H2  1  0.43097000  0.65096000  0.82524000  1.0
  H  H3  1  0.77986000  0.17434000  0.34907000  1.0
  H  H4  1  0.60548000  0.17466000  0.82563000  1.0
  H  H5  1  0.10548000  0.82563000  0.17466000  1.0
  H  H6  1  0.93097000  0.82524000  0.65096000  1.0
  H  H7  1  0.27986000  0.34907000  0.17434000  1.0
  H  H8  1  0.76474000  0.61962000  0.96694000  1.0
  H  H9  1  0.14502000  0.34734000  0.38040000  1.0
  H  H10  1  0.79763000  0.03314000  0.65268000  1.0
  H  H11  1  0.29763000  0.65268000  0.03314000  1.0
  H  H12  1  0.26474000  0.96694000  0.61962000  1.0
  H  H13  1  0.64502000  0.38040000  0.34734000  1.0
  H  H14  1  0.69483000  0.47077000  0.01730000  1.0
  H  H15  1  0.22400000  0.54656000  0.52919000  1.0
  H  H16  1  0.67757000  0.98282000  0.45356000  1.0
  H  H17  1  0.17757000  0.45356000  0.98282000  1.0
  H  H18  1  0.19483000  0.01730000  0.47077000  1.0
  H  H19  1  0.72400000  0.52919000  0.54656000  1.0
  H  H20  1  0.49254000  0.28194000  0.98254000  1.0
  H  H21  1  0.21058000  0.70061000  0.71802000  1.0
  H  H22  1  0.50998000  0.01754000  0.29945000  1.0
  H  H23  1  0.00998000  0.29945000  0.01754000  1.0
  H  H24  1  0.99253000  0.98254000  0.28194000  1.0
  H  H25  1  0.71058000  0.71802000  0.70061000  1.0
  H  H26  1  0.18022000  0.17862000  0.82649000  1.0
  H  H27  1  0.00159000  0.64781000  0.82128000  1.0
  H  H28  1  0.35372000  0.17353000  0.35218000  1.0
  H  H29  1  0.85372000  0.35218000  0.17353000  1.0
  H  H30  1  0.68022000  0.82649000  0.17862000  1.0
  H  H31  1  0.50159000  0.82128000  0.64781000  1.0
  H  H32  1  0.07215000  0.26763000  0.70513000  1.0
  H  H33  1  0.80465000  0.43745000  0.73234000  1.0
  H  H34  1  0.36697000  0.29486000  0.56249000  1.0
  H  H35  1  0.86697000  0.56249000  0.29486000  1.0
  H  H36  1  0.57215000  0.70513000  0.26763000  1.0
  H  H37  1  0.30465000  0.73234000  0.43745000  1.0
  H  H38  1  0.27243000  0.45700000  0.74075000  1.0
  H  H39  1  0.81555000  0.28371000  0.54299000  1.0
  H  H40  1  0.53145000  0.25915000  0.71622000  1.0
  H  H41  1  0.03145000  0.71622000  0.25915000  1.0
  H  H42  1  0.77243000  0.74074000  0.45700000  1.0
  H  H43  1  0.31555000  0.54299000  0.28371000  1.0
  C  C44  1  0.71055000  0.78097000  0.91521000  1.0
  C  C45  1  0.92939000  0.13430000  0.21909000  1.0
  C  C46  1  0.79519000  0.08474000  0.86570000  1.0
  C  C47  1  0.29519000  0.86570000  0.08474000  1.0
  C  C48  1  0.21055000  0.91521000  0.78097000  1.0
  C  C49  1  0.42939000  0.21909000  0.13430000  1.0
  C  C50  1  0.57294000  0.66748000  0.87668000  1.0
  C  C51  1  0.90527000  0.20927000  0.33255000  1.0
  C  C52  1  0.69599000  0.12323000  0.79074000  1.0
  C  C53  1  0.19599000  0.79074000  0.12323000  1.0
  C  C54  1  0.07294000  0.87668000  0.66748000  1.0
  C  C55  1  0.40527000  0.33255000  0.20927000  1.0
  C  C56  1  0.62056000  0.59167000  0.91002000  1.0
  C  C57  1  0.02878000  0.31842000  0.40834000  1.0
  C  C58  1  0.71027000  0.08995000  0.68160000  1.0
  C  C59  1  0.21027000  0.68160000  0.08995000  1.0
  C  C60  1  0.12056000  0.91002000  0.59167000  1.0
  C  C61  1  0.52877000  0.40834000  0.31842000  1.0
  C  C62  1  0.49787000  0.47845000  0.88276000  1.0
  C  C63  1  0.01939000  0.40435000  0.52154000  1.0
  C  C64  1  0.61489000  0.11722000  0.59568000  1.0
  C  C65  1  0.11489000  0.59568000  0.11722000  1.0
  C  C66  1  0.99787000  0.88276000  0.47845000  1.0
  C  C67  1  0.51939000  0.52154000  0.40435000  1.0
  C  C68  1  0.55809000  0.42621000  0.94898000  1.0
  C  C69  1  0.13180000  0.52280000  0.57374000  1.0
  C  C70  1  0.60896000  0.05103000  0.47726000  1.0
  C  C71  1  0.10896000  0.47726000  0.05103000  1.0
  C  C72  1  0.05809000  0.94898000  0.42621000  1.0
  C  C73  1  0.63180000  0.57374000  0.52280000  1.0
  C  C74  1  0.44401000  0.31994000  0.92936000  1.0
  C  C75  1  0.12410000  0.60943000  0.68003000  1.0
  C  C76  1  0.51459000  0.07066000  0.39060000  1.0
  C  C77  1  0.01459000  0.39060000  0.07066000  1.0
  C  C78  1  0.94401000  0.92936000  0.31993000  1.0
  C  C79  1  0.62410000  0.68003000  0.60943000  1.0
  C  C80  1  0.26879000  0.26197000  0.84166000  1.0
  C  C81  1  0.00689000  0.57964000  0.73799000  1.0
  C  C82  1  0.42707000  0.15835000  0.42034000  1.0
  C  C83  1  0.92707000  0.42034000  0.15835000  1.0
  C  C84  1  0.76878000  0.84166000  0.26197000  1.0
  C  C85  1  0.50689000  0.73799000  0.57964000  1.0
  C  C86  1  0.20837000  0.31217000  0.77400000  1.0
  C  C87  1  0.89628000  0.46178000  0.68780000  1.0
  C  C88  1  0.43431000  0.22601000  0.53818000  1.0
  C  C89  1  0.93431000  0.53818000  0.22601000  1.0
  C  C90  1  0.70837000  0.77400000  0.31216000  1.0
  C  C91  1  0.39629000  0.68780000  0.46178000  1.0
  C  C92  1  0.32088000  0.41928000  0.79438000  1.0
  C  C93  1  0.90164000  0.37508000  0.58070000  1.0
  C  C94  1  0.52630000  0.20558000  0.62488000  1.0
  C  C95  1  0.02630000  0.62488000  0.20558000  1.0
  C  C96  1  0.82088000  0.79438000  0.41928000  1.0
  C  C97  1  0.40164000  0.58070000  0.37508000  1.0
  O  O98  1  0.88370000  0.80354000  0.96641000  1.0
  O  O99  1  0.07992000  0.16298000  0.19651000  1.0
  O  O100  1  0.91711000  0.03355000  0.83705000  1.0
  O  O101  1  0.41711000  0.83705000  0.03355000  1.0
  O  O102  1  0.38370000  0.96641000  0.80354000  1.0
  O  O103  1  0.57992000  0.19651000  0.16298000  1.0
  O  O104  1  0.65698000  0.85966000  0.89578000  1.0
  O  O105  1  0.79715000  0.03613000  0.14044000  1.0
  O  O106  1  0.76124000  0.10425000  0.96388000  1.0
  O  O107  1  0.26124000  0.96388000  0.10425000  1.0
  O  O108  1  0.15698000  0.89578000  0.85966000  1.0
  O  O109  1  0.29715000  0.14044000  0.03613000  1.0
