# generated using pymatgen
data_MoH11C14N3O5
_symmetry_space_group_name_H-M   'P 1'
_cell_length_a   7.46283000
_cell_length_b   10.52180000
_cell_length_c   18.44183308
_cell_angle_alpha   106.30115798
_cell_angle_beta   89.99997064
_cell_angle_gamma   89.99970000
_symmetry_Int_Tables_number   1
_chemical_formula_structural   MoH11C14N3O5
_chemical_formula_sum   'Mo4 H44 C56 N12 O20'
_cell_volume   1389.88302658
_cell_formula_units_Z   4
loop_
 _symmetry_equiv_pos_site_id
 _symmetry_equiv_pos_as_xyz
  1  'x, y, z'
loop_
 _atom_site_type_symbol
 _atom_site_label
 _atom_site_symmetry_multiplicity
 _atom_site_fract_x
 _atom_site_fract_y
 _atom_site_fract_z
 _atom_site_occupancy
  Mo  Mo0  1  0.52517000  0.07095000  0.34340000  1.0
  Mo  Mo1  1  0.02517000  0.42906000  0.15661000  1.0
  Mo  Mo2  1  0.47484000  0.92905000  0.65660000  1.0
  Mo  Mo3  1  0.97483000  0.57094000  0.84339000  1.0
  H  H4  1  0.80906000  0.94675000  0.50985000  1.0
  H  H5  1  0.30906000  0.55324000  0.99015000  1.0
  H  H6  1  0.19094000  0.05324000  0.49015000  1.0
  H  H7  1  0.69093000  0.44676000  0.00985000  1.0
  H  H8  1  0.38425000  0.29007000  0.20183000  1.0
  H  H9  1  0.88425000  0.20992000  0.29817000  1.0
  H  H10  1  0.61575000  0.70992000  0.79817000  1.0
  H  H11  1  0.11576000  0.79008000  0.70183000  1.0
  H  H12  1  0.29631000  0.69241000  0.23737000  1.0
  H  H13  1  0.79631000  0.80759000  0.26263000  1.0
  H  H14  1  0.70369000  0.30759000  0.76263000  1.0
  H  H15  1  0.20369000  0.19241000  0.73737000  1.0
  H  H16  1  0.91829000  0.11701000  0.60834000  1.0
  H  H17  1  0.41830000  0.38298000  0.89166000  1.0
  H  H18  1  0.08171000  0.88299000  0.39166000  1.0
  H  H19  1  0.58171000  0.61701000  0.10834000  1.0
  H  H20  1  0.88152000  0.52557000  0.61064000  1.0
  H  H21  1  0.38153000  0.97443000  0.88937000  1.0
  H  H22  1  0.11847000  0.47442000  0.38936000  1.0
  H  H23  1  0.61848000  0.02558000  0.11064000  1.0
  H  H24  1  0.64055000  0.62761000  0.56806000  1.0
  H  H25  1  0.14055000  0.87240000  0.93195000  1.0
  H  H26  1  0.35944000  0.37240000  0.43194000  1.0
  H  H27  1  0.85945000  0.12761000  0.06806000  1.0
  H  H28  1  0.66154000  0.66570000  0.47953000  1.0
  H  H29  1  0.16154000  0.83429000  0.02047000  1.0
  H  H30  1  0.33846000  0.33429000  0.52047000  1.0
  H  H31  1  0.83846000  0.16571000  0.97953000  1.0
  H  H32  1  0.85854000  0.64540000  0.52988000  1.0
  H  H33  1  0.35854000  0.85461000  0.97013000  1.0
  H  H34  1  0.14147000  0.35461000  0.47012000  1.0
  H  H35  1  0.64146000  0.14540000  0.02988000  1.0
  H  H36  1  0.97833000  0.35638000  0.67080000  1.0
  H  H37  1  0.47834000  0.14362000  0.82921000  1.0
  H  H38  1  0.02166000  0.64363000  0.32921000  1.0
  H  H39  1  0.52167000  0.85638000  0.17079000  1.0
  H  H40  1  0.73013000  0.56874000  0.35469000  1.0
  H  H41  1  0.23013000  0.93127000  0.14531000  1.0
  H  H42  1  0.26987000  0.43127000  0.64531000  1.0
  H  H43  1  0.76987000  0.06874000  0.85469000  1.0
  H  H44  1  0.64548000  0.33378000  0.28859000  1.0
  H  H45  1  0.14549000  0.16621000  0.21141000  1.0
  H  H46  1  0.35451000  0.66622000  0.71141000  1.0
  H  H47  1  0.85452000  0.83379000  0.78859000  1.0
  C  C48  1  0.55230000  0.78935000  0.33562000  1.0
  C  C49  1  0.05230000  0.71065000  0.16438000  1.0
  C  C50  1  0.44769000  0.21065000  0.66438000  1.0
  C  C51  1  0.94770000  0.28934000  0.83561000  1.0
  C  C52  1  0.73964000  0.24976000  0.47453000  1.0
  C  C53  1  0.23964000  0.25024000  0.02547000  1.0
  C  C54  1  0.26037000  0.75025000  0.52547000  1.0
  C  C55  1  0.76036000  0.74976000  0.97453000  1.0
  C  C56  1  0.79182000  0.15331000  0.51074000  1.0
  C  C57  1  0.29181000  0.34668000  0.98925000  1.0
  C  C58  1  0.20819000  0.84669000  0.48925000  1.0
  C  C59  1  0.70818000  0.65331000  0.01074000  1.0
  C  C60  1  0.51718000  0.64824000  0.30041000  1.0
  C  C61  1  0.01717000  0.85176000  0.19959000  1.0
  C  C62  1  0.48282000  0.35176000  0.69959000  1.0
  C  C63  1  0.98283000  0.14825000  0.80041000  1.0
  C  C64  1  0.75710000  0.01458000  0.47958000  1.0
  C  C65  1  0.25709000  0.48542000  0.02042000  1.0
  C  C66  1  0.24291000  0.98542000  0.52042000  1.0
  C  C67  1  0.74291000  0.51458000  0.97958000  1.0
  C  C68  1  0.77131000  0.38580000  0.51122000  1.0
  C  C69  1  0.27131000  0.11419000  0.98878000  1.0
  C  C70  1  0.22870000  0.61420000  0.48878000  1.0
  C  C71  1  0.72869000  0.88580000  0.01122000  1.0
  C  C72  1  0.42474000  0.39134000  0.23026000  1.0
  C  C73  1  0.92475000  0.10866000  0.26974000  1.0
  C  C74  1  0.57525000  0.60866000  0.76974000  1.0
  C  C75  1  0.07526000  0.89134000  0.73026000  1.0
  C  C76  1  0.37490000  0.61408000  0.24941000  1.0
  C  C77  1  0.87490000  0.88593000  0.25060000  1.0
  C  C78  1  0.62510000  0.38593000  0.75060000  1.0
  C  C79  1  0.12510000  0.11408000  0.74940000  1.0
  C  C80  1  0.87959000  0.19294000  0.58151000  1.0
  C  C81  1  0.37959000  0.30705000  0.91849000  1.0
  C  C82  1  0.12042000  0.80706000  0.41849000  1.0
  C  C83  1  0.62041000  0.69295000  0.08151000  1.0
  C  C84  1  0.85640000  0.42176000  0.58175000  1.0
  C  C85  1  0.35640000  0.07823000  0.91825000  1.0
  C  C86  1  0.14361000  0.57824000  0.41825000  1.0
  C  C87  1  0.64360000  0.92177000  0.08175000  1.0
  C  C88  1  0.72018000  0.61120000  0.51619000  1.0
  C  C89  1  0.22018000  0.88879000  0.98381000  1.0
  C  C90  1  0.27982000  0.38880000  0.48381000  1.0
  C  C91  1  0.77982000  0.11120000  0.01619000  1.0
  C  C92  1  0.91183000  0.32560000  0.61615000  1.0
  C  C93  1  0.41182000  0.17439000  0.88385000  1.0
  C  C94  1  0.08818000  0.67440000  0.38385000  1.0
  C  C95  1  0.58817000  0.82560000  0.11615000  1.0
  C  C96  1  0.61741000  0.54637000  0.31580000  1.0
  C  C97  1  0.11741000  0.95363000  0.18420000  1.0
  C  C98  1  0.38258000  0.45363000  0.68420000  1.0
  C  C99  1  0.88259000  0.04638000  0.81580000  1.0
  C  C100  1  0.57068000  0.41624000  0.27926000  1.0
  C  C101  1  0.07068000  0.08376000  0.22074000  1.0
  C  C102  1  0.42932000  0.58376000  0.72074000  1.0
  C  C103  1  0.92932000  0.91624000  0.77926000  1.0
  N  N104  1  0.66256000  0.96369000  0.41897000  1.0
  N  N105  1  0.16256000  0.53631000  0.08103000  1.0
  N  N106  1  0.33745000  0.03631000  0.58103000  1.0
  N  N107  1  0.83744000  0.46369000  0.91897000  1.0
  N  N108  1  0.32660000  0.48901000  0.21586000  1.0
  N  N109  1  0.82661000  0.01099000  0.28414000  1.0
  N  N110  1  0.67339000  0.51099000  0.78414000  1.0
  N  N111  1  0.17340000  0.98901000  0.71586000  1.0
  N  N112  1  0.64588000  0.82748000  0.39787000  1.0
  N  N113  1  0.14588000  0.67252000  0.10213000  1.0
  N  N114  1  0.35413000  0.17253000  0.60213000  1.0
  N  N115  1  0.85413000  0.32748000  0.89787000  1.0
  O  O116  1  0.66158000  0.21777000  0.40598000  1.0
  O  O117  1  0.16158000  0.28223000  0.09402000  1.0
  O  O118  1  0.33842000  0.78224000  0.59402000  1.0
  O  O119  1  0.83841000  0.71777000  0.90598000  1.0
  O  O120  1  0.48916000  0.87352000  0.29981000  1.0
  O  O121  1  0.98915000  0.62647000  0.20018000  1.0
  O  O122  1  0.51084000  0.12648000  0.70019000  1.0
  O  O123  1  0.01085000  0.37352000  0.79981000  1.0
  O  O124  1  0.49731000  0.11138000  0.25969000  1.0
  O  O125  1  0.99731000  0.38862000  0.24032000  1.0
  O  O126  1  0.50269000  0.88862000  0.74031000  1.0
  O  O127  1  0.00269000  0.61139000  0.75969000  1.0
  O  O128  1  0.71503000  0.47338000  0.47417000  1.0
  O  O129  1  0.21504000  0.02662000  0.02584000  1.0
  O  O130  1  0.28497000  0.52662000  0.52583000  1.0
  O  O131  1  0.78497000  0.97337000  0.97416000  1.0
  O  O132  1  0.32262000  0.09874000  0.38925000  1.0
  O  O133  1  0.82263000  0.40126000  0.11075000  1.0
  O  O134  1  0.67738000  0.90126000  0.61075000  1.0
  O  O135  1  0.17737000  0.59874000  0.88925000  1.0
