# generated using pymatgen
data_ErCuH32C48(NO2)4
_symmetry_space_group_name_H-M   'P 1'
_cell_length_a   15.93090000
_cell_length_b   19.57379995
_cell_length_c   19.57500000
_cell_angle_alpha   80.48565635
_cell_angle_beta   65.99560000
_cell_angle_gamma   65.97554612
_symmetry_Int_Tables_number   1
_chemical_formula_structural   ErCuH32C48(NO2)4
_chemical_formula_sum   'Er4 Cu4 H128 C192 N16 O32'
_cell_volume   5093.07527609
_cell_formula_units_Z   4
loop_
 _symmetry_equiv_pos_site_id
 _symmetry_equiv_pos_as_xyz
  1  'x, y, z'
loop_
 _atom_site_type_symbol
 _atom_site_label
 _atom_site_symmetry_multiplicity
 _atom_site_fract_x
 _atom_site_fract_y
 _atom_site_fract_z
 _atom_site_occupancy
  Er  Er0  1  0.40766000  0.79845000  0.38434000  1.0
  Er  Er1  1  0.59003000  0.20183000  0.61579000  1.0
  Er  Er2  1  0.20781000  0.38450000  0.20184000  1.0
  Er  Er3  1  0.79396000  0.61551000  0.79835000  1.0
  Cu  Cu4  1  0.45260000  0.90634000  0.68364000  1.0
  Cu  Cu5  1  0.04247000  0.09376000  0.31647000  1.0
  Cu  Cu6  1  0.86352000  0.68368000  0.09408000  1.0
  Cu  Cu7  1  0.64124000  0.31630000  0.90609000  1.0
  H  H8  1  0.48226000  0.54271000  0.43576000  1.0
  H  H9  1  0.59112000  0.40723000  0.41395000  1.0
  H  H10  1  0.73786000  0.60178000  0.33137000  1.0
  H  H11  1  0.84817000  0.46718000  0.30749000  1.0
  H  H12  1  0.89621000  0.36477000  0.23582000  1.0
  H  H13  1  0.01391000  0.23378000  0.22458000  1.0
  H  H14  1  0.71133000  0.30800000  0.45150000  1.0
  H  H15  1  0.83657000  0.18018000  0.43268000  1.0
  H  H16  1  0.06876000  0.92637000  0.56717000  1.0
  H  H17  1  0.88826000  0.94989000  0.62261000  1.0
  H  H18  1  0.11744000  0.76699000  0.41519000  1.0
  H  H19  1  0.93637000  0.79119000  0.46843000  1.0
  H  H20  1  0.73287000  0.00244000  0.60218000  1.0
  H  H21  1  0.55876000  0.01353000  0.64874000  1.0
  H  H22  1  0.82200000  0.76490000  0.57502000  1.0
  H  H23  1  0.64459000  0.78526000  0.62310000  1.0
  H  H24  1  0.63536000  0.91782000  0.26041000  1.0
  H  H25  1  0.77359000  0.95575000  0.24526000  1.0
  H  H26  1  0.57407000  0.88365000  0.49543000  1.0
  H  H27  1  0.71021000  0.92246000  0.48161000  1.0
  H  H28  1  0.93656000  0.91282000  0.24944000  1.0
  H  H29  1  0.05994000  0.96395000  0.24102000  1.0
  H  H30  1  0.74863000  0.02774000  0.46144000  1.0
  H  H31  1  0.88132000  0.06863000  0.44746000  1.0
  H  H32  1  0.27241000  0.94063000  0.19708000  1.0
  H  H33  1  0.28120000  0.96302000  0.06524000  1.0
  H  H34  1  0.51962000  0.73186000  0.13149000  1.0
  H  H35  1  0.53445000  0.75536000  0.99786000  1.0
  H  H36  1  0.25824000  0.90842000  0.96960000  1.0
  H  H37  1  0.27833000  0.93141000  0.83572000  1.0
  H  H38  1  0.57477000  0.84459000  0.89748000  1.0
  H  H39  1  0.58171000  0.87246000  0.76782000  1.0
  H  H40  1  0.46064000  0.45777000  0.56401000  1.0
  H  H41  1  0.41261000  0.59317000  0.58590000  1.0
  H  H42  1  0.67088000  0.39805000  0.66858000  1.0
  H  H43  1  0.62321000  0.53260000  0.69243000  1.0
  H  H44  1  0.49724000  0.63525000  0.76403000  1.0
  H  H45  1  0.47226000  0.76631000  0.77545000  1.0
  H  H46  1  0.47144000  0.69200000  0.54829000  1.0
  H  H47  1  0.44970000  0.81988000  0.56721000  1.0
  H  H48  1  0.56225000  0.07377000  0.43294000  1.0
  H  H49  1  0.46077000  0.05020000  0.37744000  1.0
  H  H50  1  0.29947000  0.23318000  0.58482000  1.0
  H  H51  1  0.19588000  0.20890000  0.53156000  1.0
  H  H52  1  0.33729000  0.99752000  0.39825000  1.0
  H  H53  1  0.22087000  0.98638000  0.35164000  1.0
  H  H54  1  0.16205000  0.23516000  0.42477000  1.0
  H  H55  1  0.05314000  0.21474000  0.37665000  1.0
  H  H56  1  0.81318000  0.08230000  0.73961000  1.0
  H  H57  1  0.97404000  0.04444000  0.75495000  1.0
  H  H58  1  0.95302000  0.11619000  0.50459000  1.0
  H  H59  1  0.11405000  0.07738000  0.51856000  1.0
  H  H60  1  0.09839000  0.08732000  0.75089000  1.0
  H  H61  1  0.26443000  0.03621000  0.75941000  1.0
  H  H62  1  0.23757000  0.97224000  0.53894000  1.0
  H  H63  1  0.39708000  0.93145000  0.55300000  1.0
  H  H64  1  0.40984000  0.05930000  0.80290000  1.0
  H  H65  1  0.30937000  0.03684000  0.93477000  1.0
  H  H66  1  0.38271000  0.26800000  0.86855000  1.0
  H  H67  1  0.28763000  0.24445000  0.00220000  1.0
  H  H68  1  0.13615000  0.09148000  0.03038000  1.0
  H  H69  1  0.04526000  0.06858000  0.16427000  1.0
  H  H70  1  0.31673000  0.15523000  0.10259000  1.0
  H  H71  1  0.22187000  0.12737000  0.23222000  1.0
  H  H72  1  0.08169000  0.43592000  0.45775000  1.0
  H  H73  1  0.99449000  0.41406000  0.59316000  1.0
  H  H74  1  0.93105000  0.33137000  0.39818000  1.0
  H  H75  1  0.84436000  0.30752000  0.53270000  1.0
  H  H76  1  0.86755000  0.23597000  0.63503000  1.0
  H  H77  1  0.76138000  0.22456000  0.76601000  1.0
  H  H78  1  0.83713000  0.45143000  0.69218000  1.0
  H  H79  1  0.73083000  0.43255000  0.81995000  1.0
  H  H80  1  0.36391000  0.56724000  0.07375000  1.0
  H  H81  1  0.48908000  0.62255000  0.05022000  1.0
  H  H82  1  0.46709000  0.41530000  0.23311000  1.0
  H  H83  1  0.59505000  0.46838000  0.20890000  1.0
  H  H84  1  0.66529000  0.60178000  0.99763000  1.0
  H  H85  1  0.79275000  0.64839000  0.98667000  1.0
  H  H86  1  0.60285000  0.57504000  0.23520000  1.0
  H  H87  1  0.73204000  0.62318000  0.21497000  1.0
  H  H88  1  0.10450000  0.26051000  0.08207000  1.0
  H  H89  1  0.98166000  0.24524000  0.04397000  1.0
  H  H90  1  0.93066000  0.49562000  0.11592000  1.0
  H  H91  1  0.80858000  0.48165000  0.07699000  1.0
  H  H92  1  0.81499000  0.24911000  0.08664000  1.0
  H  H93  1  0.69993000  0.24044000  0.03574000  1.0
  H  H94  1  0.78983000  0.46133000  0.97214000  1.0
  H  H95  1  0.67105000  0.44715000  0.93150000  1.0
  H  H96  1  0.53072000  0.19739000  0.05943000  1.0
  H  H97  1  0.65365000  0.06546000  0.03684000  1.0
  H  H98  1  0.34901000  0.13184000  0.26799000  1.0
  H  H99  1  0.46765000  0.99814000  0.24433000  1.0
  H  H100  1  0.77211000  0.96982000  0.09135000  1.0
  H  H101  1  0.88592000  0.83588000  0.06871000  1.0
  H  H102  1  0.52775000  0.89763000  0.15531000  1.0
  H  H103  1  0.65052000  0.76790000  0.12781000  1.0
  H  H104  1  0.97568000  0.56409000  0.54236000  1.0
  H  H105  1  0.00195000  0.58606000  0.40696000  1.0
  H  H106  1  0.66087000  0.66840000  0.60195000  1.0
  H  H107  1  0.68479000  0.69236000  0.46743000  1.0
  H  H108  1  0.73888000  0.76412000  0.36502000  1.0
  H  H109  1  0.75227000  0.77545000  0.23401000  1.0
  H  H110  1  0.98056000  0.54835000  0.30810000  1.0
  H  H111  1  0.98316000  0.56718000  0.18032000  1.0
  H  H112  1  0.00505000  0.43274000  0.92617000  1.0
  H  H113  1  0.16213000  0.37731000  0.94960000  1.0
  H  H114  1  0.11566000  0.58461000  0.76675000  1.0
  H  H115  1  0.27262000  0.53140000  0.79084000  1.0
  H  H116  1  0.26478000  0.39825000  0.00223000  1.0
  H  H117  1  0.42782000  0.35177000  0.01334000  1.0
  H  H118  1  0.41339000  0.42471000  0.76465000  1.0
  H  H119  1  0.57040000  0.37672000  0.78503000  1.0
  H  H120  1  0.44680000  0.73943000  0.91768000  1.0
  H  H121  1  0.27061000  0.75458000  0.95591000  1.0
  H  H122  1  0.54228000  0.50428000  0.88396000  1.0
  H  H123  1  0.36728000  0.51810000  0.92300000  1.0
  H  H124  1  0.15064000  0.75038000  0.91302000  1.0
  H  H125  1  0.97600000  0.75909000  0.96409000  1.0
  H  H126  1  0.22321000  0.53860000  0.02825000  1.0
  H  H127  1  0.04962000  0.55276000  0.06900000  1.0
  H  H128  1  0.78734000  0.80282000  0.94027000  1.0
  H  H129  1  0.75617000  0.93469000  0.96267000  1.0
  H  H130  1  0.74848000  0.86837000  0.73172000  1.0
  H  H131  1  0.71009000  0.00205000  0.75524000  1.0
  H  H132  1  0.83364000  0.03033000  0.90795000  1.0
  H  H133  1  0.79051000  0.16424000  0.93095000  1.0
  H  H134  1  0.58052000  0.10249000  0.84457000  1.0
  H  H135  1  0.54569000  0.23218000  0.87249000  1.0
  C  C136  1  0.53941000  0.66092000  0.39567000  1.0
  C  C137  1  0.60390000  0.57996000  0.38454000  1.0
  C  C138  1  0.56254000  0.52513000  0.40801000  1.0
  C  C139  1  0.62350000  0.44981000  0.39520000  1.0
  C  C140  1  0.70687000  0.55855000  0.34821000  1.0
  C  C141  1  0.76787000  0.48355000  0.33462000  1.0
  C  C142  1  0.72678000  0.42821000  0.35797000  1.0
  C  C143  1  0.79323000  0.34891000  0.34549000  1.0
  C  C144  1  0.87955000  0.32556000  0.28072000  1.0
  C  C145  1  0.94573000  0.25182000  0.27401000  1.0
  C  C146  1  0.77686000  0.29412000  0.39971000  1.0
  C  C147  1  0.84743000  0.22163000  0.38894000  1.0
  C  C148  1  0.21272000  0.82679000  0.45590000  1.0
  C  C149  1  0.10358000  0.84492000  0.48826000  1.0
  C  C150  1  0.03885000  0.89726000  0.54588000  1.0
  C  C151  1  0.93780000  0.91070000  0.57628000  1.0
  C  C152  1  0.06592000  0.80706000  0.46044000  1.0
  C  C153  1  0.96538000  0.82031000  0.49075000  1.0
  C  C154  1  0.90001000  0.87178000  0.54964000  1.0
  C  C155  1  0.79440000  0.88251000  0.58195000  1.0
  C  C156  1  0.71729000  0.95245000  0.60554000  1.0
  C  C157  1  0.61895000  0.95926000  0.63133000  1.0
  C  C158  1  0.76651000  0.82137000  0.58902000  1.0
  C  C159  1  0.66705000  0.83236000  0.61609000  1.0
  C  C160  1  0.51485000  0.87613000  0.38476000  1.0
  C  C161  1  0.59605000  0.89905000  0.37848000  1.0
  C  C162  1  0.65321000  0.91891000  0.30818000  1.0
  C  C163  1  0.73060000  0.93937000  0.30010000  1.0
  C  C164  1  0.61747000  0.89996000  0.44088000  1.0
  C  C165  1  0.69389000  0.92157000  0.43303000  1.0
  C  C166  1  0.75149000  0.94169000  0.36273000  1.0
  C  C167  1  0.82992000  0.96683000  0.35593000  1.0
  C  C168  1  0.91996000  0.94925000  0.29359000  1.0
  C  C169  1  0.98939000  0.97732000  0.28870000  1.0
  C  C170  1  0.81732000  0.01033000  0.41220000  1.0
  C  C171  1  0.89095000  0.03539000  0.40346000  1.0
  C  C172  1  0.39355000  0.82238000  0.24918000  1.0
  C  C173  1  0.39573000  0.83489000  0.17135000  1.0
  C  C174  1  0.32778000  0.89993000  0.15319000  1.0
  C  C175  1  0.33304000  0.91195000  0.07979000  1.0
  C  C176  1  0.46894000  0.78258000  0.11553000  1.0
  C  C177  1  0.47669000  0.79568000  0.04160000  1.0
  C  C178  1  0.40796000  0.86059000  0.02331000  1.0
  C  C179  1  0.41517000  0.87530000  0.94541000  1.0
  C  C180  1  0.33131000  0.90050000  0.92637000  1.0
  C  C181  1  0.34213000  0.91359000  0.85187000  1.0
  C  C182  1  0.50688000  0.86436000  0.88656000  1.0
  C  C183  1  0.51095000  0.88022000  0.81384000  1.0
  C  C184  1  0.59560000  0.33929000  0.60428000  1.0
  C  C185  1  0.56824000  0.42020000  0.61535000  1.0
  C  C186  1  0.49567000  0.47518000  0.59182000  1.0
  C  C187  1  0.46871000  0.55044000  0.60467000  1.0
  C  C188  1  0.61356000  0.44142000  0.65176000  1.0
  C  C189  1  0.58625000  0.51637000  0.66532000  1.0
  C  C190  1  0.51328000  0.57184000  0.64194000  1.0
  C  C191  1  0.48813000  0.65113000  0.65435000  1.0
  C  C192  1  0.48628000  0.67447000  0.71914000  1.0
  C  C193  1  0.47173000  0.74825000  0.72595000  1.0
  C  C194  1  0.47120000  0.70590000  0.60011000  1.0
  C  C195  1  0.45832000  0.77843000  0.61093000  1.0
  C  C196  1  0.49519000  0.17333000  0.54424000  1.0
  C  C197  1  0.43662000  0.15524000  0.51179000  1.0
  C  C198  1  0.48192000  0.10288000  0.45418000  1.0
  C  C199  1  0.42475000  0.08944000  0.42374000  1.0
  C  C200  1  0.33326000  0.19312000  0.53958000  1.0
  C  C201  1  0.27634000  0.17982000  0.50926000  1.0
  C  C202  1  0.32139000  0.12832000  0.45039000  1.0
  C  C203  1  0.25884000  0.11751000  0.41812000  1.0
  C  C204  1  0.27518000  0.04751000  0.39472000  1.0
  C  C205  1  0.20947000  0.04066000  0.36893000  1.0
  C  C206  1  0.17697000  0.17865000  0.41091000  1.0
  C  C207  1  0.11560000  0.16763000  0.38383000  1.0
  C  C208  1  0.77543000  0.12405000  0.61519000  1.0
  C  C209  1  0.87328000  0.10096000  0.62155000  1.0
  C  C210  1  0.87993000  0.08118000  0.69188000  1.0
  C  C211  1  0.96965000  0.06075000  0.70006000  1.0
  C  C212  1  0.95807000  0.09996000  0.55921000  1.0
  C  C213  1  0.04822000  0.07834000  0.56713000  1.0
  C  C214  1  0.05558000  0.05837000  0.63749000  1.0
  C  C215  1  0.15232000  0.03326000  0.64439000  1.0
  C  C216  1  0.16241000  0.05088000  0.70676000  1.0
  C  C217  1  0.25499000  0.02284000  0.71170000  1.0
  C  C218  1  0.23954000  0.98974000  0.58817000  1.0
  C  C219  1  0.32945000  0.96474000  0.59696000  1.0
  C  C220  1  0.46485000  0.17756000  0.75088000  1.0
  C  C221  1  0.40171000  0.16502000  0.82869000  1.0
  C  C222  1  0.38070000  0.09998000  0.84681000  1.0
  C  C223  1  0.32469000  0.08789000  0.92022000  1.0
  C  C224  1  0.36682000  0.21729000  0.88452000  1.0
  C  C225  1  0.31387000  0.20414000  0.95845000  1.0
  C  C226  1  0.29185000  0.13921000  0.97673000  1.0
  C  C227  1  0.23575000  0.12457000  0.05461000  1.0
  C  C228  1  0.15802000  0.09944000  0.07362000  1.0
  C  C229  1  0.10740000  0.08638000  0.14814000  1.0
  C  C230  1  0.25765000  0.13552000  0.11348000  1.0
  C  C231  1  0.20486000  0.11967000  0.18619000  1.0
  C  C232  1  0.06488000  0.39579000  0.33938000  1.0
  C  C233  1  0.01155000  0.38461000  0.42028000  1.0
  C  C234  1  0.02924000  0.40813000  0.47521000  1.0
  C  C235  1  0.98102000  0.39531000  0.55047000  1.0
  C  C236  1  0.94505000  0.34819000  0.44152000  1.0
  C  C237  1  0.89752000  0.33463000  0.51644000  1.0
  C  C238  1  0.91510000  0.35801000  0.57186000  1.0
  C  C239  1  0.86103000  0.34555000  0.65110000  1.0
  C  C240  1  0.83939000  0.28080000  0.67431000  1.0
  C  C241  1  0.78009000  0.27401000  0.74804000  1.0
  C  C242  1  0.82330000  0.39969000  0.70595000  1.0
  C  C243  1  0.76357000  0.38889000  0.77842000  1.0
  C  C244  1  0.33117000  0.45601000  0.17335000  1.0
  C  C245  1  0.40792000  0.48837000  0.15522000  1.0
  C  C246  1  0.41510000  0.54594000  0.10287000  1.0
  C  C247  1  0.48583000  0.57626000  0.08942000  1.0
  C  C248  1  0.47342000  0.46052000  0.19307000  1.0
  C  C249  1  0.54373000  0.49074000  0.17978000  1.0
  C  C250  1  0.55029000  0.54959000  0.12831000  1.0
  C  C251  1  0.62366000  0.58183000  0.11758000  1.0
  C  C252  1  0.67735000  0.60527000  0.04765000  1.0
  C  C253  1  0.74984000  0.63110000  0.04091000  1.0
  C  C254  1  0.64437000  0.58899000  0.17873000  1.0
  C  C255  1  0.71670000  0.61609000  0.16782000  1.0
  C  C256  1  0.10037000  0.38490000  0.12397000  1.0
  C  C257  1  0.02568000  0.37864000  0.10072000  1.0
  C  C258  1  0.03892000  0.30828000  0.08088000  1.0
  C  C259  1  0.96970000  0.30014000  0.06033000  1.0
  C  C260  1  0.94194000  0.44101000  0.09960000  1.0
  C  C261  1  0.87347000  0.43308000  0.07793000  1.0
  C  C262  1  0.88617000  0.36273000  0.05790000  1.0
  C  C263  1  0.81456000  0.35576000  0.03285000  1.0
  C  C264  1  0.78709000  0.29329000  0.05040000  1.0
  C  C265  1  0.72249000  0.28827000  0.02246000  1.0
  C  C266  1  0.77057000  0.41202000  0.98954000  1.0
  C  C267  1  0.70565000  0.40314000  0.96461000  1.0
  C  C268  1  0.35738000  0.24951000  0.17765000  1.0
  C  C269  1  0.43305000  0.17167000  0.16507000  1.0
  C  C270  1  0.51914000  0.15348000  0.10004000  1.0
  C  C271  1  0.58725000  0.08004000  0.08791000  1.0
  C  C272  1  0.41564000  0.11585000  0.21728000  1.0
  C  C273  1  0.48172000  0.04189000  0.20408000  1.0
  C  C274  1  0.56870000  0.02355000  0.13917000  1.0
  C  C275  1  0.63940000  0.94560000  0.12451000  1.0
  C  C276  1  0.74228000  0.92656000  0.09940000  1.0
  C  C277  1  0.80596000  0.85202000  0.08651000  1.0
  C  C278  1  0.60655000  0.88673000  0.13555000  1.0
  C  C279  1  0.67522000  0.81396000  0.11989000  1.0
  C  C280  1  0.80034000  0.60403000  0.66073000  1.0
  C  C281  1  0.81675000  0.61524000  0.57983000  1.0
  C  C282  1  0.91288000  0.59185000  0.52490000  1.0
  C  C283  1  0.92706000  0.60476000  0.44965000  1.0
  C  C284  1  0.73503000  0.65162000  0.55861000  1.0
  C  C285  1  0.74882000  0.66529000  0.48369000  1.0
  C  C286  1  0.84519000  0.64198000  0.42825000  1.0
  C  C287  1  0.85784000  0.65446000  0.34901000  1.0
  C  C288  1  0.79476000  0.71925000  0.32576000  1.0
  C  C289  1  0.80238000  0.72598000  0.25204000  1.0
  C  C290  1  0.92896000  0.60018000  0.29423000  1.0
  C  C291  1  0.93086000  0.61095000  0.22176000  1.0
  C  C292  1  0.96056000  0.54407000  0.82667000  1.0
  C  C293  1  0.05163000  0.51164000  0.84471000  1.0
  C  C294  1  0.06408000  0.45400000  0.89700000  1.0
  C  C295  1  0.15175000  0.42361000  0.91039000  1.0
  C  C296  1  0.12718000  0.53941000  0.80680000  1.0
  C  C297  1  0.21448000  0.50913000  0.82003000  1.0
  C  C298  1  0.22840000  0.45029000  0.87151000  1.0
  C  C299  1  0.32327000  0.41806000  0.88226000  1.0
  C  C300  1  0.33040000  0.39470000  0.95223000  1.0
  C  C301  1  0.42192000  0.36897000  0.95907000  1.0
  C  C302  1  0.41233000  0.41088000  0.82114000  1.0
  C  C303  1  0.50080000  0.38385000  0.83215000  1.0
  C  C304  1  0.60906000  0.61507000  0.87596000  1.0
  C  C305  1  0.50490000  0.62130000  0.89912000  1.0
  C  C306  1  0.42785000  0.69162000  0.91895000  1.0
  C  C307  1  0.32997000  0.69970000  0.93958000  1.0
  C  C308  1  0.48252000  0.55887000  0.90029000  1.0
  C  C309  1  0.38445000  0.56672000  0.92202000  1.0
  C  C310  1  0.30671000  0.63706000  0.94205000  1.0
  C  C311  1  0.20308000  0.64397000  0.96718000  1.0
  C  C312  1  0.13071000  0.70629000  0.94943000  1.0
  C  C313  1  0.03314000  0.71133000  0.97746000  1.0
  C  C314  1  0.17203000  0.58782000  0.01071000  1.0
  C  C315  1  0.07332000  0.59667000  0.03567000  1.0
  C  C316  1  0.78408000  0.75070000  0.82225000  1.0
  C  C317  1  0.76950000  0.82855000  0.83465000  1.0
  C  C318  1  0.77254000  0.84672000  0.89962000  1.0
  C  C319  1  0.75524000  0.92014000  0.91166000  1.0
  C  C320  1  0.74851000  0.88436000  0.78238000  1.0
  C  C321  1  0.72763000  0.95829000  0.79551000  1.0
  C  C322  1  0.73149000  0.97663000  0.86037000  1.0
  C  C323  1  0.70960000  0.05455000  0.87508000  1.0
  C  C324  1  0.76838000  0.07355000  0.90016000  1.0
  C  C325  1  0.74443000  0.14807000  0.91326000  1.0
  C  C326  1  0.62871000  0.11342000  0.86426000  1.0
  C  C327  1  0.60876000  0.18614000  0.88015000  1.0
  N  N328  1  0.93193000  0.19963000  0.32732000  1.0
  N  N329  1  0.59302000  0.90026000  0.63603000  1.0
  N  N330  1  0.97518000  0.02220000  0.34142000  1.0
  N  N331  1  0.43024000  0.90486000  0.79546000  1.0
  N  N332  1  0.45894000  0.80046000  0.67266000  1.0
  N  N333  1  0.12935000  0.09969000  0.36403000  1.0
  N  N334  1  0.33843000  0.97795000  0.65901000  1.0
  N  N335  1  0.13039000  0.09508000  0.20456000  1.0
  N  N336  1  0.74076000  0.32724000  0.80031000  1.0
  N  N337  1  0.77087000  0.63598000  0.09996000  1.0
  N  N338  1  0.68370000  0.34099000  0.97774000  1.0
  N  N339  1  0.77429000  0.79557000  0.09535000  1.0
  N  N340  1  0.86840000  0.67266000  0.19981000  1.0
  N  N341  1  0.50690000  0.36409000  0.90005000  1.0
  N  N342  1  0.00234000  0.65873000  0.02240000  1.0
  N  N343  1  0.66495000  0.20450000  0.90466000  1.0
  O  O344  1  0.57466000  0.70976000  0.35870000  1.0
  O  O345  1  0.44774000  0.68071000  0.44023000  1.0
  O  O346  1  0.26821000  0.77198000  0.41041000  1.0
  O  O347  1  0.25019000  0.86572000  0.47296000  1.0
  O  O348  1  0.46534000  0.85335000  0.44760000  1.0
  O  O349  1  0.49678000  0.87803000  0.32639000  1.0
  O  O350  1  0.33409000  0.87348000  0.29832000  1.0
  O  O351  1  0.45460000  0.76087000  0.26435000  1.0
  O  O352  1  0.64246000  0.29043000  0.64145000  1.0
  O  O353  1  0.56842000  0.31951000  0.55962000  1.0
  O  O354  1  0.45030000  0.22813000  0.58976000  1.0
  O  O355  1  0.58862000  0.13437000  0.52725000  1.0
  O  O356  1  0.76594000  0.14711000  0.55241000  1.0
  O  O357  1  0.70092000  0.12204000  0.67352000  1.0
  O  O358  1  0.50567000  0.12651000  0.70170000  1.0
  O  O359  1  0.47952000  0.23908000  0.73580000  1.0
  O  O360  1  0.06673000  0.35876000  0.29049000  1.0
  O  O361  1  0.11180000  0.44047000  0.31965000  1.0
  O  O362  1  0.32116000  0.41062000  0.22820000  1.0
  O  O363  1  0.27672000  0.47296000  0.13439000  1.0
  O  O364  1  0.08684000  0.44775000  0.14693000  1.0
  O  O365  1  0.17674000  0.32652000  0.12220000  1.0
  O  O366  1  0.36752000  0.29866000  0.12661000  1.0
  O  O367  1  0.28122000  0.26463000  0.23920000  1.0
  O  O368  1  0.71609000  0.64085000  0.70960000  1.0
  O  O369  1  0.87228000  0.55957000  0.68050000  1.0
  O  O370  1  0.95982000  0.58967000  0.77199000  1.0
  O  O371  1  0.88421000  0.52695000  0.86552000  1.0
  O  O372  1  0.68142000  0.55223000  0.85318000  1.0
  O  O373  1  0.62514000  0.67354000  0.87766000  1.0
  O  O374  1  0.79209000  0.70168000  0.87346000  1.0
  O  O375  1  0.78473000  0.73543000  0.76072000  1.0
