# generated using pymatgen
data_TmH11C14(NO4)2
_symmetry_space_group_name_H-M   'P 1'
_cell_length_a   8.29908000
_cell_length_b   10.70770000
_cell_length_c   22.30340000
_cell_angle_alpha   93.72090000
_cell_angle_beta   90.01290000
_cell_angle_gamma   112.76500000
_symmetry_Int_Tables_number   1
_chemical_formula_structural   TmH11C14(NO4)2
_chemical_formula_sum   'Tm4 H44 C56 N8 O32'
_cell_volume   1823.03053079
_cell_formula_units_Z   4
loop_
 _symmetry_equiv_pos_site_id
 _symmetry_equiv_pos_as_xyz
  1  'x, y, z'
loop_
 _atom_site_type_symbol
 _atom_site_label
 _atom_site_symmetry_multiplicity
 _atom_site_fract_x
 _atom_site_fract_y
 _atom_site_fract_z
 _atom_site_occupancy
  Tm  Tm0  1  0.80793000  0.49893000  0.72651000  1.0
  Tm  Tm1  1  0.30879000  0.50074000  0.77365000  1.0
  Tm  Tm2  1  0.19207000  0.50108000  0.27349000  1.0
  Tm  Tm3  1  0.69120000  0.49926000  0.22635000  1.0
  H  H4  1  0.25038000  0.88671000  0.82552000  1.0
  H  H5  1  0.36408000  0.11282000  0.67452000  1.0
  H  H6  1  0.74962000  0.11331000  0.17448000  1.0
  H  H7  1  0.63591000  0.88717000  0.32548000  1.0
  H  H8  1  0.67892000  0.82038000  0.91546000  1.0
  H  H9  1  0.85859000  0.17917000  0.58472000  1.0
  H  H10  1  0.32106000  0.17961000  0.08454000  1.0
  H  H11  1  0.14139000  0.82083000  0.41528000  1.0
  H  H12  1  0.23974000  0.00328000  0.92479000  1.0
  H  H13  1  0.23686000  0.99635000  0.57525000  1.0
  H  H14  1  0.76025000  0.99673000  0.07521000  1.0
  H  H15  1  0.76312000  0.00365000  0.42475000  1.0
  H  H16  1  0.15094000  0.77635000  0.04390000  1.0
  H  H17  1  0.37520000  0.22390000  0.45630000  1.0
  H  H18  1  0.84908000  0.22366000  0.95610000  1.0
  H  H19  1  0.62480000  0.77610000  0.54370000  1.0
  H  H20  1  0.84605000  0.70650000  0.07538000  1.0
  H  H21  1  0.14017000  0.29381000  0.42472000  1.0
  H  H22  1  0.15397000  0.29350000  0.92462000  1.0
  H  H23  1  0.85983000  0.70619000  0.57529000  1.0
  H  H24  1  0.67010000  0.45719000  0.90965000  1.0
  H  H25  1  0.21258000  0.54271000  0.59054000  1.0
  H  H26  1  0.32990000  0.54282000  0.09035000  1.0
  H  H27  1  0.78743000  0.45728000  0.40946000  1.0
  H  H28  1  0.25657000  0.64568000  0.90616000  1.0
  H  H29  1  0.61110000  0.35447000  0.59411000  1.0
  H  H30  1  0.74342000  0.35433000  0.09384000  1.0
  H  H31  1  0.38891000  0.64553000  0.40590000  1.0
  H  H32  1  0.60666000  0.30668000  0.79801000  1.0
  H  H33  1  0.29981000  0.69301000  0.70214000  1.0
  H  H34  1  0.39335000  0.69332000  0.20199000  1.0
  H  H35  1  0.70018000  0.30698000  0.29786000  1.0
  H  H36  1  0.46292000  0.28578000  0.74659000  1.0
  H  H37  1  0.17674000  0.71403000  0.75344000  1.0
  H  H38  1  0.53709000  0.71422000  0.25341000  1.0
  H  H39  1  0.82326000  0.28597000  0.24656000  1.0
  H  H40  1  0.03150000  0.71469000  0.64938000  1.0
  H  H41  1  0.31708000  0.28494000  0.85075000  1.0
  H  H42  1  0.96850000  0.28531000  0.35062000  1.0
  H  H43  1  0.68292000  0.71505000  0.14924000  1.0
  H  H44  1  0.98802000  0.58355000  0.60394000  1.0
  H  H45  1  0.40467000  0.41617000  0.89616000  1.0
  H  H46  1  0.01199000  0.41645000  0.39606000  1.0
  H  H47  1  0.59532000  0.58382000  0.10384000  1.0
  C  C48  1  0.12484000  0.87346000  0.84515000  1.0
  C  C49  1  0.25180000  0.12616000  0.65487000  1.0
  C  C50  1  0.87516000  0.12654000  0.15485000  1.0
  C  C51  1  0.74819000  0.87383000  0.34513000  1.0
  C  C52  1  0.97010000  0.78045000  0.81435000  1.0
  C  C53  1  0.19009000  0.21921000  0.68570000  1.0
  C  C54  1  0.02990000  0.21955000  0.18565000  1.0
  C  C55  1  0.80989000  0.78078000  0.31429000  1.0
  C  C56  1  0.80740000  0.76459000  0.84093000  1.0
  C  C57  1  0.04307000  0.23503000  0.65918000  1.0
  C  C58  1  0.19260000  0.23540000  0.15906000  1.0
  C  C59  1  0.95692000  0.76497000  0.34082000  1.0
  C  C60  1  0.63697000  0.66811000  0.81767000  1.0
  C  C61  1  0.96901000  0.33151000  0.68248000  1.0
  C  C62  1  0.36303000  0.33188000  0.18233000  1.0
  C  C63  1  0.03100000  0.66849000  0.31752000  1.0
  C  C64  1  0.80441000  0.83628000  0.89537000  1.0
  C  C65  1  0.96833000  0.16332000  0.60478000  1.0
  C  C66  1  0.19558000  0.16371000  0.10463000  1.0
  C  C67  1  0.03166000  0.83667000  0.39523000  1.0
  C  C68  1  0.95694000  0.91988000  0.92655000  1.0
  C  C69  1  0.03734000  0.07982000  0.57351000  1.0
  C  C70  1  0.04305000  0.08012000  0.07344000  1.0
  C  C71  1  0.96264000  0.92017000  0.42649000  1.0
  C  C72  1  0.11943000  0.93920000  0.90015000  1.0
  C  C73  1  0.18058000  0.06046000  0.59986000  1.0
  C  C74  1  0.88056000  0.06081000  0.09984000  1.0
  C  C75  1  0.81940000  0.93954000  0.40014000  1.0
  C  C76  1  0.97770000  0.51433000  0.86142000  1.0
  C  C77  1  0.46331000  0.48573000  0.63878000  1.0
  C  C78  1  0.02230000  0.48568000  0.13858000  1.0
  C  C79  1  0.53669000  0.51427000  0.36122000  1.0
  C  C80  1  0.94492000  0.56418000  0.92182000  1.0
  C  C81  1  0.38073000  0.43587000  0.57839000  1.0
  C  C82  1  0.05508000  0.43583000  0.07818000  1.0
  C  C83  1  0.61927000  0.56413000  0.42161000  1.0
  C  C84  1  0.08449000  0.65379000  0.96024000  1.0
  C  C85  1  0.43090000  0.34632000  0.53998000  1.0
  C  C86  1  0.91552000  0.34622000  0.03976000  1.0
  C  C87  1  0.56910000  0.65367000  0.46002000  1.0
  C  C88  1  0.04427000  0.70466000  0.01543000  1.0
  C  C89  1  0.34000000  0.29550000  0.48476000  1.0
  C  C90  1  0.95574000  0.29535000  0.98458000  1.0
  C  C91  1  0.66000000  0.70450000  0.51524000  1.0
  C  C92  1  0.87286000  0.66518000  0.03251000  1.0
  C  C93  1  0.20807000  0.33498000  0.46763000  1.0
  C  C94  1  0.12715000  0.33482000  0.96749000  1.0
  C  C95  1  0.79192000  0.66502000  0.53237000  1.0
  C  C96  1  0.73280000  0.57402000  0.99548000  1.0
  C  C97  1  0.15892000  0.42602000  0.50465000  1.0
  C  C98  1  0.26721000  0.42599000  0.00453000  1.0
  C  C99  1  0.84109000  0.57397000  0.49535000  1.0
  C  C100  1  0.77299000  0.52630000  0.93994000  1.0
  C  C101  1  0.24657000  0.47369000  0.56023000  1.0
  C  C102  1  0.22701000  0.47371000  0.06007000  1.0
  C  C103  1  0.75343000  0.52631000  0.43977000  1.0
  N  N104  1  0.56384000  0.53590000  0.01791000  1.0
  N  N105  1  0.02808000  0.46414000  0.48212000  1.0
  N  N106  1  0.43618000  0.46411000  0.98210000  1.0
  N  N107  1  0.97193000  0.53586000  0.51788000  1.0
  N  N108  1  0.93141000  0.97270000  0.98342000  1.0
  N  N109  1  0.95867000  0.02710000  0.51667000  1.0
  N  N110  1  0.06858000  0.02730000  0.01657000  1.0
  N  N111  1  0.04131000  0.97290000  0.48333000  1.0
  O  O112  1  0.84905000  0.45896000  0.82459000  1.0
  O  O113  1  0.39009000  0.54117000  0.67560000  1.0
  O  O114  1  0.15094000  0.54105000  0.17541000  1.0
  O  O115  1  0.60990000  0.45882000  0.32440000  1.0
  O  O116  1  0.13664000  0.53311000  0.84895000  1.0
  O  O117  1  0.60347000  0.46691000  0.65127000  1.0
  O  O118  1  0.86337000  0.46690000  0.15105000  1.0
  O  O119  1  0.39654000  0.53309000  0.34873000  1.0
  O  O120  1  0.49732000  0.66360000  0.84258000  1.0
  O  O121  1  0.83386000  0.33607000  0.65755000  1.0
  O  O122  1  0.50269000  0.33639000  0.15742000  1.0
  O  O123  1  0.16615000  0.66394000  0.34245000  1.0
  O  O124  1  0.62182000  0.58252000  0.77151000  1.0
  O  O125  1  0.03933000  0.41701000  0.72868000  1.0
  O  O126  1  0.37819000  0.41747000  0.22848000  1.0
  O  O127  1  0.96068000  0.58299000  0.27132000  1.0
  O  O128  1  0.98227000  0.71077000  0.76416000  1.0
  O  O129  1  0.27199000  0.28898000  0.73588000  1.0
  O  O130  1  0.01774000  0.28923000  0.23584000  1.0
  O  O131  1  0.72801000  0.71102000  0.26412000  1.0
  O  O132  1  0.25281000  0.69367000  0.94586000  1.0
  O  O133  1  0.55940000  0.30647000  0.55439000  1.0
  O  O134  1  0.74720000  0.30634000  0.05413000  1.0
  O  O135  1  0.44061000  0.69353000  0.44561000  1.0
  O  O136  1  0.99445000  0.61645000  0.64742000  1.0
  O  O137  1  0.37810000  0.38318000  0.85268000  1.0
  O  O138  1  0.00557000  0.38355000  0.35258000  1.0
  O  O139  1  0.62190000  0.61682000  0.14732000  1.0
  O  O140  1  0.58875000  0.29755000  0.75444000  1.0
  O  O141  1  0.29075000  0.70218000  0.74569000  1.0
  O  O142  1  0.41126000  0.70245000  0.24556000  1.0
  O  O143  1  0.70925000  0.29782000  0.25431000  1.0
