# generated using pymatgen
data_SmP2H17C16O11
_symmetry_space_group_name_H-M   'P 1'
_cell_length_a   5.60988000
_cell_length_b   9.38576000
_cell_length_c   18.33377703
_cell_angle_alpha   75.32326198
_cell_angle_beta   84.96323961
_cell_angle_gamma   83.61630000
_symmetry_Int_Tables_number   1
_chemical_formula_structural   SmP2H17C16O11
_chemical_formula_sum   'Sm2 P4 H34 C32 O22'
_cell_volume   926.25346444
_cell_formula_units_Z   2
loop_
 _symmetry_equiv_pos_site_id
 _symmetry_equiv_pos_as_xyz
  1  'x, y, z'
loop_
 _atom_site_type_symbol
 _atom_site_label
 _atom_site_symmetry_multiplicity
 _atom_site_fract_x
 _atom_site_fract_y
 _atom_site_fract_z
 _atom_site_occupancy
  Sm  Sm0  1  0.12079000  0.19835000  0.99711000  1.0
  Sm  Sm1  1  0.87922000  0.80164000  0.00289000  1.0
  P  P2  1  0.38405000  0.00699000  0.89268000  1.0
  P  P3  1  0.61595000  0.99302000  0.10731000  1.0
  P  P4  1  0.25832000  0.57408000  0.89282000  1.0
  P  P5  1  0.74168000  0.42592000  0.10718000  1.0
  H  H6  1  0.59760000  0.17301000  0.68177000  1.0
  H  H7  1  0.40239000  0.82701000  0.31823000  1.0
  H  H8  1  0.47776000  0.40481000  0.58964000  1.0
  H  H9  1  0.52223000  0.59522000  0.41037000  1.0
  H  H10  1  0.77184000  0.41700000  0.70110000  1.0
  H  H11  1  0.22812000  0.58299000  0.29891000  1.0
  H  H12  1  0.88825000  0.18098000  0.79352000  1.0
  H  H13  1  0.11173000  0.81901000  0.20648000  1.0
  H  H14  1  0.49781000  0.96578000  0.77197000  1.0
  H  H15  1  0.50219000  0.03422000  0.22803000  1.0
  H  H16  1  0.19621000  0.93276000  0.80039000  1.0
  H  H17  1  0.80380000  0.06722000  0.19961000  1.0
  H  H18  1  0.52722000  0.65945000  0.68734000  1.0
  H  H19  1  0.47279000  0.34055000  0.31265000  1.0
  H  H20  1  0.47217000  0.89209000  0.58741000  1.0
  H  H21  1  0.52784000  0.10790000  0.41259000  1.0
  H  H22  1  0.74736000  0.96830000  0.67448000  1.0
  H  H23  1  0.25266000  0.03171000  0.32552000  1.0
  H  H24  1  0.80161000  0.73757000  0.77741000  1.0
  H  H25  1  0.19840000  0.26244000  0.22260000  1.0
  H  H26  1  0.34302000  0.46610000  0.78775000  1.0
  H  H27  1  0.65697000  0.53390000  0.21224000  1.0
  H  H28  1  0.03299000  0.48856000  0.81326000  1.0
  H  H29  1  0.96701000  0.51143000  0.18674000  1.0
  H  H30  1  0.16949000  0.69773000  0.48869000  1.0
  H  H31  1  0.83051000  0.30227000  0.51131000  1.0
  H  H32  1  0.54485000  0.71539000  0.89592000  1.0
  H  H33  1  0.45516000  0.28460000  0.10408000  1.0
  H  H34  1  0.19977000  0.21950000  0.47738000  1.0
  H  H35  1  0.80024000  0.78051000  0.52262000  1.0
  H  H36  1  0.71766000  0.41297000  0.91663000  1.0
  H  H37  1  0.28234000  0.58703000  0.08337000  1.0
  H  H38  1  0.66809000  0.25321000  0.90933000  1.0
  H  H39  1  0.33192000  0.74678000  0.09067000  1.0
  C  C40  1  0.25221000  0.15959000  0.74450000  1.0
  C  C41  1  0.74777000  0.84041000  0.25550000  1.0
  C  C42  1  0.41638000  0.22575000  0.68725000  1.0
  C  C43  1  0.58361000  0.77425000  0.31276000  1.0
  C  C44  1  0.35035000  0.35626000  0.63490000  1.0
  C  C45  1  0.64965000  0.64375000  0.36511000  1.0
  C  C46  1  0.11711000  0.42578000  0.63952000  1.0
  C  C47  1  0.88288000  0.57424000  0.36048000  1.0
  C  C48  1  0.95305000  0.36268000  0.69772000  1.0
  C  C49  1  0.04693000  0.63733000  0.30228000  1.0
  C  C50  1  0.01934000  0.23031000  0.74943000  1.0
  C  C51  1  0.98064000  0.76968000  0.25057000  1.0
  C  C52  1  0.32980000  0.01260000  0.79568000  1.0
  C  C53  1  0.67021000  0.98740000  0.20432000  1.0
  C  C54  1  0.04927000  0.56322000  0.58200000  1.0
  C  C55  1  0.95073000  0.43677000  0.41801000  1.0
  C  C56  1  0.16939000  0.68398000  0.74042000  1.0
  C  C57  1  0.83062000  0.31601000  0.25958000  1.0
  C  C58  1  0.35695000  0.72808000  0.68638000  1.0
  C  C59  1  0.64305000  0.27191000  0.31362000  1.0
  C  C60  1  0.32723000  0.85819000  0.62961000  1.0
  C  C61  1  0.67277000  0.14180000  0.37039000  1.0
  C  C62  1  0.10791000  0.94601000  0.62618000  1.0
  C  C63  1  0.89210000  0.05399000  0.37382000  1.0
  C  C64  1  0.91891000  0.90121000  0.67955000  1.0
  C  C65  1  0.08110000  0.09879000  0.32045000  1.0
  C  C66  1  0.94937000  0.77235000  0.73625000  1.0
  C  C67  1  0.05065000  0.22766000  0.26375000  1.0
  C  C68  1  0.19845000  0.54516000  0.80230000  1.0
  C  C69  1  0.80156000  0.45483000  0.19770000  1.0
  C  C70  1  0.06688000  0.08578000  0.56799000  1.0
  C  C71  1  0.93313000  0.91422000  0.43201000  1.0
  O  O72  1  0.45743000  0.15381000  0.90258000  1.0
  O  O73  1  0.54257000  0.84618000  0.09742000  1.0
  O  O74  1  0.14168000  0.98616000  0.94124000  1.0
  O  O75  1  0.85832000  0.01383000  0.05876000  1.0
  O  O76  1  0.57409000  0.87449000  0.91750000  1.0
  O  O77  1  0.42591000  0.12550000  0.08250000  1.0
  O  O78  1  0.21684000  0.59776000  0.52716000  1.0
  O  O79  1  0.78314000  0.40224000  0.47284000  1.0
  O  O80  1  0.85131000  0.63805000  0.58549000  1.0
  O  O81  1  0.14867000  0.36195000  0.41452000  1.0
  O  O82  1  0.25564000  0.42604000  0.95066000  1.0
  O  O83  1  0.74436000  0.57395000  0.04934000  1.0
  O  O84  1  0.52934000  0.61928000  0.88221000  1.0
  O  O85  1  0.47067000  0.38071000  0.11779000  1.0
  O  O86  1  0.08803000  0.69954000  0.91104000  1.0
  O  O87  1  0.91197000  0.30046000  0.08896000  1.0
  O  O88  1  0.24373000  0.11996000  0.51616000  1.0
  O  O89  1  0.75627000  0.88004000  0.48384000  1.0
  O  O90  1  0.87227000  0.16463000  0.56954000  1.0
  O  O91  1  0.12773000  0.83536000  0.43046000  1.0
  O  O92  1  0.79626000  0.31384000  0.91733000  1.0
  O  O93  1  0.20374000  0.68616000  0.08266000  1.0
