# generated using pymatgen
data_CuH20C14S4(NO4)2
_symmetry_space_group_name_H-M   'P 1'
_cell_length_a   6.90420000
_cell_length_b   7.67107000
_cell_length_c   10.19840000
_cell_angle_alpha   68.45020000
_cell_angle_beta   81.68790000
_cell_angle_gamma   74.91350000
_symmetry_Int_Tables_number   1
_chemical_formula_structural   CuH20C14S4(NO4)2
_chemical_formula_sum   'Cu1 H20 C14 S4 N2 O8'
_cell_volume   484.34126989
_cell_formula_units_Z   1
loop_
 _symmetry_equiv_pos_site_id
 _symmetry_equiv_pos_as_xyz
  1  'x, y, z'
loop_
 _atom_site_type_symbol
 _atom_site_label
 _atom_site_symmetry_multiplicity
 _atom_site_fract_x
 _atom_site_fract_y
 _atom_site_fract_z
 _atom_site_occupancy
  Cu  Cu0  1  0.50001000  0.00000000  0.50000000  1.0
  H  H1  1  0.11881000  0.88401000  0.52302000  1.0
  H  H2  1  0.88120000  0.11600000  0.47698000  1.0
  H  H3  1  0.97859000  0.69409000  0.42602000  1.0
  H  H4  1  0.02141000  0.30592000  0.57398000  1.0
  H  H5  1  0.57445000  0.52906000  0.24386000  1.0
  H  H6  1  0.42555000  0.47094000  0.75614000  1.0
  H  H7  1  0.68872000  0.72539000  0.34820000  1.0
  H  H8  1  0.31129000  0.27460000  0.65180000  1.0
  H  H9  1  0.56065000  0.87173000  0.87876000  1.0
  H  H10  1  0.43934000  0.12827000  0.12124000  1.0
  H  H11  1  0.39400000  0.76842000  0.02072000  1.0
  H  H12  1  0.60599000  0.23158000  0.97928000  1.0
  H  H13  1  0.32431000  0.02351000  0.91441000  1.0
  H  H14  1  0.67567000  0.97650000  0.08559000  1.0
  H  H15  1  0.99056000  0.99959000  0.87348000  1.0
  H  H16  1  0.00943000  0.00041000  0.12653000  1.0
  H  H17  1  0.02429000  0.74144000  0.97027000  1.0
  H  H18  1  0.97571000  0.25856000  0.02973000  1.0
  H  H19  1  0.94356000  0.84199000  0.79239000  1.0
  H  H20  1  0.05642000  0.15801000  0.20761000  1.0
  C  C21  1  0.21391000  0.80384000  0.46027000  1.0
  C  C22  1  0.78610000  0.19616000  0.53973000  1.0
  C  C23  1  0.13707000  0.69526000  0.40626000  1.0
  C  C24  1  0.86295000  0.30474000  0.59374000  1.0
  C  C25  1  0.26499000  0.59613000  0.32545000  1.0
  C  C26  1  0.73501000  0.40387000  0.67456000  1.0
  C  C27  1  0.46716000  0.60510000  0.30480000  1.0
  C  C28  1  0.53284000  0.39491000  0.69520000  1.0
  C  C29  1  0.53265000  0.71525000  0.36345000  1.0
  C  C30  1  0.46737000  0.28475000  0.63655000  1.0
  C  C31  1  0.40306000  0.87875000  0.91628000  1.0
  C  C32  1  0.59692000  0.12125000  0.08371000  1.0
  C  C33  1  0.03385000  0.85477000  0.86711000  1.0
  C  C34  1  0.96614000  0.14524000  0.13289000  1.0
  S  S35  1  0.17261000  0.45828000  0.24922000  1.0
  S  S36  1  0.82739000  0.54172000  0.75078000  1.0
  S  S37  1  0.28926000  0.81326000  0.79918000  1.0
  S  S38  1  0.71073000  0.18674000  0.20082000  1.0
  N  N39  1  0.40753000  0.81640000  0.43801000  1.0
  N  N40  1  0.59248000  0.18359000  0.56199000  1.0
  O  O41  1  0.22898000  0.25765000  0.34715000  1.0
  O  O42  1  0.77104000  0.74234000  0.65284000  1.0
  O  O43  1  0.95527000  0.53572000  0.24446000  1.0
  O  O44  1  0.04475000  0.46428000  0.75555000  1.0
  O  O45  1  0.27893000  0.48740000  0.11044000  1.0
  O  O46  1  0.72107000  0.51260000  0.88956000  1.0
  O  O47  1  0.28183000  0.98300000  0.65681000  1.0
  O  O48  1  0.71816000  0.01700000  0.34319000  1.0
