# generated using pymatgen
data_CuH3C4IN2
_symmetry_space_group_name_H-M   'P 1'
_cell_length_a   9.99464000
_cell_length_b   9.99475000
_cell_length_c   11.94960000
_cell_angle_alpha   90.00020000
_cell_angle_beta   90.00010000
_cell_angle_gamma   89.98980000
_symmetry_Int_Tables_number   1
_chemical_formula_structural   CuH3C4IN2
_chemical_formula_sum   'Cu8 H24 C32 I8 N16'
_cell_volume   1193.69246478
_cell_formula_units_Z   8
loop_
 _symmetry_equiv_pos_site_id
 _symmetry_equiv_pos_as_xyz
  1  'x, y, z'
loop_
 _atom_site_type_symbol
 _atom_site_label
 _atom_site_symmetry_multiplicity
 _atom_site_fract_x
 _atom_site_fract_y
 _atom_site_fract_z
 _atom_site_occupancy
  Cu  Cu0  1  0.97906000  0.40081000  0.12554000  1.0
  Cu  Cu1  1  0.02094000  0.59919000  0.62554000  1.0
  Cu  Cu2  1  0.90067000  0.52095000  0.37549000  1.0
  Cu  Cu3  1  0.09933000  0.47905000  0.87549000  1.0
  Cu  Cu4  1  0.47905000  0.09933000  0.12451000  1.0
  Cu  Cu5  1  0.52095000  0.90067000  0.62451000  1.0
  Cu  Cu6  1  0.40081000  0.97906000  0.87446000  1.0
  Cu  Cu7  1  0.59919000  0.02093000  0.37446000  1.0
  H  H8  1  0.07734000  0.12775000  0.16566000  1.0
  H  H9  1  0.92266000  0.87225000  0.66566000  1.0
  H  H10  1  0.62756000  0.42300000  0.41569000  1.0
  H  H11  1  0.37243000  0.57700000  0.91569000  1.0
  H  H12  1  0.57701000  0.37243000  0.08431000  1.0
  H  H13  1  0.42299000  0.62757000  0.58430000  1.0
  H  H14  1  0.12775000  0.07734000  0.83434000  1.0
  H  H15  1  0.87226000  0.92266000  0.33434000  1.0
  H  H16  1  0.17067000  0.00400000  0.32968000  1.0
  H  H17  1  0.82933000  0.99600000  0.82968000  1.0
  H  H18  1  0.50396000  0.32947000  0.57970000  1.0
  H  H19  1  0.49603000  0.67054000  0.07970000  1.0
  H  H20  1  0.67055000  0.49603000  0.92030000  1.0
  H  H21  1  0.32945000  0.50397000  0.42029000  1.0
  H  H22  1  0.00399000  0.17068000  0.67032000  1.0
  H  H23  1  0.99601000  0.82933000  0.17032000  1.0
  H  H24  1  0.01137000  0.32761000  0.53074000  1.0
  H  H25  1  0.98864000  0.67239000  0.03074000  1.0
  H  H26  1  0.82769000  0.48843000  0.78073000  1.0
  H  H27  1  0.17231000  0.51157000  0.28073000  1.0
  H  H28  1  0.51157000  0.17232000  0.71926000  1.0
  H  H29  1  0.48843000  0.82769000  0.21926000  1.0
  H  H30  1  0.32761000  0.01137000  0.46926000  1.0
  H  H31  1  0.67239000  0.98863000  0.96926000  1.0
  C  C32  1  0.06507000  0.16548000  0.25075000  1.0
  C  C33  1  0.93493000  0.83452000  0.75075000  1.0
  C  C34  1  0.66535000  0.43515000  0.50077000  1.0
  C  C35  1  0.33464000  0.56485000  0.00077000  1.0
  C  C36  1  0.56486000  0.33464000  0.99923000  1.0
  C  C37  1  0.43514000  0.66536000  0.49923000  1.0
  C  C38  1  0.16548000  0.06507000  0.74925000  1.0
  C  C39  1  0.83452000  0.93493000  0.24926000  1.0
  C  C40  1  0.11736000  0.09777000  0.34244000  1.0
  C  C41  1  0.88264000  0.90223000  0.84244000  1.0
  C  C42  1  0.59773000  0.38278000  0.59247000  1.0
  C  C43  1  0.40227000  0.61722000  0.09246000  1.0
  C  C44  1  0.61723000  0.40227000  0.90753000  1.0
  C  C45  1  0.38277000  0.59773000  0.40753000  1.0
  C  C46  1  0.09777000  0.11736000  0.65756000  1.0
  C  C47  1  0.90223000  0.88264000  0.15756000  1.0
  C  C48  1  0.02679000  0.27437000  0.45217000  1.0
  C  C49  1  0.97322000  0.72564000  0.95217000  1.0
  C  C50  1  0.77438000  0.47320000  0.70216000  1.0
  C  C51  1  0.22562000  0.52680000  0.20216000  1.0
  C  C52  1  0.52679000  0.22562000  0.79783000  1.0
  C  C53  1  0.47321000  0.77438000  0.29783000  1.0
  C  C54  1  0.27436000  0.02679000  0.54783000  1.0
  C  C55  1  0.72564000  0.97321000  0.04783000  1.0
  C  C56  1  0.09600000  0.15222000  0.44872000  1.0
  C  C57  1  0.90400000  0.84778000  0.94872000  1.0
  C  C58  1  0.65219000  0.40407000  0.69871000  1.0
  C  C59  1  0.34781000  0.59593000  0.19871000  1.0
  C  C60  1  0.59593000  0.34781000  0.80128000  1.0
  C  C61  1  0.40407000  0.65219000  0.30128000  1.0
  C  C62  1  0.15221000  0.09600000  0.55129000  1.0
  C  C63  1  0.84778000  0.90400000  0.05129000  1.0
  I  I64  1  0.94483000  0.27750000  0.93512000  1.0
  I  I65  1  0.05516000  0.72250000  0.43512000  1.0
  I  I66  1  0.77724000  0.55512000  0.18513000  1.0
  I  I67  1  0.22276000  0.44488000  0.68513000  1.0
  I  I68  1  0.44489000  0.22275000  0.31487000  1.0
  I  I69  1  0.55512000  0.77724000  0.81487000  1.0
  I  I70  1  0.27750000  0.94484000  0.06488000  1.0
  I  I71  1  0.72250000  0.05516000  0.56488000  1.0
  N  N72  1  0.00084000  0.28294000  0.25885000  1.0
  N  N73  1  0.99916000  0.71706000  0.75885000  1.0
  N  N74  1  0.78283000  0.49928000  0.50885000  1.0
  N  N75  1  0.21716000  0.50071000  0.00884000  1.0
  N  N76  1  0.50072000  0.21716000  0.99115000  1.0
  N  N77  1  0.49928000  0.78283000  0.49115000  1.0
  N  N78  1  0.28293000  0.00084000  0.74115000  1.0
  N  N79  1  0.71707000  0.99916000  0.24115000  1.0
  N  N80  1  0.98427000  0.33903000  0.36087000  1.0
  N  N81  1  0.01573000  0.66097000  0.86087000  1.0
  N  N82  1  0.83903000  0.51568000  0.61084000  1.0
  N  N83  1  0.16097000  0.48432000  0.11084000  1.0
  N  N84  1  0.48432000  0.16097000  0.88916000  1.0
  N  N85  1  0.51568000  0.83903000  0.38916000  1.0
  N  N86  1  0.33903000  0.98427000  0.63914000  1.0
  N  N87  1  0.66097000  0.01573000  0.13914000  1.0
