# generated using pymatgen
data_CdH17C12Br(NO)2
_symmetry_space_group_name_H-M   'P 1'
_cell_length_a   7.23901000
_cell_length_b   13.65270000
_cell_length_c   16.51850000
_cell_angle_alpha   90.00000000
_cell_angle_beta   90.00000000
_cell_angle_gamma   90.00000000
_symmetry_Int_Tables_number   1
_chemical_formula_structural   CdH17C12Br(NO)2
_chemical_formula_sum   'Cd4 H68 C48 Br4 N8 O8'
_cell_volume   1632.55691773
_cell_formula_units_Z   4
loop_
 _symmetry_equiv_pos_site_id
 _symmetry_equiv_pos_as_xyz
  1  'x, y, z'
loop_
 _atom_site_type_symbol
 _atom_site_label
 _atom_site_symmetry_multiplicity
 _atom_site_fract_x
 _atom_site_fract_y
 _atom_site_fract_z
 _atom_site_occupancy
  Cd  Cd0  1  0.18091000  0.78463000  0.59867000  1.0
  Cd  Cd1  1  0.31909000  0.21537000  0.09867000  1.0
  Cd  Cd2  1  0.81910000  0.28462000  0.90133000  1.0
  Cd  Cd3  1  0.68091000  0.71537000  0.40133000  1.0
  H  H4  1  0.39660000  0.37113000  0.88184000  1.0
  H  H5  1  0.10340000  0.62886000  0.38184000  1.0
  H  H6  1  0.60340000  0.87114000  0.61816000  1.0
  H  H7  1  0.89660000  0.12887000  0.11816000  1.0
  H  H8  1  0.30860000  0.69987000  0.76814000  1.0
  H  H9  1  0.19140000  0.30013000  0.26814000  1.0
  H  H10  1  0.69140000  0.19987000  0.73186000  1.0
  H  H11  1  0.80860000  0.80013000  0.23186000  1.0
  H  H12  1  0.50660000  0.70987000  0.70498000  1.0
  H  H13  1  0.99340000  0.29013000  0.20498000  1.0
  H  H14  1  0.49340000  0.20987000  0.79502000  1.0
  H  H15  1  0.00660000  0.79013000  0.29502000  1.0
  H  H16  1  0.46986000  0.52114000  0.61822000  1.0
  H  H17  1  0.03014000  0.47886000  0.11822000  1.0
  H  H18  1  0.53014000  0.02114000  0.88178000  1.0
  H  H19  1  0.96986000  0.97886000  0.38178000  1.0
  H  H20  1  0.11444000  0.57040000  0.52655000  1.0
  H  H21  1  0.38556000  0.42960000  0.02655000  1.0
  H  H22  1  0.88556000  0.07040000  0.97345000  1.0
  H  H23  1  0.61444000  0.92960000  0.47345000  1.0
  H  H24  1  0.28965000  0.49460000  0.48588000  1.0
  H  H25  1  0.21035000  0.50540000  0.98588000  1.0
  H  H26  1  0.71035000  0.99460000  0.01412000  1.0
  H  H27  1  0.78965000  0.00540000  0.51412000  1.0
  H  H28  1  0.89729000  0.45120000  0.78069000  1.0
  H  H29  1  0.60271000  0.54880000  0.28069000  1.0
  H  H30  1  0.10271000  0.95120000  0.71931000  1.0
  H  H31  1  0.39729000  0.04880000  0.21931000  1.0
  H  H32  1  0.23621000  0.51564000  0.82290000  1.0
  H  H33  1  0.26379000  0.48436000  0.32290000  1.0
  H  H34  1  0.76379000  0.01564000  0.67710000  1.0
  H  H35  1  0.73621000  0.98436000  0.17710000  1.0
  H  H36  1  0.75965000  0.60424000  0.72017000  1.0
  H  H37  1  0.74035000  0.39576000  0.22017000  1.0
  H  H38  1  0.24035000  0.10423000  0.77983000  1.0
  H  H39  1  0.25965000  0.89577000  0.27983000  1.0
  H  H40  1  0.10084000  0.44873000  0.64766000  1.0
  H  H41  1  0.39916000  0.55127000  0.14766000  1.0
  H  H42  1  0.89916000  0.94873000  0.85234000  1.0
  H  H43  1  0.60084000  0.05127000  0.35234000  1.0
  H  H44  1  0.16445000  0.59812000  0.67555000  1.0
  H  H45  1  0.33555000  0.40188000  0.17555000  1.0
  H  H46  1  0.83555000  0.09812000  0.82445000  1.0
  H  H47  1  0.66445000  0.90188000  0.32445000  1.0
  H  H48  1  0.22507000  0.28166000  0.62283000  1.0
  H  H49  1  0.27493000  0.71834000  0.12282000  1.0
  H  H50  1  0.77493000  0.78166000  0.87717000  1.0
  H  H51  1  0.72507000  0.21834000  0.37718000  1.0
  H  H52  1  0.40699000  0.36781000  0.62797000  1.0
  H  H53  1  0.09301000  0.63219000  0.12797000  1.0
  H  H54  1  0.59301000  0.86781000  0.87202000  1.0
  H  H55  1  0.90699000  0.13219000  0.37203000  1.0
  H  H56  1  0.33358000  0.32317000  0.53207000  1.0
  H  H57  1  0.16642000  0.67683000  0.03207000  1.0
  H  H58  1  0.66642000  0.82317000  0.96793000  1.0
  H  H59  1  0.83358000  0.17683000  0.46793000  1.0
  H  H60  1  0.86579000  0.45281000  0.53605000  1.0
  H  H61  1  0.63421000  0.54719000  0.03605000  1.0
  H  H62  1  0.13421000  0.95281000  0.96395000  1.0
  H  H63  1  0.36579000  0.04719000  0.46395000  1.0
  H  H64  1  0.90566000  0.33162000  0.57229000  1.0
  H  H65  1  0.59434000  0.66838000  0.07229000  1.0
  H  H66  1  0.09434000  0.83162000  0.92771000  1.0
  H  H67  1  0.40566000  0.16838000  0.42771000  1.0
  H  H68  1  0.00319000  0.37014000  0.47886000  1.0
  H  H69  1  0.49681000  0.62986000  0.97886000  1.0
  H  H70  1  0.99681000  0.87014000  0.02114000  1.0
  H  H71  1  0.50319000  0.12986000  0.52114000  1.0
  C  C72  1  0.47226000  0.42458000  0.84573000  1.0
  C  C73  1  0.02774000  0.57543000  0.34573000  1.0
  C  C74  1  0.52774000  0.92458000  0.65427000  1.0
  C  C75  1  0.97226000  0.07543000  0.15427000  1.0
  C  C76  1  0.39803000  0.65953000  0.72585000  1.0
  C  C77  1  0.10197000  0.34047000  0.22585000  1.0
  C  C78  1  0.60196000  0.15953000  0.77415000  1.0
  C  C79  1  0.89804000  0.84047000  0.27415000  1.0
  C  C80  1  0.48619000  0.57236000  0.76641000  1.0
  C  C81  1  0.01381000  0.42764000  0.26641000  1.0
  C  C82  1  0.51381000  0.07236000  0.73359000  1.0
  C  C83  1  0.98619000  0.92764000  0.23359000  1.0
  C  C84  1  0.37150000  0.57411000  0.59233000  1.0
  C  C85  1  0.12849000  0.42589000  0.09233000  1.0
  C  C86  1  0.62850000  0.07411000  0.90767000  1.0
  C  C87  1  0.87150000  0.92589000  0.40767000  1.0
  C  C88  1  0.22515000  0.51846000  0.54288000  1.0
  C  C89  1  0.27485000  0.48154000  0.04288000  1.0
  C  C90  1  0.77485000  0.01846000  0.95712000  1.0
  C  C91  1  0.72515000  0.98154000  0.45712000  1.0
  C  C92  1  0.75186000  0.47017000  0.78920000  1.0
  C  C93  1  0.74814000  0.52983000  0.28920000  1.0
  C  C94  1  0.24814000  0.97017000  0.71081000  1.0
  C  C95  1  0.25186000  0.02983000  0.21080000  1.0
  C  C96  1  0.38405000  0.50585000  0.81264000  1.0
  C  C97  1  0.11595000  0.49414000  0.31264000  1.0
  C  C98  1  0.61594000  0.00586000  0.68736000  1.0
  C  C99  1  0.88405000  0.99414000  0.18736000  1.0
  C  C100  1  0.67440000  0.55330000  0.75486000  1.0
  C  C101  1  0.82560000  0.44670000  0.25486000  1.0
  C  C102  1  0.32560000  0.05330000  0.74515000  1.0
  C  C103  1  0.17440000  0.94670000  0.24515000  1.0
  C  C104  1  0.14306000  0.42830000  0.58553000  1.0
  C  C105  1  0.35694000  0.57170000  0.08553000  1.0
  C  C106  1  0.85694000  0.92830000  0.91447000  1.0
  C  C107  1  0.64306000  0.07170000  0.41447000  1.0
  C  C108  1  0.48262000  0.63929000  0.53487000  1.0
  C  C109  1  0.01738000  0.36071000  0.03487000  1.0
  C  C110  1  0.51738000  0.13930000  0.96513000  1.0
  C  C111  1  0.98262000  0.86071000  0.46513000  1.0
  C  C112  1  0.28534000  0.34569000  0.59250000  1.0
  C  C113  1  0.21466000  0.65431000  0.09250000  1.0
  C  C114  1  0.71466000  0.84569000  0.90750000  1.0
  C  C115  1  0.78534000  0.15431000  0.40751000  1.0
  C  C116  1  0.96922000  0.39405000  0.54079000  1.0
  C  C117  1  0.53079000  0.60595000  0.04079000  1.0
  C  C118  1  0.03079000  0.89405000  0.95921000  1.0
  C  C119  1  0.46921000  0.10595000  0.45921000  1.0
  Br  Br120  1  0.90672000  0.77868000  0.70487000  1.0
  Br  Br121  1  0.59328000  0.22132000  0.20487000  1.0
  Br  Br122  1  0.09327000  0.27868000  0.79512000  1.0
  Br  Br123  1  0.40671000  0.72132000  0.29513000  1.0
  N  N124  1  0.65287000  0.40681000  0.83400000  1.0
  N  N125  1  0.84713000  0.59319000  0.33400000  1.0
  N  N126  1  0.34713000  0.90681000  0.66600000  1.0
  N  N127  1  0.15287000  0.09319000  0.16600000  1.0
  N  N128  1  0.28116000  0.63265000  0.65559000  1.0
  N  N129  1  0.21884000  0.36735000  0.15559000  1.0
  N  N130  1  0.71884000  0.13265000  0.84441000  1.0
  N  N131  1  0.78116000  0.86735000  0.34441000  1.0
  O  O132  1  0.60860000  0.59712000  0.49453000  1.0
  O  O133  1  0.89140000  0.40288000  0.99453000  1.0
  O  O134  1  0.39140000  0.09712000  0.00547000  1.0
  O  O135  1  0.10860000  0.90288000  0.50547000  1.0
  O  O136  1  0.44113000  0.72962000  0.52596000  1.0
  O  O137  1  0.05888000  0.27038000  0.02596000  1.0
  O  O138  1  0.55888000  0.22962000  0.97404000  1.0
  O  O139  1  0.94113000  0.77038000  0.47404000  1.0
