# generated using pymatgen
data_Zn4H30C36Cl2O13
_symmetry_space_group_name_H-M   'P 1'
_cell_length_a   17.80600000
_cell_length_b   18.64710000
_cell_length_c   23.39570000
_cell_angle_alpha   66.58180000
_cell_angle_beta   69.60350000
_cell_angle_gamma   89.96250000
_symmetry_Int_Tables_number   1
_chemical_formula_structural   Zn4H30C36Cl2O13
_chemical_formula_sum   'Zn8 H60 C72 Cl4 O26'
_cell_volume   6594.91385680
_cell_formula_units_Z   2
loop_
 _symmetry_equiv_pos_site_id
 _symmetry_equiv_pos_as_xyz
  1  'x, y, z'
loop_
 _atom_site_type_symbol
 _atom_site_label
 _atom_site_symmetry_multiplicity
 _atom_site_fract_x
 _atom_site_fract_y
 _atom_site_fract_z
 _atom_site_occupancy
  Zn  Zn0  1  0.11858000  0.53138000  0.94131000  1.0
  Zn  Zn1  1  0.97192000  0.55963000  0.05094000  1.0
  Zn  Zn2  1  0.97645000  0.38919000  0.05024000  1.0
  Zn  Zn3  1  0.93883000  0.53048000  0.93445000  1.0
  Zn  Zn4  1  0.38518000  0.97735000  0.04968000  1.0
  Zn  Zn5  1  0.52980000  0.11617000  0.93662000  1.0
  Zn  Zn6  1  0.52386000  0.94641000  0.93651000  1.0
  Zn  Zn7  1  0.56746000  0.97252000  0.05051000  1.0
  H  H8  1  0.49689000  0.86735000  0.26338000  1.0
  H  H9  1  0.43223000  0.80425000  0.38921000  1.0
  H  H10  1  0.26060000  0.87494000  0.25274000  1.0
  H  H11  1  0.25120000  0.63111000  0.73763000  1.0
  H  H12  1  0.01712000  0.63803000  0.72278000  1.0
  H  H13  1  0.08443000  0.70086000  0.59712000  1.0
  H  H14  1  0.63081000  0.02084000  0.72826000  1.0
  H  H15  1  0.70021000  0.08521000  0.60257000  1.0
  H  H16  1  0.62720000  0.25019000  0.73070000  1.0
  H  H17  1  0.87085000  0.25527000  0.25717000  1.0
  H  H18  1  0.86812000  0.48507000  0.25877000  1.0
  H  H19  1  0.80948000  0.42112000  0.38491000  1.0
  H  H20  1  0.19907000  0.30232000  0.91064000  1.0
  H  H21  1  0.12712000  0.23055000  0.98702000  1.0
  H  H22  1  0.21640000  0.13885000  0.98435000  1.0
  H  H23  1  0.28817000  0.21141000  0.90833000  1.0
  H  H24  1  0.21583000  0.12480000  0.09572000  1.0
  H  H25  1  0.28772000  0.18586000  0.09968000  1.0
  H  H26  1  0.12754000  0.21773000  0.09837000  1.0
  H  H27  1  0.20072000  0.27887000  0.10089000  1.0
  H  H28  1  0.30355000  0.39196000  0.91366000  1.0
  H  H29  1  0.30414000  0.38341000  0.99102000  1.0
  H  H30  1  0.39254000  0.29079000  0.99014000  1.0
  H  H31  1  0.39273000  0.30031000  0.91239000  1.0
  H  H32  1  0.89030000  0.80025000  0.90472000  1.0
  H  H33  1  0.88707000  0.78742000  0.98468000  1.0
  H  H34  1  0.79782000  0.87945000  0.98602000  1.0
  H  H35  1  0.80122000  0.89127000  0.90624000  1.0
  H  H36  1  0.69433000  0.77571000  0.09161000  1.0
  H  H37  1  0.62249000  0.71411000  0.08807000  1.0
  H  H38  1  0.78222000  0.68236000  0.09048000  1.0
  H  H39  1  0.71057000  0.62227000  0.08529000  1.0
  H  H40  1  0.78911000  0.71246000  0.89676000  1.0
  H  H41  1  0.71613000  0.63928000  0.97016000  1.0
  H  H42  1  0.62635000  0.73045000  0.97275000  1.0
  H  H43  1  0.69899000  0.80328000  0.89907000  1.0
  H  H44  1  0.16249000  0.79308000  0.93681000  1.0
  H  H45  1  0.24690000  0.75688000  0.89623000  1.0
  H  H46  1  0.33384000  0.85281000  0.89386000  1.0
  H  H47  1  0.24894000  0.88754000  0.93558000  1.0
  H  H48  1  0.39399000  0.74380000  0.96085000  1.0
  H  H49  1  0.35285000  0.70257000  0.04962000  1.0
  H  H50  1  0.30558000  0.64786000  0.96411000  1.0
  H  H51  1  0.26435000  0.60802000  0.05289000  1.0
  H  H52  1  0.10172000  0.73519000  0.06501000  1.0
  H  H53  1  0.14268000  0.65922000  0.11240000  1.0
  H  H54  1  0.23166000  0.75335000  0.11008000  1.0
  H  H55  1  0.18983000  0.82927000  0.06353000  1.0
  H  H56  1  0.89898000  0.26784000  0.92950000  1.0
  H  H57  1  0.85424000  0.34358000  0.88467000  1.0
  H  H58  1  0.76846000  0.24749000  0.88613000  1.0
  H  H59  1  0.81208000  0.17217000  0.93262000  1.0
  H  H60  1  0.64886000  0.29774000  0.94603000  1.0
  H  H61  1  0.60567000  0.25661000  0.03474000  1.0
  H  H62  1  0.73536000  0.39229000  0.94620000  1.0
  H  H63  1  0.69277000  0.34943000  0.03496000  1.0
  H  H64  1  0.83889000  0.20531000  0.05776000  1.0
  H  H65  1  0.75580000  0.23918000  0.10115000  1.0
  H  H66  1  0.66655000  0.14641000  0.10235000  1.0
  H  H67  1  0.74973000  0.11099000  0.06071000  1.0
  C  C68  1  0.14162000  0.63500000  0.00331000  1.0
  C  C69  1  0.90834000  0.41156000  0.17566000  1.0
  C  C70  1  0.14551000  0.36485000  0.00053000  1.0
  C  C71  1  0.86062000  0.36584000  0.99048000  1.0
  C  C72  1  0.09110000  0.59324000  0.81286000  1.0
  C  C73  1  0.86086000  0.64323000  0.98864000  1.0
  C  C74  1  0.36133000  0.14274000  0.99654000  1.0
  C  C75  1  0.58395000  0.09394000  0.81148000  1.0
  C  C76  1  0.35583000  0.86327000  0.99801000  1.0
  C  C77  1  0.64349000  0.86456000  0.99198000  1.0
  C  C78  1  0.41959000  0.91300000  0.17531000  1.0
  C  C79  1  0.64691000  0.13949000  0.99242000  1.0
  C  C80  1  0.38258000  0.87491000  0.25062000  1.0
  C  C81  1  0.43111000  0.85484000  0.28907000  1.0
  C  C82  1  0.39517000  0.81982000  0.35884000  1.0
  C  C83  1  0.30972000  0.80329000  0.39259000  1.0
  C  C84  1  0.26190000  0.82380000  0.35271000  1.0
  C  C85  1  0.29784000  0.85925000  0.28287000  1.0
  C  C86  1  0.27378000  0.76763000  0.46352000  1.0
  C  C87  1  0.24312000  0.73695000  0.52495000  1.0
  C  C88  1  0.20600000  0.70166000  0.59583000  1.0
  C  C89  1  0.25241000  0.68134000  0.63685000  1.0
  C  C90  1  0.21500000  0.64646000  0.70663000  1.0
  C  C91  1  0.13014000  0.63082000  0.73764000  1.0
  C  C92  1  0.08300000  0.65050000  0.69803000  1.0
  C  C93  1  0.12040000  0.68532000  0.62837000  1.0
  C  C94  1  0.62477000  0.13179000  0.73660000  1.0
  C  C95  1  0.64547000  0.08500000  0.70069000  1.0
  C  C96  1  0.68391000  0.12066000  0.63121000  1.0
  C  C97  1  0.70302000  0.20401000  0.59538000  1.0
  C  C98  1  0.68210000  0.25012000  0.63269000  1.0
  C  C99  1  0.64331000  0.21445000  0.70235000  1.0
  C  C100  1  0.74086000  0.23908000  0.52468000  1.0
  C  C101  1  0.77220000  0.26727000  0.46336000  1.0
  C  C102  1  0.80651000  0.30211000  0.39252000  1.0
  C  C103  1  0.82444000  0.25575000  0.35535000  1.0
  C  C104  1  0.85717000  0.29122000  0.28540000  1.0
  C  C105  1  0.87272000  0.37390000  0.25079000  1.0
  C  C106  1  0.85549000  0.42090000  0.28663000  1.0
  C  C107  1  0.82307000  0.38547000  0.35637000  1.0
  C  C108  1  0.19057000  0.26017000  0.96208000  1.0
  C  C109  1  0.24977000  0.19935000  0.96055000  1.0
  C  C110  1  0.30466000  0.20371000  0.99826000  1.0
  C  C111  1  0.24954000  0.18514000  0.07164000  1.0
  C  C112  1  0.19115000  0.24664000  0.07290000  1.0
  C  C113  1  0.20544000  0.30654000  0.00042000  1.0
  C  C114  1  0.29381000  0.34892000  0.96496000  1.0
  C  C115  1  0.35256000  0.28795000  0.96411000  1.0
  C  C116  1  0.84910000  0.78625000  0.95668000  1.0
  C  C117  1  0.78977000  0.84710000  0.95770000  1.0
  C  C118  1  0.70104000  0.80408000  0.99064000  1.0
  C  C119  1  0.68604000  0.74371000  0.06316000  1.0
  C  C120  1  0.74468000  0.68251000  0.06189000  1.0
  C  C121  1  0.80098000  0.70167000  0.98857000  1.0
  C  C122  1  0.74911000  0.69958000  0.94868000  1.0
  C  C123  1  0.68967000  0.75995000  0.95020000  1.0
  C  C124  1  0.21911000  0.77118000  0.93951000  1.0
  C  C125  1  0.27692000  0.83428000  0.93822000  1.0
  C  C126  1  0.29684000  0.80038000  0.00242000  1.0
  C  C127  1  0.33689000  0.72620000  0.00488000  1.0
  C  C128  1  0.27828000  0.66309000  0.00687000  1.0
  C  C129  1  0.19847000  0.69436000  0.00509000  1.0
  C  C130  1  0.15899000  0.71391000  0.06584000  1.0
  C  C131  1  0.21753000  0.77640000  0.06450000  1.0
  C  C132  1  0.84076000  0.28804000  0.93012000  1.0
  C  C133  1  0.78312000  0.22460000  0.93143000  1.0
  C  C134  1  0.70324000  0.19935000  0.99424000  1.0
  C  C135  1  0.66358000  0.27389000  0.99124000  1.0
  C  C136  1  0.72134000  0.33617000  0.99110000  1.0
  C  C137  1  0.80106000  0.30490000  0.99293000  1.0
  C  C138  1  0.78195000  0.22700000  0.05651000  1.0
  C  C139  1  0.72324000  0.16492000  0.05772000  1.0
  Cl  Cl140  1  0.15732000  0.80464000  0.39106000  1.0
  Cl  Cl141  1  0.35709000  0.69996000  0.59997000  1.0
  Cl  Cl142  1  0.70483000  0.35207000  0.59132000  1.0
  Cl  Cl143  1  0.80534000  0.15375000  0.39725000  1.0
  O  O144  1  0.00100000  0.50334000  0.99310000  1.0
  O  O145  1  0.17178000  0.60746000  0.95958000  1.0
  O  O146  1  0.91860000  0.48704000  0.14687000  1.0
  O  O147  1  0.07155000  0.33567000  0.03946000  1.0
  O  O148  1  0.06798000  0.61864000  0.04429000  1.0
  O  O149  1  0.17281000  0.43769000  0.96096000  1.0
  O  O150  1  0.92563000  0.36515000  0.14653000  1.0
  O  O151  1  0.90041000  0.33934000  0.02842000  1.0
  O  O152  1  0.01359000  0.57955000  0.83888000  1.0
  O  O153  1  0.86761000  0.43814000  0.94998000  1.0
  O  O154  1  0.13896000  0.57808000  0.84458000  1.0
  O  O155  1  0.90021000  0.63547000  0.02662000  1.0
  O  O156  1  0.86781000  0.60718000  0.95124000  1.0
  O  O157  1  0.50182000  0.00228000  0.99458000  1.0
  O  O158  1  0.32933000  0.06980000  0.03105000  1.0
  O  O159  1  0.56497000  0.14020000  0.84063000  1.0
  O  O160  1  0.42705000  0.87987000  0.95261000  1.0
  O  O161  1  0.43634000  0.16893000  0.96029000  1.0
  O  O162  1  0.33005000  0.89525000  0.03882000  1.0
  O  O163  1  0.57166000  0.01837000  0.84017000  1.0
  O  O164  1  0.60319000  0.87672000  0.95437000  1.0
  O  O165  1  0.49681000  0.92202000  0.14745000  1.0
  O  O166  1  0.64018000  0.89863000  0.03047000  1.0
  O  O167  1  0.37018000  0.93329000  0.14531000  1.0
  O  O168  1  0.61860000  0.16611000  0.94603000  1.0
  O  O169  1  0.63269000  0.06798000  0.03626000  1.0
