# generated using pymatgen
data_ZnH10C11N3O5
_symmetry_space_group_name_H-M   'P 1'
_cell_length_a   10.25580000
_cell_length_b   11.64390000
_cell_length_c   11.68510000
_cell_angle_alpha   65.06990000
_cell_angle_beta   77.25650000
_cell_angle_gamma   75.12650000
_symmetry_Int_Tables_number   1
_chemical_formula_structural   ZnH10C11N3O5
_chemical_formula_sum   'Zn4 H40 C44 N12 O20'
_cell_volume   1212.89127164
_cell_formula_units_Z   4
loop_
 _symmetry_equiv_pos_site_id
 _symmetry_equiv_pos_as_xyz
  1  'x, y, z'
loop_
 _atom_site_type_symbol
 _atom_site_label
 _atom_site_symmetry_multiplicity
 _atom_site_fract_x
 _atom_site_fract_y
 _atom_site_fract_z
 _atom_site_occupancy
  Zn  Zn0  1  0.56398000  0.51168000  0.28632000  1.0
  Zn  Zn1  1  0.43603000  0.48832000  0.71368000  1.0
  Zn  Zn2  1  0.94879000  0.19516000  0.98903000  1.0
  Zn  Zn3  1  0.05122000  0.80484000  0.01097000  1.0
  H  H4  1  0.76907000  0.67175000  0.04066000  1.0
  H  H5  1  0.23093000  0.32825000  0.95934000  1.0
  H  H6  1  0.45012000  0.72247000  0.83565000  1.0
  H  H7  1  0.54989000  0.27753000  0.16435000  1.0
  H  H8  1  0.78876000  0.82941000  0.80708000  1.0
  H  H9  1  0.21124000  0.17059000  0.19292000  1.0
  H  H10  1  0.64611000  0.88022000  0.72269000  1.0
  H  H11  1  0.35389000  0.11978000  0.27731000  1.0
  H  H12  1  0.70167000  0.68538000  0.67457000  1.0
  H  H13  1  0.29833000  0.31462000  0.32543000  1.0
  H  H14  1  0.84538000  0.76257000  0.62240000  1.0
  H  H15  1  0.15462000  0.23743000  0.37760000  1.0
  H  H16  1  0.72369000  0.45345000  0.83945000  1.0
  H  H17  1  0.27632000  0.54655000  0.16055000  1.0
  H  H18  1  0.05111000  0.64264000  0.78123000  1.0
  H  H19  1  0.94889000  0.35736000  0.21877000  1.0
  H  H20  1  0.36357000  0.12284000  0.63070000  1.0
  H  H21  1  0.63642000  0.87716000  0.36930000  1.0
  H  H22  1  0.66525000  0.10410000  0.31569000  1.0
  H  H23  1  0.33475000  0.89590000  0.68431000  1.0
  H  H24  1  0.87490000  0.33896000  0.51076000  1.0
  H  H25  1  0.12510000  0.66105000  0.48923000  1.0
  H  H26  1  0.93626000  0.73081000  0.35927000  1.0
  H  H27  1  0.06374000  0.26919000  0.64073000  1.0
  H  H28  1  0.81708000  0.19356000  0.43723000  1.0
  H  H29  1  0.18292000  0.80644000  0.56277000  1.0
  H  H30  1  0.13705000  0.91857000  0.33560000  1.0
  H  H31  1  0.86295000  0.08143000  0.66440000  1.0
  H  H32  1  0.62831000  0.98141000  0.16504000  1.0
  H  H33  1  0.37169000  0.01860000  0.83495000  1.0
  H  H34  1  0.56399000  0.13358000  0.77148000  1.0
  H  H35  1  0.43601000  0.86642000  0.22852000  1.0
  H  H36  1  0.15953000  0.20841000  0.80803000  1.0
  H  H37  1  0.84047000  0.79160000  0.19196000  1.0
  H  H38  1  0.14623000  0.05737000  0.89896000  1.0
  H  H39  1  0.85377000  0.94263000  0.10104000  1.0
  H  H40  1  0.33843000  0.67246000  0.28475000  1.0
  H  H41  1  0.66157000  0.32754000  0.71525000  1.0
  H  H42  1  0.40396000  0.63039000  0.41221000  1.0
  H  H43  1  0.59604000  0.36961000  0.58779000  1.0
  C  C44  1  0.67272000  0.67014000  0.01719000  1.0
  C  C45  1  0.32728000  0.32986000  0.98281000  1.0
  C  C46  1  0.50715000  0.69574000  0.91401000  1.0
  C  C47  1  0.49286000  0.30426000  0.08599000  1.0
  C  C48  1  0.71296000  0.79559000  0.78159000  1.0
  C  C49  1  0.28704000  0.20442000  0.21841000  1.0
  C  C50  1  0.77964000  0.71028000  0.70641000  1.0
  C  C51  1  0.22036000  0.28972000  0.29359000  1.0
  C  C52  1  0.82175000  0.47264000  0.84033000  1.0
  C  C53  1  0.17825000  0.52736000  0.15967000  1.0
  C  C54  1  0.98940000  0.56894000  0.81284000  1.0
  C  C55  1  0.01060000  0.43106000  0.18716000  1.0
  C  C56  1  0.53162000  0.25886000  0.44198000  1.0
  C  C57  1  0.46838000  0.74114000  0.55803000  1.0
  C  C58  1  0.51470000  0.12547000  0.47013000  1.0
  C  C59  1  0.48529000  0.87452000  0.52988000  1.0
  C  C60  1  0.42294000  0.06735000  0.57486000  1.0
  C  C61  1  0.57705000  0.93265000  0.42515000  1.0
  C  C62  1  0.59181000  0.05821000  0.39491000  1.0
  C  C63  1  0.40818000  0.94179000  0.60509000  1.0
  C  C64  1  0.77837000  0.57747000  0.34984000  1.0
  C  C65  1  0.22163000  0.42254000  0.65016000  1.0
  C  C66  1  0.89291000  0.53872000  0.42695000  1.0
  C  C67  1  0.10709000  0.46128000  0.57305000  1.0
  C  C68  1  0.93079000  0.40882000  0.50609000  1.0
  C  C69  1  0.06921000  0.59118000  0.49391000  1.0
  C  C70  1  0.96315000  0.62992000  0.42153000  1.0
  C  C71  1  0.03685000  0.37008000  0.57847000  1.0
  C  C72  1  0.94441000  0.13336000  0.23731000  1.0
  C  C73  1  0.05559000  0.86664000  0.76269000  1.0
  C  C74  1  0.97461000  0.06367000  0.37263000  1.0
  C  C75  1  0.02539000  0.93633000  0.62737000  1.0
  C  C76  1  0.89709000  0.10860000  0.46577000  1.0
  C  C77  1  0.10291000  0.89140000  0.53423000  1.0
  C  C78  1  0.07796000  0.95418000  0.40780000  1.0
  C  C79  1  0.92204000  0.04582000  0.59220000  1.0
  C  C80  1  0.72864000  0.13176000  0.92886000  1.0
  C  C81  1  0.27136000  0.86824000  0.07114000  1.0
  C  C82  1  0.61105000  0.06355000  0.96460000  1.0
  C  C83  1  0.38895000  0.93645000  0.03540000  1.0
  C  C84  1  0.57228000  0.98863000  0.09268000  1.0
  C  C85  1  0.42772000  0.01137000  0.90732000  1.0
  C  C86  1  0.53700000  0.07492000  0.87151000  1.0
  C  C87  1  0.46300000  0.92508000  0.12849000  1.0
  N  N88  1  0.57686000  0.60928000  0.09824000  1.0
  N  N89  1  0.42314000  0.39072000  0.90176000  1.0
  N  N90  1  0.47161000  0.62521000  0.03398000  1.0
  N  N91  1  0.52839000  0.37479000  0.96602000  1.0
  N  N92  1  0.63247000  0.72620000  0.89940000  1.0
  N  N93  1  0.36753000  0.27380000  0.10060000  1.0
  N  N94  1  0.92103000  0.38699000  0.90199000  1.0
  N  N95  1  0.07897000  0.61301000  0.09801000  1.0
  N  N96  1  0.02740000  0.44707000  0.88517000  1.0
  N  N97  1  0.97260000  0.55293000  0.11483000  1.0
  N  N98  1  0.86110000  0.58926000  0.78240000  1.0
  N  N99  1  0.13890000  0.41074000  0.21760000  1.0
  O  O100  1  0.72202000  0.48378000  0.36565000  1.0
  O  O101  1  0.27798000  0.51622000  0.63435000  1.0
  O  O102  1  0.74251000  0.69254000  0.27574000  1.0
  O  O103  1  0.25749000  0.30746000  0.72426000  1.0
  O  O104  1  0.53077000  0.33811000  0.32421000  1.0
  O  O105  1  0.46923000  0.66189000  0.67579000  1.0
  O  O106  1  0.54370000  0.28412000  0.53272000  1.0
  O  O107  1  0.45631000  0.71587000  0.46729000  1.0
  O  O108  1  0.03481000  0.10630000  0.15040000  1.0
  O  O109  1  0.96519000  0.89370000  0.84960000  1.0
  O  O110  1  0.83686000  0.21520000  0.21232000  1.0
  O  O111  1  0.16314000  0.78480000  0.78768000  1.0
  O  O112  1  0.80244000  0.09876000  0.01949000  1.0
  O  O113  1  0.19756000  0.90124000  0.98051000  1.0
  O  O114  1  0.75299000  0.21548000  0.82028000  1.0
  O  O115  1  0.24701000  0.78452000  0.17972000  1.0
  O  O116  1  0.38735000  0.59648000  0.35194000  1.0
  O  O117  1  0.61265000  0.40351000  0.64805000  1.0
  O  O118  1  0.09467000  0.14709000  0.86198000  1.0
  O  O119  1  0.90533000  0.85291000  0.13802000  1.0
