# generated using pymatgen
data_AlH27C45(SO4)6
_symmetry_space_group_name_H-M   'P 1'
_cell_length_a   4.30924000
_cell_length_b   23.31130000
_cell_length_c   23.33920000
_cell_angle_alpha   60.13700000
_cell_angle_beta   88.33810000
_cell_angle_gamma   88.64890000
_symmetry_Int_Tables_number   1
_chemical_formula_structural   AlH27C45(SO4)6
_chemical_formula_sum   'Al1 H27 C45 S6 O24'
_cell_volume   2032.23915045
_cell_formula_units_Z   1
loop_
 _symmetry_equiv_pos_site_id
 _symmetry_equiv_pos_as_xyz
  1  'x, y, z'
loop_
 _atom_site_type_symbol
 _atom_site_label
 _atom_site_symmetry_multiplicity
 _atom_site_fract_x
 _atom_site_fract_y
 _atom_site_fract_z
 _atom_site_occupancy
  Al  Al0  1  0.84828000  0.50031000  0.50073000  1.0
  H  H1  1  0.49570000  0.33546000  0.67030000  1.0
  H  H2  1  0.57974000  0.21633000  0.74253000  1.0
  H  H3  1  0.27714000  0.97724000  0.84802000  1.0
  H  H4  1  0.36331000  0.73665000  0.18547000  1.0
  H  H5  1  0.77226000  0.75388000  0.11524000  1.0
  H  H6  1  0.81656000  0.82103000  0.99474000  1.0
  H  H7  1  0.57129000  0.88816000  0.90162000  1.0
  H  H8  1  0.50917000  0.49560000  0.33500000  1.0
  H  H9  1  0.58922000  0.54207000  0.21571000  1.0
  H  H10  1  0.28643000  0.67609000  0.97768000  1.0
  H  H11  1  0.30933000  0.58219000  0.73571000  1.0
  H  H12  1  0.74252000  0.62906000  0.75294000  1.0
  H  H13  1  0.79689000  0.68225000  0.82007000  1.0
  H  H14  1  0.54823000  0.71108000  0.88773000  1.0
  H  H15  1  0.50742000  0.66902000  0.49629000  1.0
  H  H16  1  0.58658000  0.74115000  0.54335000  1.0
  H  H17  1  0.26336000  0.84894000  0.67822000  1.0
  H  H18  1  0.38670000  0.18441000  0.57997000  1.0
  H  H19  1  0.79358000  0.11527000  0.63132000  1.0
  H  H20  1  0.83752000  0.99448000  0.68453000  1.0
  H  H21  1  0.55813000  0.90164000  0.71111000  1.0
  H  H22  1  0.77378000  0.45116000  0.69383000  1.0
  H  H23  1  0.84759000  0.35865000  0.44940000  1.0
  H  H24  1  0.81597000  0.69276000  0.36023000  1.0
  H  H25  1  0.62727000  0.86848000  0.55549000  1.0
  H  H26  1  0.63929000  0.08150000  0.86684000  1.0
  H  H27  1  0.67298000  0.55310000  0.08126000  1.0
  C  C28  1  0.36017000  0.40175000  0.54239000  1.0
  C  C29  1  0.33809000  0.54255000  0.55722000  1.0
  C  C30  1  0.36053000  0.55723000  0.40223000  1.0
  C  C31  1  0.47574000  0.30219000  0.65039000  1.0
  C  C32  1  0.51811000  0.23450000  0.69159000  1.0
  C  C33  1  0.38118000  0.07570000  0.77145000  1.0
  C  C34  1  0.39924000  0.00688000  0.80105000  1.0
  C  C35  1  0.37318000  0.65764000  0.28554000  1.0
  C  C36  1  0.40628000  0.68388000  0.21743000  1.0
  C  C37  1  0.66387000  0.73671000  0.08494000  1.0
  C  C38  1  0.68740000  0.77496000  0.01663000  1.0
  C  C39  1  0.40669000  0.32836000  0.58367000  1.0
  C  C40  1  0.48497000  0.19046000  0.66765000  1.0
  C  C41  1  0.51522000  0.11743000  0.70819000  1.0
  C  C42  1  0.55835000  0.97587000  0.77067000  1.0
  C  C43  1  0.56581000  0.90303000  0.80280000  1.0
  C  C44  1  0.56780000  0.86405000  0.87185000  1.0
  C  C45  1  0.48181000  0.54874000  0.30203000  1.0
  C  C46  1  0.52192000  0.57503000  0.23423000  1.0
  C  C47  1  0.38581000  0.65413000  0.07578000  1.0
  C  C48  1  0.40209000  0.69335000  0.00705000  1.0
  C  C49  1  0.32706000  0.56032000  0.65689000  1.0
  C  C50  1  0.36036000  0.60187000  0.68326000  1.0
  C  C51  1  0.63681000  0.67762000  0.73643000  1.0
  C  C52  1  0.66557000  0.70754000  0.77461000  1.0
  C  C53  1  0.40554000  0.58940000  0.32874000  1.0
  C  C54  1  0.47978000  0.64297000  0.19058000  1.0
  C  C55  1  0.51020000  0.67539000  0.11756000  1.0
  C  C56  1  0.55191000  0.75438000  0.97596000  1.0
  C  C57  1  0.56126000  0.79487000  0.90317000  1.0
  C  C58  1  0.55462000  0.76485000  0.86399000  1.0
  C  C59  1  0.46630000  0.64992000  0.54903000  1.0
  C  C60  1  0.50657000  0.69105000  0.57551000  1.0
  C  C61  1  0.35624000  0.77178000  0.65546000  1.0
  C  C62  1  0.37779000  0.80128000  0.69462000  1.0
  C  C63  1  0.38594000  0.28478000  0.55889000  1.0
  C  C64  1  0.42063000  0.21675000  0.60046000  1.0
  C  C65  1  0.67856000  0.08488000  0.67909000  1.0
  C  C66  1  0.70226000  0.01651000  0.70904000  1.0
  C  C67  1  0.37470000  0.58416000  0.58908000  1.0
  C  C68  1  0.44868000  0.66796000  0.64293000  1.0
  C  C69  1  0.48097000  0.70797000  0.67578000  1.0
  C  C70  1  0.53306000  0.77015000  0.75463000  1.0
  C  C71  1  0.55209000  0.80258000  0.79492000  1.0
  C  C72  1  0.56004000  0.87171000  0.76488000  1.0
  S  S73  1  0.21719000  0.47758000  0.71419000  1.0
  S  S74  1  0.29711000  0.31126000  0.47517000  1.0
  S  S75  1  0.26705000  0.71475000  0.31267000  1.0
  S  S76  1  0.16767000  0.82253000  0.57890000  1.0
  S  S77  1  0.18009000  0.10355000  0.82123000  1.0
  S  S78  1  0.20237000  0.57652000  0.10348000  1.0
  O  O79  1  0.57631000  0.56488000  0.43394000  1.0
  O  O80  1  0.58230000  0.43381000  0.50273000  1.0
  O  O81  1  0.56094000  0.50266000  0.56471000  1.0
  O  O82  1  0.11548000  0.52346000  0.42566000  1.0
  O  O83  1  0.09388000  0.55271000  0.52427000  1.0
  O  O84  1  0.10863000  0.42479000  0.55280000  1.0
  O  O85  1  0.48790000  0.43376000  0.72861000  1.0
  O  O86  1  0.06157000  0.47715000  0.76965000  1.0
  O  O87  1  0.00158000  0.45975000  0.67372000  1.0
  O  O88  1  0.57177000  0.34007000  0.43280000  1.0
  O  O89  1  0.15673000  0.25716000  0.47301000  1.0
  O  O90  1  0.07218000  0.37032000  0.45686000  1.0
  O  O91  1  0.53381000  0.72812000  0.34131000  1.0
  O  O92  1  0.11983000  0.77100000  0.25904000  1.0
  O  O93  1  0.04412000  0.67405000  0.37191000  1.0
  O  O94  1  0.43464000  0.86637000  0.53192000  1.0
  O  O95  1  0.04107000  0.78511000  0.55174000  1.0
  O  O96  1  0.94675000  0.86582000  0.58911000  1.0
  O  O97  1  0.43843000  0.10713000  0.86467000  1.0
  O  O98  1  0.04452000  0.16813000  0.78305000  1.0
  O  O99  1  0.96382000  0.05098000  0.86493000  1.0
  O  O100  1  0.47383000  0.52969000  0.10686000  1.0
  O  O101  1  0.06260000  0.55028000  0.16804000  1.0
  O  O102  1  0.99324000  0.58512000  0.05097000  1.0
